# generated using pymatgen
data_ZrScNbPdRh
_symmetry_space_group_name_H-M   'P 1'
_cell_length_a   16.55555334
_cell_length_b   16.55417556
_cell_length_c   16.55548657
_cell_angle_alpha   90.01024822
_cell_angle_beta   90.03697716
_cell_angle_gamma   90.01529041
_symmetry_Int_Tables_number   1
_chemical_formula_structural   ZrScNbPdRh
_chemical_formula_sum   'Zr50 Sc50 Nb50 Pd50 Rh50'
_cell_volume   4537.25401793
_cell_formula_units_Z   50
loop_
 _symmetry_equiv_pos_site_id
 _symmetry_equiv_pos_as_xyz
  1  'x, y, z'
loop_
 _atom_site_type_symbol
 _atom_site_label
 _atom_site_symmetry_multiplicity
 _atom_site_fract_x
 _atom_site_fract_y
 _atom_site_fract_z
 _atom_site_occupancy
  Zr  Zr0  1  0.10786961  0.09498251  0.70312238  1
  Zr  Zr1  1  0.29498894  0.90528940  0.09655213  1
  Zr  Zr2  1  0.70267030  0.69757684  0.51499632  1
  Zr  Zr3  1  0.30892064  0.69185917  0.30351022  1
  Zr  Zr4  1  0.29947620  0.50775184  0.49064490  1
  Zr  Zr5  1  0.70064748  0.88605364  0.69844975  1
  Zr  Zr6  1  0.10626709  0.70153368  0.89863376  1
  Zr  Zr7  1  0.09432773  0.90783435  0.70194934  1
  Zr  Zr8  1  0.30294320  0.50256824  0.89442132  1
  Zr  Zr9  1  0.30870280  0.70208639  0.09533155  1
  Zr  Zr10  1  0.90747666  0.30324339  0.70362391  1
  Zr  Zr11  1  0.49601734  0.09984473  0.29636427  1
  Zr  Zr12  1  0.69635040  0.69371124  0.09680454  1
  Zr  Zr13  1  0.29723914  0.49690509  0.70579887  1
  Zr  Zr14  1  0.89949721  0.49927796  0.10469097  1
  Zr  Zr15  1  0.69104779  0.89801578  0.50212422  1
  Zr  Zr16  1  0.69686222  0.30296127  0.10450765  1
  Zr  Zr17  1  0.50556582  0.50046386  0.69994794  1
  Zr  Zr18  1  0.69809512  0.69726911  0.70338950  1
  Zr  Zr19  1  0.09783326  0.71033738  0.70324563  1
  Zr  Zr20  1  0.89707396  0.10457397  0.90198918  1
  Zr  Zr21  1  0.30312507  0.90840443  0.29889685  1
  Zr  Zr22  1  0.30008385  0.09927542  0.50146894  1
  Zr  Zr23  1  0.89916088  0.70206864  0.90145754  1
  Zr  Zr24  1  0.69905423  0.89212604  0.09864867  1
  Zr  Zr25  1  0.29815688  0.49071263  0.09038810  1
  Zr  Zr26  1  0.08930094  0.30276272  0.89839414  1
  Zr  Zr27  1  0.89368058  0.69480073  0.09896071  1
  Zr  Zr28  1  0.50437221  0.50394100  0.09628643  1
  Zr  Zr29  1  0.70371215  0.29659923  0.29706654  1
  Zr  Zr30  1  0.10270631  0.50097796  0.49851253  1
  Zr  Zr31  1  0.69834173  0.51203116  0.69660216  1
  Zr  Zr32  1  0.50543991  0.29872764  0.50172859  1
  Zr  Zr33  1  0.70021051  0.29393694  0.90210925  1
  Zr  Zr34  1  0.49172021  0.49768066  0.89791307  1
  Zr  Zr35  1  0.10186352  0.70369230  0.49929775  1
  Zr  Zr36  1  0.50121334  0.69886740  0.48645878  1
  Zr  Zr37  1  0.50231303  0.11093042  0.09950375  1
  Zr  Zr38  1  0.09857648  0.29966943  0.29302485  1
  Zr  Zr39  1  0.08504439  0.10273165  0.30072994  1
  Zr  Zr40  1  0.90410633  0.90259373  0.70724094  1
  Zr  Zr41  1  0.90094363  0.70269524  0.29279026  1
  Zr  Zr42  1  0.09244087  0.90494533  0.29684657  1
  Zr  Zr43  1  0.69638412  0.70013777  0.28550756  1
  Zr  Zr44  1  0.30270911  0.10077195  0.10524517  1
  Zr  Zr45  1  0.09746813  0.90632631  0.89878943  1
  Zr  Zr46  1  0.49360806  0.09461360  0.50825182  1
  Zr  Zr47  1  0.10656886  0.90384932  0.09495212  1
  Zr  Zr48  1  0.70223441  0.90336349  0.30670064  1
  Zr  Zr49  1  0.50387260  0.89143718  0.30970479  1
  Sc  Sc50  1  0.89410687  0.49532912  0.50233287  1
  Sc  Sc51  1  0.50993695  0.29980246  0.29046733  1
  Sc  Sc52  1  0.30172099  0.69932888  0.89993851  1
  Sc  Sc53  1  0.29664090  0.09715654  0.30201511  1
  Sc  Sc54  1  0.10491382  0.49860741  0.90454082  1
  Sc  Sc55  1  0.70112737  0.70361675  0.90210546  1
  Sc  Sc56  1  0.89470352  0.90260478  0.89767153  1
  Sc  Sc57  1  0.50900565  0.10366688  0.89471564  1
  Sc  Sc58  1  0.30300642  0.10224103  0.69776527  1
  Sc  Sc59  1  0.68509600  0.50220201  0.90172446  1
  Sc  Sc60  1  0.90638865  0.90170557  0.50187975  1
  Sc  Sc61  1  0.10087759  0.10032672  0.50625586  1
  Sc  Sc62  1  0.89889928  0.10325800  0.49666307  1
  Sc  Sc63  1  0.10248604  0.90487103  0.51183032  1
  Sc  Sc64  1  0.09725758  0.09089081  0.10167473  1
  Sc  Sc65  1  0.50459922  0.70721728  0.70765379  1
  Sc  Sc66  1  0.30297002  0.10578595  0.89216175  1
  Sc  Sc67  1  0.09607982  0.70183508  0.30025079  1
  Sc  Sc68  1  0.69257529  0.29091111  0.69413717  1
  Sc  Sc69  1  0.88335115  0.70696283  0.69907153  1
  Sc  Sc70  1  0.30187414  0.90596567  0.70182564  1
  Sc  Sc71  1  0.90021635  0.10157222  0.70017394  1
  Sc  Sc72  1  0.29593833  0.29746536  0.70350343  1
  Sc  Sc73  1  0.90862610  0.49348010  0.90813135  1
  Sc  Sc74  1  0.29433040  0.28903591  0.29188035  1
  Sc  Sc75  1  0.09936419  0.48581909  0.70570162  1
  Sc  Sc76  1  0.50165767  0.89956562  0.89467370  1
  Sc  Sc77  1  0.29815131  0.70673835  0.71092003  1
  Sc  Sc78  1  0.70503923  0.10176362  0.50143764  1
  Sc  Sc79  1  0.30104500  0.50641268  0.29518277  1
  Sc  Sc80  1  0.70010077  0.29994819  0.50179243  1
  Sc  Sc81  1  0.51159889  0.50003284  0.49518462  1
  Sc  Sc82  1  0.10356824  0.29769711  0.69895529  1
  Sc  Sc83  1  0.29998602  0.89612253  0.90286723  1
  Sc  Sc84  1  0.90139116  0.90005976  0.10215494  1
  Sc  Sc85  1  0.90184083  0.29647100  0.90630877  1
  Sc  Sc86  1  0.50232206  0.89191128  0.09955671  1
  Sc  Sc87  1  0.69703040  0.10391024  0.70193664  1
  Sc  Sc88  1  0.90118104  0.10565773  0.10116515  1
  Sc  Sc89  1  0.69639493  0.48650402  0.29650602  1
  Sc  Sc90  1  0.50017262  0.29854121  0.89601791  1
  Sc  Sc91  1  0.70066514  0.10815085  0.09222541  1
  Sc  Sc92  1  0.30979563  0.30842005  0.89610393  1
  Sc  Sc93  1  0.89464770  0.28855529  0.29753461  1
  Sc  Sc94  1  0.09965025  0.29282236  0.50512673  1
  Sc  Sc95  1  0.70179397  0.90606181  0.90433000  1
  Sc  Sc96  1  0.50165306  0.90405126  0.70071399  1
  Sc  Sc97  1  0.89831296  0.29091130  0.50075799  1
  Sc  Sc98  1  0.50325527  0.29467460  0.70016865  1
  Sc  Sc99  1  0.69283165  0.49653348  0.50004433  1
  Nb  Nb100  1  0.30040048  0.29742155  0.09932494  1
  Nb  Nb101  1  0.70609556  0.10171145  0.30278655  1
  Nb  Nb102  1  0.49741434  0.50159321  0.29671599  1
  Nb  Nb103  1  0.89887639  0.50278995  0.70277789  1
  Nb  Nb104  1  0.49581008  0.69412700  0.90930774  1
  Nb  Nb105  1  0.50453021  0.69547652  0.10883225  1
  Nb  Nb106  1  0.89807781  0.50056691  0.30038132  1
  Nb  Nb107  1  0.49861282  0.10419557  0.69982077  1
  Nb  Nb108  1  0.70138052  0.49758014  0.10061746  1
  Nb  Nb109  1  0.30757827  0.90504998  0.49802439  1
  Nb  Nb110  1  0.89670119  0.30365109  0.09692611  1
  Nb  Nb111  1  0.89996026  0.90703934  0.30454539  1
  Nb  Nb112  1  0.10041059  0.10070994  0.90666649  1
  Nb  Nb113  1  0.49820650  0.68690170  0.28270708  1
  Nb  Nb114  1  0.89857644  0.69629509  0.49785695  1
  Nb  Nb115  1  0.49465334  0.29630212  0.10008432  1
  Nb  Nb116  1  0.10080096  0.49246001  0.10668701  1
  Nb  Nb117  1  0.09953168  0.49753082  0.29657098  1
  Nb  Nb118  1  0.10072281  0.70012774  0.09795021  1
  Nb  Nb119  1  0.89261128  0.09791675  0.30461825  1
  Nb  Nb120  1  0.29820854  0.69738863  0.49708312  1
  Nb  Nb121  1  0.10771828  0.31342702  0.10432723  1
  Nb  Nb122  1  0.49731205  0.89926751  0.50282057  1
  Nb  Nb123  1  0.70292544  0.10542318  0.90330028  1
  Nb  Nb124  1  0.30146691  0.30102088  0.49587535  1
  Nb  Nb125  1  0.00205001  0.40280666  0.39377274  1
  Nb  Nb126  1  0.19766261  0.20642736  0.00415678  1
  Nb  Nb127  1  -0.00205857  0.60032284  0.60223781  1
  Nb  Nb128  1  0.39775847  0.79935068  0.59052106  1
  Nb  Nb129  1  0.00487110  0.79667338  0.00148061  1
  Nb  Nb130  1  0.79851697  0.00376805  0.20772727  1
  Nb  Nb131  1  0.39727502  0.40353804  0.59320152  1
  Nb  Nb132  1  0.60698675  0.00189445  0.20298012  1
  Nb  Nb133  1  0.80257449  0.60220820  0.39547835  1
  Nb  Nb134  1  0.20031800  0.39882448  0.39544722  1
  Nb  Nb135  1  0.79902636  0.40219345  0.79596075  1
  Nb  Nb136  1  0.40208690  0.00457231  0.00139519  1
  Nb  Nb137  1  -0.00536974  0.59564110  0.39926210  1
  Nb  Nb138  1  0.20135666  0.79622524  0.20194854  1
  Nb  Nb139  1  0.19339594  0.59968468  0.19269587  1
  Nb  Nb140  1  0.20702260  0.80349652  0.40032333  1
  Nb  Nb141  1  0.39884571  0.39708404  0.39580141  1
  Nb  Nb142  1  0.40108768  0.39716514  0.19576450  1
  Nb  Nb143  1  0.60091823  0.19507319  0.39714163  1
  Nb  Nb144  1  0.79814896  -0.00509864  0.60216738  1
  Nb  Nb145  1  -0.00247657  0.60071150  0.79429361  1
  Nb  Nb146  1  0.19975966  0.60326924  0.60279317  1
  Nb  Nb147  1  0.80349961  0.79584598  0.40047962  1
  Nb  Nb148  1  0.39548384  0.60351916  0.59754342  1
  Nb  Nb149  1  0.80067178  0.40072953  0.61104541  1
  Pd  Pd150  1  0.59405622  0.39423360  0.00105210  1
  Pd  Pd151  1  0.00589727  0.60003920  -0.00287219  1
  Pd  Pd152  1  0.79740371  0.40238288  -0.00695222  1
  Pd  Pd153  1  -0.00529297  0.40209810  0.59253717  1
  Pd  Pd154  1  -0.01124850  0.39397490  0.20384018  1
  Pd  Pd155  1  0.00844513  0.20472761  0.01282034  1
  Pd  Pd156  1  0.00209628  0.19393675  0.60384562  1
  Pd  Pd157  1  0.20614092  0.40033499  0.59419439  1
  Pd  Pd158  1  0.41245147  -0.00610817  0.19388470  1
  Pd  Pd159  1  0.00330421  0.80434357  0.19182765  1
  Pd  Pd160  1  0.80440745  0.59178907  0.81361202  1
  Pd  Pd161  1  0.19310563  0.19039046  0.19407004  1
  Pd  Pd162  1  0.40383212  0.60775808  0.79302015  1
  Pd  Pd163  1  0.20427212  0.81034890  0.80126475  1
  Pd  Pd164  1  -0.00895166  0.79642690  0.60160629  1
  Pd  Pd165  1  0.39551665  0.20794993  0.60599513  1
  Pd  Pd166  1  0.40630391  0.80566540  -0.00387305  1
  Pd  Pd167  1  -0.00396955  0.20399751  0.19147347  1
  Pd  Pd168  1  0.59474156  0.00984034  0.39996334  1
  Pd  Pd169  1  0.80399311  0.39841796  0.40588615  1
  Pd  Pd170  1  0.00065148  0.80043043  0.40347260  1
  Pd  Pd171  1  0.59427729  0.00274780  0.00512780  1
  Pd  Pd172  1  0.00188115  0.00383647  0.41028607  1
  Pd  Pd173  1  0.21067704  0.80317489  0.59762470  1
  Pd  Pd174  1  0.19255299  -0.00222054  0.40289680  1
  Pd  Pd175  1  0.40143238  0.00278323  0.80476282  1
  Pd  Pd176  1  0.60667234  0.00279502  0.79732761  1
  Pd  Pd177  1  0.60453965  0.00338866  0.60660477  1
  Pd  Pd178  1  0.60044323  0.79839616  0.81011425  1
  Pd  Pd179  1  0.20069290  0.59885179  0.00347249  1
  Pd  Pd180  1  0.19409703  0.20242919  0.40202799  1
  Pd  Pd181  1  0.19990468  0.39282912  -0.01007103  1
  Pd  Pd182  1  0.00537457  0.59940649  0.20121442  1
  Pd  Pd183  1  0.60715428  0.78824922  0.39701760  1
  Pd  Pd184  1  0.79220557  0.00207807  0.79439043  1
  Pd  Pd185  1  0.19872732  0.20561625  0.80943966  1
  Pd  Pd186  1  0.59513423  0.79528569  -0.00535391  1
  Pd  Pd187  1  0.80292025  0.00305635  0.00897997  1
  Pd  Pd188  1  0.39929044  0.80407965  0.20067741  1
  Pd  Pd189  1  0.40589402  0.20594089  0.39210289  1
  Pd  Pd190  1  0.79941164  0.20669444  0.79581857  1
  Pd  Pd191  1  0.39575279  0.19794382  -0.00889555  1
  Pd  Pd192  1  0.60936592  0.60029639  0.39048889  1
  Pd  Pd193  1  0.39632089  0.79870141  0.39988769  1
  Pd  Pd194  1  0.20600384  -0.00082742  0.80549267  1
  Pd  Pd195  1  0.80378577  0.80952526  0.20246214  1
  Pd  Pd196  1  -0.00942429  -0.00431312  -0.00130203  1
  Pd  Pd197  1  0.79442812  0.59007154  -0.00666827  1
  Pd  Pd198  1  0.00315976  0.19364296  0.79689031  1
  Pd  Pd199  1  0.60658045  0.39579144  0.79455935  1
  Rh  Rh200  1  0.21150760  0.40709127  0.20604183  1
  Rh  Rh201  1  0.60247091  0.40119120  0.60462126  1
  Rh  Rh202  1  -0.00420295  0.40465392  0.80412326  1
  Rh  Rh203  1  0.60712913  0.58683681  0.20006528  1
  Rh  Rh204  1  0.79554662  0.80385891  0.80728867  1
  Rh  Rh205  1  0.40189951  0.79915773  0.79882040  1
  Rh  Rh206  1  0.00128135  0.39768270  0.00916252  1
  Rh  Rh207  1  0.80143163  0.19571991  0.19322183  1
  Rh  Rh208  1  -0.00035376  0.01138617  0.80714611  1
  Rh  Rh209  1  0.80093602  0.20441560  0.00478390  1
  Rh  Rh210  1  0.40633196  0.39612581  0.00445593  1
  Rh  Rh211  1  0.21257586  0.01658768  -0.00901338  1
  Rh  Rh212  1  0.59394305  0.40251385  0.19361812  1
  Rh  Rh213  1  0.60000162  0.20550868  -0.00345504  1
  Rh  Rh214  1  0.60145709  0.19609059  0.80156167  1
  Rh  Rh215  1  0.58632374  0.79528850  0.59873537  1
  Rh  Rh216  1  0.39884352  0.20659813  0.20501051  1
  Rh  Rh217  1  0.20638253  0.00098514  0.60017020  1
  Rh  Rh218  1  0.18868353  0.59594987  0.79157550  1
  Rh  Rh219  1  0.59445988  0.39079267  0.39486284  1
  Rh  Rh220  1  0.19297246  0.00234676  0.20812860  1
  Rh  Rh221  1  0.00001105  0.20379117  0.39998825  1
  Rh  Rh222  1  -0.01047362  0.00111704  0.19995254  1
  Rh  Rh223  1  0.59841306  0.19141846  0.59271312  1
  Rh  Rh224  1  0.80620009  0.81045492  0.59294543  1
  Rh  Rh225  1  0.39334240  0.58886677  0.18718244  1
  Rh  Rh226  1  0.80393251  0.59071511  0.59207841  1
  Rh  Rh227  1  0.80679160  0.80166278  0.00066659  1
  Rh  Rh228  1  0.40218705  0.60061294  0.00250738  1
  Rh  Rh229  1  0.40414365  0.39560508  0.78782871  1
  Rh  Rh230  1  0.79155852  0.58776535  0.20351185  1
  Rh  Rh231  1  0.80391467  -0.00650043  0.40650810  1
  Rh  Rh232  1  0.40524271  0.20041164  0.79571009  1
  Rh  Rh233  1  0.58783302  0.60712100  0.60130413  1
  Rh  Rh234  1  -0.00714566  0.00592211  0.60114823  1
  Rh  Rh235  1  0.59867613  0.60284794  -0.00124727  1
  Rh  Rh236  1  0.19856696  0.39455609  0.80693155  1
  Rh  Rh237  1  0.18801737  0.60466589  0.39209294  1
  Rh  Rh238  1  -0.00464197  0.79492627  0.80734338  1
  Rh  Rh239  1  0.79404629  0.20304091  0.40397885  1
  Rh  Rh240  1  0.59426858  0.60724033  0.80988548  1
  Rh  Rh241  1  0.60627104  0.19382810  0.20343981  1
  Rh  Rh242  1  0.80153374  0.19860642  0.60241077  1
  Rh  Rh243  1  0.59486511  0.80446228  0.20106701  1
  Rh  Rh244  1  0.19595700  0.79668229  0.00243199  1
  Rh  Rh245  1  0.80349689  0.39875474  0.19785348  1
  Rh  Rh246  1  0.40017454  -0.00576907  0.60532599  1
  Rh  Rh247  1  0.41176461  0.59226170  0.40211148  1
  Rh  Rh248  1  0.20453360  0.19840173  0.59889371  1
  Rh  Rh249  1  0.40402593  0.00263241  0.40092303  1
