# generated using pymatgen
data_ZrScNbPdRh
_symmetry_space_group_name_H-M   'P 1'
_cell_length_a   16.55954500
_cell_length_b   16.55580597
_cell_length_c   16.55611601
_cell_angle_alpha   90.00061260
_cell_angle_beta   90.03578776
_cell_angle_gamma   90.01258460
_symmetry_Int_Tables_number   1
_chemical_formula_structural   ZrScNbPdRh
_chemical_formula_sum   'Zr50 Sc50 Nb50 Pd50 Rh50'
_cell_volume   4538.96770943
_cell_formula_units_Z   50
loop_
 _symmetry_equiv_pos_site_id
 _symmetry_equiv_pos_as_xyz
  1  'x, y, z'
loop_
 _atom_site_type_symbol
 _atom_site_label
 _atom_site_symmetry_multiplicity
 _atom_site_fract_x
 _atom_site_fract_y
 _atom_site_fract_z
 _atom_site_occupancy
  Zr  Zr0  1  0.09773614  0.09992397  0.50426008  1
  Zr  Zr1  1  0.50129076  0.09632872  0.89458451  1
  Zr  Zr2  1  0.89729230  0.69305772  0.50039113  1
  Zr  Zr3  1  0.10326314  0.89353685  0.49972261  1
  Zr  Zr4  1  0.10015651  0.50570133  0.69069109  1
  Zr  Zr5  1  0.89517066  0.09701388  0.69950351  1
  Zr  Zr6  1  0.30193967  0.69860511  0.90102373  1
  Zr  Zr7  1  0.50369756  0.90042555  0.09087933  1
  Zr  Zr8  1  0.90636052  0.49858118  0.30274872  1
  Zr  Zr9  1  0.09220481  0.09007498  0.89971617  1
  Zr  Zr10  1  0.89873119  0.70298232  0.09753234  1
  Zr  Zr11  1  0.10291214  0.69585336  0.28582041  1
  Zr  Zr12  1  0.50021053  0.29909525  0.88922230  1
  Zr  Zr13  1  0.31150143  0.50453811  0.29477448  1
  Zr  Zr14  1  0.51093897  0.69293794  0.49976371  1
  Zr  Zr15  1  0.10588161  0.69553745  0.71341905  1
  Zr  Zr16  1  0.49733105  0.89806004  0.71199325  1
  Zr  Zr17  1  0.30437547  0.89788726  0.50268865  1
  Zr  Zr18  1  0.29667812  0.30087454  0.08413282  1
  Zr  Zr19  1  0.50220161  0.29349682  0.50988235  1
  Zr  Zr20  1  0.28566635  0.11099782  0.89700944  1
  Zr  Zr21  1  0.08632476  0.89371596  0.09813360  1
  Zr  Zr22  1  0.50428978  0.11263451  0.70505316  1
  Zr  Zr23  1  0.29445156  0.49499616  0.50117113  1
  Zr  Zr24  1  0.70293155  0.69791449  0.09204871  1
  Zr  Zr25  1  0.70022361  0.10058590  0.30342745  1
  Zr  Zr26  1  0.10957689  0.31211405  0.49552325  1
  Zr  Zr27  1  0.89883163  0.69940516  0.30852354  1
  Zr  Zr28  1  0.50054965  0.30164879  0.30549906  1
  Zr  Zr29  1  0.89066890  0.30436788  0.90133689  1
  Zr  Zr30  1  0.89713177  0.09903105  0.29713018  1
  Zr  Zr31  1  0.10042700  0.90245197  0.71746558  1
  Zr  Zr32  1  0.89984077  0.69260993  0.69886391  1
  Zr  Zr33  1  0.89687427  0.50274018  0.50313266  1
  Zr  Zr34  1  0.30273053  0.69562138  0.29961151  1
  Zr  Zr35  1  0.49478575  0.89953514  0.50055134  1
  Zr  Zr36  1  0.69767795  0.90202757  0.29965243  1
  Zr  Zr37  1  0.69497776  0.29229445  0.30141561  1
  Zr  Zr38  1  0.30206688  0.30532438  0.30545654  1
  Zr  Zr39  1  0.70383859  0.30631682  0.89655834  1
  Zr  Zr40  1  0.09260729  0.09584550  0.28996576  1
  Zr  Zr41  1  0.09870651  0.88922015  0.30298431  1
  Zr  Zr42  1  0.70314005  0.69731982  0.49588384  1
  Zr  Zr43  1  0.69976544  0.30745231  0.10572091  1
  Zr  Zr44  1  0.10357491  0.50732528  0.89834191  1
  Zr  Zr45  1  0.10510500  0.10019147  0.71080630  1
  Zr  Zr46  1  0.30421840  0.89419003  0.30426006  1
  Zr  Zr47  1  0.69724307  0.50218812  0.50494444  1
  Zr  Zr48  1  0.50209142  0.50254147  0.49686743  1
  Zr  Zr49  1  0.50300085  0.49969757  0.69573004  1
  Sc  Sc50  1  0.51433973  0.69795582  0.09772737  1
  Sc  Sc51  1  0.89047197  0.30346968  0.69112249  1
  Sc  Sc52  1  0.49821704  0.71200106  0.90010128  1
  Sc  Sc53  1  0.69903594  0.89924270  0.49993462  1
  Sc  Sc54  1  0.89878715  0.30656094  0.50209252  1
  Sc  Sc55  1  0.70212427  0.49191151  0.69901119  1
  Sc  Sc56  1  0.11677461  0.29334170  0.90255517  1
  Sc  Sc57  1  0.30424487  0.09667123  0.70997716  1
  Sc  Sc58  1  0.89963042  0.90410660  0.90005412  1
  Sc  Sc59  1  0.09497201  0.70288402  0.48661726  1
  Sc  Sc60  1  0.69491522  0.29895230  0.69850022  1
  Sc  Sc61  1  0.49798156  0.49066638  0.89572456  1
  Sc  Sc62  1  0.09261468  0.31150599  0.29830446  1
  Sc  Sc63  1  0.30214232  0.69954806  0.11015490  1
  Sc  Sc64  1  0.89367027  0.89343184  0.49749365  1
  Sc  Sc65  1  0.49012631  0.09347137  0.10115250  1
  Sc  Sc66  1  0.49670906  0.70217451  0.69980426  1
  Sc  Sc67  1  0.31557196  0.90246016  0.09830528  1
  Sc  Sc68  1  0.30516466  0.70586983  0.50575750  1
  Sc  Sc69  1  0.31622676  0.09994128  0.29577863  1
  Sc  Sc70  1  0.70161871  0.30170061  0.50128442  1
  Sc  Sc71  1  0.09435826  0.49897242  0.49886514  1
  Sc  Sc72  1  0.88863517  0.90005804  0.70886480  1
  Sc  Sc73  1  0.49512588  0.29595522  0.10054433  1
  Sc  Sc74  1  0.69920000  0.70954103  0.69474888  1
  Sc  Sc75  1  0.88839359  0.50492612  0.89384038  1
  Sc  Sc76  1  0.89469543  0.30726843  0.29888444  1
  Sc  Sc77  1  0.09217859  0.50500121  0.10541450  1
  Sc  Sc78  1  0.30266000  0.49258952  0.90384859  1
  Sc  Sc79  1  0.31024277  0.30395553  0.49496275  1
  Sc  Sc80  1  0.69068480  0.48570898  0.30040090  1
  Sc  Sc81  1  0.89789733  0.30044778  0.10061933  1
  Sc  Sc82  1  0.89353345  0.89572249  0.29506284  1
  Sc  Sc83  1  0.89166539  0.09743196  0.90549056  1
  Sc  Sc84  1  0.89067156  0.69964831  0.89920288  1
  Sc  Sc85  1  0.69713659  0.10572300  0.50130778  1
  Sc  Sc86  1  0.70631338  0.49773037  0.90281119  1
  Sc  Sc87  1  0.89864728  0.49973288  0.09963204  1
  Sc  Sc88  1  0.50632323  0.10157656  0.30245442  1
  Sc  Sc89  1  0.09501922  0.49901145  0.29760922  1
  Sc  Sc90  1  0.30825440  0.89228565  0.90147255  1
  Sc  Sc91  1  0.91053084  0.09190507  0.09818571  1
  Sc  Sc92  1  0.88853446  0.10376789  0.50817974  1
  Sc  Sc93  1  0.09846078  0.30382465  0.68657483  1
  Sc  Sc94  1  0.30467006  0.30301780  0.89864022  1
  Sc  Sc95  1  0.30599422  0.30144347  0.69907566  1
  Sc  Sc96  1  0.09678962  0.29854847  0.09330387  1
  Sc  Sc97  1  0.70238075  0.89517895  0.10050211  1
  Sc  Sc98  1  0.70660446  0.09432070  0.10093910  1
  Sc  Sc99  1  0.70151517  0.90539336  0.90005535  1
  Nb  Nb100  1  0.30212681  0.88850004  0.69454934  1
  Nb  Nb101  1  0.69279616  0.50271089  0.09856531  1
  Nb  Nb102  1  0.50719897  0.30361162  0.70381698  1
  Nb  Nb103  1  0.50292871  0.89912713  0.29688649  1
  Nb  Nb104  1  0.10527702  0.70682232  0.90959843  1
  Nb  Nb105  1  0.29263103  0.51713103  0.69930215  1
  Nb  Nb106  1  0.49656262  0.89817724  0.90468868  1
  Nb  Nb107  1  0.88942029  0.89735233  0.09281639  1
  Nb  Nb108  1  0.09848343  0.69735662  0.09565490  1
  Nb  Nb109  1  0.50176714  0.49943249  0.10849440  1
  Nb  Nb110  1  0.70294265  0.09528302  0.69953792  1
  Nb  Nb111  1  0.69979200  0.10557975  0.89588746  1
  Nb  Nb112  1  0.30394816  0.50002323  0.09939068  1
  Nb  Nb113  1  0.90515317  0.50145331  0.69294771  1
  Nb  Nb114  1  0.69982543  0.70454018  0.29812623  1
  Nb  Nb115  1  0.10351811  0.89889302  0.90222287  1
  Nb  Nb116  1  0.30383359  0.09784614  0.49970787  1
  Nb  Nb117  1  0.09822553  0.09408453  0.09952316  1
  Nb  Nb118  1  0.49392966  0.10140930  0.50584191  1
  Nb  Nb119  1  0.30205449  0.69627142  0.70313276  1
  Nb  Nb120  1  0.49601454  0.50603210  0.29971562  1
  Nb  Nb121  1  0.50223998  0.68940558  0.30517024  1
  Nb  Nb122  1  0.69884901  0.91102249  0.69767248  1
  Nb  Nb123  1  0.29509319  0.09910339  0.10103178  1
  Nb  Nb124  1  0.70115980  0.68990257  0.90254399  1
  Nb  Nb125  1  0.00300811  0.19715722  0.40075613  1
  Nb  Nb126  1  0.20452365  0.59936503  0.39406666  1
  Nb  Nb127  1  0.60088192  0.39941753  0.00591016  1
  Nb  Nb128  1  0.19911488  0.19324030  0.39674830  1
  Nb  Nb129  1  0.20641419  0.39956801  0.19310455  1
  Nb  Nb130  1  0.00278262  -0.00736401  0.60206715  1
  Nb  Nb131  1  0.00119494  0.80060704  0.60782357  1
  Nb  Nb132  1  0.20613281  0.19357654  0.59247482  1
  Nb  Nb133  1  -0.00064870  0.40086297  -0.01210468  1
  Nb  Nb134  1  0.60477173  0.20083777  -0.00496174  1
  Nb  Nb135  1  0.19709147  0.40951439  0.79134336  1
  Nb  Nb136  1  0.41607290  0.79813499  0.20762477  1
  Nb  Nb137  1  -0.00279279  0.20638105  0.80031836  1
  Nb  Nb138  1  0.40108898  0.59457828  0.00682739  1
  Nb  Nb139  1  0.20017669  0.60476767  0.00597389  1
  Nb  Nb140  1  0.60336827  0.60301178  0.80363020  1
  Nb  Nb141  1  0.59588415  0.00326713  0.60618063  1
  Nb  Nb142  1  0.20079337  0.00094113  0.19645094  1
  Nb  Nb143  1  0.20086552  0.19869468  0.19850298  1
  Nb  Nb144  1  0.00109432  0.40018597  0.79931318  1
  Nb  Nb145  1  0.19506147  -0.00356206  0.00320553  1
  Nb  Nb146  1  0.20086099  0.00521092  0.39929671  1
  Nb  Nb147  1  0.79230656  0.60130842  0.20133117  1
  Nb  Nb148  1  0.00049628  0.00177601  0.40369337  1
  Nb  Nb149  1  0.20351963  -0.00249715  0.60106168  1
  Pd  Pd150  1  -0.00296329  0.59715806  -0.00506044  1
  Pd  Pd151  1  -0.00517595  0.79610706  0.80481652  1
  Pd  Pd152  1  0.60604110  0.00666364  0.00022630  1
  Pd  Pd153  1  0.80281445  -0.00350796  0.19533197  1
  Pd  Pd154  1  0.59643012  0.39696288  0.40522609  1
  Pd  Pd155  1  0.00049790  0.20474418  -0.00769472  1
  Pd  Pd156  1  0.39795281  0.40516495  0.60528527  1
  Pd  Pd157  1  0.19369958  0.61267257  0.58566981  1
  Pd  Pd158  1  0.59675230  0.80836121  0.60163699  1
  Pd  Pd159  1  0.60852936  0.79675346  0.80613939  1
  Pd  Pd160  1  0.39999332  0.60275704  0.59592975  1
  Pd  Pd161  1  0.80678305  0.20658262  0.40335119  1
  Pd  Pd162  1  0.40358954  0.00408891  0.39528610  1
  Pd  Pd163  1  0.60799864  0.80305630  -0.01003702  1
  Pd  Pd164  1  -0.00324025  0.60033006  0.80781374  1
  Pd  Pd165  1  -0.00983476  0.79821060  0.19958358  1
  Pd  Pd166  1  0.59678197  0.00474961  0.41041994  1
  Pd  Pd167  1  0.20831426  0.80165840  0.01079443  1
  Pd  Pd168  1  0.59866635  0.00412348  0.19395608  1
  Pd  Pd169  1  0.80385078  0.80340606  0.60161306  1
  Pd  Pd170  1  -0.00830722  0.79936522  -0.01015267  1
  Pd  Pd171  1  0.00120508  0.19956785  0.60042897  1
  Pd  Pd172  1  0.80344590  -0.00087087  0.40635992  1
  Pd  Pd173  1  0.59731950  0.19166713  0.18961908  1
  Pd  Pd174  1  -0.00012976  0.20986357  0.20243860  1
  Pd  Pd175  1  0.20834166  0.80162173  0.80358542  1
  Pd  Pd176  1  0.80139778  0.20090700  0.79268510  1
  Pd  Pd177  1  0.60234555  -0.00154723  0.79986153  1
  Pd  Pd178  1  0.39074706  0.40744315  0.78822619  1
  Pd  Pd179  1  0.80360645  0.19698820  0.19458935  1
  Pd  Pd180  1  0.40805614  0.79087217  0.39842647  1
  Pd  Pd181  1  0.40813890  0.59961055  0.80851301  1
  Pd  Pd182  1  0.79084310  0.80101645  0.80452902  1
  Pd  Pd183  1  0.40184817  0.00180417  0.61129437  1
  Pd  Pd184  1  0.39960046  0.39252348  0.19495092  1
  Pd  Pd185  1  0.79041028  0.59752537  0.78920885  1
  Pd  Pd186  1  0.39311176  -0.00241121  0.80531810  1
  Pd  Pd187  1  0.39399825  0.19976654  0.60666517  1
  Pd  Pd188  1  0.38946072  0.00931823  -0.01182893  1
  Pd  Pd189  1  0.79645865  0.19615989  0.00898539  1
  Pd  Pd190  1  0.19301055  0.79537206  0.60500756  1
  Pd  Pd191  1  0.60688996  0.59856582  0.20850924  1
  Pd  Pd192  1  0.60065289  0.80058201  0.39980312  1
  Pd  Pd193  1  0.59964784  0.79880330  0.20010156  1
  Pd  Pd194  1  0.20880961  0.80922486  0.18955195  1
  Pd  Pd195  1  0.58985958  0.59017458  -0.01182020  1
  Pd  Pd196  1  0.78953123  0.58938541  0.38787426  1
  Pd  Pd197  1  0.39613232  0.20517708  0.19877735  1
  Pd  Pd198  1  0.80059601  0.40943637  0.20065956  1
  Pd  Pd199  1  0.40602460  0.19318556  -0.00549773  1
  Rh  Rh200  1  0.79597622  -0.00237491  0.59733388  1
  Rh  Rh201  1  0.80722917  0.40505344  0.78862448  1
  Rh  Rh202  1  -0.00083127  -0.00824245  -0.00108399  1
  Rh  Rh203  1  0.79300847  0.59897938  0.60605045  1
  Rh  Rh204  1  0.21308270  -0.01346400  0.80616468  1
  Rh  Rh205  1  0.79686392  0.80249951  -0.00732181  1
  Rh  Rh206  1  0.20572251  0.60012578  0.81087587  1
  Rh  Rh207  1  0.60875534  0.20245439  0.80196581  1
  Rh  Rh208  1  0.41412086  0.40581896  0.00684243  1
  Rh  Rh209  1  0.40972812  0.40352549  0.40401560  1
  Rh  Rh210  1  0.79206706  0.20292044  0.60090895  1
  Rh  Rh211  1  0.79735782  0.00307469  0.80508760  1
  Rh  Rh212  1  0.19584205  0.21727551  0.78547577  1
  Rh  Rh213  1  0.40601811  0.78949772  0.01181197  1
  Rh  Rh214  1  0.40264017  -0.00769465  0.20417888  1
  Rh  Rh215  1  0.80322902  0.59642847  0.00808825  1
  Rh  Rh216  1  0.19270135  0.18889367  0.00798383  1
  Rh  Rh217  1  -0.00482980  0.39729129  0.40501955  1
  Rh  Rh218  1  0.00640694  0.61085486  0.59713964  1
  Rh  Rh219  1  -0.01097483  0.00567670  0.79951714  1
  Rh  Rh220  1  0.59867100  0.39728448  0.59928574  1
  Rh  Rh221  1  0.41305982  0.60987570  0.19051310  1
  Rh  Rh222  1  0.59145949  0.39847375  0.19875791  1
  Rh  Rh223  1  0.59591056  0.19777180  0.40682619  1
  Rh  Rh224  1  0.39720901  0.20422182  0.79899054  1
  Rh  Rh225  1  0.40664734  0.79420625  0.60366986  1
  Rh  Rh226  1  0.79974164  0.40621567  0.00791960  1
  Rh  Rh227  1  0.79795742  0.40056940  0.40130655  1
  Rh  Rh228  1  0.18895609  0.41378706  0.00321952  1
  Rh  Rh229  1  -0.00493362  -0.01342819  0.20101227  1
  Rh  Rh230  1  0.40368954  0.19693071  0.40227041  1
  Rh  Rh231  1  0.60556905  0.60131338  0.61176601  1
  Rh  Rh232  1  0.60335577  0.19595302  0.60152601  1
  Rh  Rh233  1  0.00386190  0.39588578  0.18688932  1
  Rh  Rh234  1  0.60420642  0.40746406  0.80359959  1
  Rh  Rh235  1  -0.00495369  0.40224775  0.60014417  1
  Rh  Rh236  1  0.79811536  -0.00015861  0.00005951  1
  Rh  Rh237  1  0.39574499  0.79819659  0.79723270  1
  Rh  Rh238  1  -0.01094463  0.60611058  0.20084773  1
  Rh  Rh239  1  0.20548788  0.79071810  0.39826850  1
  Rh  Rh240  1  0.39584626  0.59938082  0.40930102  1
  Rh  Rh241  1  0.79794142  0.40214708  0.59869650  1
  Rh  Rh242  1  0.79811964  0.79446737  0.20042535  1
  Rh  Rh243  1  0.00847806  0.59804202  0.39747191  1
  Rh  Rh244  1  0.19667574  0.58988796  0.19750861  1
  Rh  Rh245  1  0.20228417  0.41006405  0.38725740  1
  Rh  Rh246  1  -0.00936822  0.80328627  0.40447217  1
  Rh  Rh247  1  0.60677270  0.59650525  0.39277782  1
  Rh  Rh248  1  0.79375677  0.80163118  0.39858786  1
  Rh  Rh249  1  0.21054917  0.39578706  0.60752657  1
