# generated using pymatgen
data_ZrScNbPdRh
_symmetry_space_group_name_H-M   'P 1'
_cell_length_a   16.55668506
_cell_length_b   16.55090106
_cell_length_c   16.55612587
_cell_angle_alpha   90.01572427
_cell_angle_beta   90.02134698
_cell_angle_gamma   89.99629486
_symmetry_Int_Tables_number   1
_chemical_formula_structural   ZrScNbPdRh
_chemical_formula_sum   'Zr50 Sc50 Nb50 Pd50 Rh50'
_cell_volume   4536.84249956
_cell_formula_units_Z   50
loop_
 _symmetry_equiv_pos_site_id
 _symmetry_equiv_pos_as_xyz
  1  'x, y, z'
loop_
 _atom_site_type_symbol
 _atom_site_label
 _atom_site_symmetry_multiplicity
 _atom_site_fract_x
 _atom_site_fract_y
 _atom_site_fract_z
 _atom_site_occupancy
  Zr  Zr0  1  0.90632188  0.89944820  0.69527506  1
  Zr  Zr1  1  0.89822989  0.90605822  0.09985751  1
  Zr  Zr2  1  0.90032020  0.50981654  0.49007248  1
  Zr  Zr3  1  0.70421310  0.69139356  0.09952330  1
  Zr  Zr4  1  0.69975233  0.70196725  0.70364916  1
  Zr  Zr5  1  0.29312131  0.70339117  0.09570063  1
  Zr  Zr6  1  0.10382918  0.50173603  0.10031384  1
  Zr  Zr7  1  0.49428859  0.69396528  0.69897386  1
  Zr  Zr8  1  0.49962735  0.28702055  0.29634507  1
  Zr  Zr9  1  0.69968532  0.69273682  0.89732806  1
  Zr  Zr10  1  0.09749895  0.90204946  0.69727762  1
  Zr  Zr11  1  0.89797471  0.28957978  0.10416774  1
  Zr  Zr12  1  0.69983357  0.29796841  0.30569561  1
  Zr  Zr13  1  0.90246913  0.10039334  0.50675008  1
  Zr  Zr14  1  0.49507956  0.30257653  0.10041338  1
  Zr  Zr15  1  0.70257575  0.09193415  0.89243194  1
  Zr  Zr16  1  0.29736963  0.30575932  0.09857547  1
  Zr  Zr17  1  0.49899665  0.90864397  0.50015745  1
  Zr  Zr18  1  0.49809026  0.69888405  0.49936403  1
  Zr  Zr19  1  0.90637051  0.90093697  0.90330734  1
  Zr  Zr20  1  0.70514061  0.30183535  0.90213663  1
  Zr  Zr21  1  0.10938684  0.30491269  0.49383252  1
  Zr  Zr22  1  0.30053726  0.69224913  0.51424057  1
  Zr  Zr23  1  0.49814629  0.70641567  0.11372952  1
  Zr  Zr24  1  0.29570786  0.29960516  0.30127264  1
  Zr  Zr25  1  0.90373413  0.30007970  0.90173677  1
  Zr  Zr26  1  0.90088291  0.89573908  0.50631517  1
  Zr  Zr27  1  0.09811472  0.09390121  0.69570052  1
  Zr  Zr28  1  0.30207828  0.29978265  0.49975601  1
  Zr  Zr29  1  0.70288995  0.49925906  0.29598024  1
  Zr  Zr30  1  0.70911448  0.09819357  0.10187375  1
  Zr  Zr31  1  0.10079131  0.29863072  0.29509232  1
  Zr  Zr32  1  0.70855008  0.50205458  0.71005983  1
  Zr  Zr33  1  0.49168269  0.49373484  0.70474348  1
  Zr  Zr34  1  0.49391375  0.90190125  0.29740028  1
  Zr  Zr35  1  0.10413265  0.70057315  0.29568690  1
  Zr  Zr36  1  0.89978462  0.69625114  0.30141341  1
  Zr  Zr37  1  0.31165487  0.90005216  0.91033232  1
  Zr  Zr38  1  0.30463014  0.09000066  0.30177773  1
  Zr  Zr39  1  0.29908231  0.90385350  0.49904583  1
  Zr  Zr40  1  0.09769214  0.90815433  0.88878334  1
  Zr  Zr41  1  0.29593481  0.70054991  0.29644271  1
  Zr  Zr42  1  0.10036232  0.10105791  0.30368186  1
  Zr  Zr43  1  0.09578700  0.49473763  0.90231177  1
  Zr  Zr44  1  0.29748593  0.30169851  0.90131841  1
  Zr  Zr45  1  0.49205398  0.30596725  0.89155840  1
  Zr  Zr46  1  0.70459193  0.89388444  0.11195482  1
  Zr  Zr47  1  0.90370312  0.50604266  0.70570807  1
  Zr  Zr48  1  0.49799239  0.50026472  0.09895080  1
  Zr  Zr49  1  0.70440975  0.30082999  0.10735925  1
  Sc  Sc50  1  0.49806220  0.10005709  0.49973073  1
  Sc  Sc51  1  0.70602087  0.69943164  0.50556688  1
  Sc  Sc52  1  0.30355428  0.89833643  0.09977458  1
  Sc  Sc53  1  0.09715586  0.90068986  0.49949707  1
  Sc  Sc54  1  0.70270109  0.10100333  0.69820924  1
  Sc  Sc55  1  0.50312071  0.50233970  0.48860580  1
  Sc  Sc56  1  0.30490122  0.09898609  0.50355328  1
  Sc  Sc57  1  0.89449596  0.50185120  0.09363659  1
  Sc  Sc58  1  0.28925856  0.49952384  0.50078710  1
  Sc  Sc59  1  0.31381613  0.30708118  0.69695385  1
  Sc  Sc60  1  0.10497942  0.30194967  0.69381334  1
  Sc  Sc61  1  0.49700315  0.10286773  0.11052972  1
  Sc  Sc62  1  0.89194312  0.29671793  0.29919962  1
  Sc  Sc63  1  0.89896047  0.90207010  0.29898190  1
  Sc  Sc64  1  0.70334905  0.49713913  0.48916905  1
  Sc  Sc65  1  0.10066544  0.69531752  0.09447248  1
  Sc  Sc66  1  0.89016485  0.29571920  0.50014549  1
  Sc  Sc67  1  0.89912144  0.70628993  0.50371612  1
  Sc  Sc68  1  0.10605838  0.29734350  0.09032029  1
  Sc  Sc69  1  0.69515609  0.90466273  0.70341098  1
  Sc  Sc70  1  0.68910220  0.10490030  0.50394258  1
  Sc  Sc71  1  0.91079401  0.69091356  0.90187889  1
  Sc  Sc72  1  0.89836615  0.09356918  0.90551032  1
  Sc  Sc73  1  0.69516550  0.69808553  0.28547476  1
  Sc  Sc74  1  0.70736492  0.29385517  0.69985011  1
  Sc  Sc75  1  0.49669470  0.28943200  0.50305934  1
  Sc  Sc76  1  0.50507953  0.49512700  0.90094500  1
  Sc  Sc77  1  0.69236402  0.10774730  0.30705450  1
  Sc  Sc78  1  0.89874459  0.50084660  0.30239376  1
  Sc  Sc79  1  0.29401868  0.49574566  0.09644228  1
  Sc  Sc80  1  0.89167549  0.29941002  0.69845179  1
  Sc  Sc81  1  0.69003979  0.90579573  0.51055933  1
  Sc  Sc82  1  0.90344468  0.50040899  0.89889910  1
  Sc  Sc83  1  0.90243105  0.11011783  0.30615580  1
  Sc  Sc84  1  0.30594975  0.09453030  0.89656773  1
  Sc  Sc85  1  0.50525192  0.70081500  0.89538526  1
  Sc  Sc86  1  0.10620747  0.70428682  0.70443639  1
  Sc  Sc87  1  0.29732641  0.09521870  0.09381799  1
  Sc  Sc88  1  0.09850745  0.70006473  0.49554763  1
  Sc  Sc89  1  0.30424391  0.09775220  0.69458431  1
  Sc  Sc90  1  0.29671471  0.50044653  0.89331287  1
  Sc  Sc91  1  0.09847180  0.50419911  0.30916131  1
  Sc  Sc92  1  0.10082543  0.69954461  0.90457413  1
  Sc  Sc93  1  0.10813063  0.50400558  0.70729946  1
  Sc  Sc94  1  0.49579006  0.10056481  0.69707489  1
  Sc  Sc95  1  0.28986185  0.50328370  0.29552385  1
  Sc  Sc96  1  0.10343565  0.89687370  0.08845861  1
  Sc  Sc97  1  0.29227101  0.89801762  0.69335632  1
  Sc  Sc98  1  0.50625331  0.90128698  0.70008958  1
  Sc  Sc99  1  0.10223722  0.11019717  0.09623906  1
  Nb  Nb100  1  0.09639462  0.10500087  0.50430759  1
  Nb  Nb101  1  0.10680881  0.89825589  0.29725591  1
  Nb  Nb102  1  0.69826920  0.89767046  0.89937407  1
  Nb  Nb103  1  0.70723128  0.50279802  0.91579688  1
  Nb  Nb104  1  0.50402173  0.50875568  0.29908640  1
  Nb  Nb105  1  0.30478170  0.52036665  0.69611623  1
  Nb  Nb106  1  0.90132767  0.10346580  0.70117443  1
  Nb  Nb107  1  0.90335664  0.70650192  0.09864764  1
  Nb  Nb108  1  0.09645898  0.50091860  0.50049664  1
  Nb  Nb109  1  0.10404439  0.10400472  0.89440596  1
  Nb  Nb110  1  0.50151385  0.30010492  0.70130512  1
  Nb  Nb111  1  0.90155503  0.09781933  0.10886116  1
  Nb  Nb112  1  0.30488196  0.70015902  0.89981348  1
  Nb  Nb113  1  0.49752972  0.09565931  0.89723927  1
  Nb  Nb114  1  0.28832131  0.89955919  0.30324030  1
  Nb  Nb115  1  0.69429743  0.29484395  0.50402991  1
  Nb  Nb116  1  0.69741689  0.90076083  0.30233298  1
  Nb  Nb117  1  0.49922779  0.89872416  0.09342637  1
  Nb  Nb118  1  0.30502446  0.68910627  0.70388368  1
  Nb  Nb119  1  0.49619536  0.69463143  0.30147782  1
  Nb  Nb120  1  0.10277199  0.29566154  0.89780718  1
  Nb  Nb121  1  0.50336088  0.90390182  0.90047494  1
  Nb  Nb122  1  0.50055433  0.09808437  0.30549573  1
  Nb  Nb123  1  0.89522356  0.70025701  0.69825342  1
  Nb  Nb124  1  0.69938377  0.49760474  0.09368217  1
  Nb  Nb125  1  0.59752937  -0.00257884  0.20240817  1
  Nb  Nb126  1  0.59894701  0.40486680  0.20295856  1
  Nb  Nb127  1  0.40579494  0.20053335  -0.00463488  1
  Nb  Nb128  1  0.00077695  0.40791582  0.59362144  1
  Nb  Nb129  1  0.60240876  0.80598426  0.00043859  1
  Nb  Nb130  1  0.59621551  0.19522442  -0.00484611  1
  Nb  Nb131  1  0.00457461  0.00052545  0.20092572  1
  Nb  Nb132  1  0.59381260  0.20115819  0.80488452  1
  Nb  Nb133  1  0.80259800  0.79905164  0.80289034  1
  Nb  Nb134  1  0.79908999  0.79948242  -0.00441951  1
  Nb  Nb135  1  0.40166438  0.40041916  0.39199002  1
  Nb  Nb136  1  0.59799649  -0.00214915  0.00259359  1
  Nb  Nb137  1  0.79606071  -0.00324376  0.40391881  1
  Nb  Nb138  1  -0.00060411  0.39675954  0.19829722  1
  Nb  Nb139  1  0.00443489  0.19701960  0.80035692  1
  Nb  Nb140  1  0.79089235  0.80700623  0.39664363  1
  Nb  Nb141  1  0.00260967  0.80477152  0.19980159  1
  Nb  Nb142  1  0.39717594  0.79639295  0.79965658  1
  Nb  Nb143  1  0.39841508  0.79836822  0.39620976  1
  Nb  Nb144  1  0.19771321  0.19943591  0.80177955  1
  Nb  Nb145  1  0.60072316  0.59164891  0.60472577  1
  Nb  Nb146  1  0.59572297  0.79955168  0.39391680  1
  Nb  Nb147  1  -0.00020528  0.59796203  0.60185248  1
  Nb  Nb148  1  0.60210154  0.39860523  0.60133633  1
  Nb  Nb149  1  0.39750204  0.60589758  -0.00056291  1
  Pd  Pd150  1  0.80262157  0.39520905  0.40266359  1
  Pd  Pd151  1  0.20644491  0.19018570  0.40351920  1
  Pd  Pd152  1  -0.00500396  0.39265362  0.39772092  1
  Pd  Pd153  1  0.20586925  0.79480034  0.40831174  1
  Pd  Pd154  1  0.20843270  0.80176288  0.80525963  1
  Pd  Pd155  1  0.19532941  0.60333215  0.80710017  1
  Pd  Pd156  1  0.19232322  -0.00261419  0.19202718  1
  Pd  Pd157  1  0.20029389  0.40815271  0.60751602  1
  Pd  Pd158  1  0.80612091  0.59497911  0.19650534  1
  Pd  Pd159  1  0.20557100  0.19599153  0.19724104  1
  Pd  Pd160  1  0.39801979  -0.01062990  0.79019801  1
  Pd  Pd161  1  0.40033957  -0.00300980  0.19558369  1
  Pd  Pd162  1  0.00775040  0.00923039  0.00644660  1
  Pd  Pd163  1  0.59080309  0.39179493  0.40008815  1
  Pd  Pd164  1  0.39109702  0.80566248  0.20559556  1
  Pd  Pd165  1  0.80167660  0.40233142  0.80680955  1
  Pd  Pd166  1  -0.00478282  0.80250467  0.39356358  1
  Pd  Pd167  1  -0.00229922  0.39802820  0.00879153  1
  Pd  Pd168  1  0.80008865  0.40477278  0.59288513  1
  Pd  Pd169  1  0.80696844  -0.00727362  0.79430907  1
  Pd  Pd170  1  0.40224039  0.40962054  0.20965661  1
  Pd  Pd171  1  0.79959318  0.59588201  0.59673934  1
  Pd  Pd172  1  0.00110110  0.39034107  0.78935314  1
  Pd  Pd173  1  0.38887276  0.59562470  0.40140888  1
  Pd  Pd174  1  -0.00150666  0.19322275  -0.00469800  1
  Pd  Pd175  1  0.40760796  0.40651070  0.58720644  1
  Pd  Pd176  1  0.19657732  0.80296050  -0.00801876  1
  Pd  Pd177  1  0.19665567  0.00148656  -0.00240395  1
  Pd  Pd178  1  0.80128176  0.01085680  0.21748022  1
  Pd  Pd179  1  0.20691663  0.19904524  0.60646706  1
  Pd  Pd180  1  0.39878136  0.80644845  0.60416966  1
  Pd  Pd181  1  0.61101059  0.60987516  0.40215920  1
  Pd  Pd182  1  0.60223861  0.39270593  0.00443062  1
  Pd  Pd183  1  -0.00368603  0.79244412  0.79876373  1
  Pd  Pd184  1  -0.00081455  0.21309031  0.60410371  1
  Pd  Pd185  1  0.61000598  0.39672654  0.79604441  1
  Pd  Pd186  1  -0.00272341  0.59793342  0.19616515  1
  Pd  Pd187  1  0.20722498  0.39660258  0.79072970  1
  Pd  Pd188  1  0.19383524  0.00683700  0.40959680  1
  Pd  Pd189  1  0.60136540  0.79403792  0.59622416  1
  Pd  Pd190  1  0.58950758  0.60707103  0.00466655  1
  Pd  Pd191  1  0.38986791  0.59440958  0.19336411  1
  Pd  Pd192  1  0.19638539  0.79612029  0.59828772  1
  Pd  Pd193  1  -0.00135747  0.20880634  0.40508946  1
  Pd  Pd194  1  0.59742868  0.59019080  0.79909347  1
  Pd  Pd195  1  -0.00324165  -0.00223814  0.39676330  1
  Pd  Pd196  1  0.38842751  0.19350424  0.19501247  1
  Pd  Pd197  1  0.79584862  0.00293634  0.59726725  1
  Pd  Pd198  1  0.79973882  0.19491725  -0.00387202  1
  Pd  Pd199  1  0.21051850  0.00226530  0.79750458  1
  Rh  Rh200  1  0.79448353  0.19259686  0.40801996  1
  Rh  Rh201  1  0.21193462  0.19474009  -0.00983104  1
  Rh  Rh202  1  0.40885935  0.58883999  0.59059146  1
  Rh  Rh203  1  0.20487107  0.40395603  0.39704082  1
  Rh  Rh204  1  0.19974269  0.60334854  0.40360895  1
  Rh  Rh205  1  0.79363285  0.61301444  0.39605840  1
  Rh  Rh206  1  0.59876647  0.20574407  0.61068084  1
  Rh  Rh207  1  0.18888971  0.60108820  0.60146056  1
  Rh  Rh208  1  0.59635765  0.00836544  0.60708700  1
  Rh  Rh209  1  0.59471682  0.20086570  0.40531082  1
  Rh  Rh210  1  0.80477349  0.19592896  0.80135426  1
  Rh  Rh211  1  0.79788060  0.19381613  0.20863545  1
  Rh  Rh212  1  0.40845377  0.00865515  0.00720625  1
  Rh  Rh213  1  0.19533460  0.00317280  0.59243544  1
  Rh  Rh214  1  0.00517561  0.60457943  0.79419366  1
  Rh  Rh215  1  0.39085521  0.40785009  0.79864470  1
  Rh  Rh216  1  0.00147725  0.20052378  0.19945373  1
  Rh  Rh217  1  0.00700495  0.78895982  0.60415105  1
  Rh  Rh218  1  0.00173053  0.59660602  0.00260169  1
  Rh  Rh219  1  0.79692793  0.19481771  0.59797794  1
  Rh  Rh220  1  0.59500161  0.80525127  0.20269299  1
  Rh  Rh221  1  -0.00230242  0.79962769  0.00444561  1
  Rh  Rh222  1  0.39759020  0.19980850  0.39911107  1
  Rh  Rh223  1  0.80085686  0.40476573  0.19676283  1
  Rh  Rh224  1  0.19885134  0.60000529  0.19719666  1
  Rh  Rh225  1  0.39361553  0.40559604  -0.00648004  1
  Rh  Rh226  1  0.19671718  0.40245184  -0.00365266  1
  Rh  Rh227  1  0.60155931  -0.00109125  0.39532679  1
  Rh  Rh228  1  0.41135385  0.79075532  -0.00825847  1
  Rh  Rh229  1  0.60450010  0.19734747  0.19624669  1
  Rh  Rh230  1  0.59872785  0.80370609  0.80370247  1
  Rh  Rh231  1  0.20552216  0.59726578  -0.00621222  1
  Rh  Rh232  1  0.59731763  0.00656745  0.79911751  1
  Rh  Rh233  1  0.80579369  0.60305872  0.81040875  1
  Rh  Rh234  1  0.40363141  0.60166293  0.81215006  1
  Rh  Rh235  1  0.00221399  0.00120866  0.59561964  1
  Rh  Rh236  1  0.19488295  0.80457760  0.19322421  1
  Rh  Rh237  1  0.80644775  0.39972199  0.00044965  1
  Rh  Rh238  1  0.80758751  0.60411750  -0.00098870  1
  Rh  Rh239  1  0.81107044  0.79459104  0.20304984  1
  Rh  Rh240  1  0.39721997  -0.00323203  0.40057121  1
  Rh  Rh241  1  0.40112799  -0.00318342  0.60258649  1
  Rh  Rh242  1  0.00245850  0.60683600  0.40452879  1
  Rh  Rh243  1  0.79451655  0.80603305  0.60536595  1
  Rh  Rh244  1  0.79571433  -0.00516302  -0.00019636  1
  Rh  Rh245  1  0.39876851  0.19960489  0.80067261  1
  Rh  Rh246  1  -0.00646369  0.00903823  0.79874785  1
  Rh  Rh247  1  0.18811745  0.40192683  0.20225334  1
  Rh  Rh248  1  0.40074407  0.19961498  0.60223817  1
  Rh  Rh249  1  0.60084892  0.59184166  0.19552171  1
