# generated using pymatgen
data_ZrScNbPdRh
_symmetry_space_group_name_H-M   'P 1'
_cell_length_a   16.55206294
_cell_length_b   16.55161810
_cell_length_c   16.55088224
_cell_angle_alpha   90.00549459
_cell_angle_beta   89.97683622
_cell_angle_gamma   89.98411722
_symmetry_Int_Tables_number   1
_chemical_formula_structural   ZrScNbPdRh
_chemical_formula_sum   'Zr50 Sc50 Nb50 Pd50 Rh50'
_cell_volume   4534.33581218
_cell_formula_units_Z   50
loop_
 _symmetry_equiv_pos_site_id
 _symmetry_equiv_pos_as_xyz
  1  'x, y, z'
loop_
 _atom_site_type_symbol
 _atom_site_label
 _atom_site_symmetry_multiplicity
 _atom_site_fract_x
 _atom_site_fract_y
 _atom_site_fract_z
 _atom_site_occupancy
  Zr  Zr0  1  0.31237617  0.28587817  0.89429094  1
  Zr  Zr1  1  0.29855262  0.49954685  0.50233531  1
  Zr  Zr2  1  0.10421581  0.29233337  0.49928820  1
  Zr  Zr3  1  0.30123851  0.50136312  0.29199951  1
  Zr  Zr4  1  0.10273042  0.09754597  0.69984509  1
  Zr  Zr5  1  0.49558497  0.10006304  0.30128254  1
  Zr  Zr6  1  0.89629951  0.09711757  0.29387897  1
  Zr  Zr7  1  0.89302645  0.10497373  0.10521298  1
  Zr  Zr8  1  0.30057068  0.51508329  0.90514292  1
  Zr  Zr9  1  0.30088358  0.10733890  0.48825064  1
  Zr  Zr10  1  0.50329921  0.10627938  0.10914046  1
  Zr  Zr11  1  0.09857949  0.50573340  0.09661114  1
  Zr  Zr12  1  0.50522089  0.30152802  0.91042700  1
  Zr  Zr13  1  0.90359115  0.10175180  0.49325612  1
  Zr  Zr14  1  0.31274451  0.30095918  0.09346473  1
  Zr  Zr15  1  0.69879232  0.70231293  0.49207291  1
  Zr  Zr16  1  0.29449021  0.89139915  0.50806033  1
  Zr  Zr17  1  0.89251725  0.10609115  0.70094961  1
  Zr  Zr18  1  0.50433809  0.70550211  0.30646974  1
  Zr  Zr19  1  0.30464038  0.89655535  0.90026088  1
  Zr  Zr20  1  0.30596145  0.09260881  0.29660602  1
  Zr  Zr21  1  0.70406827  0.70859532  0.29818152  1
  Zr  Zr22  1  0.29782907  0.30252709  0.69432834  1
  Zr  Zr23  1  0.69939747  0.30173497  0.49678682  1
  Zr  Zr24  1  0.09541022  0.09634668  0.10209840  1
  Zr  Zr25  1  0.50256409  0.09608208  0.49334106  1
  Zr  Zr26  1  0.70130973  0.49658799  0.30384648  1
  Zr  Zr27  1  0.30011424  0.90105177  0.10239709  1
  Zr  Zr28  1  0.90088469  0.70127648  0.89020980  1
  Zr  Zr29  1  0.89613548  0.51098732  0.69585938  1
  Zr  Zr30  1  0.69990758  0.30647401  0.90399089  1
  Zr  Zr31  1  0.28787033  0.09134563  0.90153916  1
  Zr  Zr32  1  0.70185737  0.49580392  0.70931918  1
  Zr  Zr33  1  0.09462268  0.29938479  0.69714464  1
  Zr  Zr34  1  0.70341637  0.90047255  0.49371364  1
  Zr  Zr35  1  0.69556374  0.10136159  0.50394571  1
  Zr  Zr36  1  0.30394545  0.70375932  0.69616937  1
  Zr  Zr37  1  0.09159026  0.30379479  0.30278956  1
  Zr  Zr38  1  0.69411893  0.90597869  0.90612675  1
  Zr  Zr39  1  0.09119336  0.30163679  0.09762359  1
  Zr  Zr40  1  0.90943092  0.89640860  0.49865947  1
  Zr  Zr41  1  0.10203723  0.68790201  0.89870488  1
  Zr  Zr42  1  0.30283705  0.69853434  0.50053436  1
  Zr  Zr43  1  0.30548455  0.50171812  0.09976586  1
  Zr  Zr44  1  0.89607746  0.30517244  0.90578803  1
  Zr  Zr45  1  0.30118559  0.70268035  0.89657445  1
  Zr  Zr46  1  0.10839364  0.70175349  0.29225025  1
  Zr  Zr47  1  0.70447028  0.09647985  0.30323499  1
  Zr  Zr48  1  0.49737608  0.29889928  0.71077576  1
  Zr  Zr49  1  0.89721541  0.31209543  0.70095669  1
  Sc  Sc50  1  0.09427642  0.70075830  0.49367307  1
  Sc  Sc51  1  0.30285567  0.09752478  0.09298353  1
  Sc  Sc52  1  0.28935783  0.89427983  0.70093563  1
  Sc  Sc53  1  0.69901136  0.10028326  0.09678433  1
  Sc  Sc54  1  0.49957132  0.69874307  0.91069571  1
  Sc  Sc55  1  0.70879425  0.50215760  0.09420155  1
  Sc  Sc56  1  0.90040903  0.49654281  0.89865265  1
  Sc  Sc57  1  0.29868547  0.69114907  0.10906565  1
  Sc  Sc58  1  0.09355969  0.69765334  0.10341686  1
  Sc  Sc59  1  0.50393388  0.90058352  0.09636848  1
  Sc  Sc60  1  0.09318439  0.50648599  0.70418531  1
  Sc  Sc61  1  0.69353285  0.90899171  0.70402922  1
  Sc  Sc62  1  0.50895367  0.70410542  0.09760029  1
  Sc  Sc63  1  0.89962912  0.69957305  0.30034671  1
  Sc  Sc64  1  0.10431364  0.89806902  0.89200549  1
  Sc  Sc65  1  0.70313041  0.50537710  0.49563708  1
  Sc  Sc66  1  0.50469531  0.29878389  0.49502831  1
  Sc  Sc67  1  0.69734699  0.68978971  0.90672724  1
  Sc  Sc68  1  0.89750265  0.29971014  0.29774467  1
  Sc  Sc69  1  0.89319386  0.89437447  0.89404670  1
  Sc  Sc70  1  0.30100223  0.50726523  0.68569872  1
  Sc  Sc71  1  0.49967811  0.90006033  0.29540793  1
  Sc  Sc72  1  0.90002316  0.49674920  0.30188398  1
  Sc  Sc73  1  0.50594399  0.70501576  0.50435423  1
  Sc  Sc74  1  0.29662575  0.10683348  0.71260242  1
  Sc  Sc75  1  0.69937398  0.50066288  0.90399746  1
  Sc  Sc76  1  0.09215770  0.89057803  0.10677946  1
  Sc  Sc77  1  0.49939110  0.89519802  0.69238226  1
  Sc  Sc78  1  0.09333685  0.50473374  0.30157017  1
  Sc  Sc79  1  0.89912713  0.49716012  0.09965606  1
  Sc  Sc80  1  0.50891021  0.09535029  0.69609613  1
  Sc  Sc81  1  0.69346581  0.89732913  0.10792221  1
  Sc  Sc82  1  0.90357952  0.69467493  0.50242769  1
  Sc  Sc83  1  0.49483553  0.49203005  0.09618369  1
  Sc  Sc84  1  0.50565400  0.50736872  0.50445075  1
  Sc  Sc85  1  0.30337066  0.88489495  0.30039285  1
  Sc  Sc86  1  0.50471061  0.30372168  0.29123029  1
  Sc  Sc87  1  0.09640077  0.50218140  0.49518681  1
  Sc  Sc88  1  0.89884702  0.90003865  0.11018951  1
  Sc  Sc89  1  0.70533016  0.68901296  0.70386781  1
  Sc  Sc90  1  0.50067145  0.10303604  0.90475037  1
  Sc  Sc91  1  0.09088383  0.69951805  0.70619786  1
  Sc  Sc92  1  0.69909525  0.30109378  0.09772692  1
  Sc  Sc93  1  0.90155900  0.69337669  0.10069123  1
  Sc  Sc94  1  0.50510527  0.89547303  0.49826762  1
  Sc  Sc95  1  0.30033575  0.29356540  0.30946860  1
  Sc  Sc96  1  0.50545422  0.49340413  0.29654809  1
  Sc  Sc97  1  0.09207212  0.30735614  0.89856722  1
  Sc  Sc98  1  0.90769745  0.30383636  0.50285489  1
  Sc  Sc99  1  0.08419350  0.10555903  0.30192105  1
  Nb  Nb100  1  0.10536718  0.50096903  0.89794181  1
  Nb  Nb101  1  0.09520580  0.09570212  0.50092214  1
  Nb  Nb102  1  0.30263756  0.69715408  0.30162988  1
  Nb  Nb103  1  0.50463369  0.50239766  0.70266108  1
  Nb  Nb104  1  0.90017397  0.70440348  0.70140993  1
  Nb  Nb105  1  0.30034325  0.30360401  0.50102276  1
  Nb  Nb106  1  0.71744585  0.89394341  0.30024951  1
  Nb  Nb107  1  0.70182659  0.29993058  0.69970455  1
  Nb  Nb108  1  0.70138095  0.10282980  0.70011762  1
  Nb  Nb109  1  0.50427537  0.49893240  0.90025129  1
  Nb  Nb110  1  0.69958251  0.31562402  0.30427477  1
  Nb  Nb111  1  0.50023159  0.69809045  0.69792745  1
  Nb  Nb112  1  0.90513236  0.89116303  0.70023872  1
  Nb  Nb113  1  0.50201275  0.29733038  0.09247164  1
  Nb  Nb114  1  0.70844660  0.09997831  0.89723076  1
  Nb  Nb115  1  0.89257699  0.09807010  0.90248138  1
  Nb  Nb116  1  0.49785260  0.89230803  0.89790207  1
  Nb  Nb117  1  0.09594858  0.89781010  0.29946844  1
  Nb  Nb118  1  0.88897411  0.90276030  0.30142992  1
  Nb  Nb119  1  0.90679528  0.50890529  0.50085234  1
  Nb  Nb120  1  0.09634826  0.09559898  0.89923481  1
  Nb  Nb121  1  0.09740924  0.90588573  0.50498223  1
  Nb  Nb122  1  0.09095461  0.90146346  0.68938974  1
  Nb  Nb123  1  0.89640580  0.30188907  0.09767397  1
  Nb  Nb124  1  0.70085446  0.69991902  0.09871634  1
  Nb  Nb125  1  0.61309630  0.19645959  0.80063535  1
  Nb  Nb126  1  -0.00549315  0.19365104  0.80645741  1
  Nb  Nb127  1  0.20058891  0.39481977  0.19463106  1
  Nb  Nb128  1  0.39533542  0.00441305  0.60001868  1
  Nb  Nb129  1  0.80204388  -0.00181646  0.60220243  1
  Nb  Nb130  1  0.18882313  -0.00553524  0.40168959  1
  Nb  Nb131  1  0.19521282  -0.00078469  0.20890824  1
  Nb  Nb132  1  -0.00371076  0.00130481  0.79853912  1
  Nb  Nb133  1  0.39808875  0.19925454  0.59611365  1
  Nb  Nb134  1  0.79638550  0.79541583  0.00335800  1
  Nb  Nb135  1  0.20353306  0.40190083  -0.00390819  1
  Nb  Nb136  1  0.40834608  0.59972939  0.79534349  1
  Nb  Nb137  1  0.40130810  -0.00631445  0.80029937  1
  Nb  Nb138  1  0.40088461  0.41226088  0.80188235  1
  Nb  Nb139  1  0.39745855  0.60027912  0.39750868  1
  Nb  Nb140  1  -0.00683286  0.19386766  -0.00376416  1
  Nb  Nb141  1  0.60316355  0.39851688  0.60934795  1
  Nb  Nb142  1  0.39616073  0.40414624  0.40517371  1
  Nb  Nb143  1  0.80490570  0.80232742  0.60574072  1
  Nb  Nb144  1  0.19742387  0.19981034  0.19816202  1
  Nb  Nb145  1  0.20112075  0.79537999  0.00035372  1
  Nb  Nb146  1  0.60845180  0.60347650  0.19952837  1
  Nb  Nb147  1  0.20613999  0.40566391  0.80363133  1
  Nb  Nb148  1  -0.00466622  0.00336167  -0.00749905  1
  Nb  Nb149  1  0.59434308  0.79810776  0.80402893  1
  Pd  Pd150  1  0.79513932  0.40745567  0.59105068  1
  Pd  Pd151  1  0.80332818  0.20045473  0.59294236  1
  Pd  Pd152  1  0.78894130  0.20994642  0.20397228  1
  Pd  Pd153  1  0.59543439  0.60796656  0.80537953  1
  Pd  Pd154  1  0.78398716  0.80050151  0.80045108  1
  Pd  Pd155  1  0.60331724  -0.00776832  0.39049961  1
  Pd  Pd156  1  0.18845313  0.40705875  0.60457577  1
  Pd  Pd157  1  0.60025186  0.20465135  0.38775200  1
  Pd  Pd158  1  0.20415080  0.19162856  0.59791970  1
  Pd  Pd159  1  0.40453081  0.79609040  0.19432589  1
  Pd  Pd160  1  0.59352660  0.20640818  0.60631164  1
  Pd  Pd161  1  0.80354300  -0.00716501  0.79337025  1
  Pd  Pd162  1  0.20831952  0.00898238  0.59751181  1
  Pd  Pd163  1  0.41273346  0.39564085  0.59792428  1
  Pd  Pd164  1  -0.00219183  0.40515401  0.20041927  1
  Pd  Pd165  1  0.61027393  0.20554218  0.20562923  1
  Pd  Pd166  1  0.80632464  0.60296020  0.39930976  1
  Pd  Pd167  1  0.39144681  -0.01694239  0.40584125  1
  Pd  Pd168  1  -0.00886037  0.00684920  0.60604665  1
  Pd  Pd169  1  0.41769790  0.60425652  0.20379550  1
  Pd  Pd170  1  -0.00123248  0.79699003  0.39378858  1
  Pd  Pd171  1  -0.00032377  -0.00337021  0.39139882  1
  Pd  Pd172  1  0.59134424  0.00128457  0.80312794  1
  Pd  Pd173  1  -0.00895040  0.79752017  0.20727581  1
  Pd  Pd174  1  0.18807225  0.20975567  0.80744155  1
  Pd  Pd175  1  0.79933607  0.20883543  0.80382420  1
  Pd  Pd176  1  0.59525085  0.00554082  0.00137546  1
  Pd  Pd177  1  -0.00100162  0.80694352  -0.00715700  1
  Pd  Pd178  1  0.60560757  0.40609537  0.18791841  1
  Pd  Pd179  1  0.80310565  -0.01053910  0.00867630  1
  Pd  Pd180  1  0.19644229  0.80346424  0.40093313  1
  Pd  Pd181  1  0.20172412  0.40357950  0.39332385  1
  Pd  Pd182  1  0.79865078  0.59700452  0.20152509  1
  Pd  Pd183  1  0.39538767  0.20469668  0.20101790  1
  Pd  Pd184  1  0.00534783  0.40834312  0.59572636  1
  Pd  Pd185  1  0.80165585  0.20594624  0.39904580  1
  Pd  Pd186  1  0.20163099  0.59960834  0.39837058  1
  Pd  Pd187  1  0.60872799  0.59627825  0.60094628  1
  Pd  Pd188  1  0.18704662  -0.01407020  0.00863745  1
  Pd  Pd189  1  0.61294070  0.79775899  0.61082962  1
  Pd  Pd190  1  0.19253459  0.20728677  -0.00026482  1
  Pd  Pd191  1  0.40880069  0.00272906  -0.00198602  1
  Pd  Pd192  1  0.19243650  0.19204585  0.39099378  1
  Pd  Pd193  1  0.60407393  -0.00421697  0.20698302  1
  Pd  Pd194  1  0.18438932  0.78903275  0.60156463  1
  Pd  Pd195  1  0.81049894  0.40195727  0.40709165  1
  Pd  Pd196  1  0.18726176  0.60660422  0.60132833  1
  Pd  Pd197  1  0.19195780  0.79905192  0.79867347  1
  Pd  Pd198  1  0.39478950  0.79304788  0.01153399  1
  Pd  Pd199  1  -0.00741829  0.59635986  -0.00421377  1
  Rh  Rh200  1  0.60319597  -0.00139194  0.59734067  1
  Rh  Rh201  1  0.40826515  0.60301405  0.00001926  1
  Rh  Rh202  1  0.00307899  0.40136492  0.79850118  1
  Rh  Rh203  1  0.19668687  0.59515576  0.20016121  1
  Rh  Rh204  1  0.79811207  0.20205956  0.00230120  1
  Rh  Rh205  1  0.80410440  0.59689643  0.80536768  1
  Rh  Rh206  1  0.80682410  0.60589549  -0.00380463  1
  Rh  Rh207  1  0.40805651  0.60565246  0.59749769  1
  Rh  Rh208  1  0.20953843  0.59525930  0.78821640  1
  Rh  Rh209  1  -0.00071916  -0.00461451  0.20197699  1
  Rh  Rh210  1  0.59596416  0.59233843  0.01027939  1
  Rh  Rh211  1  0.79930771  0.39641696  0.19853095  1
  Rh  Rh212  1  -0.00025124  0.79283014  0.60035444  1
  Rh  Rh213  1  0.79369761  -0.00146354  0.19586170  1
  Rh  Rh214  1  0.59298779  0.59666381  0.39039979  1
  Rh  Rh215  1  0.40847655  0.21151675  0.40257737  1
  Rh  Rh216  1  0.39751714  -0.00419745  0.19690179  1
  Rh  Rh217  1  0.40248626  0.79454008  0.40477159  1
  Rh  Rh218  1  0.19739986  0.60534144  0.00896428  1
  Rh  Rh219  1  -0.00299951  0.59875422  0.20421592  1
  Rh  Rh220  1  0.60162833  0.40611510  0.00658264  1
  Rh  Rh221  1  0.19796627  -0.00812409  0.79420901  1
  Rh  Rh222  1  0.60815773  0.19391072  -0.00511383  1
  Rh  Rh223  1  0.80941723  0.79560007  0.40875849  1
  Rh  Rh224  1  0.40346399  0.80520166  0.59879282  1
  Rh  Rh225  1  0.20208024  0.80298170  0.19512614  1
  Rh  Rh226  1  0.60197294  0.80957776  0.39307592  1
  Rh  Rh227  1  -0.00287794  0.20372631  0.40248001  1
  Rh  Rh228  1  -0.00639097  0.59555835  0.80175632  1
  Rh  Rh229  1  -0.00287859  0.20466378  0.19449082  1
  Rh  Rh230  1  0.59345393  0.40292513  0.40937009  1
  Rh  Rh231  1  0.39528460  0.39050268  0.20703634  1
  Rh  Rh232  1  -0.00105776  0.19868202  0.60328155  1
  Rh  Rh233  1  -0.00309691  0.40162449  0.40576254  1
  Rh  Rh234  1  -0.00166077  0.60178979  0.39585389  1
  Rh  Rh235  1  0.79980727  0.40202380  0.00367174  1
  Rh  Rh236  1  0.59809582  0.39403672  0.79972061  1
  Rh  Rh237  1  0.79947059  0.60695062  0.59640485  1
  Rh  Rh238  1  0.41276425  0.18638291  0.79494588  1
  Rh  Rh239  1  0.40438607  0.18881026  0.00266990  1
  Rh  Rh240  1  0.00051237  0.60410057  0.60096490  1
  Rh  Rh241  1  0.00103251  0.40167864  -0.00141506  1
  Rh  Rh242  1  0.80110711  0.00236787  0.40623279  1
  Rh  Rh243  1  0.60231924  0.79885800  0.20298941  1
  Rh  Rh244  1  0.60792670  0.79963015  -0.00586287  1
  Rh  Rh245  1  0.80409975  0.79764690  0.19152814  1
  Rh  Rh246  1  0.80132867  0.40310240  0.80249784  1
  Rh  Rh247  1  0.39698498  0.40230854  -0.01068487  1
  Rh  Rh248  1  0.41007382  0.79819110  0.79162153  1
  Rh  Rh249  1  0.00680442  0.80472293  0.80058577  1
