# generated using pymatgen
data_ZrScNbPdRh
_symmetry_space_group_name_H-M   'P 1'
_cell_length_a   16.55284937
_cell_length_b   16.54952480
_cell_length_c   16.55532022
_cell_angle_alpha   90.02739242
_cell_angle_beta   89.99357945
_cell_angle_gamma   90.01876151
_symmetry_Int_Tables_number   1
_chemical_formula_structural   ZrScNbPdRh
_chemical_formula_sum   'Zr50 Sc50 Nb50 Pd50 Rh50'
_cell_volume   4535.19328463
_cell_formula_units_Z   50
loop_
 _symmetry_equiv_pos_site_id
 _symmetry_equiv_pos_as_xyz
  1  'x, y, z'
loop_
 _atom_site_type_symbol
 _atom_site_label
 _atom_site_symmetry_multiplicity
 _atom_site_fract_x
 _atom_site_fract_y
 _atom_site_fract_z
 _atom_site_occupancy
  Zr  Zr0  1  0.70439746  0.49575225  0.69135536  1
  Zr  Zr1  1  0.49516178  0.50133799  0.48474194  1
  Zr  Zr2  1  0.70538129  0.10429950  0.69474517  1
  Zr  Zr3  1  0.10147690  0.70178614  0.91408147  1
  Zr  Zr4  1  0.50057051  0.29869920  0.69337814  1
  Zr  Zr5  1  0.49808950  0.90039056  0.29302588  1
  Zr  Zr6  1  0.29141472  0.30419219  0.70088389  1
  Zr  Zr7  1  0.10702364  0.70325228  0.29734545  1
  Zr  Zr8  1  0.09278570  0.09871805  0.10760797  1
  Zr  Zr9  1  0.89544498  0.70862804  0.69390109  1
  Zr  Zr10  1  0.49607525  0.10048095  0.70252706  1
  Zr  Zr11  1  0.70272797  0.09949138  0.10361136  1
  Zr  Zr12  1  0.49126068  0.89490074  0.49922053  1
  Zr  Zr13  1  0.09446330  0.90411042  0.69842169  1
  Zr  Zr14  1  0.50194505  0.89712543  0.91481365  1
  Zr  Zr15  1  0.29489141  0.49746808  0.10504696  1
  Zr  Zr16  1  0.30361709  0.50086160  0.50449300  1
  Zr  Zr17  1  0.70744398  0.29777125  0.90009010  1
  Zr  Zr18  1  0.70560943  0.09146383  0.90591249  1
  Zr  Zr19  1  0.70647151  0.69589503  0.49090400  1
  Zr  Zr20  1  0.69349213  0.50327500  0.30304211  1
  Zr  Zr21  1  0.89832382  0.70524112  0.30966164  1
  Zr  Zr22  1  0.90314613  0.09594312  0.50382419  1
  Zr  Zr23  1  0.30295514  0.49984979  0.89042353  1
  Zr  Zr24  1  0.90269796  0.70643909  0.10049059  1
  Zr  Zr25  1  0.29659555  0.89285456  0.70793851  1
  Zr  Zr26  1  0.10426519  0.50502393  0.09910120  1
  Zr  Zr27  1  0.89402121  0.50150382  0.49657021  1
  Zr  Zr28  1  0.89841850  0.49847627  0.69725124  1
  Zr  Zr29  1  0.11616880  0.49931046  0.69952520  1
  Zr  Zr30  1  0.90069542  0.90272612  0.68793915  1
  Zr  Zr31  1  0.29921018  0.29675229  0.49839612  1
  Zr  Zr32  1  0.29603475  0.10338019  0.49099235  1
  Zr  Zr33  1  0.50526821  0.49892878  0.09838062  1
  Zr  Zr34  1  0.89742722  0.30199113  0.30016558  1
  Zr  Zr35  1  0.29837172  0.70188388  0.89979354  1
  Zr  Zr36  1  0.69896272  0.10615408  0.49941029  1
  Zr  Zr37  1  0.50097406  0.30067958  0.09555810  1
  Zr  Zr38  1  0.11039649  0.69965492  0.69827662  1
  Zr  Zr39  1  0.29852332  0.89880953  0.49008878  1
  Zr  Zr40  1  0.31355885  0.90565435  0.10740442  1
  Zr  Zr41  1  0.90357889  0.29664236  0.49696900  1
  Zr  Zr42  1  0.30449585  0.49889529  0.30698587  1
  Zr  Zr43  1  0.70191619  0.50729615  0.90823658  1
  Zr  Zr44  1  0.49926889  0.10533134  0.50068373  1
  Zr  Zr45  1  0.09919315  0.09488138  0.90191123  1
  Zr  Zr46  1  0.30246160  0.70316128  0.49182920  1
  Zr  Zr47  1  0.10197491  0.90268939  0.89895834  1
  Zr  Zr48  1  0.70854795  0.89432544  0.71032920  1
  Zr  Zr49  1  0.09640454  0.89934317  0.09625279  1
  Sc  Sc50  1  0.89371882  0.90866768  0.89116491  1
  Sc  Sc51  1  0.48957947  0.50261475  0.69671837  1
  Sc  Sc52  1  0.89263815  0.69376769  0.90236880  1
  Sc  Sc53  1  0.50397610  0.70533083  0.90484180  1
  Sc  Sc54  1  0.29860709  0.90120685  0.30043399  1
  Sc  Sc55  1  0.90034002  0.10428379  0.90785915  1
  Sc  Sc56  1  0.68696538  0.68726139  0.09768877  1
  Sc  Sc57  1  0.89342106  0.29756235  0.70528462  1
  Sc  Sc58  1  0.70308526  0.89390004  0.50593409  1
  Sc  Sc59  1  0.89936559  0.49497805  0.09395818  1
  Sc  Sc60  1  0.09891682  0.29305521  0.29173902  1
  Sc  Sc61  1  0.89423131  0.49473588  0.90058343  1
  Sc  Sc62  1  0.90134958  0.49290509  0.30438968  1
  Sc  Sc63  1  0.10562042  0.50302806  0.50066256  1
  Sc  Sc64  1  0.30243853  0.69194472  0.70344562  1
  Sc  Sc65  1  0.89783284  0.90572651  0.10850685  1
  Sc  Sc66  1  0.30296278  0.09679784  0.10184939  1
  Sc  Sc67  1  0.69795654  0.49966280  0.09420729  1
  Sc  Sc68  1  0.49781875  0.29971179  0.49435668  1
  Sc  Sc69  1  0.08730076  0.29217467  0.88846571  1
  Sc  Sc70  1  0.10155942  0.90794314  0.30520401  1
  Sc  Sc71  1  0.69613452  0.09803336  0.30153168  1
  Sc  Sc72  1  0.70251499  0.29807312  0.50679005  1
  Sc  Sc73  1  0.29656297  0.29414375  0.29480574  1
  Sc  Sc74  1  0.50840403  0.69663417  0.29596500  1
  Sc  Sc75  1  0.70067343  0.70640337  0.69791227  1
  Sc  Sc76  1  0.91202055  0.29962736  0.09954597  1
  Sc  Sc77  1  0.49743707  0.69996910  0.49972950  1
  Sc  Sc78  1  0.30992204  0.29919140  0.90042500  1
  Sc  Sc79  1  0.91277113  0.09667693  0.29979771  1
  Sc  Sc80  1  0.49554654  0.49621036  0.90075019  1
  Sc  Sc81  1  0.70181536  0.70162681  0.29712548  1
  Sc  Sc82  1  0.48391876  0.09861613  0.90371325  1
  Sc  Sc83  1  0.10114539  0.10898404  0.70884353  1
  Sc  Sc84  1  0.30611510  0.29790323  0.10098195  1
  Sc  Sc85  1  0.69479369  0.30362677  0.10389266  1
  Sc  Sc86  1  0.49368337  0.30645966  0.90433259  1
  Sc  Sc87  1  0.09644111  0.70592552  0.49028736  1
  Sc  Sc88  1  0.29361026  0.09593813  0.29567337  1
  Sc  Sc89  1  0.49867774  0.88854914  0.70442920  1
  Sc  Sc90  1  0.69400554  0.91109814  0.10492907  1
  Sc  Sc91  1  0.10616956  0.49657361  0.29480828  1
  Sc  Sc92  1  0.09992736  0.50181007  0.89979608  1
  Sc  Sc93  1  0.90055770  0.89639840  0.29709469  1
  Sc  Sc94  1  0.51152350  0.10245946  0.30715147  1
  Sc  Sc95  1  0.69657402  0.50235477  0.49938539  1
  Sc  Sc96  1  0.28421955  0.70381432  0.10453612  1
  Sc  Sc97  1  0.09639720  0.10395312  0.49321922  1
  Sc  Sc98  1  0.29988619  0.90320281  0.90401982  1
  Sc  Sc99  1  0.49678487  0.70095121  0.70018712  1
  Nb  Nb100  1  0.09993990  0.30294096  0.69279856  1
  Nb  Nb101  1  0.29870263  0.09695838  0.71114850  1
  Nb  Nb102  1  0.29315873  0.10393373  0.89359302  1
  Nb  Nb103  1  0.50141606  0.09272624  0.09786016  1
  Nb  Nb104  1  0.89992853  0.30060948  0.90133574  1
  Nb  Nb105  1  0.69713751  0.29885376  0.69817937  1
  Nb  Nb106  1  0.70484718  0.90016886  0.30251683  1
  Nb  Nb107  1  0.69648616  0.70469176  0.89947480  1
  Nb  Nb108  1  0.49470640  0.70108998  0.10083161  1
  Nb  Nb109  1  0.09717262  0.69693922  0.09934319  1
  Nb  Nb110  1  0.49777017  0.49724831  0.30215569  1
  Nb  Nb111  1  0.51058829  0.30311082  0.29493332  1
  Nb  Nb112  1  0.29579372  0.50369588  0.70352525  1
  Nb  Nb113  1  0.10553758  0.29729248  0.50635336  1
  Nb  Nb114  1  0.91426051  0.89482007  0.49849110  1
  Nb  Nb115  1  0.89457704  0.09161341  0.69562158  1
  Nb  Nb116  1  0.10856106  0.29887840  0.10250571  1
  Nb  Nb117  1  0.69465771  0.29224484  0.29721150  1
  Nb  Nb118  1  0.29822172  0.70087325  0.30384917  1
  Nb  Nb119  1  0.69527541  0.89496757  0.89792936  1
  Nb  Nb120  1  0.89913782  0.09783031  0.10800550  1
  Nb  Nb121  1  0.09495533  0.90621018  0.50292416  1
  Nb  Nb122  1  0.49294327  0.90402505  0.09970130  1
  Nb  Nb123  1  0.90231116  0.70730507  0.49504226  1
  Nb  Nb124  1  0.10642100  0.09851167  0.29471152  1
  Nb  Nb125  1  0.80345666  -0.00553124  0.40204022  1
  Nb  Nb126  1  -0.00140498  0.60038432  0.59999020  1
  Nb  Nb127  1  0.59514272  -0.00191200  0.60511510  1
  Nb  Nb128  1  0.60253577  0.19978901  0.80297936  1
  Nb  Nb129  1  0.78866264  0.80204631  -0.00325653  1
  Nb  Nb130  1  0.60600462  0.39853984  0.79535817  1
  Nb  Nb131  1  0.60196102  0.00059696  0.80168427  1
  Nb  Nb132  1  0.41486555  0.19859752  0.19751654  1
  Nb  Nb133  1  0.19642508  0.39141764  0.00061799  1
  Nb  Nb134  1  0.40020095  0.60092893  0.20070917  1
  Nb  Nb135  1  0.39357695  0.00088639  0.60395014  1
  Nb  Nb136  1  0.00593554  0.39865342  0.60088247  1
  Nb  Nb137  1  0.60272630  0.80585101  0.39558747  1
  Nb  Nb138  1  0.19821839  0.20035881  -0.00138702  1
  Nb  Nb139  1  0.80240605  0.20060166  0.20238299  1
  Nb  Nb140  1  0.20320775  0.00076987  0.60116880  1
  Nb  Nb141  1  0.00086934  0.79586252  0.79915892  1
  Nb  Nb142  1  0.59820236  0.19423021  -0.00206641  1
  Nb  Nb143  1  0.00074925  0.60395427  0.79369143  1
  Nb  Nb144  1  0.60505022  0.59678940  0.80144781  1
  Nb  Nb145  1  0.80659972  0.60020948  0.20073177  1
  Nb  Nb146  1  0.19902891  0.80718264  0.59444656  1
  Nb  Nb147  1  0.39846469  0.60412317  0.00926994  1
  Nb  Nb148  1  0.20073141  0.39191179  0.40523836  1
  Nb  Nb149  1  0.00010894  0.60571626  0.19776942  1
  Pd  Pd150  1  0.20682558  0.80831940  0.00625054  1
  Pd  Pd151  1  0.01316584  0.39800886  0.40585328  1
  Pd  Pd152  1  -0.01159405  0.19476706  0.79384867  1
  Pd  Pd153  1  0.79455132  -0.00521668  0.59125802  1
  Pd  Pd154  1  0.59517065  0.60123455  0.60379318  1
  Pd  Pd155  1  0.20245012  0.18943255  0.60516315  1
  Pd  Pd156  1  0.39638718  0.79006405  0.20393241  1
  Pd  Pd157  1  0.60480219  0.80299135  0.19817936  1
  Pd  Pd158  1  0.40047425  0.39692018  0.20442416  1
  Pd  Pd159  1  0.78723124  0.79346339  0.18767823  1
  Pd  Pd160  1  0.60752778  -0.00893403  0.40930926  1
  Pd  Pd161  1  0.00337095  0.19916938  0.00346502  1
  Pd  Pd162  1  0.40002722  0.00533065  0.39551479  1
  Pd  Pd163  1  0.19718451  0.39008089  0.81233384  1
  Pd  Pd164  1  0.39933887  0.60393846  0.59985930  1
  Pd  Pd165  1  0.60641588  0.39306102  0.40459590  1
  Pd  Pd166  1  0.40292678  0.20780617  0.80009354  1
  Pd  Pd167  1  0.00338845  0.40621814  0.19851278  1
  Pd  Pd168  1  0.40483746  0.79657138  0.80753976  1
  Pd  Pd169  1  0.80381829  0.19413742  0.80003810  1
  Pd  Pd170  1  0.00374375  0.59618812  0.39702937  1
  Pd  Pd171  1  0.80245485  0.60594739  0.59626226  1
  Pd  Pd172  1  0.80494296  -0.01014227  0.00364747  1
  Pd  Pd173  1  0.79682000  0.40114412  0.80067431  1
  Pd  Pd174  1  0.80078823  0.20686763  0.01276438  1
  Pd  Pd175  1  0.00728895  0.20039298  0.39334751  1
  Pd  Pd176  1  -0.01574767  0.81069946  -0.00952592  1
  Pd  Pd177  1  0.79619451  0.39998841  0.19798293  1
  Pd  Pd178  1  0.20567546  0.00561194  0.00513160  1
  Pd  Pd179  1  0.00709954  0.39773666  -0.00472733  1
  Pd  Pd180  1  0.19825440  0.80941471  0.20056196  1
  Pd  Pd181  1  0.19773243  0.59381295  0.40092291  1
  Pd  Pd182  1  -0.00354683  0.20071826  0.60831743  1
  Pd  Pd183  1  0.60178369  0.79957344  0.59597200  1
  Pd  Pd184  1  0.59437511  0.40489075  0.59689180  1
  Pd  Pd185  1  0.60422175  0.40575255  0.19956537  1
  Pd  Pd186  1  -0.00801771  0.59452563  -0.00227759  1
  Pd  Pd187  1  0.38959530  0.19555205  0.60411245  1
  Pd  Pd188  1  0.59733387  0.00165280  0.20301672  1
  Pd  Pd189  1  0.78896174  0.39776594  0.40331416  1
  Pd  Pd190  1  0.40403556  -0.00973015  0.80318692  1
  Pd  Pd191  1  0.80018980  0.19105053  0.39102942  1
  Pd  Pd192  1  0.00022288  0.40544198  0.79500496  1
  Pd  Pd193  1  0.79733438  0.60450310  0.79758551  1
  Pd  Pd194  1  0.60407311  0.80258678  0.01503155  1
  Pd  Pd195  1  0.39909413  0.40135029  0.60095280  1
  Pd  Pd196  1  0.40300765  0.20256459  0.38430727  1
  Pd  Pd197  1  0.00629945  0.80194566  0.20591601  1
  Pd  Pd198  1  -0.00585673  0.00309303  0.79890093  1
  Pd  Pd199  1  0.80139615  0.39096969  0.00742722  1
  Rh  Rh200  1  0.60052763  0.19693481  0.19246785  1
  Rh  Rh201  1  0.20066561  0.40171053  0.59325096  1
  Rh  Rh202  1  0.38845182  0.79994400  0.60197756  1
  Rh  Rh203  1  0.20877911  0.59190241  -0.00360026  1
  Rh  Rh204  1  0.80768706  0.79677102  0.80900228  1
  Rh  Rh205  1  0.60236306  0.20891356  0.40389053  1
  Rh  Rh206  1  0.80155799  0.61025180  0.00980401  1
  Rh  Rh207  1  0.80237548  0.00964519  0.21229525  1
  Rh  Rh208  1  0.00734278  0.79071282  0.60021104  1
  Rh  Rh209  1  0.80696740  0.39168093  0.59448953  1
  Rh  Rh210  1  0.59710844  0.79711242  0.79893718  1
  Rh  Rh211  1  0.40382625  0.39788678  0.78919904  1
  Rh  Rh212  1  0.19834449  0.00061232  0.79818056  1
  Rh  Rh213  1  0.38893648  0.41086649  0.00147525  1
  Rh  Rh214  1  -0.00822675  -0.00116889  0.00477763  1
  Rh  Rh215  1  0.80188848  0.80038306  0.58974177  1
  Rh  Rh216  1  0.59775669  0.59292168  0.20220210  1
  Rh  Rh217  1  0.39346230  0.00295596  -0.00341311  1
  Rh  Rh218  1  0.19575666  0.60499575  0.81004743  1
  Rh  Rh219  1  0.19415179  0.00457033  0.40316392  1
  Rh  Rh220  1  0.59670517  0.60622018  0.39897658  1
  Rh  Rh221  1  0.19430212  0.79812992  0.80130707  1
  Rh  Rh222  1  0.20763574  0.19544855  0.19257029  1
  Rh  Rh223  1  0.20064287  0.39520588  0.20200390  1
  Rh  Rh224  1  0.19266531  0.20295794  0.39188426  1
  Rh  Rh225  1  0.79768669  0.80916525  0.40521115  1
  Rh  Rh226  1  0.40588003  0.60953874  0.38957098  1
  Rh  Rh227  1  0.79884709  0.00458242  0.79971595  1
  Rh  Rh228  1  0.80797138  0.20446201  0.60124350  1
  Rh  Rh229  1  0.40853300  0.60227101  0.80866977  1
  Rh  Rh230  1  0.39549023  0.38843916  0.39362838  1
  Rh  Rh231  1  0.58826616  0.59969804  -0.00917510  1
  Rh  Rh232  1  0.01006358  0.01506546  0.60321730  1
  Rh  Rh233  1  0.20241015  0.61032053  0.59039652  1
  Rh  Rh234  1  0.00546644  0.80691428  0.39524028  1
  Rh  Rh235  1  0.41040539  0.79395890  0.38722168  1
  Rh  Rh236  1  0.20009940  0.60366806  0.20564800  1
  Rh  Rh237  1  0.19665216  -0.00408761  0.19601990  1
  Rh  Rh238  1  -0.00414542  0.20040590  0.20080018  1
  Rh  Rh239  1  0.59680297  0.00348301  -0.00429056  1
  Rh  Rh240  1  0.20026805  0.20662219  0.80507476  1
  Rh  Rh241  1  0.39784154  0.19078810  0.00689636  1
  Rh  Rh242  1  0.40817284  0.01197366  0.20809416  1
  Rh  Rh243  1  0.00216168  -0.00472935  0.20296797  1
  Rh  Rh244  1  -0.00240868  -0.00168974  0.39665735  1
  Rh  Rh245  1  0.19429747  0.80539995  0.40112678  1
  Rh  Rh246  1  0.60461593  0.39203486  -0.01101560  1
  Rh  Rh247  1  0.80164964  0.59612705  0.39218289  1
  Rh  Rh248  1  0.59896501  0.19737085  0.60039353  1
  Rh  Rh249  1  0.39452894  0.79573066  0.00680203  1
