# generated using pymatgen
data_ZrScNbPdRh
_symmetry_space_group_name_H-M   'P 1'
_cell_length_a   16.56011631
_cell_length_b   16.56331206
_cell_length_c   16.56016481
_cell_angle_alpha   90.00929903
_cell_angle_beta   90.02061858
_cell_angle_gamma   89.99592895
_symmetry_Int_Tables_number   1
_chemical_formula_structural   ZrScNbPdRh
_chemical_formula_sum   'Zr50 Sc50 Nb50 Pd50 Rh50'
_cell_volume   4542.29343918
_cell_formula_units_Z   50
loop_
 _symmetry_equiv_pos_site_id
 _symmetry_equiv_pos_as_xyz
  1  'x, y, z'
loop_
 _atom_site_type_symbol
 _atom_site_label
 _atom_site_symmetry_multiplicity
 _atom_site_fract_x
 _atom_site_fract_y
 _atom_site_fract_z
 _atom_site_occupancy
  Zr  Zr0  1  0.69828033  0.09946021  0.50955556  1
  Zr  Zr1  1  0.11296035  0.89824356  0.30496684  1
  Zr  Zr2  1  0.90955624  0.49655996  0.89965716  1
  Zr  Zr3  1  0.49643372  0.10072292  0.09980752  1
  Zr  Zr4  1  0.10393135  0.09966377  0.48843821  1
  Zr  Zr5  1  0.29699706  0.69452301  0.10642281  1
  Zr  Zr6  1  0.89736578  0.50197423  0.30048415  1
  Zr  Zr7  1  0.50428311  0.69425114  0.10202678  1
  Zr  Zr8  1  0.69035981  0.08686424  0.31042834  1
  Zr  Zr9  1  0.89994755  0.50372031  0.50494718  1
  Zr  Zr10  1  0.29335218  0.50968953  0.71023901  1
  Zr  Zr11  1  0.90094546  0.30646128  0.69901000  1
  Zr  Zr12  1  0.49970211  0.30553063  0.10255586  1
  Zr  Zr13  1  0.29453757  0.90511434  0.69287367  1
  Zr  Zr14  1  0.50387703  0.09620086  0.69795918  1
  Zr  Zr15  1  0.50123423  0.89487378  0.09560270  1
  Zr  Zr16  1  0.30210775  0.29182239  0.69504617  1
  Zr  Zr17  1  0.09432190  0.50536585  0.70554497  1
  Zr  Zr18  1  0.50070448  0.70188545  0.30604162  1
  Zr  Zr19  1  0.70461105  0.30469645  0.90443049  1
  Zr  Zr20  1  0.30109292  0.09938248  0.88903133  1
  Zr  Zr21  1  0.69695708  0.70031404  0.09900017  1
  Zr  Zr22  1  0.50427184  0.30364676  0.69330752  1
  Zr  Zr23  1  0.30313593  0.89207971  0.08756892  1
  Zr  Zr24  1  0.29706301  0.70714297  0.30081448  1
  Zr  Zr25  1  0.49794774  0.49492990  0.10339800  1
  Zr  Zr26  1  0.69844351  0.48849122  0.69958588  1
  Zr  Zr27  1  0.69209733  0.89344210  0.10128150  1
  Zr  Zr28  1  0.90142256  0.30483134  0.29637923  1
  Zr  Zr29  1  0.69458891  0.30108076  0.09616146  1
  Zr  Zr30  1  0.49346531  0.30016898  0.49460402  1
  Zr  Zr31  1  0.70390123  0.50249254  0.50132423  1
  Zr  Zr32  1  0.10582968  0.50129078  0.89779445  1
  Zr  Zr33  1  0.30784114  0.70280828  0.69613513  1
  Zr  Zr34  1  0.69640028  0.10145358  0.09875997  1
  Zr  Zr35  1  0.10541903  0.70320916  0.29531033  1
  Zr  Zr36  1  0.09481809  0.50319611  0.30343855  1
  Zr  Zr37  1  0.09662349  0.30925589  0.89386799  1
  Zr  Zr38  1  0.09533484  0.29728173  0.69186545  1
  Zr  Zr39  1  0.08639611  0.70050890  0.89732948  1
  Zr  Zr40  1  0.30746584  0.90249461  0.89633492  1
  Zr  Zr41  1  0.29776804  0.29784711  0.49720850  1
  Zr  Zr42  1  0.89608327  0.70282997  0.50893661  1
  Zr  Zr43  1  0.69177442  0.89257104  0.89488928  1
  Zr  Zr44  1  0.69783455  0.10361281  0.90165172  1
  Zr  Zr45  1  0.90964403  0.10172849  0.30339183  1
  Zr  Zr46  1  0.69926506  0.90277889  0.69859191  1
  Zr  Zr47  1  0.09852322  0.09771282  0.89307122  1
  Zr  Zr48  1  0.89651348  0.89396549  0.09740691  1
  Zr  Zr49  1  0.49405336  0.09158522  0.89523837  1
  Sc  Sc50  1  0.90519729  0.09119806  0.49608981  1
  Sc  Sc51  1  0.69715312  0.49882032  0.11167716  1
  Sc  Sc52  1  0.90864890  0.09466641  0.10185330  1
  Sc  Sc53  1  0.69624012  0.70158429  0.89428241  1
  Sc  Sc54  1  0.69285740  0.30770288  0.30086581  1
  Sc  Sc55  1  0.29960055  0.31381501  0.10500166  1
  Sc  Sc56  1  0.50036378  0.70284408  0.88971015  1
  Sc  Sc57  1  0.29537988  0.10444590  0.10959359  1
  Sc  Sc58  1  0.89180537  0.30895506  0.09631584  1
  Sc  Sc59  1  0.30376031  0.50207952  0.28803666  1
  Sc  Sc60  1  0.69749626  0.50246462  0.88910913  1
  Sc  Sc61  1  0.30028152  0.30155538  0.30249648  1
  Sc  Sc62  1  0.89837594  0.50279551  0.69517288  1
  Sc  Sc63  1  0.30382226  0.71050770  0.90260000  1
  Sc  Sc64  1  0.10932370  0.09635213  0.69179589  1
  Sc  Sc65  1  0.09891185  0.49825372  0.50482132  1
  Sc  Sc66  1  0.50909152  0.30699385  0.90809403  1
  Sc  Sc67  1  0.09927610  0.90319177  0.50270752  1
  Sc  Sc68  1  0.30102800  0.09483052  0.49864255  1
  Sc  Sc69  1  0.69357080  0.70662770  0.70129996  1
  Sc  Sc70  1  0.90502148  0.88253884  0.90139935  1
  Sc  Sc71  1  0.50188850  0.50626613  0.70547971  1
  Sc  Sc72  1  0.11123751  0.50429620  0.09736440  1
  Sc  Sc73  1  0.90939283  0.30111564  0.50820949  1
  Sc  Sc74  1  0.69183624  0.69987841  0.50441390  1
  Sc  Sc75  1  0.89918934  0.50200660  0.11165299  1
  Sc  Sc76  1  0.49095242  0.89491593  0.49402520  1
  Sc  Sc77  1  0.70265775  0.90339582  0.50075468  1
  Sc  Sc78  1  0.09930957  0.70671776  0.50256118  1
  Sc  Sc79  1  0.10217641  0.70031029  0.10241278  1
  Sc  Sc80  1  0.09930678  0.89847889  0.10281396  1
  Sc  Sc81  1  0.50505854  0.49579941  0.29630443  1
  Sc  Sc82  1  0.29658922  0.89926405  0.49308216  1
  Sc  Sc83  1  0.90676221  0.10287553  0.68802546  1
  Sc  Sc84  1  0.90158511  0.70546999  0.70462481  1
  Sc  Sc85  1  0.10159905  0.29719968  0.30551656  1
  Sc  Sc86  1  0.29732133  0.10014926  0.30419954  1
  Sc  Sc87  1  0.50137436  0.09897912  0.49067297  1
  Sc  Sc88  1  0.69102768  0.30167876  0.51211996  1
  Sc  Sc89  1  0.50794104  0.49949023  0.89880812  1
  Sc  Sc90  1  0.50048233  0.89758049  0.70507690  1
  Sc  Sc91  1  0.29439755  0.48901028  0.50317457  1
  Sc  Sc92  1  0.91110641  0.90330437  0.30693016  1
  Sc  Sc93  1  0.69238868  0.68903096  0.30177757  1
  Sc  Sc94  1  0.50370852  0.49486637  0.50694665  1
  Sc  Sc95  1  0.90783775  0.68857753  0.29546918  1
  Sc  Sc96  1  0.09579492  0.69669727  0.69669435  1
  Sc  Sc97  1  0.30120970  0.09861304  0.69760455  1
  Sc  Sc98  1  0.90739228  0.90084688  0.50583653  1
  Sc  Sc99  1  0.10336606  0.30021245  0.11002538  1
  Nb  Nb100  1  0.70697631  0.49971219  0.30139865  1
  Nb  Nb101  1  0.70103439  0.29461414  0.70176517  1
  Nb  Nb102  1  0.49521497  0.29307826  0.30206952  1
  Nb  Nb103  1  0.30697266  0.89848299  0.30270739  1
  Nb  Nb104  1  0.49442021  0.70156248  0.69228581  1
  Nb  Nb105  1  0.69893724  0.10053248  0.70109924  1
  Nb  Nb106  1  0.29498827  0.48948029  0.90962374  1
  Nb  Nb107  1  0.49740918  0.09775643  0.30260738  1
  Nb  Nb108  1  0.10523005  0.89964219  0.89720572  1
  Nb  Nb109  1  0.30825299  0.70521058  0.49952987  1
  Nb  Nb110  1  0.90366664  0.29573258  0.90033808  1
  Nb  Nb111  1  0.69372276  0.89664272  0.29824305  1
  Nb  Nb112  1  0.89993516  0.09662019  0.89839149  1
  Nb  Nb113  1  0.48944616  0.70011738  0.50785904  1
  Nb  Nb114  1  0.09602792  0.89970057  0.70025614  1
  Nb  Nb115  1  0.30394297  0.50170716  0.09628121  1
  Nb  Nb116  1  0.90422199  0.89816844  0.69767125  1
  Nb  Nb117  1  0.89737452  0.69702554  0.90718428  1
  Nb  Nb118  1  0.10300121  0.09972445  0.28452243  1
  Nb  Nb119  1  0.11351238  0.30514685  0.50042410  1
  Nb  Nb120  1  0.89524854  0.70031198  0.09886470  1
  Nb  Nb121  1  0.50854281  0.90524365  0.29844965  1
  Nb  Nb122  1  0.10325942  0.10227185  0.09940064  1
  Nb  Nb123  1  0.49201869  0.89941115  0.90171863  1
  Nb  Nb124  1  0.29702748  0.30325712  0.90308899  1
  Nb  Nb125  1  0.79792485  -0.00397906  -0.00318779  1
  Nb  Nb126  1  0.79881410  0.20334936  0.39889082  1
  Nb  Nb127  1  0.39712944  0.60417667  0.40679002  1
  Nb  Nb128  1  0.59757257  -0.00412894  -0.00349609  1
  Nb  Nb129  1  0.79835187  0.79981489  0.39307574  1
  Nb  Nb130  1  0.79354851  0.19407006  0.20700433  1
  Nb  Nb131  1  0.39097800  0.20498551  -0.00417034  1
  Nb  Nb132  1  0.19791287  0.20026540  -0.00313464  1
  Nb  Nb133  1  0.19753103  0.00576982  -0.00240628  1
  Nb  Nb134  1  0.00225859  0.19932928  -0.00450606  1
  Nb  Nb135  1  0.79742851  0.80146275  0.20763718  1
  Nb  Nb136  1  0.19482736  0.80467066  0.79698515  1
  Nb  Nb137  1  0.80585103  0.00222666  0.80055030  1
  Nb  Nb138  1  0.39226310  0.39897955  0.80671461  1
  Nb  Nb139  1  0.40381864  0.80503793  0.20466361  1
  Nb  Nb140  1  0.80083714  0.39999173  0.40165339  1
  Nb  Nb141  1  0.40402942  -0.00595130  0.20553680  1
  Nb  Nb142  1  0.80405257  0.60432988  -0.00070798  1
  Nb  Nb143  1  0.60720116  0.20086633  0.79585814  1
  Nb  Nb144  1  0.20745561  0.60509078  0.40179912  1
  Nb  Nb145  1  -0.00289253  -0.00683968  0.79757053  1
  Nb  Nb146  1  0.79634881  -0.00351169  0.20149620  1
  Nb  Nb147  1  0.39579892  0.59198504  0.00048770  1
  Nb  Nb148  1  0.59519776  0.19825761  0.20780310  1
  Nb  Nb149  1  0.80168169  0.19788710  0.79937584  1
  Pd  Pd150  1  0.39661139  0.58813513  0.59458612  1
  Pd  Pd151  1  0.80394411  0.20140890  0.59648249  1
  Pd  Pd152  1  0.79418969  0.60750769  0.61222730  1
  Pd  Pd153  1  0.39687378  0.40987292  0.39364605  1
  Pd  Pd154  1  0.20250160  0.19797799  0.39413138  1
  Pd  Pd155  1  0.20325951  0.39317474  0.78964022  1
  Pd  Pd156  1  -0.00101062  0.39614895  0.40707622  1
  Pd  Pd157  1  0.40008468  0.59373406  0.81280086  1
  Pd  Pd158  1  0.40304225  0.19103564  0.59081322  1
  Pd  Pd159  1  0.80263976  0.80253820  0.79754685  1
  Pd  Pd160  1  0.19883655  0.40355969  0.20552129  1
  Pd  Pd161  1  0.40342156  -0.00264690  0.59700638  1
  Pd  Pd162  1  0.60392610  0.80213446  0.40759873  1
  Pd  Pd163  1  0.19915452  0.40314826  0.60923242  1
  Pd  Pd164  1  -0.00404843  0.59585613  0.00941774  1
  Pd  Pd165  1  0.59029204  0.59316095  0.40378636  1
  Pd  Pd166  1  -0.00509371  0.79867123  0.20201000  1
  Pd  Pd167  1  0.19661608  0.20470729  0.79786931  1
  Pd  Pd168  1  0.00723819  0.19559476  0.58974680  1
  Pd  Pd169  1  0.79594246  0.41656866  -0.00012125  1
  Pd  Pd170  1  0.60105885  0.59986652  0.60585215  1
  Pd  Pd171  1  0.60338501  0.40318950  0.40074131  1
  Pd  Pd172  1  0.00754191  0.79963094  0.00582513  1
  Pd  Pd173  1  0.81275141  0.19388387  0.00458327  1
  Pd  Pd174  1  0.80604804  -0.00186791  0.60514876  1
  Pd  Pd175  1  0.80312446  -0.00458542  0.39785779  1
  Pd  Pd176  1  0.20414599  0.61454805  0.81014810  1
  Pd  Pd177  1  0.20865332  -0.00605322  0.19480910  1
  Pd  Pd178  1  0.59176261  -0.00788921  0.59286406  1
  Pd  Pd179  1  0.59447629  0.80647994  0.59625576  1
  Pd  Pd180  1  0.00121802  -0.00116218  -0.00584100  1
  Pd  Pd181  1  0.19755962  0.79919314  0.60078657  1
  Pd  Pd182  1  0.80639248  0.39705986  0.80259207  1
  Pd  Pd183  1  0.20051310  0.60421829  0.59064765  1
  Pd  Pd184  1  0.00079041  -0.00642247  0.20185957  1
  Pd  Pd185  1  0.00005287  0.20612849  0.40582875  1
  Pd  Pd186  1  0.00618209  0.39696998  0.01000549  1
  Pd  Pd187  1  0.41371971  0.21339379  0.80713734  1
  Pd  Pd188  1  0.39810175  0.19937852  0.19908225  1
  Pd  Pd189  1  0.60529953  0.20377820  0.39931359  1
  Pd  Pd190  1  0.39699385  0.40905861  0.61138421  1
  Pd  Pd191  1  0.00788316  0.60677413  0.40782428  1
  Pd  Pd192  1  -0.00629091  0.20633309  0.18926235  1
  Pd  Pd193  1  0.79926874  0.60502310  0.40024593  1
  Pd  Pd194  1  0.60276868  0.59609245  -0.00339550  1
  Pd  Pd195  1  0.80174922  0.60214352  0.80177031  1
  Pd  Pd196  1  0.00558110  0.40346173  0.19525762  1
  Pd  Pd197  1  -0.00460009  0.19317804  0.79801332  1
  Pd  Pd198  1  -0.00479884  0.79612928  0.40210099  1
  Pd  Pd199  1  0.20499730  0.60863398  -0.00827145  1
  Rh  Rh200  1  0.19230088  0.80187988  -0.00701454  1
  Rh  Rh201  1  0.59918586  0.79031816  0.20760483  1
  Rh  Rh202  1  0.39633966  0.80442079  0.79181125  1
  Rh  Rh203  1  0.00001854  0.80073980  0.60199977  1
  Rh  Rh204  1  0.00338000  0.80184851  0.79738421  1
  Rh  Rh205  1  0.60073215  0.59454563  0.20548785  1
  Rh  Rh206  1  0.59876423  0.60550920  0.79124185  1
  Rh  Rh207  1  0.79935062  0.80246558  0.59520571  1
  Rh  Rh208  1  0.40097419  0.39835530  0.20594055  1
  Rh  Rh209  1  0.59409997  0.39255320  0.79803662  1
  Rh  Rh210  1  0.20149902  0.19625011  0.59459910  1
  Rh  Rh211  1  0.79452991  0.39429008  0.20688787  1
  Rh  Rh212  1  0.00542234  0.60074523  0.19237954  1
  Rh  Rh213  1  0.59650237  0.00725425  0.19435483  1
  Rh  Rh214  1  0.40094857  0.80797910  0.60366639  1
  Rh  Rh215  1  0.40349004  0.79909772  0.39471727  1
  Rh  Rh216  1  0.20095817  0.20321762  0.20059016  1
  Rh  Rh217  1  0.39575460  0.19774308  0.40170660  1
  Rh  Rh218  1  0.19900194  0.40883093  0.39449634  1
  Rh  Rh219  1  0.40242645  0.40138606  -0.00475416  1
  Rh  Rh220  1  0.59879833  0.39520331  0.20617062  1
  Rh  Rh221  1  0.19645442  -0.00694406  0.79921752  1
  Rh  Rh222  1  0.19994455  0.00217921  0.39531188  1
  Rh  Rh223  1  0.19625038  0.59378892  0.20686835  1
  Rh  Rh224  1  0.40480340  0.60460074  0.19972938  1
  Rh  Rh225  1  0.58324789  0.19304643  -0.00432797  1
  Rh  Rh226  1  0.59578354  -0.00734270  0.40970409  1
  Rh  Rh227  1  0.00540064  0.00156156  0.60387206  1
  Rh  Rh228  1  0.20011316  0.79733301  0.40739691  1
  Rh  Rh229  1  -0.00359463  0.40341531  0.79378757  1
  Rh  Rh230  1  0.60017645  0.40176727  0.60127902  1
  Rh  Rh231  1  0.39849483  -0.00655652  0.78742625  1
  Rh  Rh232  1  0.59409200  0.19701802  0.60232377  1
  Rh  Rh233  1  0.01304272  0.00009383  0.39379013  1
  Rh  Rh234  1  0.40834643  0.78287968  0.00631830  1
  Rh  Rh235  1  0.60234845  0.00139808  0.80430759  1
  Rh  Rh236  1  0.00646177  0.40334704  0.59899073  1
  Rh  Rh237  1  0.79637390  0.79479532  0.00343499  1
  Rh  Rh238  1  -0.00862607  0.60064840  0.79856672  1
  Rh  Rh239  1  0.20670857  0.80851409  0.19436411  1
  Rh  Rh240  1  0.79627197  0.60772566  0.19518066  1
  Rh  Rh241  1  0.58980968  0.79782097  0.79502571  1
  Rh  Rh242  1  0.59107067  0.79945641  -0.01179354  1
  Rh  Rh243  1  0.60939046  0.41109290  0.00049383  1
  Rh  Rh244  1  0.19796252  0.00034109  0.59357704  1
  Rh  Rh245  1  0.19293728  0.39358202  0.00651614  1
  Rh  Rh246  1  0.40030797  0.00026511  0.39407257  1
  Rh  Rh247  1  0.79853289  0.39546984  0.59429423  1
  Rh  Rh248  1  -0.00146126  0.60334289  0.60049197  1
  Rh  Rh249  1  0.39423975  0.01157235  0.00742820  1
