# generated using pymatgen
data_ZrScNbPdRh
_symmetry_space_group_name_H-M   'P 1'
_cell_length_a   16.55572805
_cell_length_b   16.54720645
_cell_length_c   16.55421627
_cell_angle_alpha   90.00571359
_cell_angle_beta   89.99694199
_cell_angle_gamma   89.99117632
_symmetry_Int_Tables_number   1
_chemical_formula_structural   ZrScNbPdRh
_chemical_formula_sum   'Zr50 Sc50 Nb50 Pd50 Rh50'
_cell_volume   4535.04484363
_cell_formula_units_Z   50
loop_
 _symmetry_equiv_pos_site_id
 _symmetry_equiv_pos_as_xyz
  1  'x, y, z'
loop_
 _atom_site_type_symbol
 _atom_site_label
 _atom_site_symmetry_multiplicity
 _atom_site_fract_x
 _atom_site_fract_y
 _atom_site_fract_z
 _atom_site_occupancy
  Zr  Zr0  1  0.49521718  0.89130832  0.09450914  1
  Zr  Zr1  1  0.29562751  0.50481183  0.30053730  1
  Zr  Zr2  1  0.09334101  0.69711745  0.70299220  1
  Zr  Zr3  1  0.09795008  0.69760892  0.90209529  1
  Zr  Zr4  1  0.10418982  0.50132318  0.09848821  1
  Zr  Zr5  1  0.88682171  0.09195102  0.10360902  1
  Zr  Zr6  1  0.29835039  0.30470746  0.88635628  1
  Zr  Zr7  1  0.10490301  0.50024089  0.90001850  1
  Zr  Zr8  1  0.70312899  0.90896085  0.09901878  1
  Zr  Zr9  1  0.10792060  0.50014066  0.49633948  1
  Zr  Zr10  1  0.10008908  0.08848028  0.51288330  1
  Zr  Zr11  1  0.69699360  0.29767932  0.70275724  1
  Zr  Zr12  1  0.89796883  0.70248651  0.29968024  1
  Zr  Zr13  1  0.49976355  0.50519392  0.89624038  1
  Zr  Zr14  1  0.10063793  0.30907035  0.89732824  1
  Zr  Zr15  1  0.89471519  0.29048107  0.09530250  1
  Zr  Zr16  1  0.89992492  0.29752481  0.49670109  1
  Zr  Zr17  1  0.10207292  0.70801250  0.29035658  1
  Zr  Zr18  1  0.51030458  0.29699555  0.49626163  1
  Zr  Zr19  1  0.70304203  0.70145226  0.30546494  1
  Zr  Zr20  1  0.30497310  0.91156156  0.90391973  1
  Zr  Zr21  1  0.30221170  0.89651906  0.70258744  1
  Zr  Zr22  1  0.29968532  0.30051602  0.50315222  1
  Zr  Zr23  1  0.69868390  0.89594670  0.90131741  1
  Zr  Zr24  1  0.30629782  0.50159701  0.10280537  1
  Zr  Zr25  1  0.91143918  0.09830706  0.70622148  1
  Zr  Zr26  1  0.90109808  0.29352813  0.30336242  1
  Zr  Zr27  1  0.09927037  0.29891164  0.30182547  1
  Zr  Zr28  1  0.90358352  0.89942794  0.30349350  1
  Zr  Zr29  1  0.49606365  0.69922210  0.50246518  1
  Zr  Zr30  1  0.70262533  0.50328895  0.29286823  1
  Zr  Zr31  1  0.30410595  0.69986557  0.70101061  1
  Zr  Zr32  1  0.30159088  0.10527154  0.28884372  1
  Zr  Zr33  1  0.91282186  0.29653763  0.70152241  1
  Zr  Zr34  1  0.09646740  0.09961064  0.09393942  1
  Zr  Zr35  1  0.68995816  0.11010345  0.50506007  1
  Zr  Zr36  1  0.30172417  0.10173428  0.71150217  1
  Zr  Zr37  1  0.90691991  0.70096600  0.89630536  1
  Zr  Zr38  1  0.50186159  0.50062818  0.09209249  1
  Zr  Zr39  1  0.90118715  0.90200387  0.90247337  1
  Zr  Zr40  1  0.30465711  0.69785589  0.10639843  1
  Zr  Zr41  1  0.30003894  0.68287932  0.49875750  1
  Zr  Zr42  1  0.29970430  0.09094076  0.09834187  1
  Zr  Zr43  1  0.09982322  0.49366864  0.29949094  1
  Zr  Zr44  1  0.69816903  0.89354896  0.70630493  1
  Zr  Zr45  1  0.09609082  0.08974005  0.89883878  1
  Zr  Zr46  1  0.69351787  0.09551334  0.29363695  1
  Zr  Zr47  1  0.49558209  0.10068205  0.89387616  1
  Zr  Zr48  1  0.09747241  0.89818996  0.29846372  1
  Zr  Zr49  1  0.69600567  0.70416342  0.89205972  1
  Sc  Sc50  1  0.90240124  0.29871605  0.90243673  1
  Sc  Sc51  1  0.31077976  0.50038914  0.70788358  1
  Sc  Sc52  1  0.50390481  0.10925329  0.10995344  1
  Sc  Sc53  1  0.90866386  0.10114627  0.90822764  1
  Sc  Sc54  1  0.51006005  0.30077914  0.89503068  1
  Sc  Sc55  1  0.30054858  0.90461541  0.28400988  1
  Sc  Sc56  1  0.29960991  0.50278329  0.89616512  1
  Sc  Sc57  1  0.69813593  0.70316309  0.69545096  1
  Sc  Sc58  1  0.69894227  0.30068835  0.90141980  1
  Sc  Sc59  1  0.29950334  0.89860418  0.09289975  1
  Sc  Sc60  1  0.91432794  0.49711135  0.90331584  1
  Sc  Sc61  1  0.09980955  0.30183648  0.10140646  1
  Sc  Sc62  1  0.90647056  0.10925181  0.50526485  1
  Sc  Sc63  1  0.09214229  0.50206348  0.70362932  1
  Sc  Sc64  1  0.50121594  0.90002599  0.50656005  1
  Sc  Sc65  1  0.68896654  0.49444716  0.90096496  1
  Sc  Sc66  1  0.69668167  0.30562992  0.30894339  1
  Sc  Sc67  1  0.69543498  0.89729769  0.30456839  1
  Sc  Sc68  1  0.50670104  0.90189900  0.29969869  1
  Sc  Sc69  1  0.49982147  0.89464438  0.70187348  1
  Sc  Sc70  1  0.29922046  0.29818730  0.29595169  1
  Sc  Sc71  1  0.69386899  0.10787756  0.89524694  1
  Sc  Sc72  1  0.29840131  0.09595852  0.51522350  1
  Sc  Sc73  1  0.50255543  0.70446396  0.29856391  1
  Sc  Sc74  1  0.29813826  0.29628028  0.10752913  1
  Sc  Sc75  1  0.69589546  0.70555959  0.09109505  1
  Sc  Sc76  1  0.90636166  0.49897652  0.50242241  1
  Sc  Sc77  1  0.09938157  0.10230235  0.70186131  1
  Sc  Sc78  1  0.90740610  0.69970632  0.09371188  1
  Sc  Sc79  1  0.69817995  0.30030950  0.08960489  1
  Sc  Sc80  1  0.09506423  0.09520596  0.28904408  1
  Sc  Sc81  1  0.29525708  0.70496545  0.89366302  1
  Sc  Sc82  1  0.09263964  0.30093572  0.49819706  1
  Sc  Sc83  1  0.09101229  0.90609258  0.69818617  1
  Sc  Sc84  1  0.68886575  0.50530518  0.69433046  1
  Sc  Sc85  1  0.50490636  0.30471609  0.10915754  1
  Sc  Sc86  1  0.30453062  0.90296864  0.51428210  1
  Sc  Sc87  1  0.10306052  0.89988432  0.10215465  1
  Sc  Sc88  1  0.89641912  0.70842003  0.50591361  1
  Sc  Sc89  1  0.89362418  0.49295192  0.09966275  1
  Sc  Sc90  1  0.50311604  0.69830986  0.90420842  1
  Sc  Sc91  1  0.49945705  0.31349984  0.70369601  1
  Sc  Sc92  1  0.10341613  0.70971711  0.09800794  1
  Sc  Sc93  1  0.69652968  0.89144540  0.49632426  1
  Sc  Sc94  1  0.69447023  0.69718641  0.49448755  1
  Sc  Sc95  1  0.50295551  0.50062567  0.50887850  1
  Sc  Sc96  1  0.89178825  0.49556540  0.29911629  1
  Sc  Sc97  1  0.50104371  0.48548963  0.28668472  1
  Sc  Sc98  1  0.69363073  0.50220112  0.49724394  1
  Sc  Sc99  1  0.69495631  0.10379392  0.70074105  1
  Nb  Nb100  1  0.09687958  0.89677149  0.50179250  1
  Nb  Nb101  1  0.89629901  0.89155775  0.69683008  1
  Nb  Nb102  1  0.30318926  0.10123129  0.90219614  1
  Nb  Nb103  1  0.29954186  0.30049894  0.70196945  1
  Nb  Nb104  1  0.10505099  0.89837137  0.90766759  1
  Nb  Nb105  1  0.50379707  0.50549479  0.70661952  1
  Nb  Nb106  1  0.89015923  0.90446085  0.09831915  1
  Nb  Nb107  1  0.89822988  0.50259163  0.69884594  1
  Nb  Nb108  1  0.50007327  0.69231033  0.09468209  1
  Nb  Nb109  1  0.89805178  0.70121948  0.70260642  1
  Nb  Nb110  1  0.29881398  0.70221873  0.30154940  1
  Nb  Nb111  1  0.10807654  0.30299412  0.70493030  1
  Nb  Nb112  1  0.29768139  0.49418468  0.49277556  1
  Nb  Nb113  1  0.69816505  0.49598563  0.09460859  1
  Nb  Nb114  1  0.10303130  0.69910638  0.50306940  1
  Nb  Nb115  1  0.50001953  0.10536142  0.49998404  1
  Nb  Nb116  1  0.69871542  0.09736892  0.09522048  1
  Nb  Nb117  1  0.49972753  0.11394257  0.31064874  1
  Nb  Nb118  1  0.49430001  0.29157345  0.30032378  1
  Nb  Nb119  1  0.50444868  0.90193743  0.90387739  1
  Nb  Nb120  1  0.49836287  0.69190814  0.70128704  1
  Nb  Nb121  1  0.50257186  0.10703269  0.69592242  1
  Nb  Nb122  1  0.89177967  0.09809073  0.30024208  1
  Nb  Nb123  1  0.90493431  0.90447692  0.50388026  1
  Nb  Nb124  1  0.70122156  0.30401766  0.50855285  1
  Nb  Nb125  1  0.19463343  0.79467094  0.59630770  1
  Nb  Nb126  1  0.19944452  0.18999401  0.40197966  1
  Nb  Nb127  1  0.20302864  -0.00314155  0.40202426  1
  Nb  Nb128  1  0.38983815  0.80233946  0.40008121  1
  Nb  Nb129  1  0.39608714  0.20216535  -0.00426077  1
  Nb  Nb130  1  0.40096802  0.00628147  0.40033631  1
  Nb  Nb131  1  0.39814403  0.39897516  0.40113332  1
  Nb  Nb132  1  0.00111357  0.59959792  0.20350627  1
  Nb  Nb133  1  0.40310816  0.20287364  0.60602644  1
  Nb  Nb134  1  0.80231806  0.80461713  0.19654970  1
  Nb  Nb135  1  0.80411507  0.40679186  0.79278771  1
  Nb  Nb136  1  0.00459447  0.60540743  0.39686536  1
  Nb  Nb137  1  0.20169798  0.60106655  0.00209136  1
  Nb  Nb138  1  0.59765688  0.00214914  0.00101885  1
  Nb  Nb139  1  0.80350576  -0.00400125  0.79472412  1
  Nb  Nb140  1  0.79708228  0.59678482  -0.00807709  1
  Nb  Nb141  1  0.80325705  -0.00355938  0.60021458  1
  Nb  Nb142  1  0.79979368  0.39691530  0.60399814  1
  Nb  Nb143  1  0.39928800  0.39562413  -0.00206967  1
  Nb  Nb144  1  0.20523337  0.39965618  0.60326130  1
  Nb  Nb145  1  0.60312218  0.59952547  0.19115520  1
  Nb  Nb146  1  0.20309210  0.80262550  0.40579803  1
  Nb  Nb147  1  0.80437890  0.59732918  0.79784537  1
  Nb  Nb148  1  0.20524602  0.19769740  -0.00731145  1
  Nb  Nb149  1  0.80462675  0.00419916  0.40603230  1
  Pd  Pd150  1  0.79609249  0.59551438  0.59984347  1
  Pd  Pd151  1  0.19338933  0.19519313  0.80601268  1
  Pd  Pd152  1  0.00290545  0.79375966  0.40786073  1
  Pd  Pd153  1  0.19885988  0.20527121  0.59919075  1
  Pd  Pd154  1  0.41156788  0.60158724  0.20909589  1
  Pd  Pd155  1  0.60409075  -0.00342008  0.60058852  1
  Pd  Pd156  1  0.40754613  0.79799546  0.80871936  1
  Pd  Pd157  1  0.00058092  0.00835982  0.40092310  1
  Pd  Pd158  1  0.80500169  0.19910058  0.80477938  1
  Pd  Pd159  1  0.41130727  0.59347537  0.39119753  1
  Pd  Pd160  1  0.60230620  0.00070856  0.80206689  1
  Pd  Pd161  1  0.60531561  0.79393478  0.19598378  1
  Pd  Pd162  1  0.79629855  0.19423863  -0.00813098  1
  Pd  Pd163  1  0.40005937  0.58944571  0.60215295  1
  Pd  Pd164  1  0.80047693  0.40505945  0.40974430  1
  Pd  Pd165  1  0.79547197  0.38791216  0.19681787  1
  Pd  Pd166  1  0.19269008  0.60651586  0.39123222  1
  Pd  Pd167  1  0.79161684  0.19396654  0.39984896  1
  Pd  Pd168  1  0.59825582  0.79564662  0.60043559  1
  Pd  Pd169  1  0.39619795  0.79189867  -0.00847502  1
  Pd  Pd170  1  0.59159307  -0.00032960  0.19528003  1
  Pd  Pd171  1  -0.00454449  -0.00159067  0.19296965  1
  Pd  Pd172  1  -0.00265137  0.19761791  0.19651166  1
  Pd  Pd173  1  0.19635305  -0.00454266  0.79743929  1
  Pd  Pd174  1  0.40791657  0.00655874  0.60304706  1
  Pd  Pd175  1  0.79603958  0.80167902  0.59473736  1
  Pd  Pd176  1  0.80777657  0.59735436  0.41144206  1
  Pd  Pd177  1  0.38934279  0.19819541  0.40911275  1
  Pd  Pd178  1  0.00165062  0.80882943  0.00525476  1
  Pd  Pd179  1  0.80271513  0.79252280  0.00266284  1
  Pd  Pd180  1  0.00398363  0.39896296  0.60053633  1
  Pd  Pd181  1  0.00894789  0.18779330  0.39932278  1
  Pd  Pd182  1  0.60828788  0.20953746  0.20215946  1
  Pd  Pd183  1  0.79886006  0.60865047  0.18369810  1
  Pd  Pd184  1  0.80323466  0.19841126  0.60554538  1
  Pd  Pd185  1  0.78808058  0.20543331  0.20189265  1
  Pd  Pd186  1  0.40685415  -0.00289937  0.79493930  1
  Pd  Pd187  1  0.59411034  0.40436483  0.39733063  1
  Pd  Pd188  1  0.39978845  0.40096924  0.59769469  1
  Pd  Pd189  1  0.40183517  0.79893806  0.20454641  1
  Pd  Pd190  1  -0.00352424  0.60434637  0.59281126  1
  Pd  Pd191  1  0.20306352  0.59292240  0.61270869  1
  Pd  Pd192  1  0.00475361  0.80759549  0.79948931  1
  Pd  Pd193  1  0.41282537  0.00313836  0.20416473  1
  Pd  Pd194  1  -0.00966366  0.40130320  0.19911067  1
  Pd  Pd195  1  0.19165948  0.80656207  0.79543952  1
  Pd  Pd196  1  -0.00369618  0.39641473  0.00699087  1
  Pd  Pd197  1  0.20370606  0.39647001  0.19910614  1
  Pd  Pd198  1  0.58964149  0.59336286  0.38838545  1
  Pd  Pd199  1  0.59761806  0.00040945  0.40716808  1
  Rh  Rh200  1  0.59200301  0.39534469  -0.00008596  1
  Rh  Rh201  1  0.60393602  0.60468399  0.79540370  1
  Rh  Rh202  1  -0.00671822  0.40645639  0.39605974  1
  Rh  Rh203  1  0.58617060  0.79930924  0.40475492  1
  Rh  Rh204  1  0.00319311  0.59595994  0.00986778  1
  Rh  Rh205  1  0.79820905  -0.00683353  0.21327992  1
  Rh  Rh206  1  -0.00653128  -0.00320781  0.60424329  1
  Rh  Rh207  1  0.79988349  0.40619807  -0.01122457  1
  Rh  Rh208  1  -0.00042775  -0.00747147  0.00653951  1
  Rh  Rh209  1  0.80058787  0.80831742  0.39848455  1
  Rh  Rh210  1  0.59223944  0.20815435  0.60685424  1
  Rh  Rh211  1  0.58793380  0.79397007  0.79719645  1
  Rh  Rh212  1  -0.00381108  -0.00881368  0.80233590  1
  Rh  Rh213  1  0.19920330  -0.01103224  0.60678850  1
  Rh  Rh214  1  0.40291248  0.20293676  0.19294114  1
  Rh  Rh215  1  0.00964713  0.20425556  0.60253078  1
  Rh  Rh216  1  0.60584087  0.40391149  0.79717344  1
  Rh  Rh217  1  0.21230906  0.40138178  0.00579894  1
  Rh  Rh218  1  0.01080516  0.20581046  -0.00265387  1
  Rh  Rh219  1  0.59675186  0.60562433  0.60089320  1
  Rh  Rh220  1  0.40634102  0.20448693  0.79684198  1
  Rh  Rh221  1  0.19189718  0.19866353  0.19783336  1
  Rh  Rh222  1  0.20883492  0.80404218  0.19980293  1
  Rh  Rh223  1  0.00235133  0.79624363  0.60136032  1
  Rh  Rh224  1  0.19660405  -0.00208180  0.19908882  1
  Rh  Rh225  1  0.59567790  0.20339988  0.79540723  1
  Rh  Rh226  1  0.19945928  0.41080265  0.78666981  1
  Rh  Rh227  1  0.19906570  0.59801146  0.80279251  1
  Rh  Rh228  1  0.60407317  0.40142613  0.60254084  1
  Rh  Rh229  1  0.00825656  0.20364536  0.80579721  1
  Rh  Rh230  1  0.19762801  0.00110257  -0.00081777  1
  Rh  Rh231  1  0.40289391  0.60701759  0.80373009  1
  Rh  Rh232  1  0.41211763  0.00873667  0.00466613  1
  Rh  Rh233  1  0.39425394  0.79186276  0.59621591  1
  Rh  Rh234  1  0.59599248  0.80441910  -0.00018996  1
  Rh  Rh235  1  0.39519068  0.39483002  0.20192173  1
  Rh  Rh236  1  0.59292275  0.19497976  0.00127390  1
  Rh  Rh237  1  0.60798088  0.20373825  0.39700855  1
  Rh  Rh238  1  -0.01161860  0.80193885  0.18909160  1
  Rh  Rh239  1  0.40579583  0.40179111  0.80477414  1
  Rh  Rh240  1  0.20474402  0.38686077  0.40317438  1
  Rh  Rh241  1  0.79075186  0.01003550  -0.01489915  1
  Rh  Rh242  1  0.19366109  0.60556378  0.19428250  1
  Rh  Rh243  1  -0.00603705  0.59771827  0.79750706  1
  Rh  Rh244  1  0.39047550  0.59976634  -0.00753731  1
  Rh  Rh245  1  0.60969077  0.40121324  0.19777896  1
  Rh  Rh246  1  0.80387130  0.79741135  0.79937710  1
  Rh  Rh247  1  0.20503120  0.79760130  -0.00091808  1
  Rh  Rh248  1  0.60827283  0.60105219  0.00345691  1
  Rh  Rh249  1  -0.00227062  0.40080296  0.79821014  1
