# generated using pymatgen
data_ZrScNbPdRh
_symmetry_space_group_name_H-M   'P 1'
_cell_length_a   16.56235329
_cell_length_b   16.56497034
_cell_length_c   16.56063746
_cell_angle_alpha   89.99065995
_cell_angle_beta   90.00703459
_cell_angle_gamma   90.02927925
_symmetry_Int_Tables_number   1
_chemical_formula_structural   ZrScNbPdRh
_chemical_formula_sum   'Zr50 Sc50 Nb50 Pd50 Rh50'
_cell_volume   4543.49119600
_cell_formula_units_Z   50
loop_
 _symmetry_equiv_pos_site_id
 _symmetry_equiv_pos_as_xyz
  1  'x, y, z'
loop_
 _atom_site_type_symbol
 _atom_site_label
 _atom_site_symmetry_multiplicity
 _atom_site_fract_x
 _atom_site_fract_y
 _atom_site_fract_z
 _atom_site_occupancy
  Zr  Zr0  1  0.49571022  0.89911483  0.50094324  1
  Zr  Zr1  1  0.89817049  0.29787095  0.30480050  1
  Zr  Zr2  1  0.09098483  0.30585847  0.90172158  1
  Zr  Zr3  1  0.09693132  0.90034004  0.69453121  1
  Zr  Zr4  1  0.49470727  0.49949354  0.30226800  1
  Zr  Zr5  1  0.09532745  0.69711808  0.30089904  1
  Zr  Zr6  1  0.91173993  0.49404256  0.90442155  1
  Zr  Zr7  1  0.30839586  0.70410287  0.49692596  1
  Zr  Zr8  1  0.70826453  0.10283716  0.90030331  1
  Zr  Zr9  1  0.29221295  0.70250761  0.90135852  1
  Zr  Zr10  1  0.89755557  0.09694788  0.49330090  1
  Zr  Zr11  1  0.70662291  0.29880972  0.30088199  1
  Zr  Zr12  1  0.09302862  0.10070220  0.49753067  1
  Zr  Zr13  1  0.50025519  0.69406080  0.30230889  1
  Zr  Zr14  1  0.30286050  0.49567878  0.70123880  1
  Zr  Zr15  1  0.09245795  0.50488075  0.09697111  1
  Zr  Zr16  1  0.89634587  0.09971870  0.29560493  1
  Zr  Zr17  1  0.69935805  0.69896116  0.70558198  1
  Zr  Zr18  1  0.70509640  0.29834351  0.10279862  1
  Zr  Zr19  1  0.50873257  0.90127743  0.09920761  1
  Zr  Zr20  1  0.30813087  0.90192808  0.69321264  1
  Zr  Zr21  1  0.69979335  0.49674486  0.30451656  1
  Zr  Zr22  1  0.50405115  0.90303207  0.90135283  1
  Zr  Zr23  1  0.08960194  0.69737133  0.50118840  1
  Zr  Zr24  1  0.70067041  0.90340890  0.48762187  1
  Zr  Zr25  1  0.29958281  0.69800506  0.30422140  1
  Zr  Zr26  1  0.29856773  0.29447061  0.70400350  1
  Zr  Zr27  1  0.49600041  0.70297513  0.69953633  1
  Zr  Zr28  1  0.70211359  0.70756498  0.30041957  1
  Zr  Zr29  1  0.09768539  0.09392754  0.30072402  1
  Zr  Zr30  1  0.70331467  0.68855970  0.49294814  1
  Zr  Zr31  1  0.89846043  0.30595778  0.70060742  1
  Zr  Zr32  1  0.10504807  0.69692347  0.09290688  1
  Zr  Zr33  1  0.29652184  0.70158651  0.09825747  1
  Zr  Zr34  1  0.10328166  0.09792830  0.90597269  1
  Zr  Zr35  1  0.49982876  0.30252212  0.30440485  1
  Zr  Zr36  1  0.29810113  0.10393490  0.08910728  1
  Zr  Zr37  1  0.89907355  0.69529627  0.30422282  1
  Zr  Zr38  1  0.69267575  0.10554507  0.70167399  1
  Zr  Zr39  1  0.09857213  0.10455770  0.69289061  1
  Zr  Zr40  1  0.09820837  0.29493640  0.30096533  1
  Zr  Zr41  1  0.30110328  0.09213748  0.50033859  1
  Zr  Zr42  1  0.89301741  0.90733457  0.10457421  1
  Zr  Zr43  1  0.30352887  0.89838361  0.49760285  1
  Zr  Zr44  1  0.51032939  0.10429992  0.50159455  1
  Zr  Zr45  1  0.29699716  0.50523070  0.30153018  1
  Zr  Zr46  1  0.69650421  0.70381410  0.90162212  1
  Zr  Zr47  1  0.69762904  0.30589257  0.50290157  1
  Zr  Zr48  1  0.31002290  0.90442087  0.09718960  1
  Zr  Zr49  1  0.29609006  0.09872448  0.29303760  1
  Sc  Sc50  1  0.69855589  0.89920451  0.90618915  1
  Sc  Sc51  1  0.69455291  0.29118343  0.89664355  1
  Sc  Sc52  1  0.89228996  0.50312571  0.49822780  1
  Sc  Sc53  1  0.90449216  0.90777829  0.69443437  1
  Sc  Sc54  1  0.09529187  0.50843756  0.90492812  1
  Sc  Sc55  1  0.89859103  0.09463435  0.69823753  1
  Sc  Sc56  1  0.91117877  0.69824868  0.69043897  1
  Sc  Sc57  1  0.50632913  0.90780742  0.70270843  1
  Sc  Sc58  1  0.89830012  0.29990173  0.11124726  1
  Sc  Sc59  1  0.30909171  0.49853937  0.89450322  1
  Sc  Sc60  1  0.50136041  0.10113708  0.30167518  1
  Sc  Sc61  1  0.49308559  0.09554286  0.09432821  1
  Sc  Sc62  1  0.30394558  0.90306253  0.31004430  1
  Sc  Sc63  1  0.50300122  0.50373655  0.10608259  1
  Sc  Sc64  1  0.70788511  0.09718131  0.09601645  1
  Sc  Sc65  1  0.10328565  0.69611138  0.69930944  1
  Sc  Sc66  1  0.50356284  0.10015723  0.70710206  1
  Sc  Sc67  1  0.69732410  0.10011428  0.49558421  1
  Sc  Sc68  1  0.90154937  0.69938767  0.49444915  1
  Sc  Sc69  1  0.29617955  0.50941598  0.09972471  1
  Sc  Sc70  1  0.29330992  0.49442121  0.50306340  1
  Sc  Sc71  1  0.09888114  0.50279512  0.69883564  1
  Sc  Sc72  1  0.50500707  0.49797929  0.50103475  1
  Sc  Sc73  1  0.89609214  0.29953691  0.90643463  1
  Sc  Sc74  1  0.90657107  0.70686949  0.10444992  1
  Sc  Sc75  1  0.90277647  0.69527553  0.90226645  1
  Sc  Sc76  1  0.70291239  0.09777023  0.30534510  1
  Sc  Sc77  1  0.69560565  0.91019385  0.70507532  1
  Sc  Sc78  1  0.49703114  0.69542350  0.49552347  1
  Sc  Sc79  1  0.90232961  0.91248967  0.90926374  1
  Sc  Sc80  1  0.69001211  0.50776973  0.89313600  1
  Sc  Sc81  1  0.30763936  0.29181118  0.09781399  1
  Sc  Sc82  1  0.49723176  0.49187423  0.70353592  1
  Sc  Sc83  1  0.29921562  0.90090109  0.90546235  1
  Sc  Sc84  1  0.09395941  0.90364135  0.49349070  1
  Sc  Sc85  1  0.30869814  0.30254155  0.30074706  1
  Sc  Sc86  1  0.10519488  0.09547329  0.10891169  1
  Sc  Sc87  1  0.68999892  0.30609510  0.70073204  1
  Sc  Sc88  1  0.90159088  0.50691067  0.70123033  1
  Sc  Sc89  1  0.30097199  0.69017036  0.70047787  1
  Sc  Sc90  1  0.10292140  0.28983754  0.10292053  1
  Sc  Sc91  1  0.69707176  0.49694731  0.69158463  1
  Sc  Sc92  1  0.50022916  0.10179046  0.89923395  1
  Sc  Sc93  1  0.49656717  0.49570806  0.89363485  1
  Sc  Sc94  1  0.51307695  0.70310728  0.90006653  1
  Sc  Sc95  1  0.89080350  0.89577472  0.29676957  1
  Sc  Sc96  1  0.09653990  0.29593165  0.49932306  1
  Sc  Sc97  1  0.49083472  0.29978127  0.89602200  1
  Sc  Sc98  1  0.09369701  0.50165527  0.30661184  1
  Sc  Sc99  1  0.09243213  0.90365417  0.09414095  1
  Nb  Nb100  1  0.89793669  0.29471985  0.50333856  1
  Nb  Nb101  1  0.89726950  0.10177145  0.90643646  1
  Nb  Nb102  1  0.50307802  0.29952436  0.69836654  1
  Nb  Nb103  1  0.89506828  0.89730547  0.50427258  1
  Nb  Nb104  1  0.09595788  0.49561626  0.50192494  1
  Nb  Nb105  1  0.10311539  0.89791729  0.89570334  1
  Nb  Nb106  1  0.50649644  0.69942408  0.09701663  1
  Nb  Nb107  1  0.90037440  0.50120478  0.09980776  1
  Nb  Nb108  1  0.30294753  0.29691778  0.50071194  1
  Nb  Nb109  1  0.69935944  0.49927769  0.10157896  1
  Nb  Nb110  1  0.89754652  0.09412965  0.09422561  1
  Nb  Nb111  1  0.10307461  0.90179386  0.29605327  1
  Nb  Nb112  1  0.70363705  0.89069808  0.11248943  1
  Nb  Nb113  1  0.69333130  0.69577024  0.09472998  1
  Nb  Nb114  1  0.10751048  0.71089464  0.90513701  1
  Nb  Nb115  1  0.51325034  0.89331518  0.29284056  1
  Nb  Nb116  1  0.50137476  0.30092497  0.09993543  1
  Nb  Nb117  1  0.70020374  0.49911383  0.50258102  1
  Nb  Nb118  1  0.29745197  0.10344395  0.70458683  1
  Nb  Nb119  1  0.49991777  0.29277293  0.50374580  1
  Nb  Nb120  1  0.09522356  0.29687635  0.70179752  1
  Nb  Nb121  1  0.69822917  0.89704320  0.28962126  1
  Nb  Nb122  1  0.90095761  0.50020238  0.28958885  1
  Nb  Nb123  1  0.30090519  0.11645376  0.89165908  1
  Nb  Nb124  1  0.29549108  0.29388149  0.90127104  1
  Nb  Nb125  1  -0.00500332  0.19135374  0.00019987  1
  Nb  Nb126  1  0.79567364  0.80233973  0.60016139  1
  Nb  Nb127  1  0.79492285  0.40798242  0.00170824  1
  Nb  Nb128  1  0.39925582  0.20230490  0.60153146  1
  Nb  Nb129  1  0.20494408  0.19818764  0.40205214  1
  Nb  Nb130  1  0.40530385  0.60768246  0.00081924  1
  Nb  Nb131  1  0.79968632  0.40445198  0.80643115  1
  Nb  Nb132  1  0.80777695  0.80033984  0.79607864  1
  Nb  Nb133  1  0.59857068  0.20488613  0.19582919  1
  Nb  Nb134  1  -0.00256085  0.19715915  0.80442155  1
  Nb  Nb135  1  0.19941376  0.40156320  0.19768115  1
  Nb  Nb136  1  -0.00098830  0.39773516  0.59668087  1
  Nb  Nb137  1  0.79820356  0.59656962  0.19383806  1
  Nb  Nb138  1  0.60664708  0.79916133  0.59718287  1
  Nb  Nb139  1  0.00439237  0.80349738  0.80569913  1
  Nb  Nb140  1  0.20349250  0.00642672  0.79706268  1
  Nb  Nb141  1  0.19792371  0.39221783  0.80244463  1
  Nb  Nb142  1  0.20260689  0.80212845  0.20242734  1
  Nb  Nb143  1  0.40483721  0.79873111  0.19961718  1
  Nb  Nb144  1  0.20221251  0.39688866  -0.00140854  1
  Nb  Nb145  1  0.79647846  0.59590387  0.00644486  1
  Nb  Nb146  1  0.79912253  0.20418540  0.59858094  1
  Nb  Nb147  1  0.40041392  0.80114774  0.80147662  1
  Nb  Nb148  1  0.60159007  0.39907474  0.00474067  1
  Nb  Nb149  1  0.20208410  0.79993498  0.59494742  1
  Pd  Pd150  1  0.40617558  0.19707402  0.19732854  1
  Pd  Pd151  1  0.39681585  0.19596881  0.40442493  1
  Pd  Pd152  1  0.40492316  -0.00563144  0.20716488  1
  Pd  Pd153  1  -0.00762899  0.40259926  0.40669152  1
  Pd  Pd154  1  0.80010685  -0.00651208  0.80275782  1
  Pd  Pd155  1  0.39123961  0.40361111  0.19120301  1
  Pd  Pd156  1  0.20002303  0.60532361  0.59424956  1
  Pd  Pd157  1  0.40439065  0.39507570  0.59761219  1
  Pd  Pd158  1  0.41118042  -0.00015737  0.39287912  1
  Pd  Pd159  1  0.20016679  0.39218696  0.39566190  1
  Pd  Pd160  1  0.39394342  -0.00181086  0.80661426  1
  Pd  Pd161  1  0.19650589  0.59826580  0.40856078  1
  Pd  Pd162  1  0.59255743  0.59446834  0.79345802  1
  Pd  Pd163  1  0.20298970  -0.01002235  0.19714549  1
  Pd  Pd164  1  0.59771994  0.39930179  0.40539644  1
  Pd  Pd165  1  0.59444892  0.20408320  0.00272400  1
  Pd  Pd166  1  -0.00370277  0.19224946  0.19356947  1
  Pd  Pd167  1  0.00767719  0.39793780  0.19760825  1
  Pd  Pd168  1  0.59843724  0.39616765  0.19807684  1
  Pd  Pd169  1  0.59716369  0.79646908  0.40674220  1
  Pd  Pd170  1  0.39836626  0.40466656  0.40931671  1
  Pd  Pd171  1  0.59737516  -0.00127251  0.39247835  1
  Pd  Pd172  1  0.60900338  0.00058675  0.00312244  1
  Pd  Pd173  1  0.19106105  0.39316265  0.60471218  1
  Pd  Pd174  1  0.19362406  0.80206685  0.40047651  1
  Pd  Pd175  1  0.39999658  0.40776391  0.00483514  1
  Pd  Pd176  1  0.00752771  0.61081331  0.80377085  1
  Pd  Pd177  1  0.80276220  0.79602821  -0.00297675  1
  Pd  Pd178  1  0.20381879  -0.00110516  -0.00466383  1
  Pd  Pd179  1  -0.00588116  0.80805867  0.39717540  1
  Pd  Pd180  1  -0.00917500  -0.01069897  0.39366323  1
  Pd  Pd181  1  0.60581557  0.60107612  0.20569976  1
  Pd  Pd182  1  0.79240950  0.00355413  0.59911469  1
  Pd  Pd183  1  0.40240600  0.59229878  0.59565981  1
  Pd  Pd184  1  0.80404110  0.59925350  0.80607032  1
  Pd  Pd185  1  0.80473426  0.20603311  0.79347206  1
  Pd  Pd186  1  0.40976932  0.01236552  0.60449793  1
  Pd  Pd187  1  0.80351682  0.60410864  0.60055778  1
  Pd  Pd188  1  0.80623140  0.40358736  0.40251641  1
  Pd  Pd189  1  0.20378711  0.20329584  0.59201908  1
  Pd  Pd190  1  0.60635021  0.01350471  0.19762446  1
  Pd  Pd191  1  0.40817920  0.79413041  -0.00361049  1
  Pd  Pd192  1  0.19640195  0.59021479  0.80475092  1
  Pd  Pd193  1  0.20335627  0.80855736  0.78894893  1
  Pd  Pd194  1  0.40102192  0.60511395  0.19313518  1
  Pd  Pd195  1  0.00601259  0.80520315  0.20185867  1
  Pd  Pd196  1  0.00428882  0.00218969  0.80293622  1
  Pd  Pd197  1  -0.00387797  0.80221929  -0.00518805  1
  Pd  Pd198  1  0.19714751  -0.00515971  0.59988294  1
  Pd  Pd199  1  0.59456464  0.60100792  0.60306053  1
  Rh  Rh200  1  0.19722571  0.81201562  0.01133092  1
  Rh  Rh201  1  0.79546975  0.19022877  0.19885169  1
  Rh  Rh202  1  0.80381546  0.40706486  0.19838327  1
  Rh  Rh203  1  0.59854846  0.79200462  0.19531260  1
  Rh  Rh204  1  0.79612078  0.20137528  0.40871322  1
  Rh  Rh205  1  0.80190018  0.80385755  0.40380434  1
  Rh  Rh206  1  0.19693356  0.00481242  0.40043836  1
  Rh  Rh207  1  -0.01153119  0.20321851  0.60684261  1
  Rh  Rh208  1  0.00206533  0.00456308  0.00285828  1
  Rh  Rh209  1  0.39421814  0.39110902  0.79750863  1
  Rh  Rh210  1  0.40453807  0.61475793  0.81177567  1
  Rh  Rh211  1  0.60565599  0.00608815  0.81120130  1
  Rh  Rh212  1  0.60113905  0.20434186  0.60279777  1
  Rh  Rh213  1  0.18977844  0.59898172  0.20634437  1
  Rh  Rh214  1  -0.00445022  -0.00212756  0.20196172  1
  Rh  Rh215  1  0.60128112  0.59406507  0.39779178  1
  Rh  Rh216  1  0.59434194  0.40189816  0.59761878  1
  Rh  Rh217  1  -0.00335188  0.60141716  0.19894698  1
  Rh  Rh218  1  0.80145202  0.59136146  0.39209446  1
  Rh  Rh219  1  0.60465558  0.80679129  0.00591564  1
  Rh  Rh220  1  -0.00407529  0.59107366  0.40290216  1
  Rh  Rh221  1  0.20747521  0.20902533  0.20954787  1
  Rh  Rh222  1  0.59374472  0.20093620  0.80215587  1
  Rh  Rh223  1  0.79540348  0.00305271  0.20210482  1
  Rh  Rh224  1  -0.00024610  0.38768070  0.01530712  1
  Rh  Rh225  1  0.79877794  0.78935119  0.19600707  1
  Rh  Rh226  1  0.39802728  0.58923537  0.40815731  1
  Rh  Rh227  1  0.19427657  0.20476289  -0.00002055  1
  Rh  Rh228  1  0.79259142  -0.00591626  0.00157637  1
  Rh  Rh229  1  0.80139833  -0.00649960  0.39357243  1
  Rh  Rh230  1  0.00152549  0.20002699  0.39848799  1
  Rh  Rh231  1  0.60068196  0.80577280  0.79144661  1
  Rh  Rh232  1  0.60077437  -0.00435209  0.59639551  1
  Rh  Rh233  1  0.40436362  0.19899430  -0.00334016  1
  Rh  Rh234  1  0.80336043  0.39888046  0.60470543  1
  Rh  Rh235  1  0.18828987  0.19969381  0.80238418  1
  Rh  Rh236  1  0.00031215  0.58893960  0.59360637  1
  Rh  Rh237  1  0.40207708  0.79781740  0.60623878  1
  Rh  Rh238  1  -0.00303678  0.00079458  0.59133373  1
  Rh  Rh239  1  0.00014853  0.80296923  0.60231395  1
  Rh  Rh240  1  -0.00495355  0.61125193  0.00086157  1
  Rh  Rh241  1  -0.00007686  0.39843370  0.78905144  1
  Rh  Rh242  1  0.40718322  0.20372492  0.79311670  1
  Rh  Rh243  1  0.60379627  0.39693281  0.80622928  1
  Rh  Rh244  1  0.20846340  0.58904853  -0.01243201  1
  Rh  Rh245  1  0.39484660  0.01077025  -0.01184511  1
  Rh  Rh246  1  0.59563592  0.59031699  -0.00105726  1
  Rh  Rh247  1  0.80921396  0.20717687  0.00671217  1
  Rh  Rh248  1  0.41148583  0.80536534  0.38777195  1
  Rh  Rh249  1  0.60392955  0.20587231  0.39160298  1
