# generated using pymatgen
data_ZrScNbPdRh
_symmetry_space_group_name_H-M   'P 1'
_cell_length_a   16.56336254
_cell_length_b   16.55864696
_cell_length_c   16.55785157
_cell_angle_alpha   90.00635118
_cell_angle_beta   89.99329246
_cell_angle_gamma   90.00828207
_symmetry_Int_Tables_number   1
_chemical_formula_structural   ZrScNbPdRh
_chemical_formula_sum   'Zr50 Sc50 Nb50 Pd50 Rh50'
_cell_volume   4541.27006427
_cell_formula_units_Z   50
loop_
 _symmetry_equiv_pos_site_id
 _symmetry_equiv_pos_as_xyz
  1  'x, y, z'
loop_
 _atom_site_type_symbol
 _atom_site_label
 _atom_site_symmetry_multiplicity
 _atom_site_fract_x
 _atom_site_fract_y
 _atom_site_fract_z
 _atom_site_occupancy
  Zr  Zr0  1  0.10073427  0.10336759  0.09383789  1
  Zr  Zr1  1  0.09999853  0.89962823  0.49725300  1
  Zr  Zr2  1  0.30953655  0.09776030  0.29942888  1
  Zr  Zr3  1  0.09835292  0.49817415  0.90107420  1
  Zr  Zr4  1  0.49127393  0.70105350  0.30091190  1
  Zr  Zr5  1  0.30322191  0.09841101  0.89983513  1
  Zr  Zr6  1  0.70485083  0.09606972  0.09336612  1
  Zr  Zr7  1  0.10243854  0.10471096  0.29667498  1
  Zr  Zr8  1  0.50583610  0.29581158  0.69543075  1
  Zr  Zr9  1  0.10420184  0.50010909  0.30848517  1
  Zr  Zr10  1  0.89667789  0.50255576  0.10249321  1
  Zr  Zr11  1  0.51003036  0.89940975  0.08989907  1
  Zr  Zr12  1  0.88919145  0.30680914  0.89348485  1
  Zr  Zr13  1  0.10199319  0.30511891  0.89738934  1
  Zr  Zr14  1  0.50412516  0.50643707  0.29910806  1
  Zr  Zr15  1  0.49309946  0.50073933  0.89503854  1
  Zr  Zr16  1  0.30789255  0.29693072  0.49383525  1
  Zr  Zr17  1  0.49113088  0.30092816  0.09885598  1
  Zr  Zr18  1  0.09963731  0.29643376  0.29985665  1
  Zr  Zr19  1  0.90410623  0.70739450  0.11300085  1
  Zr  Zr20  1  0.89551045  0.11242509  0.49637337  1
  Zr  Zr21  1  0.50271501  0.09965975  0.69739128  1
  Zr  Zr22  1  0.50590674  0.69786036  0.70717901  1
  Zr  Zr23  1  0.10888195  0.29974911  0.10411457  1
  Zr  Zr24  1  0.30129120  0.29447209  0.70439833  1
  Zr  Zr25  1  0.90270699  0.89167893  0.29474329  1
  Zr  Zr26  1  0.30234812  0.49805682  0.31024252  1
  Zr  Zr27  1  0.30547656  0.30797157  0.10325701  1
  Zr  Zr28  1  0.30207677  0.89278925  0.69955395  1
  Zr  Zr29  1  0.89914214  0.90094837  0.09524365  1
  Zr  Zr30  1  0.09645192  0.50803302  0.50594160  1
  Zr  Zr31  1  0.68836070  0.10641478  0.70104786  1
  Zr  Zr32  1  0.89721873  0.89783265  0.89136903  1
  Zr  Zr33  1  0.50085638  0.90097956  0.49694060  1
  Zr  Zr34  1  0.70228274  0.69781143  0.50957041  1
  Zr  Zr35  1  0.50454763  0.49558476  0.69769842  1
  Zr  Zr36  1  0.69148744  0.89984407  0.49742668  1
  Zr  Zr37  1  0.88995663  0.50237643  0.50857728  1
  Zr  Zr38  1  0.09934384  0.90382309  0.09524615  1
  Zr  Zr39  1  0.30755846  0.50083709  0.69776199  1
  Zr  Zr40  1  0.50267903  0.09935339  0.50189722  1
  Zr  Zr41  1  0.10118054  0.69741474  0.69285875  1
  Zr  Zr42  1  0.89216134  0.10280348  0.90617257  1
  Zr  Zr43  1  0.09069560  0.70191893  0.30820175  1
  Zr  Zr44  1  0.10690184  0.90004771  0.69755621  1
  Zr  Zr45  1  0.10620890  0.10230101  0.90165952  1
  Zr  Zr46  1  0.90113028  0.49776600  0.89814045  1
  Zr  Zr47  1  0.30346305  0.89666155  0.30537372  1
  Zr  Zr48  1  0.71121257  0.49793153  0.90026569  1
  Zr  Zr49  1  0.30559177  0.70141377  0.89891974  1
  Sc  Sc50  1  0.10187996  0.90009525  0.89877699  1
  Sc  Sc51  1  0.69360136  0.90351673  0.29993062  1
  Sc  Sc52  1  0.89433269  0.50913069  0.30350614  1
  Sc  Sc53  1  0.48806562  0.30259526  0.90335868  1
  Sc  Sc54  1  0.70226346  0.50561473  0.10860037  1
  Sc  Sc55  1  0.29659974  0.50009804  0.90489593  1
  Sc  Sc56  1  0.31095194  0.70128393  0.10110864  1
  Sc  Sc57  1  0.70133042  0.69679324  0.10203860  1
  Sc  Sc58  1  0.71146538  0.30254314  0.50509774  1
  Sc  Sc59  1  0.50344823  0.70848908  0.50056682  1
  Sc  Sc60  1  0.30257469  0.89899463  0.88863261  1
  Sc  Sc61  1  0.48626778  0.29489080  0.29857341  1
  Sc  Sc62  1  0.30086142  0.30745311  0.90358561  1
  Sc  Sc63  1  0.30048416  0.10456481  0.09792496  1
  Sc  Sc64  1  0.30274855  0.69532374  0.50170623  1
  Sc  Sc65  1  0.10182464  0.49684294  0.09743592  1
  Sc  Sc66  1  0.30261827  0.89769727  0.50304520  1
  Sc  Sc67  1  0.10091245  0.69736208  0.89163968  1
  Sc  Sc68  1  0.89994260  0.49937334  0.69798978  1
  Sc  Sc69  1  0.88512789  0.90552630  0.50190119  1
  Sc  Sc70  1  0.70361794  0.50589849  0.30228259  1
  Sc  Sc71  1  0.89586783  0.29076750  0.09780135  1
  Sc  Sc72  1  0.30020320  0.90369607  0.10468686  1
  Sc  Sc73  1  0.49931208  0.89868231  0.70395780  1
  Sc  Sc74  1  0.70225203  0.09848323  0.88926026  1
  Sc  Sc75  1  0.50202704  0.10114968  0.10621889  1
  Sc  Sc76  1  0.70041036  0.09845975  0.28860251  1
  Sc  Sc77  1  0.70735742  0.89890063  0.69848013  1
  Sc  Sc78  1  0.30198213  0.70354494  0.69808325  1
  Sc  Sc79  1  0.09602770  0.50368159  0.70145103  1
  Sc  Sc80  1  0.69228303  0.90599259  0.89769522  1
  Sc  Sc81  1  0.30797894  0.09334244  0.50114045  1
  Sc  Sc82  1  0.09580610  0.69291463  0.49602497  1
  Sc  Sc83  1  0.69011139  0.69194808  0.30617937  1
  Sc  Sc84  1  0.70316158  0.90654821  0.10037851  1
  Sc  Sc85  1  0.88383135  0.10272317  0.70281331  1
  Sc  Sc86  1  0.88777673  0.70550179  0.70392413  1
  Sc  Sc87  1  0.89462306  0.30283647  0.68935337  1
  Sc  Sc88  1  0.70662608  0.29039123  0.10691591  1
  Sc  Sc89  1  0.49427185  0.50506939  0.10215986  1
  Sc  Sc90  1  0.49979668  0.29439002  0.50697190  1
  Sc  Sc91  1  0.09699565  0.70134410  0.10429467  1
  Sc  Sc92  1  0.29323044  0.09211301  0.69875727  1
  Sc  Sc93  1  0.09060682  0.28797156  0.51063357  1
  Sc  Sc94  1  0.49961443  0.90355206  0.30528568  1
  Sc  Sc95  1  0.10258095  0.10106676  0.50759424  1
  Sc  Sc96  1  0.29896456  0.30623897  0.29362396  1
  Sc  Sc97  1  0.10795841  0.89607492  0.30011584  1
  Sc  Sc98  1  0.50038182  0.49898281  0.50848181  1
  Sc  Sc99  1  0.70043855  0.50282645  0.68680910  1
  Nb  Nb100  1  0.50271070  0.89893285  0.89629599  1
  Nb  Nb101  1  0.69497799  0.09356960  0.49937187  1
  Nb  Nb102  1  0.50794831  0.09308725  0.89240504  1
  Nb  Nb103  1  0.69929252  0.50113225  0.49997735  1
  Nb  Nb104  1  0.70199040  0.70076512  0.88832940  1
  Nb  Nb105  1  0.90653422  0.70417862  0.30973929  1
  Nb  Nb106  1  0.69889827  0.29903903  0.89754062  1
  Nb  Nb107  1  0.50156930  0.09912927  0.30385501  1
  Nb  Nb108  1  0.09846080  0.10664143  0.69870421  1
  Nb  Nb109  1  0.69960633  0.30098404  0.29942371  1
  Nb  Nb110  1  0.50399303  0.70189063  0.09582883  1
  Nb  Nb111  1  0.10542334  0.28772119  0.70058304  1
  Nb  Nb112  1  0.90236762  0.70005078  0.49725884  1
  Nb  Nb113  1  0.69574355  0.29955093  0.70666399  1
  Nb  Nb114  1  0.89283925  0.69927634  0.89917084  1
  Nb  Nb115  1  0.29000773  0.49678360  0.50152328  1
  Nb  Nb116  1  0.69861035  0.70336217  0.70343707  1
  Nb  Nb117  1  0.29915731  0.70011472  0.30103483  1
  Nb  Nb118  1  0.89518480  0.09806629  0.09901815  1
  Nb  Nb119  1  0.50729690  0.70926454  0.90361769  1
  Nb  Nb120  1  0.89995438  0.30028143  0.49591003  1
  Nb  Nb121  1  0.29491877  0.49781012  0.10498176  1
  Nb  Nb122  1  0.90133749  0.90063765  0.69887718  1
  Nb  Nb123  1  0.89608165  0.29069333  0.30926234  1
  Nb  Nb124  1  0.90494483  0.10531240  0.30006174  1
  Nb  Nb125  1  0.60384773  0.39778322  0.80425744  1
  Nb  Nb126  1  0.40985266  -0.00250163  -0.00854563  1
  Nb  Nb127  1  0.59948742  0.20330182  -0.00635499  1
  Nb  Nb128  1  0.60295147  0.20076242  0.39621732  1
  Nb  Nb129  1  0.60516504  0.39494170  0.39714106  1
  Nb  Nb130  1  0.59885104  0.60435266  -0.00833931  1
  Nb  Nb131  1  -0.00684199  0.80490568  0.59940910  1
  Nb  Nb132  1  -0.00406989  0.00783219  0.19974516  1
  Nb  Nb133  1  0.20268021  0.19882568  0.39816913  1
  Nb  Nb134  1  0.59277302  0.79508402  0.19639563  1
  Nb  Nb135  1  -0.00909041  0.39378716  0.40298077  1
  Nb  Nb136  1  0.20609439  0.60137739  0.20707818  1
  Nb  Nb137  1  0.60041257  0.39610911  0.20360693  1
  Nb  Nb138  1  0.80045531  0.79369692  0.40011776  1
  Nb  Nb139  1  -0.00456538  0.00494153  0.39769630  1
  Nb  Nb140  1  -0.00042445  0.00569172  0.79338225  1
  Nb  Nb141  1  0.20057267  0.39708902  0.60038404  1
  Nb  Nb142  1  0.60232830  0.40012235  0.00120308  1
  Nb  Nb143  1  0.80105270  0.79343643  -0.00806638  1
  Nb  Nb144  1  0.00234961  0.19932433  0.79624449  1
  Nb  Nb145  1  0.40311938  0.19351830  0.80042843  1
  Nb  Nb146  1  0.20164028  0.79919513  -0.00098610  1
  Nb  Nb147  1  -0.00458151  0.00056277  0.60416245  1
  Nb  Nb148  1  -0.00582967  0.39431867  0.20910031  1
  Nb  Nb149  1  -0.00888237  0.60232610  -0.00350413  1
  Pd  Pd150  1  -0.00554133  0.60482511  0.79995696  1
  Pd  Pd151  1  0.79298095  0.39548719  0.01213543  1
  Pd  Pd152  1  0.60607165  0.59142540  0.80252096  1
  Pd  Pd153  1  0.19689616  0.79278407  0.58960961  1
  Pd  Pd154  1  0.80201835  0.39653018  0.20285829  1
  Pd  Pd155  1  0.80581474  0.00233443  0.20560571  1
  Pd  Pd156  1  0.61562380  0.79506457  0.00087121  1
  Pd  Pd157  1  0.40745154  -0.00323277  0.19378352  1
  Pd  Pd158  1  0.19870944  0.79251478  0.19522483  1
  Pd  Pd159  1  0.00263133  0.79155343  -0.00681940  1
  Pd  Pd160  1  0.20556144  0.59766761  0.79480154  1
  Pd  Pd161  1  0.40266156  0.59799825  0.00097824  1
  Pd  Pd162  1  0.00763747  0.59146355  0.19781683  1
  Pd  Pd163  1  0.41246606  0.40330173  0.40413327  1
  Pd  Pd164  1  0.20029076  0.40635515  0.79196428  1
  Pd  Pd165  1  0.80057363  -0.00238483  0.39090306  1
  Pd  Pd166  1  0.39323131  0.80913237  -0.00263228  1
  Pd  Pd167  1  0.20560212  0.79200380  0.40704100  1
  Pd  Pd168  1  0.18788268  0.38666800  0.41517409  1
  Pd  Pd169  1  0.79819456  0.40417348  0.39867574  1
  Pd  Pd170  1  0.78475515  0.79349550  0.20776942  1
  Pd  Pd171  1  0.39461354  0.59794806  0.19840707  1
  Pd  Pd172  1  0.79317271  0.20171646  0.60223095  1
  Pd  Pd173  1  0.40134131  0.59892512  0.41038204  1
  Pd  Pd174  1  -0.00331008  0.20747226  -0.00672778  1
  Pd  Pd175  1  0.00078687  0.39132122  0.78658287  1
  Pd  Pd176  1  0.00246872  0.79991899  0.79313574  1
  Pd  Pd177  1  0.40092512  -0.00490979  0.60236115  1
  Pd  Pd178  1  -0.00368760  0.00231054  -0.00414576  1
  Pd  Pd179  1  0.20786251  0.20885342  -0.00099324  1
  Pd  Pd180  1  0.79958606  0.60730419  0.00338660  1
  Pd  Pd181  1  0.40696727  0.80682166  0.19855061  1
  Pd  Pd182  1  0.79881896  0.59402357  0.78898055  1
  Pd  Pd183  1  0.19409302  0.60766484  0.00885617  1
  Pd  Pd184  1  0.79584960  0.00427709  0.60188533  1
  Pd  Pd185  1  0.59557857  0.59636415  0.41147374  1
  Pd  Pd186  1  0.21110653  0.19927887  0.59069427  1
  Pd  Pd187  1  0.78628488  0.19404094  0.39553167  1
  Pd  Pd188  1  0.19605919  0.00000653  0.79896761  1
  Pd  Pd189  1  0.59637276  0.20461440  0.19948173  1
  Pd  Pd190  1  -0.00673758  0.20100687  0.19327232  1
  Pd  Pd191  1  0.19791943  0.00696894  0.40379713  1
  Pd  Pd192  1  0.40476823  0.60466879  0.59551683  1
  Pd  Pd193  1  0.39581422  0.39751594  0.59746993  1
  Pd  Pd194  1  -0.00287980  0.39956365  0.01012021  1
  Pd  Pd195  1  0.39876819  0.60492681  0.80018162  1
  Pd  Pd196  1  0.00584725  0.39654740  0.60113556  1
  Pd  Pd197  1  0.80044030  0.61181789  0.20973074  1
  Pd  Pd198  1  0.19677224  0.00316004  0.19781757  1
  Pd  Pd199  1  0.59822093  0.80373096  0.60830118  1
  Rh  Rh200  1  0.40129068  0.19572768  0.39744597  1
  Rh  Rh201  1  0.60271881  -0.00853577  0.79144449  1
  Rh  Rh202  1  0.79566724  0.39836634  0.60242483  1
  Rh  Rh203  1  -0.01040200  0.81376045  0.41240155  1
  Rh  Rh204  1  0.39763094  0.19606102  0.20049169  1
  Rh  Rh205  1  -0.01078230  0.61207210  0.60600802  1
  Rh  Rh206  1  0.40522785  0.40947521  0.20184188  1
  Rh  Rh207  1  0.19436455  0.40960786  0.19891820  1
  Rh  Rh208  1  0.59088182  0.21056928  0.81002832  1
  Rh  Rh209  1  0.59675691  0.60053668  0.19060617  1
  Rh  Rh210  1  0.59603766  -0.00621233  0.20036690  1
  Rh  Rh211  1  0.01109437  0.80958061  0.20197722  1
  Rh  Rh212  1  0.79269714  0.40192567  0.78818935  1
  Rh  Rh213  1  0.60875622  0.39573355  0.59729085  1
  Rh  Rh214  1  0.59879736  0.60397651  0.59899377  1
  Rh  Rh215  1  0.60515866  0.79870291  0.39118742  1
  Rh  Rh216  1  0.20490338  0.60723951  0.39648762  1
  Rh  Rh217  1  0.41064271  0.18487280  -0.00984287  1
  Rh  Rh218  1  0.39581546  0.79981436  0.40326379  1
  Rh  Rh219  1  0.19742434  -0.00016322  0.59942833  1
  Rh  Rh220  1  0.20336232  0.19893967  0.80629927  1
  Rh  Rh221  1  0.40298007  -0.00274597  0.40266275  1
  Rh  Rh222  1  0.79967386  -0.00110512  0.79845165  1
  Rh  Rh223  1  0.00744263  0.19799946  0.40460359  1
  Rh  Rh224  1  0.40647826  0.39146900  0.79375938  1
  Rh  Rh225  1  0.60201964  -0.00597878  0.60503149  1
  Rh  Rh226  1  0.61066068  0.20380932  0.58526103  1
  Rh  Rh227  1  0.20294246  0.39958376  0.00096550  1
  Rh  Rh228  1  0.80316975  0.79630744  0.59503530  1
  Rh  Rh229  1  0.21165016  0.19814098  0.20322316  1
  Rh  Rh230  1  -0.01095115  0.19390688  0.60853484  1
  Rh  Rh231  1  0.60372763  0.80433439  0.79669515  1
  Rh  Rh232  1  0.20068816  0.79392327  0.80575180  1
  Rh  Rh233  1  0.79265173  0.80548752  0.80344395  1
  Rh  Rh234  1  0.79190081  0.20007026  -0.00286818  1
  Rh  Rh235  1  0.80453207  0.19556154  0.20376623  1
  Rh  Rh236  1  0.79887330  -0.00800502  -0.00698042  1
  Rh  Rh237  1  0.40401864  0.00281356  0.80053910  1
  Rh  Rh238  1  0.80023041  0.60528330  0.60358974  1
  Rh  Rh239  1  0.80088982  0.60762464  0.40291807  1
  Rh  Rh240  1  0.40613556  0.79627503  0.79856570  1
  Rh  Rh241  1  0.80282812  0.20477022  0.79771284  1
  Rh  Rh242  1  0.39764337  0.41248529  0.00547589  1
  Rh  Rh243  1  0.40479166  0.79828528  0.60201918  1
  Rh  Rh244  1  0.59843286  0.01016742  -0.00106052  1
  Rh  Rh245  1  0.20480075  0.59437455  0.60383725  1
  Rh  Rh246  1  -0.00934567  0.58753455  0.40465943  1
  Rh  Rh247  1  0.21557859  -0.01131922  -0.00335457  1
  Rh  Rh248  1  0.39487831  0.19310495  0.60907758  1
  Rh  Rh249  1  0.60102612  0.00981400  0.39520282  1
