# generated using pymatgen
data_ZrScNbPdRh
_symmetry_space_group_name_H-M   'P 1'
_cell_length_a   16.56154769
_cell_length_b   16.56648916
_cell_length_c   16.56742754
_cell_angle_alpha   89.94176842
_cell_angle_beta   89.98991124
_cell_angle_gamma   90.01720392
_symmetry_Int_Tables_number   1
_chemical_formula_structural   ZrScNbPdRh
_chemical_formula_sum   'Zr50 Sc50 Nb50 Pd50 Rh50'
_cell_volume   4545.54780323
_cell_formula_units_Z   50
loop_
 _symmetry_equiv_pos_site_id
 _symmetry_equiv_pos_as_xyz
  1  'x, y, z'
loop_
 _atom_site_type_symbol
 _atom_site_label
 _atom_site_symmetry_multiplicity
 _atom_site_fract_x
 _atom_site_fract_y
 _atom_site_fract_z
 _atom_site_occupancy
  Zr  Zr0  1  0.49701924  0.70454718  0.70111689  1
  Zr  Zr1  1  0.68860748  0.50343648  0.10466747  1
  Zr  Zr2  1  0.89881286  0.71140731  0.70975094  1
  Zr  Zr3  1  0.49896202  0.29760494  0.91006672  1
  Zr  Zr4  1  0.69277717  0.29607769  0.50133385  1
  Zr  Zr5  1  0.90591513  0.29298181  0.29437793  1
  Zr  Zr6  1  0.10731852  0.50746096  0.09836105  1
  Zr  Zr7  1  0.90710133  0.70685651  0.08758378  1
  Zr  Zr8  1  0.09967442  0.29388349  0.10209329  1
  Zr  Zr9  1  0.29556929  0.29201038  0.50237600  1
  Zr  Zr10  1  0.90679485  0.10276432  0.90059891  1
  Zr  Zr11  1  0.30065992  0.69427511  0.10324571  1
  Zr  Zr12  1  0.69457025  0.49753616  0.49850977  1
  Zr  Zr13  1  0.90445838  0.50565717  0.48943980  1
  Zr  Zr14  1  0.49412524  0.30479035  0.70609631  1
  Zr  Zr15  1  0.09692021  0.70907381  0.90618921  1
  Zr  Zr16  1  0.90214264  0.49522190  0.70275471  1
  Zr  Zr17  1  0.30298395  0.89283288  0.30227125  1
  Zr  Zr18  1  0.89191679  0.50204915  0.89939648  1
  Zr  Zr19  1  0.51139286  0.09697722  0.29704511  1
  Zr  Zr20  1  0.89726727  0.50119006  0.29705518  1
  Zr  Zr21  1  0.49966652  0.49261646  0.89911278  1
  Zr  Zr22  1  0.10331704  0.30419117  0.70172240  1
  Zr  Zr23  1  0.71637334  0.70179927  0.89811161  1
  Zr  Zr24  1  0.49828056  0.90533653  0.30864989  1
  Zr  Zr25  1  0.30361346  0.49353190  0.90684562  1
  Zr  Zr26  1  0.69973534  0.50219518  0.29372538  1
  Zr  Zr27  1  0.69900395  0.69641247  0.29131319  1
  Zr  Zr28  1  0.10365050  0.71524949  0.69731360  1
  Zr  Zr29  1  0.29620467  0.70654286  0.70282309  1
  Zr  Zr30  1  0.89635251  0.09521827  0.10864330  1
  Zr  Zr31  1  0.90329369  0.29639627  0.70322399  1
  Zr  Zr32  1  0.69233243  0.30628003  0.90416155  1
  Zr  Zr33  1  0.49835346  0.69322944  0.50253430  1
  Zr  Zr34  1  0.69655976  0.49428247  0.90438551  1
  Zr  Zr35  1  0.70306072  0.70334452  0.70085760  1
  Zr  Zr36  1  0.08658480  0.89834285  0.10128065  1
  Zr  Zr37  1  0.50041637  0.69693521  0.09663995  1
  Zr  Zr38  1  0.29958378  0.50260264  0.29673839  1
  Zr  Zr39  1  0.29365521  0.70419057  0.29931083  1
  Zr  Zr40  1  0.49641278  0.70368795  0.90635215  1
  Zr  Zr41  1  0.70436972  0.09720676  0.10419334  1
  Zr  Zr42  1  0.10557710  0.49986097  0.70106258  1
  Zr  Zr43  1  0.10397255  0.29271883  0.89456228  1
  Zr  Zr44  1  0.69099042  0.29377946  0.09077194  1
  Zr  Zr45  1  0.49837593  0.29471567  0.29859034  1
  Zr  Zr46  1  0.90281170  0.50455200  0.10915348  1
  Zr  Zr47  1  0.30466827  0.29645822  0.29693552  1
  Zr  Zr48  1  0.10088276  0.10059079  0.71352650  1
  Zr  Zr49  1  0.10424736  0.70356138  0.29850346  1
  Sc  Sc50  1  0.88822631  0.30218830  0.89861849  1
  Sc  Sc51  1  0.70437753  0.91515419  0.70380239  1
  Sc  Sc52  1  0.11006898  0.49672818  0.89886325  1
  Sc  Sc53  1  0.30306968  0.09731439  0.09785505  1
  Sc  Sc54  1  0.90913790  0.29467765  0.50359945  1
  Sc  Sc55  1  0.10408283  0.90958337  0.90121230  1
  Sc  Sc56  1  0.30775207  0.28959811  0.09834469  1
  Sc  Sc57  1  0.68526912  0.29752923  0.29247872  1
  Sc  Sc58  1  0.69336615  0.90271642  0.30809349  1
  Sc  Sc59  1  0.49863107  0.90990604  0.70855126  1
  Sc  Sc60  1  0.89737047  0.89498702  0.90138041  1
  Sc  Sc61  1  0.10299881  0.09054950  0.09738404  1
  Sc  Sc62  1  0.29752163  0.89669360  0.70979782  1
  Sc  Sc63  1  0.49783330  0.09597061  0.70154409  1
  Sc  Sc64  1  0.89868174  0.69121899  0.29634906  1
  Sc  Sc65  1  0.09492292  0.88854957  0.49310114  1
  Sc  Sc66  1  0.10521059  0.50073576  0.49857358  1
  Sc  Sc67  1  0.70543849  0.70233305  0.48701896  1
  Sc  Sc68  1  0.10704392  0.09486358  0.90070350  1
  Sc  Sc69  1  0.49742589  0.49005527  0.29399378  1
  Sc  Sc70  1  0.09155404  0.50827400  0.30021866  1
  Sc  Sc71  1  0.89233784  0.29276719  0.10656560  1
  Sc  Sc72  1  0.10026360  0.89594687  0.29622260  1
  Sc  Sc73  1  0.49671922  0.49963815  0.69012313  1
  Sc  Sc74  1  0.10409763  0.70144883  0.49360217  1
  Sc  Sc75  1  0.69700530  0.49581119  0.70642510  1
  Sc  Sc76  1  0.89371943  0.10161835  0.70270912  1
  Sc  Sc77  1  0.49244212  0.70685397  0.29824265  1
  Sc  Sc78  1  0.70401225  0.09584232  0.90374022  1
  Sc  Sc79  1  0.29795458  0.70061914  0.49003760  1
  Sc  Sc80  1  0.69384663  0.09924382  0.51204591  1
  Sc  Sc81  1  0.90273163  0.70517198  0.48993560  1
  Sc  Sc82  1  0.29388162  0.49517452  0.69988911  1
  Sc  Sc83  1  0.10262738  0.29011080  0.50163062  1
  Sc  Sc84  1  0.69954219  0.29584235  0.70069636  1
  Sc  Sc85  1  0.30304813  0.29596810  0.89893467  1
  Sc  Sc86  1  0.29893123  0.71946583  0.90108275  1
  Sc  Sc87  1  0.49373461  0.90621901  0.90474618  1
  Sc  Sc88  1  0.29741224  0.90342009  0.10297821  1
  Sc  Sc89  1  0.29874934  0.10212254  0.29554360  1
  Sc  Sc90  1  0.90884139  0.90722460  0.29439294  1
  Sc  Sc91  1  0.30341565  0.50292608  0.50047670  1
  Sc  Sc92  1  0.09134251  0.09837202  0.29958413  1
  Sc  Sc93  1  0.69601611  0.69472713  0.09145840  1
  Sc  Sc94  1  0.70133485  0.10103972  0.70172533  1
  Sc  Sc95  1  0.09991139  0.70278863  0.10211349  1
  Sc  Sc96  1  0.09861500  0.28775096  0.30257143  1
  Sc  Sc97  1  0.30622378  0.10077803  0.70287752  1
  Sc  Sc98  1  0.29733572  0.30066285  0.70063339  1
  Sc  Sc99  1  0.89920099  0.10196460  0.50969170  1
  Nb  Nb100  1  0.89660827  0.90276683  0.10202600  1
  Nb  Nb101  1  0.10888492  0.09767112  0.50060496  1
  Nb  Nb102  1  0.30032255  0.91076809  0.90007172  1
  Nb  Nb103  1  0.50082911  0.27947202  0.10040821  1
  Nb  Nb104  1  0.89758334  0.90360770  0.50198578  1
  Nb  Nb105  1  0.89070499  0.10003244  0.29569635  1
  Nb  Nb106  1  0.50297298  0.30354657  0.49695834  1
  Nb  Nb107  1  0.50025742  0.10013176  0.09399236  1
  Nb  Nb108  1  0.50155354  0.90802828  0.49722083  1
  Nb  Nb109  1  0.70548169  0.90107660  0.09112468  1
  Nb  Nb110  1  0.50722109  0.90939388  0.10176802  1
  Nb  Nb111  1  0.69731892  0.89787225  0.90004344  1
  Nb  Nb112  1  0.10002382  0.90015893  0.69321167  1
  Nb  Nb113  1  0.49180113  0.09625171  0.90230960  1
  Nb  Nb114  1  0.89966603  0.69929887  0.89555598  1
  Nb  Nb115  1  0.30270808  0.09691875  0.50303273  1
  Nb  Nb116  1  0.30157649  0.50207528  0.10189836  1
  Nb  Nb117  1  0.90513218  0.90034570  0.69044104  1
  Nb  Nb118  1  0.30105632  0.08788351  0.90114184  1
  Nb  Nb119  1  0.50414755  0.49319289  0.49601342  1
  Nb  Nb120  1  0.31753146  0.91151388  0.49518543  1
  Nb  Nb121  1  0.49158179  0.51149686  0.09100556  1
  Nb  Nb122  1  0.70589828  0.09901136  0.30170976  1
  Nb  Nb123  1  0.70142587  0.90083952  0.49949498  1
  Nb  Nb124  1  0.48778412  0.08585035  0.50113108  1
  Nb  Nb125  1  0.20411289  0.40146340  0.19922560  1
  Nb  Nb126  1  0.59500194  0.59437112  0.39921640  1
  Nb  Nb127  1  -0.00058565  0.20179616  0.00019878  1
  Nb  Nb128  1  0.00032344  0.60636303  0.80020169  1
  Nb  Nb129  1  0.40625345  0.19460624  0.40892386  1
  Nb  Nb130  1  0.59707150  0.60647840  0.80327435  1
  Nb  Nb131  1  0.80083598  0.00383970  0.40300073  1
  Nb  Nb132  1  0.19935731  -0.00223057  0.59522090  1
  Nb  Nb133  1  0.00744382  -0.00425290  0.60022637  1
  Nb  Nb134  1  0.79583867  0.80696883  0.19126214  1
  Nb  Nb135  1  -0.00171831  0.60585788  0.60714791  1
  Nb  Nb136  1  0.59249192  0.19725759  0.80891713  1
  Nb  Nb137  1  0.39989139  0.60243538  0.80259105  1
  Nb  Nb138  1  0.40560148  0.80786458  0.59450784  1
  Nb  Nb139  1  0.79896703  0.80626344  0.59674603  1
  Nb  Nb140  1  0.79739482  0.19730146  0.39640541  1
  Nb  Nb141  1  0.60420366  0.80227484  0.80185533  1
  Nb  Nb142  1  0.79906732  0.39205906  0.39871966  1
  Nb  Nb143  1  0.00061504  0.39642687  0.00334226  1
  Nb  Nb144  1  0.20355427  0.39568799  0.39246640  1
  Nb  Nb145  1  0.60157512  0.80802727  0.59710243  1
  Nb  Nb146  1  0.60107719  0.80929537  0.19018751  1
  Nb  Nb147  1  0.80528019  0.60187096  0.60065990  1
  Nb  Nb148  1  0.80285947  0.40277557  0.59379950  1
  Nb  Nb149  1  0.20352649  0.00217452  0.40766357  1
  Pd  Pd150  1  0.00624161  0.39479565  0.39882249  1
  Pd  Pd151  1  0.60829274  0.60504548  0.59909161  1
  Pd  Pd152  1  0.19617826  -0.00136193  0.20758818  1
  Pd  Pd153  1  0.20255160  0.60633516  0.80806431  1
  Pd  Pd154  1  0.21380471  0.81108576  0.58662683  1
  Pd  Pd155  1  -0.00056411  0.00568373  0.40675789  1
  Pd  Pd156  1  0.60881195  -0.00381578  0.19965888  1
  Pd  Pd157  1  0.58763407  0.19673962  0.60859539  1
  Pd  Pd158  1  0.19818479  0.60362070  0.59478385  1
  Pd  Pd159  1  0.40813296  0.20251450  0.59705706  1
  Pd  Pd160  1  0.58550378  0.39788119  0.18904968  1
  Pd  Pd161  1  0.39504375  0.39392430  0.40633922  1
  Pd  Pd162  1  0.40685187  0.80610556  0.19019500  1
  Pd  Pd163  1  0.19790396  0.19734377  0.19980631  1
  Pd  Pd164  1  0.40418243  0.60140636  0.20667698  1
  Pd  Pd165  1  0.20029705  0.80933376  0.00574512  1
  Pd  Pd166  1  0.00562101  0.80912496  0.80732280  1
  Pd  Pd167  1  0.40312434  0.39381228  0.01172222  1
  Pd  Pd168  1  -0.00732529  0.79893390  0.39078882  1
  Pd  Pd169  1  0.80598693  0.40114643  0.01373359  1
  Pd  Pd170  1  0.00541568  0.18936607  0.60677000  1
  Pd  Pd171  1  -0.00412000  -0.00666845  0.79646353  1
  Pd  Pd172  1  0.59881694  -0.00263252  0.60272970  1
  Pd  Pd173  1  0.19960495  0.39298542  0.00770907  1
  Pd  Pd174  1  0.59438252  0.79389808  0.39992679  1
  Pd  Pd175  1  0.00311920  0.59136127  -0.00933130  1
  Pd  Pd176  1  0.40597529  0.59655429  0.39380711  1
  Pd  Pd177  1  0.79958725  0.59658126  0.00645062  1
  Pd  Pd178  1  0.40125783  0.39718200  0.18686179  1
  Pd  Pd179  1  0.60042097  0.00440684  -0.00568650  1
  Pd  Pd180  1  0.20751032  0.60730528  -0.00820720  1
  Pd  Pd181  1  0.60156184  0.80225100  -0.00182637  1
  Pd  Pd182  1  0.80667360  -0.00217810  0.80303238  1
  Pd  Pd183  1  0.20099488  0.19257835  -0.00210255  1
  Pd  Pd184  1  0.59768339  0.18961518  0.40795785  1
  Pd  Pd185  1  0.40023503  0.19729821  0.80544924  1
  Pd  Pd186  1  0.78992059  0.20113210  0.80500300  1
  Pd  Pd187  1  0.79367198  0.39045496  0.20144934  1
  Pd  Pd188  1  0.38999678  0.60288480  0.60594813  1
  Pd  Pd189  1  0.39719558  0.81190910  0.00865962  1
  Pd  Pd190  1  0.80555021  -0.00056803  -0.00593533  1
  Pd  Pd191  1  -0.00693518  0.18801718  0.40296026  1
  Pd  Pd192  1  0.00227658  0.40405970  0.81218340  1
  Pd  Pd193  1  0.39950797  0.00291450  0.20018753  1
  Pd  Pd194  1  0.00197897  0.40491814  0.59191220  1
  Pd  Pd195  1  0.01056811  0.40060587  0.19755313  1
  Pd  Pd196  1  0.39515583  0.39927653  0.59634303  1
  Pd  Pd197  1  0.80787681  0.81180033  0.39042920  1
  Pd  Pd198  1  0.19948035  0.19262341  0.61069622  1
  Pd  Pd199  1  0.60229867  0.39687572  0.60756598  1
  Rh  Rh200  1  0.20434870  -0.00327662  0.00288882  1
  Rh  Rh201  1  0.79478143  0.39560749  0.79086160  1
  Rh  Rh202  1  0.20733760  0.19582439  0.39739453  1
  Rh  Rh203  1  0.40462003  0.80333073  0.79830274  1
  Rh  Rh204  1  0.40432904  0.79720736  0.40844732  1
  Rh  Rh205  1  0.00656271  0.60716337  0.40354632  1
  Rh  Rh206  1  0.80033504  0.20907835  0.59670109  1
  Rh  Rh207  1  0.00298762  0.18870754  0.19287330  1
  Rh  Rh208  1  0.80618587  -0.00160008  0.59652912  1
  Rh  Rh209  1  -0.00230237  0.80896130  -0.00567257  1
  Rh  Rh210  1  0.79380654  -0.01221878  0.21021779  1
  Rh  Rh211  1  0.58665572  0.40259434  0.01380695  1
  Rh  Rh212  1  0.39071044  0.60278050  -0.00785849  1
  Rh  Rh213  1  0.19841563  0.59250283  0.39686862  1
  Rh  Rh214  1  0.59917717  0.18596113  -0.00526279  1
  Rh  Rh215  1  0.79885639  0.59099589  0.79727589  1
  Rh  Rh216  1  0.19884833  0.39667944  0.58986963  1
  Rh  Rh217  1  0.60130241  0.59767183  -0.00965858  1
  Rh  Rh218  1  -0.00720819  0.79929223  0.59309814  1
  Rh  Rh219  1  -0.00497260  0.00401946  0.00171125  1
  Rh  Rh220  1  0.20977178  0.19562173  0.80131090  1
  Rh  Rh221  1  0.80456262  0.61330079  0.18775670  1
  Rh  Rh222  1  -0.00116175  0.20204598  0.80572370  1
  Rh  Rh223  1  0.60196598  0.40496491  0.39367885  1
  Rh  Rh224  1  0.00159300  0.00286665  0.19988311  1
  Rh  Rh225  1  0.39619654  -0.00047224  0.79963677  1
  Rh  Rh226  1  0.60253852  0.19164097  0.19523807  1
  Rh  Rh227  1  0.00195248  0.60897060  0.19860626  1
  Rh  Rh228  1  0.39546761  0.40787962  0.79649458  1
  Rh  Rh229  1  0.19806165  0.80091110  0.19264040  1
  Rh  Rh230  1  0.79538577  0.81722078  0.79475701  1
  Rh  Rh231  1  0.80491365  0.19689242  -0.00110882  1
  Rh  Rh232  1  0.39825179  -0.00084964  0.00570198  1
  Rh  Rh233  1  0.20444000  -0.00215830  0.79363222  1
  Rh  Rh234  1  0.40775139  0.18849175  0.20331285  1
  Rh  Rh235  1  -0.00889468  0.79672907  0.20121211  1
  Rh  Rh236  1  0.60863135  0.00814780  0.40894646  1
  Rh  Rh237  1  0.78919718  0.20647715  0.20533949  1
  Rh  Rh238  1  0.39458574  0.01041528  0.38542377  1
  Rh  Rh239  1  0.39539412  0.19066858  -0.00328909  1
  Rh  Rh240  1  0.59663560  0.39802178  0.79596629  1
  Rh  Rh241  1  0.79145584  0.59093289  0.40242637  1
  Rh  Rh242  1  0.20613964  0.81186244  0.40518228  1
  Rh  Rh243  1  0.80319889  0.80281135  0.00166212  1
  Rh  Rh244  1  0.58745568  0.60638570  0.20571425  1
  Rh  Rh245  1  0.39403055  -0.00681928  0.61313640  1
  Rh  Rh246  1  0.19875584  0.59860198  0.20281446  1
  Rh  Rh247  1  0.20594683  0.39410916  0.80079546  1
  Rh  Rh248  1  0.19437508  0.81023444  0.80765140  1
  Rh  Rh249  1  0.59977586  0.00455558  0.80999603  1
