# generated using pymatgen
data_ZrScNbPdRh
_symmetry_space_group_name_H-M   'P 1'
_cell_length_a   16.56063643
_cell_length_b   16.56269447
_cell_length_c   16.55425636
_cell_angle_alpha   89.98625384
_cell_angle_beta   89.98236411
_cell_angle_gamma   89.95956020
_symmetry_Int_Tables_number   1
_chemical_formula_structural   ZrScNbPdRh
_chemical_formula_sum   'Zr50 Sc50 Nb50 Pd50 Rh50'
_cell_volume   4540.64499657
_cell_formula_units_Z   50
loop_
 _symmetry_equiv_pos_site_id
 _symmetry_equiv_pos_as_xyz
  1  'x, y, z'
loop_
 _atom_site_type_symbol
 _atom_site_label
 _atom_site_symmetry_multiplicity
 _atom_site_fract_x
 _atom_site_fract_y
 _atom_site_fract_z
 _atom_site_occupancy
  Zr  Zr0  1  0.29967664  0.10415145  0.69951190  1
  Zr  Zr1  1  0.30437502  0.10298672  0.90017133  1
  Zr  Zr2  1  0.09835471  0.69815982  0.89968858  1
  Zr  Zr3  1  0.10381097  0.69064152  0.29901597  1
  Zr  Zr4  1  0.29806467  0.29953884  0.09344298  1
  Zr  Zr5  1  0.09659311  0.30526721  0.90762004  1
  Zr  Zr6  1  0.88642702  0.70009120  0.69552557  1
  Zr  Zr7  1  0.49992975  0.89876184  0.90508558  1
  Zr  Zr8  1  0.09523998  0.69660001  0.09457622  1
  Zr  Zr9  1  0.29991145  0.50708734  0.30002771  1
  Zr  Zr10  1  0.89356837  0.69976370  0.29968359  1
  Zr  Zr11  1  0.70304686  0.90134525  0.09547601  1
  Zr  Zr12  1  0.30140201  0.30026555  0.89623981  1
  Zr  Zr13  1  0.30825491  0.49575786  0.09624403  1
  Zr  Zr14  1  0.89261535  0.29887135  0.50103061  1
  Zr  Zr15  1  0.09400025  0.90583846  0.50590083  1
  Zr  Zr16  1  0.29153714  0.49577762  0.69692797  1
  Zr  Zr17  1  0.89969610  0.49618709  0.70238114  1
  Zr  Zr18  1  0.09865703  0.49597840  0.70119145  1
  Zr  Zr19  1  0.51103724  0.30209269  0.10171265  1
  Zr  Zr20  1  0.29592561  0.70161973  0.31328755  1
  Zr  Zr21  1  0.29690217  0.11088300  0.30279062  1
  Zr  Zr22  1  0.29804636  0.90505543  0.89691394  1
  Zr  Zr23  1  0.30258002  0.29707697  0.70277097  1
  Zr  Zr24  1  0.49314976  0.10101325  0.30084132  1
  Zr  Zr25  1  0.50630890  0.90764909  0.69784761  1
  Zr  Zr26  1  0.69422430  0.91465097  0.90087591  1
  Zr  Zr27  1  0.69943244  0.30134164  0.29735962  1
  Zr  Zr28  1  0.69579489  0.30012055  0.90846970  1
  Zr  Zr29  1  0.10234361  0.90475161  0.89631724  1
  Zr  Zr30  1  0.70408214  0.69558185  0.30114354  1
  Zr  Zr31  1  0.49434182  0.09930914  0.10139190  1
  Zr  Zr32  1  0.29544980  0.09839750  0.10496869  1
  Zr  Zr33  1  0.10176026  0.10090914  0.50046276  1
  Zr  Zr34  1  0.50572518  0.50147875  0.90354530  1
  Zr  Zr35  1  0.70974765  0.89770251  0.29607896  1
  Zr  Zr36  1  0.50158458  0.69478865  0.89723397  1
  Zr  Zr37  1  0.90136481  0.89412305  0.69307904  1
  Zr  Zr38  1  0.49415289  0.89488152  0.29987650  1
  Zr  Zr39  1  0.50076219  0.69642853  0.09009109  1
  Zr  Zr40  1  0.89596089  0.69878242  0.89816165  1
  Zr  Zr41  1  0.90473862  0.49372232  0.30060865  1
  Zr  Zr42  1  0.89305244  0.90504276  0.10533192  1
  Zr  Zr43  1  0.10047584  0.71417311  0.48770105  1
  Zr  Zr44  1  0.50904002  0.09939769  0.89461073  1
  Zr  Zr45  1  0.30159001  0.68599767  0.69333424  1
  Zr  Zr46  1  0.50014595  0.90310109  0.50724406  1
  Zr  Zr47  1  0.30277597  0.69553778  0.10233879  1
  Zr  Zr48  1  0.10575629  0.09636825  0.69500178  1
  Zr  Zr49  1  0.50630877  0.50006553  0.70045327  1
  Sc  Sc50  1  0.50976308  0.49805049  0.49554996  1
  Sc  Sc51  1  0.09586065  0.89448884  0.31586881  1
  Sc  Sc52  1  0.30026688  0.28425792  0.50011589  1
  Sc  Sc53  1  0.09736564  0.10517465  0.10058791  1
  Sc  Sc54  1  0.90077337  0.09674629  0.30096533  1
  Sc  Sc55  1  0.71503995  0.09487624  0.30665485  1
  Sc  Sc56  1  0.29859278  0.90931583  0.70335507  1
  Sc  Sc57  1  0.89141658  0.09627613  0.49335695  1
  Sc  Sc58  1  0.10799297  0.30952097  0.69955424  1
  Sc  Sc59  1  0.09945684  0.49226602  0.50570890  1
  Sc  Sc60  1  0.70421273  0.50323289  0.70271238  1
  Sc  Sc61  1  0.30505345  0.89924096  0.29763859  1
  Sc  Sc62  1  0.50170206  0.29568262  0.29545881  1
  Sc  Sc63  1  0.90865394  0.09911573  0.09693517  1
  Sc  Sc64  1  0.30052674  0.51266193  0.50479022  1
  Sc  Sc65  1  0.09863125  0.91535142  0.09338343  1
  Sc  Sc66  1  0.49318535  0.69442575  0.30176137  1
  Sc  Sc67  1  0.50301112  0.10740507  0.69714939  1
  Sc  Sc68  1  0.09756280  0.49982611  0.09534242  1
  Sc  Sc69  1  0.89594602  0.70273746  0.09754307  1
  Sc  Sc70  1  0.69403883  0.50089143  0.30309193  1
  Sc  Sc71  1  0.89793341  0.90715935  0.30428251  1
  Sc  Sc72  1  0.89897730  0.49226381  0.89686339  1
  Sc  Sc73  1  0.89639464  0.49097439  0.10059156  1
  Sc  Sc74  1  0.69459655  0.69264489  0.89639888  1
  Sc  Sc75  1  0.30929847  0.89977313  0.49956392  1
  Sc  Sc76  1  0.49399420  0.69769417  0.69852653  1
  Sc  Sc77  1  0.10352421  0.90385755  0.69482709  1
  Sc  Sc78  1  0.69846641  0.10046383  0.08896024  1
  Sc  Sc79  1  0.69291147  0.49237632  0.10609039  1
  Sc  Sc80  1  0.09742218  0.50036747  0.89687250  1
  Sc  Sc81  1  0.10243026  0.69510493  0.70606238  1
  Sc  Sc82  1  0.89667020  0.30358349  0.90340276  1
  Sc  Sc83  1  0.89915683  0.30736685  0.30251571  1
  Sc  Sc84  1  0.30535397  0.10233487  0.50716542  1
  Sc  Sc85  1  0.69982830  0.30584968  0.50318680  1
  Sc  Sc86  1  0.10127020  0.09762576  0.91042676  1
  Sc  Sc87  1  0.30288124  0.69684624  0.89206110  1
  Sc  Sc88  1  0.69693010  0.29776700  0.69947295  1
  Sc  Sc89  1  0.70611175  0.10259313  0.89256264  1
  Sc  Sc90  1  0.10272298  0.30458336  0.50821407  1
  Sc  Sc91  1  0.29860891  0.49273005  0.90329972  1
  Sc  Sc92  1  0.88998690  0.90528904  0.91002414  1
  Sc  Sc93  1  0.31181511  0.90315750  0.10426238  1
  Sc  Sc94  1  0.87806491  0.10093768  0.69795532  1
  Sc  Sc95  1  0.69588661  0.49870722  0.89433842  1
  Sc  Sc96  1  0.70422504  0.90673338  0.69385813  1
  Sc  Sc97  1  0.90318677  0.30441712  0.09260985  1
  Sc  Sc98  1  0.89408480  0.48965546  0.50402868  1
  Sc  Sc99  1  0.10161013  0.10614663  0.29282567  1
  Nb  Nb100  1  0.69444291  0.50677460  0.50358128  1
  Nb  Nb101  1  0.50384802  0.89542462  0.10401936  1
  Nb  Nb102  1  0.90304174  0.30176491  0.69766963  1
  Nb  Nb103  1  0.91309615  0.89050156  0.49759710  1
  Nb  Nb104  1  0.10224392  0.30049929  0.30305878  1
  Nb  Nb105  1  0.90220354  0.70308654  0.50347592  1
  Nb  Nb106  1  0.70583663  0.69669689  0.49993372  1
  Nb  Nb107  1  0.09998606  0.29844790  0.10156680  1
  Nb  Nb108  1  0.69935116  0.69661864  0.10306137  1
  Nb  Nb109  1  0.09850262  0.49554077  0.30491056  1
  Nb  Nb110  1  0.50470079  0.29932645  0.88271527  1
  Nb  Nb111  1  0.50330368  0.30258588  0.69955151  1
  Nb  Nb112  1  0.70312586  0.10012659  0.50343399  1
  Nb  Nb113  1  0.70462630  0.70022054  0.69939745  1
  Nb  Nb114  1  0.49936543  0.10356390  0.50087051  1
  Nb  Nb115  1  0.69581853  0.90473042  0.49682584  1
  Nb  Nb116  1  0.50118437  0.29643213  0.50622272  1
  Nb  Nb117  1  0.49478847  0.50087445  0.10476821  1
  Nb  Nb118  1  0.30443782  0.70132971  0.50017430  1
  Nb  Nb119  1  0.69791400  0.09590580  0.69645092  1
  Nb  Nb120  1  0.90207792  0.10343444  0.89556278  1
  Nb  Nb121  1  0.70430917  0.30075616  0.10437310  1
  Nb  Nb122  1  0.49754153  0.49206088  0.29375687  1
  Nb  Nb123  1  0.49509605  0.70700039  0.50493075  1
  Nb  Nb124  1  0.29307533  0.29751440  0.30385025  1
  Nb  Nb125  1  -0.00738171  0.00428316  0.79927391  1
  Nb  Nb126  1  0.60107822  0.19304200  0.40764383  1
  Nb  Nb127  1  0.19693389  0.39646862  0.20443651  1
  Nb  Nb128  1  -0.00219595  0.59822842  0.40401451  1
  Nb  Nb129  1  0.00152129  0.20635441  0.40391087  1
  Nb  Nb130  1  0.00315352  0.80001461  0.19866485  1
  Nb  Nb131  1  0.20494598  0.39848264  0.39527797  1
  Nb  Nb132  1  -0.00411129  0.19760335  0.79551839  1
  Nb  Nb133  1  0.20141902  0.80038295  0.00298669  1
  Nb  Nb134  1  0.79265337  0.59816826  0.00292860  1
  Nb  Nb135  1  -0.00396492  0.80529535  0.80164341  1
  Nb  Nb136  1  0.60107607  0.00020149  0.40339419  1
  Nb  Nb137  1  0.60190080  0.80046694  0.79547232  1
  Nb  Nb138  1  0.19460024  0.79744896  0.19542013  1
  Nb  Nb139  1  0.60123066  0.79788771  0.19865431  1
  Nb  Nb140  1  -0.00681271  0.20217888  0.60422513  1
  Nb  Nb141  1  0.79923240  0.20568136  0.19514365  1
  Nb  Nb142  1  0.60323644  0.79844326  0.40562751  1
  Nb  Nb143  1  0.59892487  -0.00579305  0.20264215  1
  Nb  Nb144  1  0.20174426  0.00401422  0.40213458  1
  Nb  Nb145  1  -0.00642030  0.60539728  0.59392728  1
  Nb  Nb146  1  0.40699320  0.39428595  0.59671747  1
  Nb  Nb147  1  0.60683238  0.60965698  0.59465819  1
  Nb  Nb148  1  0.39915348  0.39589395  0.39999937  1
  Nb  Nb149  1  0.20535621  0.79500300  0.59543479  1
  Pd  Pd150  1  0.20469491  0.60043410  -0.00616312  1
  Pd  Pd151  1  0.40528891  0.00646321  0.79604163  1
  Pd  Pd152  1  -0.00940184  0.20683183  0.20620699  1
  Pd  Pd153  1  0.59733950  0.19852932  -0.00197184  1
  Pd  Pd154  1  0.59863205  0.40281307  0.00195974  1
  Pd  Pd155  1  0.19864422  0.59389517  0.19444218  1
  Pd  Pd156  1  0.79847300  0.20825844  0.79796972  1
  Pd  Pd157  1  0.18405990  0.60811799  0.59070384  1
  Pd  Pd158  1  0.60637083  0.19857755  0.59875433  1
  Pd  Pd159  1  0.39566387  0.20888841  0.19846602  1
  Pd  Pd160  1  0.40174303  -0.00007988  0.00101625  1
  Pd  Pd161  1  0.79076143  0.40103353  0.60535644  1
  Pd  Pd162  1  0.59113560  0.60763663  0.40351834  1
  Pd  Pd163  1  0.19722240  0.19739872  -0.00046658  1
  Pd  Pd164  1  0.41295809  0.39146393  -0.00559861  1
  Pd  Pd165  1  0.80091625  0.80507129  0.40757085  1
  Pd  Pd166  1  0.59532337  0.39148094  0.39901580  1
  Pd  Pd167  1  -0.00715104  0.60455160  0.79320927  1
  Pd  Pd168  1  0.00373523  0.81009551  0.00042264  1
  Pd  Pd169  1  0.60759992  0.79408310  0.60219564  1
  Pd  Pd170  1  0.40986959  0.59307015  0.40672779  1
  Pd  Pd171  1  0.80114768  0.59042031  0.19341888  1
  Pd  Pd172  1  0.60636869  0.79684597  -0.00294037  1
  Pd  Pd173  1  0.41089726  0.20738281  -0.00500647  1
  Pd  Pd174  1  0.19794993  0.79874106  0.79506032  1
  Pd  Pd175  1  0.61258938  0.18560028  0.20802203  1
  Pd  Pd176  1  0.39486034  0.39088846  0.20522211  1
  Pd  Pd177  1  -0.01427330  0.59024243  -0.00015009  1
  Pd  Pd178  1  0.40196900  0.40570622  0.79539006  1
  Pd  Pd179  1  0.78842422  0.79170059  -0.00518186  1
  Pd  Pd180  1  -0.00668016  0.60067744  0.20132970  1
  Pd  Pd181  1  0.79323998  0.80761476  0.58902780  1
  Pd  Pd182  1  0.39097602  0.80413591  0.61107090  1
  Pd  Pd183  1  0.59477775  0.60071813  0.19947683  1
  Pd  Pd184  1  0.79444929  0.80900935  0.80713903  1
  Pd  Pd185  1  0.40268209  0.60397110  0.20223229  1
  Pd  Pd186  1  0.79097795  0.40596003  0.40006783  1
  Pd  Pd187  1  0.19552381  -0.00968277  0.20980139  1
  Pd  Pd188  1  0.39189964  0.79911930  -0.00218412  1
  Pd  Pd189  1  0.39540061  0.58876088  0.80344895  1
  Pd  Pd190  1  -0.01448363  0.01303987  0.60487647  1
  Pd  Pd191  1  0.80671087  0.19880344  0.00491141  1
  Pd  Pd192  1  0.40451814  0.80175586  0.79268120  1
  Pd  Pd193  1  0.79459156  0.39281835  0.80117092  1
  Pd  Pd194  1  0.39594845  0.00282097  0.40172029  1
  Pd  Pd195  1  0.00559560  0.39512337  0.19505391  1
  Pd  Pd196  1  0.18846016  0.19890961  0.80455427  1
  Pd  Pd197  1  0.80564428  -0.00726836  0.59093624  1
  Pd  Pd198  1  0.00654567  -0.00605510  0.20855020  1
  Pd  Pd199  1  0.80757883  0.58992852  0.40599721  1
  Rh  Rh200  1  0.59224600  0.00434133  0.00738075  1
  Rh  Rh201  1  0.80011147  0.20394375  0.39382586  1
  Rh  Rh202  1  0.19002034  0.58951752  0.40920899  1
  Rh  Rh203  1  0.41480653  0.59081911  0.59189516  1
  Rh  Rh204  1  0.21224501  -0.00954439  0.59016566  1
  Rh  Rh205  1  0.60484425  0.59092779  0.00770731  1
  Rh  Rh206  1  0.60513558  0.39623982  0.79756450  1
  Rh  Rh207  1  0.00164557  0.40279333  0.00060706  1
  Rh  Rh208  1  0.19126763  0.19823916  0.40470217  1
  Rh  Rh209  1  0.40618052  0.19794818  0.79905192  1
  Rh  Rh210  1  0.00872543  0.39821044  0.40643135  1
  Rh  Rh211  1  0.79169799  0.40702177  0.00018207  1
  Rh  Rh212  1  0.39962826  0.59571758  -0.00590427  1
  Rh  Rh213  1  0.79701103  0.20190136  0.60022422  1
  Rh  Rh214  1  0.60662300  0.19971854  0.79575398  1
  Rh  Rh215  1  0.79589832  0.01476797  0.18997623  1
  Rh  Rh216  1  0.80180712  -0.00286475  0.79952836  1
  Rh  Rh217  1  0.21226226  0.81392062  0.40267411  1
  Rh  Rh218  1  0.80006177  0.59539688  0.80857473  1
  Rh  Rh219  1  0.19787016  0.40129554  0.80619809  1
  Rh  Rh220  1  0.21939805  0.39359523  0.58825653  1
  Rh  Rh221  1  0.19487708  0.40130649  0.00592543  1
  Rh  Rh222  1  0.40379481  0.79705511  0.40165775  1
  Rh  Rh223  1  0.80216670  -0.00872718  0.40931481  1
  Rh  Rh224  1  0.80232206  0.79664342  0.19553102  1
  Rh  Rh225  1  0.19470621  0.20456638  0.60327338  1
  Rh  Rh226  1  0.01088064  0.78885381  0.61246306  1
  Rh  Rh227  1  -0.00000406  0.20259708  -0.00521552  1
  Rh  Rh228  1  0.79879549  0.39602939  0.20143372  1
  Rh  Rh229  1  0.60316160  0.60901927  0.78765260  1
  Rh  Rh230  1  0.59979443  0.40779761  0.60264673  1
  Rh  Rh231  1  -0.01136110  0.79317624  0.38747546  1
  Rh  Rh232  1  0.40130033  0.00656826  0.60441513  1
  Rh  Rh233  1  0.60276091  0.00024860  0.79341982  1
  Rh  Rh234  1  0.19905551  0.20671694  0.19262873  1
  Rh  Rh235  1  0.39881791  0.79095805  0.19897139  1
  Rh  Rh236  1  0.59975070  0.01012451  0.59554425  1
  Rh  Rh237  1  0.00193159  0.39044124  0.79924408  1
  Rh  Rh238  1  0.59802987  0.40267510  0.20182397  1
  Rh  Rh239  1  -0.00433320  0.40071132  0.60136429  1
  Rh  Rh240  1  0.40312481  0.00189853  0.20039007  1
  Rh  Rh241  1  0.20293633  0.59264593  0.80571587  1
  Rh  Rh242  1  0.40962359  0.20804912  0.40088021  1
  Rh  Rh243  1  0.21004030  -0.00141623  0.00353997  1
  Rh  Rh244  1  0.80475993  0.01232747  0.00000380  1
  Rh  Rh245  1  0.40395360  0.20325406  0.60698529  1
  Rh  Rh246  1  -0.00615275  0.00319532  -0.00626528  1
  Rh  Rh247  1  0.00498508  0.01167933  0.39871344  1
  Rh  Rh248  1  0.79941099  0.59535652  0.59558489  1
  Rh  Rh249  1  0.19507797  0.01006505  0.80393166  1
