# generated using pymatgen
data_ZrScNbPdRh
_symmetry_space_group_name_H-M   'P 1'
_cell_length_a   16.55384091
_cell_length_b   16.55625345
_cell_length_c   16.55685788
_cell_angle_alpha   90.01104278
_cell_angle_beta   90.00180834
_cell_angle_gamma   90.00646787
_symmetry_Int_Tables_number   1
_chemical_formula_structural   ZrScNbPdRh
_chemical_formula_sum   'Zr50 Sc50 Nb50 Pd50 Rh50'
_cell_volume   4537.73106137
_cell_formula_units_Z   50
loop_
 _symmetry_equiv_pos_site_id
 _symmetry_equiv_pos_as_xyz
  1  'x, y, z'
loop_
 _atom_site_type_symbol
 _atom_site_label
 _atom_site_symmetry_multiplicity
 _atom_site_fract_x
 _atom_site_fract_y
 _atom_site_fract_z
 _atom_site_occupancy
  Zr  Zr0  1  0.70128042  0.09718708  0.89260571  1
  Zr  Zr1  1  0.29702929  0.49690555  0.10157100  1
  Zr  Zr2  1  0.90094193  0.10524123  0.49736057  1
  Zr  Zr3  1  0.49646225  0.70322991  0.30428646  1
  Zr  Zr4  1  0.49738602  0.09541894  0.31419653  1
  Zr  Zr5  1  0.70771789  0.70015481  0.89814983  1
  Zr  Zr6  1  0.09691220  0.50455962  0.29964059  1
  Zr  Zr7  1  0.10167913  0.09623894  0.30069743  1
  Zr  Zr8  1  0.09965725  0.09368676  0.09789349  1
  Zr  Zr9  1  0.29983014  0.70872633  0.10055285  1
  Zr  Zr10  1  0.10146274  0.29873090  0.90982020  1
  Zr  Zr11  1  0.10080784  0.69917720  0.30351986  1
  Zr  Zr12  1  0.29336450  0.50763643  0.29877327  1
  Zr  Zr13  1  0.91436091  0.89874636  0.10017970  1
  Zr  Zr14  1  0.70410236  0.29827072  0.50129129  1
  Zr  Zr15  1  0.69605687  0.50666059  0.90571584  1
  Zr  Zr16  1  0.70017791  0.29916095  0.89847139  1
  Zr  Zr17  1  0.70264123  0.90309036  0.70275589  1
  Zr  Zr18  1  0.49884188  0.10015374  0.71100794  1
  Zr  Zr19  1  0.10003936  0.89751894  0.90142751  1
  Zr  Zr20  1  0.70793850  0.49850030  0.29399893  1
  Zr  Zr21  1  0.09631100  0.50720611  0.49995925  1
  Zr  Zr22  1  0.89803772  0.90647670  0.89673488  1
  Zr  Zr23  1  0.30768424  0.90650513  0.29870402  1
  Zr  Zr24  1  0.09209391  0.49297860  0.09659660  1
  Zr  Zr25  1  0.30093984  0.30576169  0.29321758  1
  Zr  Zr26  1  0.70229977  0.49808943  0.10440486  1
  Zr  Zr27  1  0.29985327  0.89109469  0.50554586  1
  Zr  Zr28  1  0.90580610  0.09542377  0.30481754  1
  Zr  Zr29  1  0.30195413  0.30133093  0.50517527  1
  Zr  Zr30  1  0.69964926  0.69014176  0.09834631  1
  Zr  Zr31  1  0.89674967  0.30111381  0.30170567  1
  Zr  Zr32  1  0.30111841  0.29924509  0.89753631  1
  Zr  Zr33  1  0.29642798  0.89934199  0.90160127  1
  Zr  Zr34  1  0.50315037  0.71006522  0.10239185  1
  Zr  Zr35  1  0.70011531  0.90093065  0.30918576  1
  Zr  Zr36  1  0.10041496  0.70246189  0.89723749  1
  Zr  Zr37  1  0.90126236  0.30011367  0.69542511  1
  Zr  Zr38  1  0.90004664  0.49524115  0.50009806  1
  Zr  Zr39  1  0.10249857  0.10331686  0.69840193  1
  Zr  Zr40  1  0.50291414  0.30121510  0.10206689  1
  Zr  Zr41  1  0.09689623  0.70516908  0.70365813  1
  Zr  Zr42  1  0.69785691  0.89652036  0.09558767  1
  Zr  Zr43  1  0.89833832  0.09294962  0.70371814  1
  Zr  Zr44  1  0.30203647  0.09944567  0.30251397  1
  Zr  Zr45  1  0.69416312  0.29916755  0.28942460  1
  Zr  Zr46  1  0.09724035  0.89658324  0.50715849  1
  Zr  Zr47  1  0.70567820  0.50326737  0.49762268  1
  Zr  Zr48  1  0.91017888  0.30599367  0.09517067  1
  Zr  Zr49  1  0.29567644  0.30176805  0.09088007  1
  Sc  Sc50  1  0.50743021  0.70783482  0.70215827  1
  Sc  Sc51  1  0.69582871  0.10398575  0.09296531  1
  Sc  Sc52  1  0.09620306  0.09665348  0.50162380  1
  Sc  Sc53  1  0.29798138  0.10024862  0.10043358  1
  Sc  Sc54  1  0.49065770  0.50297930  0.29862127  1
  Sc  Sc55  1  0.31037796  0.09557344  0.90132418  1
  Sc  Sc56  1  0.90316848  0.70200350  0.70290306  1
  Sc  Sc57  1  0.51104200  0.69452014  0.89940880  1
  Sc  Sc58  1  0.10041074  0.29812108  0.51789424  1
  Sc  Sc59  1  0.29186243  0.89857273  0.69885233  1
  Sc  Sc60  1  0.09738122  0.50482887  0.90067885  1
  Sc  Sc61  1  0.70650535  0.49798555  0.69861051  1
  Sc  Sc62  1  0.69652683  0.10155768  0.30531374  1
  Sc  Sc63  1  0.69903563  0.69121625  0.30476714  1
  Sc  Sc64  1  0.50001208  0.49509553  0.89323946  1
  Sc  Sc65  1  0.30261316  0.49628397  0.89713947  1
  Sc  Sc66  1  0.09744306  0.90647236  0.70168407  1
  Sc  Sc67  1  0.90429195  0.28692608  0.90292150  1
  Sc  Sc68  1  0.29871672  0.69650313  0.30644348  1
  Sc  Sc69  1  0.90093339  0.89867809  0.49847874  1
  Sc  Sc70  1  0.29768050  0.09938046  0.71083850  1
  Sc  Sc71  1  0.90177939  0.30304367  0.49927312  1
  Sc  Sc72  1  0.90848856  0.50865162  0.90148677  1
  Sc  Sc73  1  0.90630044  0.69827201  0.29931662  1
  Sc  Sc74  1  0.49325756  0.30040578  0.90638509  1
  Sc  Sc75  1  0.50477096  0.49716405  0.09267857  1
  Sc  Sc76  1  0.30808843  0.90163526  0.09563520  1
  Sc  Sc77  1  0.50041067  0.29909029  0.70834162  1
  Sc  Sc78  1  0.30195386  0.09524706  0.49023091  1
  Sc  Sc79  1  0.09871842  0.30639863  0.28969792  1
  Sc  Sc80  1  0.49933431  0.10244148  0.08974808  1
  Sc  Sc81  1  0.90053984  0.09347492  0.08620687  1
  Sc  Sc82  1  0.09904485  0.70582773  0.49526521  1
  Sc  Sc83  1  0.70245716  0.70934905  0.70390143  1
  Sc  Sc84  1  0.89832953  0.09801862  0.89906084  1
  Sc  Sc85  1  0.50340136  0.88974135  0.49753225  1
  Sc  Sc86  1  0.69507881  0.09733578  0.49285768  1
  Sc  Sc87  1  0.90463987  0.50421984  0.68760239  1
  Sc  Sc88  1  0.48972323  0.49849388  0.49663443  1
  Sc  Sc89  1  0.70226751  0.89307460  0.50141713  1
  Sc  Sc90  1  0.69894251  0.90453367  0.89684263  1
  Sc  Sc91  1  0.30531048  0.50185758  0.49806400  1
  Sc  Sc92  1  0.90149778  0.70047066  0.50495728  1
  Sc  Sc93  1  0.68917048  0.30170132  0.10098599  1
  Sc  Sc94  1  0.09770697  0.50116886  0.69648654  1
  Sc  Sc95  1  0.90040964  0.89683474  0.69599592  1
  Sc  Sc96  1  0.30275675  0.49364906  0.70494842  1
  Sc  Sc97  1  0.90986440  0.69886581  0.89390520  1
  Sc  Sc98  1  0.50111369  0.89716102  0.70400101  1
  Sc  Sc99  1  0.08701554  0.90336583  0.30214851  1
  Nb  Nb100  1  0.28644246  0.29246981  0.69705542  1
  Nb  Nb101  1  0.89990699  0.49205410  0.28938416  1
  Nb  Nb102  1  0.90353253  0.70137397  0.09935725  1
  Nb  Nb103  1  0.68848309  0.69766825  0.50034021  1
  Nb  Nb104  1  0.70084790  0.29536225  0.70268413  1
  Nb  Nb105  1  0.29494625  0.70108200  0.89755547  1
  Nb  Nb106  1  0.49191375  0.91475140  0.90495295  1
  Nb  Nb107  1  0.49656175  0.10211036  0.50174277  1
  Nb  Nb108  1  0.10160015  0.29967896  0.09397624  1
  Nb  Nb109  1  0.89910643  0.89935374  0.29668398  1
  Nb  Nb110  1  0.09023345  0.71032623  0.09576315  1
  Nb  Nb111  1  0.29987454  0.70444657  0.70516977  1
  Nb  Nb112  1  0.49690554  0.70102133  0.50572265  1
  Nb  Nb113  1  0.10981744  0.29823227  0.70481702  1
  Nb  Nb114  1  0.50014669  0.89585858  0.10456545  1
  Nb  Nb115  1  0.50161949  0.50324161  0.69354383  1
  Nb  Nb116  1  0.49931678  0.90076620  0.29150016  1
  Nb  Nb117  1  0.09907849  0.89418357  0.09790407  1
  Nb  Nb118  1  0.89693613  0.50307147  0.10751010  1
  Nb  Nb119  1  0.09490544  0.09303613  0.89485099  1
  Nb  Nb120  1  0.49881948  0.29542590  0.49862748  1
  Nb  Nb121  1  0.50173957  0.29474104  0.30008421  1
  Nb  Nb122  1  0.69660973  0.10355529  0.70310841  1
  Nb  Nb123  1  0.49163654  0.09274502  0.89413851  1
  Nb  Nb124  1  0.30290865  0.70617403  0.50860654  1
  Nb  Nb125  1  0.80696206  0.19513149  0.19956424  1
  Nb  Nb126  1  0.80320622  0.40411819  -0.00162719  1
  Nb  Nb127  1  -0.00032505  0.19904472  0.19421263  1
  Nb  Nb128  1  0.40145395  0.19812986  0.60003776  1
  Nb  Nb129  1  0.59723408  0.39940695  0.59735669  1
  Nb  Nb130  1  0.00120165  0.39249065  0.79715032  1
  Nb  Nb131  1  0.20084745  0.60805070  0.00163236  1
  Nb  Nb132  1  0.40444133  0.20328035  0.20453198  1
  Nb  Nb133  1  0.80587713  0.79697791  0.00487993  1
  Nb  Nb134  1  0.59733102  -0.00679984  0.19989647  1
  Nb  Nb135  1  0.39583753  0.79673539  0.80707998  1
  Nb  Nb136  1  0.20923713  0.61012693  0.60219432  1
  Nb  Nb137  1  0.39420828  0.60695932  -0.00268471  1
  Nb  Nb138  1  0.40090962  0.60988456  0.60600343  1
  Nb  Nb139  1  0.40609919  0.00328948  0.59886659  1
  Nb  Nb140  1  0.79343841  0.19596096  0.60607244  1
  Nb  Nb141  1  0.80534098  0.39748994  0.80403720  1
  Nb  Nb142  1  0.59563762  0.39499462  0.40137674  1
  Nb  Nb143  1  0.20127002  0.20746986  0.39898746  1
  Nb  Nb144  1  0.59637460  0.00698272  0.60207930  1
  Nb  Nb145  1  0.59674928  0.59941576  0.59593276  1
  Nb  Nb146  1  0.80445369  0.80097343  0.19761530  1
  Nb  Nb147  1  0.19404848  0.80372130  0.19721378  1
  Nb  Nb148  1  0.79883764  -0.00292060  0.20014196  1
  Nb  Nb149  1  0.19933565  0.39917420  0.40074520  1
  Pd  Pd150  1  0.80209328  0.00014265  0.40173387  1
  Pd  Pd151  1  0.60229544  0.80278361  -0.01087188  1
  Pd  Pd152  1  0.81001559  0.60379412  0.39673276  1
  Pd  Pd153  1  0.79527932  0.39855221  0.39675675  1
  Pd  Pd154  1  0.40541766  0.60349815  0.19123802  1
  Pd  Pd155  1  0.61035230  0.79912932  0.20858360  1
  Pd  Pd156  1  0.59427672  0.80873459  0.81000740  1
  Pd  Pd157  1  0.59119192  0.59106616  0.40398088  1
  Pd  Pd158  1  0.20155380  0.19172069  0.81216252  1
  Pd  Pd159  1  0.00008203  0.60177296  0.19675357  1
  Pd  Pd160  1  0.40478209  0.39903660  0.19629823  1
  Pd  Pd161  1  0.20811141  0.00676481  0.59891904  1
  Pd  Pd162  1  0.60572639  0.40372607  0.79488934  1
  Pd  Pd163  1  0.79795369  0.20634848  0.00816187  1
  Pd  Pd164  1  0.20005647  0.80674881  0.39203896  1
  Pd  Pd165  1  0.59782291  0.00172288  0.00192116  1
  Pd  Pd166  1  0.59847228  0.79946590  0.39843603  1
  Pd  Pd167  1  -0.01029251  0.60055962  0.40162969  1
  Pd  Pd168  1  0.81051777  0.60052517  -0.00038804  1
  Pd  Pd169  1  0.59373109  0.19808784  -0.01103458  1
  Pd  Pd170  1  0.40862481  0.79654936  -0.00975345  1
  Pd  Pd171  1  0.79374454  0.61034912  0.60324319  1
  Pd  Pd172  1  0.59818706  0.20017301  0.60154863  1
  Pd  Pd173  1  0.20189441  0.00218859  -0.00159326  1
  Pd  Pd174  1  0.40408012  0.60629395  0.79998983  1
  Pd  Pd175  1  0.80459289  0.78951427  0.39780468  1
  Pd  Pd176  1  0.00793193  0.39409536  0.40320669  1
  Pd  Pd177  1  0.79843326  0.79541696  0.59801271  1
  Pd  Pd178  1  0.01382146  0.21018851  0.39569045  1
  Pd  Pd179  1  0.39914136  0.39349350  0.79288338  1
  Pd  Pd180  1  0.60282478  0.20325176  0.40041575  1
  Pd  Pd181  1  0.19867889  0.20225752  0.20197109  1
  Pd  Pd182  1  0.19812547  -0.01118934  0.19725822  1
  Pd  Pd183  1  0.39991617  0.39809892  0.39531167  1
  Pd  Pd184  1  0.20129727  0.18846841  -0.00771671  1
  Pd  Pd185  1  0.80623040  0.59383472  0.79344418  1
  Pd  Pd186  1  0.40394261  0.39506639  0.60945811  1
  Pd  Pd187  1  0.59175870  0.59542806  0.20142373  1
  Pd  Pd188  1  -0.00376501  0.19831848  0.60384501  1
  Pd  Pd189  1  0.79242763  0.00531161  0.59525270  1
  Pd  Pd190  1  0.19045355  0.60879174  0.18905652  1
  Pd  Pd191  1  0.19859005  0.59298236  0.79815540  1
  Pd  Pd192  1  0.19290733  0.40569407  0.80462500  1
  Pd  Pd193  1  0.19948257  0.41252467  0.59665549  1
  Pd  Pd194  1  0.19538266  -0.00248588  0.40405641  1
  Pd  Pd195  1  0.00280305  0.20085104  0.79984273  1
  Pd  Pd196  1  0.39922526  0.80146054  0.39683584  1
  Pd  Pd197  1  0.40840264  0.01058840  0.19143022  1
  Pd  Pd198  1  0.59298194  0.20190988  0.81040279  1
  Pd  Pd199  1  0.60477445  0.59674627  0.78999911  1
  Rh  Rh200  1  0.00161748  0.39758240  0.19861285  1
  Rh  Rh201  1  -0.00013756  0.80006657  0.60167774  1
  Rh  Rh202  1  0.39466483  0.20759413  0.79598323  1
  Rh  Rh203  1  0.40256995  0.80263384  0.61320345  1
  Rh  Rh204  1  0.00617721  0.39694120  0.60711175  1
  Rh  Rh205  1  0.39314729  0.20834354  0.40017513  1
  Rh  Rh206  1  0.59332869  -0.00766436  0.40393933  1
  Rh  Rh207  1  0.80217291  0.20149534  0.79438418  1
  Rh  Rh208  1  -0.00634308  0.40527380  -0.00840754  1
  Rh  Rh209  1  0.20125887  0.80594685  0.79731841  1
  Rh  Rh210  1  0.59306337  0.40907414  0.21010935  1
  Rh  Rh211  1  -0.00252756  -0.00011285  0.59906028  1
  Rh  Rh212  1  -0.00201426  -0.00649472  0.40783794  1
  Rh  Rh213  1  0.40543496  -0.01497543  0.41191029  1
  Rh  Rh214  1  0.59097357  0.59843411  0.00210736  1
  Rh  Rh215  1  0.19826920  0.00203283  0.80382633  1
  Rh  Rh216  1  0.00258790  0.79875318  0.20670798  1
  Rh  Rh217  1  0.39194231  0.79862080  0.20688165  1
  Rh  Rh218  1  0.00123485  -0.00052998  0.79696169  1
  Rh  Rh219  1  0.19146196  0.79562393  0.60546687  1
  Rh  Rh220  1  0.59558440  0.18351985  0.20370366  1
  Rh  Rh221  1  0.19671511  0.79770575  0.00514667  1
  Rh  Rh222  1  0.20534718  0.59672227  0.41283574  1
  Rh  Rh223  1  0.80590758  0.80120114  0.80811902  1
  Rh  Rh224  1  0.00887989  0.60897935  0.59834391  1
  Rh  Rh225  1  0.00317264  0.60179466  0.00680804  1
  Rh  Rh226  1  0.39772830  0.60799265  0.40774477  1
  Rh  Rh227  1  0.39919014  0.19898966  0.00415531  1
  Rh  Rh228  1  0.60525664  0.80108934  0.59949488  1
  Rh  Rh229  1  0.59942884  -0.00189615  0.79751942  1
  Rh  Rh230  1  -0.00441606  0.80230327  0.40030935  1
  Rh  Rh231  1  -0.00077945  0.80719609  0.79971271  1
  Rh  Rh232  1  0.80207954  0.38944283  0.18894793  1
  Rh  Rh233  1  0.20027569  0.40827262  -0.00462952  1
  Rh  Rh234  1  0.39949963  0.40787446  -0.00013783  1
  Rh  Rh235  1  0.00041104  0.59151922  0.79199888  1
  Rh  Rh236  1  0.20908766  0.19028692  0.59294239  1
  Rh  Rh237  1  0.79833900  -0.00747199  0.00233925  1
  Rh  Rh238  1  0.19332962  0.40355034  0.20109978  1
  Rh  Rh239  1  0.00508411  -0.00002232  -0.00612702  1
  Rh  Rh240  1  0.00719780  0.18917622  0.00208512  1
  Rh  Rh241  1  -0.00615727  0.80047146  -0.01046291  1
  Rh  Rh242  1  0.79391754  0.39172880  0.60725262  1
  Rh  Rh243  1  0.39502003  -0.01308937  0.79304585  1
  Rh  Rh244  1  -0.00295087  0.00646805  0.19737117  1
  Rh  Rh245  1  0.80742041  0.60676581  0.20533678  1
  Rh  Rh246  1  0.60586993  0.40081442  -0.00477353  1
  Rh  Rh247  1  0.40014559  0.00098785  0.00706480  1
  Rh  Rh248  1  0.79918704  -0.00024797  0.79803131  1
  Rh  Rh249  1  0.79655762  0.20123416  0.39949479  1
