# generated using pymatgen
data_ZrScNbPdRh
_symmetry_space_group_name_H-M   'P 1'
_cell_length_a   16.55631328
_cell_length_b   16.55514780
_cell_length_c   16.55505482
_cell_angle_alpha   90.01917814
_cell_angle_beta   90.01858263
_cell_angle_gamma   89.98950639
_symmetry_Int_Tables_number   1
_chemical_formula_structural   ZrScNbPdRh
_chemical_formula_sum   'Zr50 Sc50 Nb50 Pd50 Rh50'
_cell_volume   4537.61104700
_cell_formula_units_Z   50
loop_
 _symmetry_equiv_pos_site_id
 _symmetry_equiv_pos_as_xyz
  1  'x, y, z'
loop_
 _atom_site_type_symbol
 _atom_site_label
 _atom_site_symmetry_multiplicity
 _atom_site_fract_x
 _atom_site_fract_y
 _atom_site_fract_z
 _atom_site_occupancy
  Zr  Zr0  1  0.51056884  0.70201689  0.30413759  1
  Zr  Zr1  1  0.30041220  0.08944064  0.69504704  1
  Zr  Zr2  1  0.09895084  0.88689679  0.10022714  1
  Zr  Zr3  1  0.70090814  0.69720306  0.09325880  1
  Zr  Zr4  1  0.50900493  0.89940590  0.50260839  1
  Zr  Zr5  1  0.10364183  0.49772235  0.50145953  1
  Zr  Zr6  1  0.69528363  0.89797895  0.29649185  1
  Zr  Zr7  1  0.29263264  0.29905321  0.90405994  1
  Zr  Zr8  1  0.10137816  0.70752678  0.70920218  1
  Zr  Zr9  1  0.50075723  0.50149400  0.29230153  1
  Zr  Zr10  1  0.49939150  0.71017037  0.70409931  1
  Zr  Zr11  1  0.70399510  0.29757809  0.89714192  1
  Zr  Zr12  1  0.89013218  0.90184268  0.89441333  1
  Zr  Zr13  1  0.10105432  0.49173276  0.70074408  1
  Zr  Zr14  1  0.69700546  0.50501941  0.50618160  1
  Zr  Zr15  1  0.29147218  0.09715619  0.49716839  1
  Zr  Zr16  1  0.30367592  0.69891891  0.90008417  1
  Zr  Zr17  1  0.10674417  0.70802590  0.50082442  1
  Zr  Zr18  1  0.09032342  0.31201253  0.08828588  1
  Zr  Zr19  1  0.90279441  0.50361292  0.50015132  1
  Zr  Zr20  1  0.50265985  0.50487820  0.49647773  1
  Zr  Zr21  1  0.90110469  0.30074400  0.70934915  1
  Zr  Zr22  1  0.69993776  0.90256699  0.70004141  1
  Zr  Zr23  1  0.09331362  0.90135817  0.49778200  1
  Zr  Zr24  1  0.70523796  0.09370269  0.30264242  1
  Zr  Zr25  1  0.09886165  0.50599308  0.29902357  1
  Zr  Zr26  1  0.70247541  0.50493440  0.70546473  1
  Zr  Zr27  1  0.50459109  0.29411921  0.70008115  1
  Zr  Zr28  1  0.90340385  0.29490534  0.50200082  1
  Zr  Zr29  1  0.09664155  0.88813490  0.89980614  1
  Zr  Zr30  1  0.70001675  0.50496987  0.90394253  1
  Zr  Zr31  1  0.30130304  0.29983184  0.29678713  1
  Zr  Zr32  1  0.30174907  0.90586153  0.29397446  1
  Zr  Zr33  1  0.29751098  0.50467367  0.49674846  1
  Zr  Zr34  1  0.69636242  0.30167057  0.09604925  1
  Zr  Zr35  1  0.50059878  0.50197734  0.69491380  1
  Zr  Zr36  1  0.50005357  0.70359678  0.49814316  1
  Zr  Zr37  1  0.09978405  0.29649851  0.50416041  1
  Zr  Zr38  1  0.69809370  0.09113968  0.50652029  1
  Zr  Zr39  1  0.90353302  0.69774940  0.90149334  1
  Zr  Zr40  1  0.89355405  0.49884511  0.89197436  1
  Zr  Zr41  1  0.10186896  0.49172606  0.89949712  1
  Zr  Zr42  1  0.90718987  0.29348339  0.89971598  1
  Zr  Zr43  1  0.49816359  0.69814203  0.09311483  1
  Zr  Zr44  1  0.50649001  0.08672007  0.70111484  1
  Zr  Zr45  1  0.30120325  0.50360696  0.89757414  1
  Zr  Zr46  1  0.09499954  0.10177394  0.89901298  1
  Zr  Zr47  1  0.69605844  0.51131804  0.29808330  1
  Zr  Zr48  1  0.30119389  0.70914632  0.70481881  1
  Zr  Zr49  1  0.30234080  0.29443211  0.09663978  1
  Sc  Sc50  1  0.09739729  0.29882495  0.89828088  1
  Sc  Sc51  1  0.50742353  0.30255756  0.10201332  1
  Sc  Sc52  1  0.10588992  0.29591510  0.30626085  1
  Sc  Sc53  1  0.30228501  0.50927037  0.29844689  1
  Sc  Sc54  1  0.90431892  0.70371068  0.49535960  1
  Sc  Sc55  1  0.70045627  0.09656735  0.89663027  1
  Sc  Sc56  1  0.69898133  0.28770694  0.51098781  1
  Sc  Sc57  1  0.89599940  0.09260438  0.11048515  1
  Sc  Sc58  1  0.29731351  0.90031608  0.10742523  1
  Sc  Sc59  1  0.89423836  0.10029526  0.30492763  1
  Sc  Sc60  1  0.69744676  0.69665417  0.90183992  1
  Sc  Sc61  1  0.90135379  0.09225829  0.70763533  1
  Sc  Sc62  1  0.30677957  0.51045962  0.10599750  1
  Sc  Sc63  1  0.89626849  0.90093467  0.69720235  1
  Sc  Sc64  1  0.70639127  0.29534344  0.28694443  1
  Sc  Sc65  1  0.50809937  0.09936789  0.90102396  1
  Sc  Sc66  1  0.29571950  0.49875701  0.70372266  1
  Sc  Sc67  1  0.09631582  0.89739708  0.69434290  1
  Sc  Sc68  1  0.70266277  0.90313948  0.49958970  1
  Sc  Sc69  1  0.10220568  0.90250844  0.30273380  1
  Sc  Sc70  1  0.49901123  0.29967776  0.28810420  1
  Sc  Sc71  1  0.50081172  0.10710548  0.09796480  1
  Sc  Sc72  1  0.70276159  0.09396820  0.10631850  1
  Sc  Sc73  1  0.49929484  0.70395508  0.89850376  1
  Sc  Sc74  1  0.51166937  0.28835278  0.91378911  1
  Sc  Sc75  1  0.29936107  0.70958042  0.10523629  1
  Sc  Sc76  1  0.50487380  0.89918524  0.89984169  1
  Sc  Sc77  1  0.69626834  0.70089111  0.69810553  1
  Sc  Sc78  1  0.10150710  0.09705393  0.50447974  1
  Sc  Sc79  1  0.69267271  0.50321663  0.09983127  1
  Sc  Sc80  1  0.30712191  0.70595954  0.30173112  1
  Sc  Sc81  1  0.89850104  0.50983318  0.29226356  1
  Sc  Sc82  1  0.70266635  0.28765819  0.70409956  1
  Sc  Sc83  1  0.89622129  0.70345273  0.70496793  1
  Sc  Sc84  1  0.29574678  0.89287507  0.90313761  1
  Sc  Sc85  1  0.29320802  0.10583966  0.29078443  1
  Sc  Sc86  1  0.09280277  0.70576182  0.29433767  1
  Sc  Sc87  1  0.28634940  0.89723151  0.50145522  1
  Sc  Sc88  1  0.89577295  0.09313640  0.50124916  1
  Sc  Sc89  1  0.29387974  0.29527889  0.49678202  1
  Sc  Sc90  1  0.90904306  0.90903234  0.29802703  1
  Sc  Sc91  1  0.49889409  0.89457356  0.29563391  1
  Sc  Sc92  1  0.49489024  0.09572807  0.29179729  1
  Sc  Sc93  1  0.10741541  0.09929355  0.09788746  1
  Sc  Sc94  1  0.49999103  0.90015706  0.10256625  1
  Sc  Sc95  1  0.49878175  0.30013601  0.50661947  1
  Sc  Sc96  1  0.09727799  0.29814344  0.69510913  1
  Sc  Sc97  1  0.69456570  0.70069302  0.50134659  1
  Sc  Sc98  1  0.49975325  0.51765746  0.90186257  1
  Sc  Sc99  1  0.90254884  0.50083114  0.70638005  1
  Nb  Nb100  1  0.30474001  0.90037925  0.70418812  1
  Nb  Nb101  1  0.09267132  0.50541966  0.10355021  1
  Nb  Nb102  1  0.91017746  0.69503740  0.10010215  1
  Nb  Nb103  1  0.70082946  0.09867516  0.70083549  1
  Nb  Nb104  1  0.90359880  0.10105323  0.89744161  1
  Nb  Nb105  1  0.49314596  0.89689104  0.70145807  1
  Nb  Nb106  1  0.89330643  0.70189780  0.29708858  1
  Nb  Nb107  1  0.29478609  0.10440622  0.90661174  1
  Nb  Nb108  1  0.30550538  0.29346137  0.70247237  1
  Nb  Nb109  1  0.10191034  0.70660942  0.90510159  1
  Nb  Nb110  1  0.89618768  0.30099293  0.29797015  1
  Nb  Nb111  1  0.10467466  0.09520715  0.69714160  1
  Nb  Nb112  1  0.71028414  0.89879508  0.09334074  1
  Nb  Nb113  1  0.49950724  0.09881162  0.50058850  1
  Nb  Nb114  1  0.50068970  0.49468948  0.09969524  1
  Nb  Nb115  1  0.09086407  0.70053646  0.09207259  1
  Nb  Nb116  1  0.89722307  0.89862941  0.09740302  1
  Nb  Nb117  1  0.30090073  0.69804060  0.50176779  1
  Nb  Nb118  1  0.70250183  0.89943545  0.91549717  1
  Nb  Nb119  1  0.89681957  0.30433881  0.10684531  1
  Nb  Nb120  1  0.91140541  0.49638143  0.09805644  1
  Nb  Nb121  1  0.90003683  0.90107918  0.49654408  1
  Nb  Nb122  1  0.70417032  0.70117623  0.29418178  1
  Nb  Nb123  1  0.10049190  0.10265560  0.30029134  1
  Nb  Nb124  1  0.29911204  0.10156790  0.09094071  1
  Nb  Nb125  1  0.80148564  0.79885109  0.38964676  1
  Nb  Nb126  1  0.40431963  0.40302089  -0.00150052  1
  Nb  Nb127  1  0.19595513  0.40480306  0.19531003  1
  Nb  Nb128  1  0.39843706  0.00266914  0.40280791  1
  Nb  Nb129  1  -0.00332416  0.20565534  0.20324916  1
  Nb  Nb130  1  0.18972628  0.60514561  0.00416480  1
  Nb  Nb131  1  -0.00639598  -0.00563732  -0.00011729  1
  Nb  Nb132  1  0.59613897  0.40045057  0.80320095  1
  Nb  Nb133  1  0.20135733  0.00046241  0.79941982  1
  Nb  Nb134  1  0.00832244  0.60204204  0.60119060  1
  Nb  Nb135  1  -0.00705557  0.39662332  0.39788102  1
  Nb  Nb136  1  0.40479666  0.40143469  0.39761232  1
  Nb  Nb137  1  0.39990372  0.19207007  0.60331737  1
  Nb  Nb138  1  0.39522792  0.60707638  0.59772087  1
  Nb  Nb139  1  0.79835581  0.39891899  0.40220250  1
  Nb  Nb140  1  0.80277948  0.39990914  0.59885613  1
  Nb  Nb141  1  0.39189740  0.00792246  0.00077422  1
  Nb  Nb142  1  0.80417394  0.79767004  0.19537317  1
  Nb  Nb143  1  0.80856851  0.20232797  0.00213517  1
  Nb  Nb144  1  0.60391982  0.39436925  0.39834767  1
  Nb  Nb145  1  0.20299188  0.19238524  0.79421556  1
  Nb  Nb146  1  0.40577703  0.39239412  0.80579054  1
  Nb  Nb147  1  0.59747997  0.19700083  0.40099683  1
  Nb  Nb148  1  0.80715384  0.39867443  0.00492774  1
  Nb  Nb149  1  0.39639421  0.19610229  0.80113034  1
  Pd  Pd150  1  0.00549936  0.60114194  0.79763203  1
  Pd  Pd151  1  0.20215795  0.79843642  0.39222885  1
  Pd  Pd152  1  -0.00654392  0.18793409  0.01428671  1
  Pd  Pd153  1  0.80810579  0.19540989  0.60857308  1
  Pd  Pd154  1  0.40633921  0.20102670  0.40410609  1
  Pd  Pd155  1  0.20985662  0.41443386  0.01153959  1
  Pd  Pd156  1  0.60233549  0.19497593  0.20437334  1
  Pd  Pd157  1  0.81044380  0.60195024  0.60378731  1
  Pd  Pd158  1  0.80598984  0.79099629  0.00173977  1
  Pd  Pd159  1  0.59902767  -0.00202636  0.19371155  1
  Pd  Pd160  1  0.78957059  0.20424404  0.40122573  1
  Pd  Pd161  1  0.00130488  0.19785572  0.39525911  1
  Pd  Pd162  1  0.39441037  0.80284809  0.59338281  1
  Pd  Pd163  1  0.60738175  0.80525003  0.80676276  1
  Pd  Pd164  1  0.61184076  0.39473744  0.60290124  1
  Pd  Pd165  1  0.19483401  0.60332629  0.80595455  1
  Pd  Pd166  1  0.00164033  0.00864888  0.40140324  1
  Pd  Pd167  1  0.00261303  0.60292942  0.40180926  1
  Pd  Pd168  1  0.39210837  0.39880623  0.59705046  1
  Pd  Pd169  1  0.00659116  0.39477646  0.21227005  1
  Pd  Pd170  1  0.20260870  0.40089794  0.39175684  1
  Pd  Pd171  1  0.18941078  0.20894730  0.19024594  1
  Pd  Pd172  1  0.00173235  0.59352031  -0.00847441  1
  Pd  Pd173  1  0.00800515  0.00705713  0.19414988  1
  Pd  Pd174  1  0.20062168  0.60558951  0.60723241  1
  Pd  Pd175  1  0.00529024  -0.00724934  0.80049036  1
  Pd  Pd176  1  0.79489827  0.41060421  0.19866475  1
  Pd  Pd177  1  0.40562256  0.60913930  0.20030760  1
  Pd  Pd178  1  -0.00543804  0.80089586  0.20421092  1
  Pd  Pd179  1  0.19411134  0.00036538  0.19863868  1
  Pd  Pd180  1  0.79591243  0.60455970  0.40429876  1
  Pd  Pd181  1  0.80404251  0.59986796  0.18728269  1
  Pd  Pd182  1  0.39466459  -0.00102027  0.81450838  1
  Pd  Pd183  1  0.60459320  0.79883567  0.18864245  1
  Pd  Pd184  1  0.39625462  0.81149668  0.40362588  1
  Pd  Pd185  1  0.40009075  0.81135293  0.00086674  1
  Pd  Pd186  1  0.19951854  0.61195712  0.39224068  1
  Pd  Pd187  1  -0.00547939  0.18775015  0.60672986  1
  Pd  Pd188  1  0.60665655  -0.00889902  0.80449496  1
  Pd  Pd189  1  0.80500539  0.01217754  -0.00264517  1
  Pd  Pd190  1  0.59074747  0.00452846  0.39395017  1
  Pd  Pd191  1  0.59387878  0.00070187  0.00660762  1
  Pd  Pd192  1  0.19638129  0.60589997  0.19521136  1
  Pd  Pd193  1  0.79115616  0.79695552  0.80340581  1
  Pd  Pd194  1  0.39970028  -0.00508120  0.58977687  1
  Pd  Pd195  1  0.80014298  0.79980427  0.58983578  1
  Pd  Pd196  1  0.19737866  -0.00781927  -0.00406372  1
  Pd  Pd197  1  0.20930120  0.39297431  0.60353511  1
  Pd  Pd198  1  -0.00651862  0.79636566  0.60214629  1
  Pd  Pd199  1  0.40158112  0.19677178  0.19429430  1
  Rh  Rh200  1  0.59503815  0.60152605  0.00321896  1
  Rh  Rh201  1  -0.00889354  0.40628346  -0.00845191  1
  Rh  Rh202  1  -0.00755326  0.80295812  0.39729557  1
  Rh  Rh203  1  0.00850215  0.19719518  0.79084820  1
  Rh  Rh204  1  0.39013296  0.39912212  0.19567372  1
  Rh  Rh205  1  0.59622632  0.40934605  -0.00753397  1
  Rh  Rh206  1  0.60321453  0.80555456  0.60279397  1
  Rh  Rh207  1  0.59851707  0.19840799  0.79876531  1
  Rh  Rh208  1  0.19464424  -0.01170292  0.60588272  1
  Rh  Rh209  1  0.39680081  0.00476966  0.19576058  1
  Rh  Rh210  1  0.00563019  0.39523287  0.80231275  1
  Rh  Rh211  1  0.39482722  0.59873801  0.00533320  1
  Rh  Rh212  1  0.80279364  -0.00070584  0.60380910  1
  Rh  Rh213  1  0.60681159  0.40247826  0.20537999  1
  Rh  Rh214  1  -0.00668919  0.40752799  0.59644407  1
  Rh  Rh215  1  0.60057924  0.80255288  -0.00025940  1
  Rh  Rh216  1  0.19315955  0.19352549  0.40202768  1
  Rh  Rh217  1  0.59432984  0.60522017  0.19338621  1
  Rh  Rh218  1  0.79921466  -0.01018342  0.20542840  1
  Rh  Rh219  1  -0.00690413  0.80178534  0.80038726  1
  Rh  Rh220  1  0.59836240  0.59971163  0.79758101  1
  Rh  Rh221  1  0.40518337  0.79844542  0.20086628  1
  Rh  Rh222  1  0.18923514  0.20203723  -0.00025124  1
  Rh  Rh223  1  0.61588585  0.18866746  0.00617206  1
  Rh  Rh224  1  0.80670752  0.19513282  0.19487285  1
  Rh  Rh225  1  0.20290445  0.80869836  0.79742852  1
  Rh  Rh226  1  0.40107977  0.80835320  0.80838935  1
  Rh  Rh227  1  0.58940589  0.61142494  0.60528487  1
  Rh  Rh228  1  0.60178481  -0.00528102  0.60480153  1
  Rh  Rh229  1  0.79120549  0.39919568  0.79772662  1
  Rh  Rh230  1  0.80285991  -0.01174802  0.39864531  1
  Rh  Rh231  1  0.20473024  0.79219346  0.00502719  1
  Rh  Rh232  1  0.19514413  0.79643337  0.20191954  1
  Rh  Rh233  1  0.79331161  0.00132012  0.80173146  1
  Rh  Rh234  1  0.80159664  0.18833370  0.80414141  1
  Rh  Rh235  1  0.20237427  0.80375925  0.60360551  1
  Rh  Rh236  1  0.20431006  0.20286276  0.60275399  1
  Rh  Rh237  1  0.40533747  0.19993160  -0.00169257  1
  Rh  Rh238  1  0.39881972  0.59796563  0.40384879  1
  Rh  Rh239  1  0.60944546  0.79887493  0.40168632  1
  Rh  Rh240  1  -0.00185918  0.60524271  0.20139756  1
  Rh  Rh241  1  0.80960802  0.59133967  0.00573237  1
  Rh  Rh242  1  -0.00298899  -0.00180218  0.59730065  1
  Rh  Rh243  1  0.20339101  0.38791794  0.79229634  1
  Rh  Rh244  1  0.79591641  0.60969462  0.79845128  1
  Rh  Rh245  1  0.20219547  0.00609283  0.38993522  1
  Rh  Rh246  1  0.59500656  0.19048486  0.59861715  1
  Rh  Rh247  1  -0.01128246  0.80527613  -0.00278232  1
  Rh  Rh248  1  0.40236714  0.59756621  0.78840278  1
  Rh  Rh249  1  0.60464168  0.60292715  0.39890275  1
