# generated using pymatgen
data_ZrScNbPdRh
_symmetry_space_group_name_H-M   'P 1'
_cell_length_a   16.56290487
_cell_length_b   16.55918679
_cell_length_c   16.56310380
_cell_angle_alpha   89.99405025
_cell_angle_beta   90.00187790
_cell_angle_gamma   89.96919304
_symmetry_Int_Tables_number   1
_chemical_formula_structural   ZrScNbPdRh
_chemical_formula_sum   'Zr50 Sc50 Nb50 Pd50 Rh50'
_cell_volume   4542.73256793
_cell_formula_units_Z   50
loop_
 _symmetry_equiv_pos_site_id
 _symmetry_equiv_pos_as_xyz
  1  'x, y, z'
loop_
 _atom_site_type_symbol
 _atom_site_label
 _atom_site_symmetry_multiplicity
 _atom_site_fract_x
 _atom_site_fract_y
 _atom_site_fract_z
 _atom_site_occupancy
  Zr  Zr0  1  0.70099422  0.09987441  0.09709183  1
  Zr  Zr1  1  0.89921369  0.28987584  0.11069457  1
  Zr  Zr2  1  0.29524530  0.30361966  0.09310582  1
  Zr  Zr3  1  0.49787000  0.70706723  0.49996672  1
  Zr  Zr4  1  0.70211363  0.10355452  0.50391468  1
  Zr  Zr5  1  0.10185661  0.70468305  0.50403632  1
  Zr  Zr6  1  0.50020178  0.49681959  0.70532288  1
  Zr  Zr7  1  0.09297868  0.30118685  0.29622111  1
  Zr  Zr8  1  0.09811011  0.50077800  0.09967979  1
  Zr  Zr9  1  0.29963397  0.89665279  0.90189152  1
  Zr  Zr10  1  0.49319307  0.70189653  0.90300047  1
  Zr  Zr11  1  0.50131342  0.50209764  0.29391118  1
  Zr  Zr12  1  0.90143604  0.70063880  0.70244149  1
  Zr  Zr13  1  0.90583135  0.90404025  0.28312296  1
  Zr  Zr14  1  0.50390782  0.71338672  0.70346950  1
  Zr  Zr15  1  0.29903949  0.70909460  0.50017534  1
  Zr  Zr16  1  0.70306592  0.69353139  0.50215378  1
  Zr  Zr17  1  0.70976162  0.69583150  0.70146496  1
  Zr  Zr18  1  0.69503776  0.49846633  0.89508739  1
  Zr  Zr19  1  0.49780568  0.89802096  0.88602430  1
  Zr  Zr20  1  0.89941125  0.50385015  0.10970440  1
  Zr  Zr21  1  0.29590275  0.50199762  0.69818383  1
  Zr  Zr22  1  0.50849336  0.10590504  0.09404574  1
  Zr  Zr23  1  0.50116138  0.49721136  0.09560009  1
  Zr  Zr24  1  0.49575568  0.89925953  0.50915328  1
  Zr  Zr25  1  0.09360431  0.90280736  0.09981857  1
  Zr  Zr26  1  0.10163633  0.09984444  0.70142365  1
  Zr  Zr27  1  0.49565845  0.08916099  0.69987308  1
  Zr  Zr28  1  0.29863093  0.50085062  0.29544929  1
  Zr  Zr29  1  0.29831926  0.50857614  0.09961029  1
  Zr  Zr30  1  0.89609908  0.89459716  0.90752005  1
  Zr  Zr31  1  0.90104374  0.10838075  0.49349927  1
  Zr  Zr32  1  0.89555149  0.29502616  0.29835134  1
  Zr  Zr33  1  0.09714046  0.29849181  0.09910846  1
  Zr  Zr34  1  0.89991067  0.69787042  0.89590842  1
  Zr  Zr35  1  0.10111708  0.09703013  0.49376171  1
  Zr  Zr36  1  0.30217091  0.70653767  0.28569685  1
  Zr  Zr37  1  0.29452190  0.28965563  0.89959865  1
  Zr  Zr38  1  0.30807034  0.90004260  0.49922080  1
  Zr  Zr39  1  0.69738083  0.30257880  0.89600278  1
  Zr  Zr40  1  0.90537719  0.50360368  0.89833342  1
  Zr  Zr41  1  0.11481952  0.10141203  0.89645141  1
  Zr  Zr42  1  0.29910170  0.11056353  0.48754118  1
  Zr  Zr43  1  0.50701357  0.09252311  0.50440246  1
  Zr  Zr44  1  0.29248741  0.28953209  0.30382427  1
  Zr  Zr45  1  0.30603086  0.90545667  0.29666489  1
  Zr  Zr46  1  0.89947337  0.69035363  0.29465148  1
  Zr  Zr47  1  0.90074752  0.70855079  0.09821929  1
  Zr  Zr48  1  0.90308532  0.09674046  0.70599231  1
  Zr  Zr49  1  0.29344727  0.09627262  0.09670864  1
  Sc  Sc50  1  0.90042328  0.29440134  0.89384445  1
  Sc  Sc51  1  0.70209418  0.90386135  0.90467149  1
  Sc  Sc52  1  0.09579640  0.49137387  0.49719950  1
  Sc  Sc53  1  0.10704368  0.89780431  0.49390649  1
  Sc  Sc54  1  0.29843474  0.10394215  0.71345536  1
  Sc  Sc55  1  0.90185451  0.49828618  0.50426405  1
  Sc  Sc56  1  0.90289185  0.49732370  0.30071757  1
  Sc  Sc57  1  0.09585456  0.09795277  0.09692110  1
  Sc  Sc58  1  0.90203609  0.30650039  0.69633176  1
  Sc  Sc59  1  0.50600256  0.10193060  0.89669359  1
  Sc  Sc60  1  0.49998564  0.69804993  0.09787945  1
  Sc  Sc61  1  0.51181760  0.90328096  0.10538748  1
  Sc  Sc62  1  0.89593886  0.69156381  0.50207414  1
  Sc  Sc63  1  0.09763063  0.29833851  0.89823585  1
  Sc  Sc64  1  0.49068915  0.29127225  0.50994144  1
  Sc  Sc65  1  0.69583988  0.70543101  0.90146690  1
  Sc  Sc66  1  0.51029522  0.29454575  0.29117940  1
  Sc  Sc67  1  0.09348070  0.50946130  0.89626050  1
  Sc  Sc68  1  0.08911193  0.49995363  0.29936894  1
  Sc  Sc69  1  0.10311475  0.70067547  0.09988654  1
  Sc  Sc70  1  0.89801774  0.89249964  0.71119894  1
  Sc  Sc71  1  0.50094067  0.69992834  0.28950175  1
  Sc  Sc72  1  0.30216478  0.51337929  0.90637981  1
  Sc  Sc73  1  0.70679936  0.90326477  0.09359055  1
  Sc  Sc74  1  0.10091670  0.89885161  0.90376076  1
  Sc  Sc75  1  0.70045880  0.50408321  0.29570823  1
  Sc  Sc76  1  0.69309129  0.29651379  0.11031179  1
  Sc  Sc77  1  0.69572710  0.88835246  0.70369497  1
  Sc  Sc78  1  0.89543795  0.09728268  0.90122807  1
  Sc  Sc79  1  0.69227291  0.90410588  0.50051460  1
  Sc  Sc80  1  0.69320213  0.90440885  0.28948215  1
  Sc  Sc81  1  0.29557030  0.48723268  0.50726623  1
  Sc  Sc82  1  0.50661393  0.50290803  0.90588115  1
  Sc  Sc83  1  0.28785423  0.89442383  0.10487470  1
  Sc  Sc84  1  0.49714247  0.49759896  0.50137255  1
  Sc  Sc85  1  0.69126621  0.49452689  0.10210844  1
  Sc  Sc86  1  0.09534026  0.30188121  0.69780082  1
  Sc  Sc87  1  0.10767549  0.90433872  0.29442622  1
  Sc  Sc88  1  0.10446116  0.70265533  0.89246209  1
  Sc  Sc89  1  0.30006922  0.30070218  0.68653033  1
  Sc  Sc90  1  0.90026661  0.49839688  0.70586883  1
  Sc  Sc91  1  0.09682816  0.88827580  0.70432158  1
  Sc  Sc92  1  0.90425313  0.89722732  0.50036288  1
  Sc  Sc93  1  0.09821500  0.30213830  0.50219511  1
  Sc  Sc94  1  0.50216399  0.30180582  0.90988918  1
  Sc  Sc95  1  0.69451036  0.70867844  0.10108915  1
  Sc  Sc96  1  0.50180079  0.09004742  0.30021130  1
  Sc  Sc97  1  0.69976739  0.10053028  0.90327891  1
  Sc  Sc98  1  0.49888614  0.29278624  0.70069474  1
  Sc  Sc99  1  0.69406580  0.11163657  0.70200896  1
  Nb  Nb100  1  0.29934620  0.09503793  0.90261219  1
  Nb  Nb101  1  0.70763809  0.29600975  0.50706304  1
  Nb  Nb102  1  0.49193558  0.89929460  0.69657999  1
  Nb  Nb103  1  0.69913911  0.31038419  0.69778300  1
  Nb  Nb104  1  0.30225455  0.70632629  0.90601540  1
  Nb  Nb105  1  0.70173555  0.49869151  0.50473640  1
  Nb  Nb106  1  0.30008725  0.70022306  0.09166635  1
  Nb  Nb107  1  0.10644366  0.69326323  0.70026127  1
  Nb  Nb108  1  0.70243869  0.10618512  0.30557239  1
  Nb  Nb109  1  0.70206351  0.29703688  0.30044572  1
  Nb  Nb110  1  0.89606750  0.30432893  0.50117137  1
  Nb  Nb111  1  0.70115296  0.49597554  0.70075090  1
  Nb  Nb112  1  0.09707557  0.69657100  0.30644830  1
  Nb  Nb113  1  0.90363122  0.10272189  0.29572903  1
  Nb  Nb114  1  0.90059348  0.09205979  0.10875493  1
  Nb  Nb115  1  0.90317829  0.90838776  0.09577308  1
  Nb  Nb116  1  0.30117039  0.30236717  0.49627875  1
  Nb  Nb117  1  0.69994417  0.70390949  0.30617379  1
  Nb  Nb118  1  0.29158086  0.09932004  0.29747144  1
  Nb  Nb119  1  0.10568840  0.09829702  0.30445711  1
  Nb  Nb120  1  0.31736837  0.90521021  0.70039151  1
  Nb  Nb121  1  0.50293193  0.89889958  0.30766324  1
  Nb  Nb122  1  0.49955631  0.30000261  0.10255206  1
  Nb  Nb123  1  0.10234509  0.50003042  0.70164315  1
  Nb  Nb124  1  0.29032182  0.69600012  0.70757805  1
  Nb  Nb125  1  0.80243239  0.00265838  0.39613392  1
  Nb  Nb126  1  0.60449569  0.39415926  0.40637016  1
  Nb  Nb127  1  0.60807193  0.39963833  0.59855387  1
  Nb  Nb128  1  0.79203471  0.39310635  0.40615276  1
  Nb  Nb129  1  0.79924187  0.80314929  0.39168180  1
  Nb  Nb130  1  0.20276779  0.60274621  0.39836756  1
  Nb  Nb131  1  0.20273218  -0.00024602  0.60201208  1
  Nb  Nb132  1  -0.00768844  0.39997218  0.00354876  1
  Nb  Nb133  1  0.79935389  0.59620667  0.00052089  1
  Nb  Nb134  1  0.39355584  0.59868848  0.40141771  1
  Nb  Nb135  1  0.00889598  0.60100412  0.60780602  1
  Nb  Nb136  1  0.39808618  0.00065921  -0.00256461  1
  Nb  Nb137  1  0.39947622  0.60532190  0.60184438  1
  Nb  Nb138  1  0.39884159  0.39245107  0.19776849  1
  Nb  Nb139  1  0.60871488  0.20329495  0.40390200  1
  Nb  Nb140  1  0.20346421  0.40546207  0.79774439  1
  Nb  Nb141  1  0.39621091  0.19855751  0.19640417  1
  Nb  Nb142  1  0.40140169  0.39540658  0.39463223  1
  Nb  Nb143  1  0.80431702  0.40090168  0.00314040  1
  Nb  Nb144  1  0.80589926  0.00326707  0.59908191  1
  Nb  Nb145  1  0.60150885  0.79932918  0.39599413  1
  Nb  Nb146  1  0.39381640  0.40037587  0.80256056  1
  Nb  Nb147  1  0.60148030  0.59508026  0.60330039  1
  Nb  Nb148  1  0.00192330  0.00155195  0.60081362  1
  Nb  Nb149  1  -0.00426382  0.79496790  0.39264865  1
  Pd  Pd150  1  0.39827690  0.60068591  0.79895473  1
  Pd  Pd151  1  0.59775511  0.80609078  -0.00262820  1
  Pd  Pd152  1  0.40000810  0.19329788  0.00143381  1
  Pd  Pd153  1  0.40216937  0.20425971  0.80194900  1
  Pd  Pd154  1  0.79455092  0.00479941  0.20314471  1
  Pd  Pd155  1  -0.00080276  0.00780935  -0.00868434  1
  Pd  Pd156  1  0.40379491  0.81154326  0.01196341  1
  Pd  Pd157  1  0.59662051  0.20411296  0.80048976  1
  Pd  Pd158  1  0.19210885  0.60433254  0.20427970  1
  Pd  Pd159  1  -0.00435214  -0.00950606  0.39934438  1
  Pd  Pd160  1  0.20017246  0.40260157  0.39792639  1
  Pd  Pd161  1  0.20019642  0.40022006  0.20177864  1
  Pd  Pd162  1  0.39453697  0.19024569  0.60354880  1
  Pd  Pd163  1  0.59247021  0.59877658  0.40550848  1
  Pd  Pd164  1  0.41370316  0.20292509  0.38916928  1
  Pd  Pd165  1  0.20119365  0.19787796  0.59937540  1
  Pd  Pd166  1  0.19386716  0.60594567  -0.00590431  1
  Pd  Pd167  1  0.60203475  0.60642855  0.79881922  1
  Pd  Pd168  1  0.60342767  0.00471368  0.20002463  1
  Pd  Pd169  1  0.00146192  0.20068728  0.80169304  1
  Pd  Pd170  1  0.40239682  0.00286277  0.19142282  1
  Pd  Pd171  1  0.78980170  -0.00158906  0.79319295  1
  Pd  Pd172  1  0.80571653  0.39882869  0.80484480  1
  Pd  Pd173  1  0.79490359  0.80306900  0.19941934  1
  Pd  Pd174  1  0.39810738  0.40294769  -0.00341604  1
  Pd  Pd175  1  0.00801743  0.79522799  0.20297664  1
  Pd  Pd176  1  -0.00187110  0.79967293  0.59737817  1
  Pd  Pd177  1  0.20546155  0.80541391  0.79715309  1
  Pd  Pd178  1  0.19562716  0.19500445  0.19481322  1
  Pd  Pd179  1  0.61013200  -0.00465991  0.61303516  1
  Pd  Pd180  1  0.20180731  -0.01140853  0.79309942  1
  Pd  Pd181  1  0.40720325  0.80612353  0.19111342  1
  Pd  Pd182  1  0.19877722  0.59453814  0.58861305  1
  Pd  Pd183  1  0.60489632  0.60576063  0.19420451  1
  Pd  Pd184  1  0.19764120  0.80067004  0.38945829  1
  Pd  Pd185  1  0.60677413  -0.00318948  0.79559997  1
  Pd  Pd186  1  0.18915860  0.40609944  -0.01343128  1
  Pd  Pd187  1  0.79878985  0.20467911  0.00390060  1
  Pd  Pd188  1  0.00384935  -0.00624686  0.80331781  1
  Pd  Pd189  1  0.39982037  0.00447036  0.40061851  1
  Pd  Pd190  1  -0.00207644  0.19853931  0.59961579  1
  Pd  Pd191  1  0.78859584  0.60262343  0.19265076  1
  Pd  Pd192  1  0.80583007  0.19832944  0.61278096  1
  Pd  Pd193  1  0.00385136  0.20694480  0.39922457  1
  Pd  Pd194  1  -0.00266389  0.19834025  -0.00394187  1
  Pd  Pd195  1  0.80217162  0.59200784  0.39817717  1
  Pd  Pd196  1  0.00660947  0.79476454  -0.00454913  1
  Pd  Pd197  1  0.20690699  0.81148071  0.61174834  1
  Pd  Pd198  1  0.79868585  0.80964939  0.59211777  1
  Pd  Pd199  1  0.79885672  0.20347799  0.79393941  1
  Rh  Rh200  1  0.00263344  0.79506481  0.80377393  1
  Rh  Rh201  1  0.80025302  0.79678896  0.00236411  1
  Rh  Rh202  1  0.18946475  0.20528233  0.40242066  1
  Rh  Rh203  1  0.59856029  0.80037997  0.20531872  1
  Rh  Rh204  1  0.00525618  0.60387518  0.19642545  1
  Rh  Rh205  1  0.00435899  0.60491056  0.79037817  1
  Rh  Rh206  1  0.79953208  0.20093206  0.39643558  1
  Rh  Rh207  1  0.79679826  0.80034351  0.80875094  1
  Rh  Rh208  1  0.19403379  0.00410755  0.20030480  1
  Rh  Rh209  1  0.80083190  0.40409361  0.59837448  1
  Rh  Rh210  1  0.58938775  0.39181376  0.79489629  1
  Rh  Rh211  1  0.40881930  0.79528044  0.38719938  1
  Rh  Rh212  1  0.39114537  0.79277017  0.79591447  1
  Rh  Rh213  1  0.60897215  0.39378252  0.00398675  1
  Rh  Rh214  1  0.79599247  0.19123054  0.19841143  1
  Rh  Rh215  1  0.80621475  0.00424535  0.00244420  1
  Rh  Rh216  1  0.38917774  0.01167455  0.59729051  1
  Rh  Rh217  1  0.00811613  0.18912547  0.20419502  1
  Rh  Rh218  1  -0.01220150  0.39367883  0.40025488  1
  Rh  Rh219  1  0.80510700  0.59006503  0.60915452  1
  Rh  Rh220  1  0.60475627  -0.00217507  0.39842779  1
  Rh  Rh221  1  0.19579209  0.19801793  0.00157949  1
  Rh  Rh222  1  0.40100076  0.59777337  0.19395219  1
  Rh  Rh223  1  0.60585986  0.60297084  0.00078290  1
  Rh  Rh224  1  0.19741332  0.79627057  0.00168641  1
  Rh  Rh225  1  0.20192956  0.59719699  0.80874933  1
  Rh  Rh226  1  0.38900353  0.79027193  0.61313544  1
  Rh  Rh227  1  0.00749147  0.60485047  0.41359480  1
  Rh  Rh228  1  0.19856671  0.21121855  0.79338871  1
  Rh  Rh229  1  -0.00611251  0.60013487  0.00729616  1
  Rh  Rh230  1  0.79625728  0.39843433  0.20343023  1
  Rh  Rh231  1  0.40219833  0.60473341  0.00351743  1
  Rh  Rh232  1  0.60727735  0.79569318  0.59405829  1
  Rh  Rh233  1  0.60615946  0.20574992  -0.00161371  1
  Rh  Rh234  1  0.59248503  -0.00302868  -0.00624539  1
  Rh  Rh235  1  0.19317245  0.39332239  0.60412624  1
  Rh  Rh236  1  0.60257325  0.80196285  0.80348744  1
  Rh  Rh237  1  0.59823160  0.19135238  0.20574153  1
  Rh  Rh238  1  0.00778903  0.00844181  0.20091178  1
  Rh  Rh239  1  0.59703733  0.40030546  0.20492182  1
  Rh  Rh240  1  -0.00136743  0.40754469  0.60075811  1
  Rh  Rh241  1  0.00803276  0.39935542  0.80511690  1
  Rh  Rh242  1  0.39968576  0.00460549  0.80767255  1
  Rh  Rh243  1  0.20279518  -0.00506456  0.00026207  1
  Rh  Rh244  1  0.20898904  -0.00371509  0.40168077  1
  Rh  Rh245  1  0.40708759  0.40290977  0.60004411  1
  Rh  Rh246  1  -0.00259053  0.40049022  0.19661920  1
  Rh  Rh247  1  0.79576140  0.59865529  0.80558489  1
  Rh  Rh248  1  0.19503817  0.79654321  0.19866121  1
  Rh  Rh249  1  0.59790978  0.20699754  0.59890625  1
