# generated using pymatgen
data_ZrScNbPdRh
_symmetry_space_group_name_H-M   'P 1'
_cell_length_a   16.55380862
_cell_length_b   16.55168444
_cell_length_c   16.55448657
_cell_angle_alpha   90.00441037
_cell_angle_beta   89.98830633
_cell_angle_gamma   90.01444577
_symmetry_Int_Tables_number   1
_chemical_formula_structural   ZrScNbPdRh
_chemical_formula_sum   'Zr50 Sc50 Nb50 Pd50 Rh50'
_cell_volume   4535.82008274
_cell_formula_units_Z   50
loop_
 _symmetry_equiv_pos_site_id
 _symmetry_equiv_pos_as_xyz
  1  'x, y, z'
loop_
 _atom_site_type_symbol
 _atom_site_label
 _atom_site_symmetry_multiplicity
 _atom_site_fract_x
 _atom_site_fract_y
 _atom_site_fract_z
 _atom_site_occupancy
  Zr  Zr0  1  0.69763901  0.70450990  0.09722704  1
  Zr  Zr1  1  0.69684796  0.50236605  0.69758425  1
  Zr  Zr2  1  0.90022805  0.30198656  0.09125496  1
  Zr  Zr3  1  0.69588785  0.50430940  0.50295963  1
  Zr  Zr4  1  0.28828947  0.30297464  0.49658978  1
  Zr  Zr5  1  0.69685416  0.69670852  0.69928792  1
  Zr  Zr6  1  0.49821265  0.10562218  0.91132884  1
  Zr  Zr7  1  0.09251437  0.89300077  0.88088712  1
  Zr  Zr8  1  0.30498482  0.09379177  0.30466465  1
  Zr  Zr9  1  0.49826259  0.70018281  0.10191212  1
  Zr  Zr10  1  0.09469959  0.09080580  0.51197407  1
  Zr  Zr11  1  0.30580773  0.70497768  0.89978577  1
  Zr  Zr12  1  0.29705658  0.49232830  0.09400384  1
  Zr  Zr13  1  0.10568718  0.29332496  0.69695436  1
  Zr  Zr14  1  0.50606934  0.29538097  0.70289418  1
  Zr  Zr15  1  0.48737046  0.69720587  0.29791101  1
  Zr  Zr16  1  0.50318619  0.09101899  0.50115732  1
  Zr  Zr17  1  0.30551115  0.70770875  0.50202282  1
  Zr  Zr18  1  0.09390348  0.89517224  0.49382551  1
  Zr  Zr19  1  0.90535710  0.09783883  0.89935908  1
  Zr  Zr20  1  0.49871520  0.09862144  0.10268241  1
  Zr  Zr21  1  0.90725523  0.90491798  0.30311903  1
  Zr  Zr22  1  0.29732001  0.29176728  0.30674297  1
  Zr  Zr23  1  0.29568169  0.88993888  0.29875323  1
  Zr  Zr24  1  0.10384893  0.30383886  0.31025048  1
  Zr  Zr25  1  0.29596099  0.10006688  0.09111248  1
  Zr  Zr26  1  0.89467572  0.49192345  0.70807723  1
  Zr  Zr27  1  0.69078177  0.70319481  0.30611230  1
  Zr  Zr28  1  0.09473802  0.50554981  0.30035757  1
  Zr  Zr29  1  0.69441110  0.29256877  0.90694667  1
  Zr  Zr30  1  0.48841404  0.90959945  0.69390638  1
  Zr  Zr31  1  0.50787133  0.29749866  0.29449660  1
  Zr  Zr32  1  0.10627893  0.50207238  0.69807993  1
  Zr  Zr33  1  0.09994675  0.71049515  0.29964655  1
  Zr  Zr34  1  0.29954072  0.09379877  0.69742603  1
  Zr  Zr35  1  0.90267402  0.50249183  0.29632025  1
  Zr  Zr36  1  0.70412007  0.49913834  0.90347456  1
  Zr  Zr37  1  0.90578867  0.30253083  0.30597047  1
  Zr  Zr38  1  0.49800712  0.50089547  0.49382553  1
  Zr  Zr39  1  0.70094897  0.90058764  0.70325295  1
  Zr  Zr40  1  0.89116727  0.70220490  0.49636863  1
  Zr  Zr41  1  0.89650917  0.30706283  0.89625341  1
  Zr  Zr42  1  0.50137463  0.89849526  0.09457491  1
  Zr  Zr43  1  0.70434430  0.29638232  0.50432036  1
  Zr  Zr44  1  0.09827184  0.10032010  0.70388002  1
  Zr  Zr45  1  0.70208215  0.09370579  0.10516174  1
  Zr  Zr46  1  0.89887958  0.70039049  0.90555835  1
  Zr  Zr47  1  0.10220166  0.10323599  0.09524747  1
  Zr  Zr48  1  0.90038525  0.29459863  0.70109300  1
  Zr  Zr49  1  0.31220416  0.70522231  0.10455801  1
  Sc  Sc50  1  0.49868930  0.69855929  0.70338687  1
  Sc  Sc51  1  0.69432304  0.49848094  0.29836123  1
  Sc  Sc52  1  0.70286846  0.09687752  0.49716016  1
  Sc  Sc53  1  0.89052593  0.90718581  0.49807665  1
  Sc  Sc54  1  0.10958056  0.49889115  0.50037916  1
  Sc  Sc55  1  0.69836237  0.10026783  0.30096942  1
  Sc  Sc56  1  0.29870231  0.50216237  0.50284074  1
  Sc  Sc57  1  0.50047314  0.50489455  0.70147501  1
  Sc  Sc58  1  0.90127560  0.90678397  0.70677151  1
  Sc  Sc59  1  0.30782288  0.30467884  0.91040054  1
  Sc  Sc60  1  0.70040530  0.90012255  0.09767669  1
  Sc  Sc61  1  0.50253944  0.50360823  0.30013955  1
  Sc  Sc62  1  0.89847363  0.69480018  0.29963722  1
  Sc  Sc63  1  0.88931974  0.90555320  0.09723663  1
  Sc  Sc64  1  0.09560069  0.29631115  0.89664478  1
  Sc  Sc65  1  0.10041075  0.70459486  0.49693824  1
  Sc  Sc66  1  0.50842989  0.29339803  0.49209348  1
  Sc  Sc67  1  0.49793717  0.70156070  0.90513575  1
  Sc  Sc68  1  0.30473148  0.50915208  0.69439297  1
  Sc  Sc69  1  0.88819197  0.70174953  0.70562925  1
  Sc  Sc70  1  0.31188417  0.49948521  0.30732021  1
  Sc  Sc71  1  0.70023728  0.10830838  0.69080433  1
  Sc  Sc72  1  0.10186229  0.89869917  0.29948206  1
  Sc  Sc73  1  0.70486110  0.29852702  0.69418738  1
  Sc  Sc74  1  0.50059776  0.09848515  0.31000868  1
  Sc  Sc75  1  0.10135265  0.09838371  0.90140998  1
  Sc  Sc76  1  0.69245515  0.29999017  0.10715216  1
  Sc  Sc77  1  0.30617493  0.10130153  0.49542689  1
  Sc  Sc78  1  0.10511787  0.69160151  0.09426014  1
  Sc  Sc79  1  0.69968102  0.70534855  0.89826855  1
  Sc  Sc80  1  0.89838193  0.29860556  0.49441996  1
  Sc  Sc81  1  0.50568979  0.29742032  0.08837219  1
  Sc  Sc82  1  0.10183480  0.90601564  0.68896569  1
  Sc  Sc83  1  0.70224272  0.90464049  0.29981467  1
  Sc  Sc84  1  0.69803216  0.29243949  0.29936916  1
  Sc  Sc85  1  0.10107320  0.71755072  0.70940459  1
  Sc  Sc86  1  0.89081647  0.90488623  0.89887763  1
  Sc  Sc87  1  0.50049072  0.70329877  0.48761635  1
  Sc  Sc88  1  0.09552008  0.09158826  0.30044782  1
  Sc  Sc89  1  0.89486981  0.49564925  0.49376178  1
  Sc  Sc90  1  0.89400980  0.09699277  0.49702067  1
  Sc  Sc91  1  0.90020765  0.09735916  0.69282753  1
  Sc  Sc92  1  0.89313828  0.09848115  0.30060928  1
  Sc  Sc93  1  0.30929023  0.49921342  0.90581155  1
  Sc  Sc94  1  0.50328256  0.50064189  0.09900010  1
  Sc  Sc95  1  0.88701725  0.69474262  0.09861795  1
  Sc  Sc96  1  0.69824087  0.50058732  0.09622892  1
  Sc  Sc97  1  0.49959465  0.90202636  0.30841708  1
  Sc  Sc98  1  0.30121557  0.90388116  0.10286985  1
  Sc  Sc99  1  0.10980227  0.91014449  0.10627550  1
  Nb  Nb100  1  0.10537706  0.50592037  0.90603164  1
  Nb  Nb101  1  0.29964126  0.29853578  0.70123168  1
  Nb  Nb102  1  0.30635369  0.09467878  0.90095381  1
  Nb  Nb103  1  0.10493983  0.49529799  0.09573736  1
  Nb  Nb104  1  0.50058894  0.30050263  0.90184115  1
  Nb  Nb105  1  0.10027379  0.70161542  0.89905390  1
  Nb  Nb106  1  0.29962040  0.89261782  0.69545549  1
  Nb  Nb107  1  0.49700795  0.48746093  0.90500024  1
  Nb  Nb108  1  0.69429862  0.91039965  0.90208804  1
  Nb  Nb109  1  0.69957891  0.09491773  0.90639205  1
  Nb  Nb110  1  0.69931148  0.70786570  0.50173525  1
  Nb  Nb111  1  0.09935995  0.30620107  0.50031587  1
  Nb  Nb112  1  0.49787903  0.90715303  0.89899588  1
  Nb  Nb113  1  0.11309481  0.30331945  0.10493233  1
  Nb  Nb114  1  0.31037038  0.90214348  0.89400777  1
  Nb  Nb115  1  0.30426196  0.89622098  0.51211750  1
  Nb  Nb116  1  0.29238035  0.29945603  0.10585920  1
  Nb  Nb117  1  0.49733382  0.89884159  0.50019392  1
  Nb  Nb118  1  0.29930010  0.70172401  0.29476965  1
  Nb  Nb119  1  0.89984329  0.49710165  0.09082714  1
  Nb  Nb120  1  0.90149245  0.10152914  0.09810721  1
  Nb  Nb121  1  0.29795022  0.71091832  0.69793207  1
  Nb  Nb122  1  0.90266225  0.49545046  0.91206631  1
  Nb  Nb123  1  0.69434014  0.89833876  0.49593781  1
  Nb  Nb124  1  0.49816162  0.10067128  0.69960685  1
  Nb  Nb125  1  0.39996585  0.39045302  0.60154372  1
  Nb  Nb126  1  0.21141303  -0.00488201  0.79973030  1
  Nb  Nb127  1  -0.00865115  0.79619281  0.59851084  1
  Nb  Nb128  1  -0.00100069  0.79917436  0.19078816  1
  Nb  Nb129  1  0.39722879  0.38943684  0.19709805  1
  Nb  Nb130  1  0.40120102  0.20268903  0.60508654  1
  Nb  Nb131  1  0.20299562  0.40484302  0.80008818  1
  Nb  Nb132  1  0.20535984  0.60978882  0.39227653  1
  Nb  Nb133  1  0.00450168  0.80016416  0.00138805  1
  Nb  Nb134  1  0.59599040  0.00459603  0.80470729  1
  Nb  Nb135  1  0.81044542  0.40198482  0.19669270  1
  Nb  Nb136  1  0.59632733  0.39757307  0.80681766  1
  Nb  Nb137  1  0.00338467  0.59542378  0.80725780  1
  Nb  Nb138  1  0.00417554  0.39973719  0.60065803  1
  Nb  Nb139  1  0.19928502  0.80177266  -0.00959771  1
  Nb  Nb140  1  0.39498601  0.20332055  0.19629110  1
  Nb  Nb141  1  0.40114147  0.19818260  0.80067968  1
  Nb  Nb142  1  0.00373403  0.20653521  0.19349636  1
  Nb  Nb143  1  0.20396034  0.59892313  0.20167346  1
  Nb  Nb144  1  0.60171116  0.80371341  0.59416346  1
  Nb  Nb145  1  0.80165736  0.19279428  0.00070179  1
  Nb  Nb146  1  0.00527306  0.40090057  0.18842890  1
  Nb  Nb147  1  0.20354106  -0.00854863  0.40732027  1
  Nb  Nb148  1  -0.00219654  0.60073110  0.60762023  1
  Nb  Nb149  1  0.19981996  0.60404432  0.80420570  1
  Pd  Pd150  1  0.79153245  0.39932976  0.39231851  1
  Pd  Pd151  1  0.39931538  0.39804834  0.79365673  1
  Pd  Pd152  1  0.59115323  0.61094829  0.59243661  1
  Pd  Pd153  1  0.20384813  0.41034726  0.21248488  1
  Pd  Pd154  1  -0.00079159  0.60450209  0.00198760  1
  Pd  Pd155  1  0.80054193  0.80479195  0.39169555  1
  Pd  Pd156  1  0.19872060  -0.01140202  -0.01399860  1
  Pd  Pd157  1  0.59920988  0.19571512  0.80124301  1
  Pd  Pd158  1  0.79990750  0.80781366  0.60278944  1
  Pd  Pd159  1  0.79229328  0.01112634  0.79413351  1
  Pd  Pd160  1  0.00243709  0.19126670  0.39911912  1
  Pd  Pd161  1  0.59604374  0.80604224  0.20615836  1
  Pd  Pd162  1  0.79976022  0.19273991  0.80406148  1
  Pd  Pd163  1  -0.00224802  0.00114339  0.19458931  1
  Pd  Pd164  1  0.60150523  0.59908309  0.19990230  1
  Pd  Pd165  1  0.40860149  0.79927714  0.79698123  1
  Pd  Pd166  1  0.59157551  0.80872080  0.79588381  1
  Pd  Pd167  1  0.19416035  0.61558727  0.60177377  1
  Pd  Pd168  1  0.01299501  0.39592576  -0.00038985  1
  Pd  Pd169  1  0.18852120  0.18402121  0.40731531  1
  Pd  Pd170  1  0.80520762  0.59520127  0.59842386  1
  Pd  Pd171  1  0.40608813  0.60246346  0.59633991  1
  Pd  Pd172  1  0.59292937  0.40056299  0.60421938  1
  Pd  Pd173  1  0.00415386  0.60190159  0.18645275  1
  Pd  Pd174  1  0.00579244  0.60027188  0.41269363  1
  Pd  Pd175  1  0.21054242  0.19993371  0.81127809  1
  Pd  Pd176  1  0.59896286  -0.00329174  0.20579818  1
  Pd  Pd177  1  0.80736825  0.20516532  0.19683353  1
  Pd  Pd178  1  0.21125575  0.60690555  0.00051362  1
  Pd  Pd179  1  0.19772177  0.18936019  0.20664463  1
  Pd  Pd180  1  0.40051600  0.00032896  0.20052835  1
  Pd  Pd181  1  0.79837782  0.80329093  0.80589292  1
  Pd  Pd182  1  0.80592082  0.80226200  0.20453108  1
  Pd  Pd183  1  0.59333141  0.59313797  0.81115293  1
  Pd  Pd184  1  0.60180207  0.80193425  -0.00594200  1
  Pd  Pd185  1  0.59695869  0.60152808  -0.00585908  1
  Pd  Pd186  1  0.20232645  0.20608032  -0.01046478  1
  Pd  Pd187  1  -0.00554095  0.20494993  0.59278498  1
  Pd  Pd188  1  0.39742031  0.59992547  0.80311991  1
  Pd  Pd189  1  0.79119166  0.59804296  0.39723256  1
  Pd  Pd190  1  0.79146914  0.59414890  0.19849229  1
  Pd  Pd191  1  0.20423656  0.19445474  0.59302040  1
  Pd  Pd192  1  0.60593369  0.39811766  0.39721662  1
  Pd  Pd193  1  0.00223668  -0.01149325  0.00038982  1
  Pd  Pd194  1  0.40286896  0.39334392  0.40140461  1
  Pd  Pd195  1  0.60731456  -0.00232032  0.60394907  1
  Pd  Pd196  1  0.00076576  0.20382827  0.00055038  1
  Pd  Pd197  1  0.80466695  0.59772537  0.80863570  1
  Pd  Pd198  1  0.01092286  0.40412111  0.79842569  1
  Pd  Pd199  1  0.78780269  0.39631522  0.80052150  1
  Rh  Rh200  1  0.59836695  0.40114514  0.19813079  1
  Rh  Rh201  1  0.40394582  0.39524350  0.01181204  1
  Rh  Rh202  1  0.40514944  0.59658446  0.00181724  1
  Rh  Rh203  1  0.60237318  -0.00292610  0.40061042  1
  Rh  Rh204  1  0.39319029  0.60352418  0.40322818  1
  Rh  Rh205  1  0.59098846  0.19320647  0.19869106  1
  Rh  Rh206  1  0.20913856  0.80211050  0.40915669  1
  Rh  Rh207  1  0.39330100  0.58588070  0.19428125  1
  Rh  Rh208  1  -0.01007673  -0.00885053  0.59948029  1
  Rh  Rh209  1  0.00296502  0.00327924  0.40284074  1
  Rh  Rh210  1  0.20335809  0.39671558  0.60634279  1
  Rh  Rh211  1  0.20646626  -0.00360860  0.59815833  1
  Rh  Rh212  1  -0.00330167  0.19512921  0.79932319  1
  Rh  Rh213  1  0.19015262  0.79924025  0.59732448  1
  Rh  Rh214  1  0.19266435  0.79146152  0.18366571  1
  Rh  Rh215  1  0.39456639  0.00537029  0.59324784  1
  Rh  Rh216  1  0.80013171  0.00458746  0.00226937  1
  Rh  Rh217  1  0.79417136  -0.00011118  0.39782747  1
  Rh  Rh218  1  0.40607986  0.20453765  0.40072005  1
  Rh  Rh219  1  0.39777002  0.80893826  -0.00052347  1
  Rh  Rh220  1  0.21071191  0.80373958  0.80247077  1
  Rh  Rh221  1  -0.01457043  0.79312490  0.79924349  1
  Rh  Rh222  1  0.60187236  0.60215563  0.40176750  1
  Rh  Rh223  1  0.41133787  0.79431179  0.60212981  1
  Rh  Rh224  1  0.39373361  0.20442686  0.00368359  1
  Rh  Rh225  1  0.80800237  0.39954661  0.59892662  1
  Rh  Rh226  1  0.80210969  -0.00007285  0.20129212  1
  Rh  Rh227  1  0.39904947  -0.00556550  0.00396303  1
  Rh  Rh228  1  0.59805087  0.80393292  0.40135779  1
  Rh  Rh229  1  0.20393385  0.00593750  0.20993643  1
  Rh  Rh230  1  0.40890250  0.80979222  0.20310770  1
  Rh  Rh231  1  0.19941259  0.41218743  0.39651340  1
  Rh  Rh232  1  0.39255082  -0.01227877  0.40717103  1
  Rh  Rh233  1  0.00535111  0.40724405  0.40728212  1
  Rh  Rh234  1  0.40196403  0.00614989  0.80271822  1
  Rh  Rh235  1  0.79531867  0.60037078  -0.00070453  1
  Rh  Rh236  1  0.59738584  0.19531429  0.59253850  1
  Rh  Rh237  1  0.60196302  0.40246320  -0.00245276  1
  Rh  Rh238  1  0.00551300  0.00628550  0.79755747  1
  Rh  Rh239  1  -0.01220118  0.79837519  0.39871494  1
  Rh  Rh240  1  0.39768237  0.80411596  0.39788090  1
  Rh  Rh241  1  0.79520923  -0.00178210  0.59956865  1
  Rh  Rh242  1  0.59767328  0.00033738  -0.00041143  1
  Rh  Rh243  1  0.78976592  0.39355219  0.00678350  1
  Rh  Rh244  1  0.80527161  0.19962615  0.59537694  1
  Rh  Rh245  1  0.79764675  0.80531757  -0.00483236  1
  Rh  Rh246  1  0.79761314  0.19814879  0.39959100  1
  Rh  Rh247  1  0.60581719  0.19410365  0.40220255  1
  Rh  Rh248  1  0.19537408  0.39263900  -0.01208660  1
  Rh  Rh249  1  0.60844598  0.19313258  0.00901701  1
