# generated using pymatgen
data_ZrScNbPdRh
_symmetry_space_group_name_H-M   'P 1'
_cell_length_a   16.55585812
_cell_length_b   16.56400629
_cell_length_c   16.56201270
_cell_angle_alpha   90.02559372
_cell_angle_beta   89.97389650
_cell_angle_gamma   89.96907907
_symmetry_Int_Tables_number   1
_chemical_formula_structural   ZrScNbPdRh
_chemical_formula_sum   'Zr50 Sc50 Nb50 Pd50 Rh50'
_cell_volume   4541.82131552
_cell_formula_units_Z   50
loop_
 _symmetry_equiv_pos_site_id
 _symmetry_equiv_pos_as_xyz
  1  'x, y, z'
loop_
 _atom_site_type_symbol
 _atom_site_label
 _atom_site_symmetry_multiplicity
 _atom_site_fract_x
 _atom_site_fract_y
 _atom_site_fract_z
 _atom_site_occupancy
  Zr  Zr0  1  0.89614648  0.50255181  0.10333238  1
  Zr  Zr1  1  0.50297211  0.90232776  0.49380533  1
  Zr  Zr2  1  0.50827965  0.91356555  0.70296982  1
  Zr  Zr3  1  0.29412461  0.49586689  0.49839876  1
  Zr  Zr4  1  0.70270859  0.09384255  0.50022906  1
  Zr  Zr5  1  0.09799828  0.29460244  0.69679311  1
  Zr  Zr6  1  0.70506889  0.50324685  0.50393179  1
  Zr  Zr7  1  0.11666199  0.90500237  0.89510091  1
  Zr  Zr8  1  0.09773941  0.69888665  0.50318784  1
  Zr  Zr9  1  0.50098279  0.11253534  0.50464185  1
  Zr  Zr10  1  0.09701759  0.49462775  0.69630144  1
  Zr  Zr11  1  0.30808023  0.69921988  0.29725479  1
  Zr  Zr12  1  0.30947858  0.09917138  0.11223599  1
  Zr  Zr13  1  0.30136097  0.70092055  0.69824136  1
  Zr  Zr14  1  0.70164626  0.70099892  0.49618581  1
  Zr  Zr15  1  0.49742695  0.69757251  0.70109205  1
  Zr  Zr16  1  0.69936462  0.10025437  0.10058095  1
  Zr  Zr17  1  0.90329315  0.29660419  0.30084402  1
  Zr  Zr18  1  0.10282301  0.29060791  0.90290712  1
  Zr  Zr19  1  0.70180573  0.09866834  0.90524261  1
  Zr  Zr20  1  0.50051725  0.28306777  0.69282881  1
  Zr  Zr21  1  0.51168186  0.69810808  0.10611649  1
  Zr  Zr22  1  0.70049274  0.89826387  0.50487867  1
  Zr  Zr23  1  0.49317506  0.90053132  0.90177417  1
  Zr  Zr24  1  0.30318792  0.50348176  0.69798862  1
  Zr  Zr25  1  0.30472231  0.71852819  0.89827284  1
  Zr  Zr26  1  0.49611431  0.50259139  0.29569688  1
  Zr  Zr27  1  0.09984419  0.10055240  0.70170670  1
  Zr  Zr28  1  0.30553572  0.70106031  0.10281721  1
  Zr  Zr29  1  0.50773636  0.09685958  0.88409462  1
  Zr  Zr30  1  0.89528185  0.29723114  0.50954664  1
  Zr  Zr31  1  0.09684753  0.10082685  0.49986474  1
  Zr  Zr32  1  0.90129042  0.49593272  0.70105013  1
  Zr  Zr33  1  0.29752801  0.91131741  0.29030461  1
  Zr  Zr34  1  0.29153700  0.30438319  0.70429938  1
  Zr  Zr35  1  0.49635315  0.10043437  0.29578580  1
  Zr  Zr36  1  0.49963076  0.70246297  0.50004096  1
  Zr  Zr37  1  0.29898436  0.29836662  0.91066538  1
  Zr  Zr38  1  0.09648872  0.50043122  0.49976649  1
  Zr  Zr39  1  0.09730447  0.70486112  0.68623145  1
  Zr  Zr40  1  0.30098175  0.29416370  0.50125514  1
  Zr  Zr41  1  0.29356354  0.69758446  0.50610561  1
  Zr  Zr42  1  0.69986329  0.89862546  0.31346553  1
  Zr  Zr43  1  0.49949614  0.70229966  0.29846450  1
  Zr  Zr44  1  0.30330616  0.90109075  0.08641611  1
  Zr  Zr45  1  0.69440150  0.49991048  0.09692195  1
  Zr  Zr46  1  0.09900504  0.48797355  0.30254307  1
  Zr  Zr47  1  0.10370501  0.30178096  0.49826535  1
  Zr  Zr48  1  0.69348634  0.89853259  0.09509114  1
  Zr  Zr49  1  0.90089750  0.90240970  0.09765947  1
  Sc  Sc50  1  0.09993833  0.70103839  0.29746122  1
  Sc  Sc51  1  0.10464149  0.90359882  0.10626237  1
  Sc  Sc52  1  0.09345473  0.09998190  0.09979196  1
  Sc  Sc53  1  0.30158911  0.11278588  0.70379446  1
  Sc  Sc54  1  0.29857506  0.48755346  0.09636776  1
  Sc  Sc55  1  0.49949874  0.89883307  0.29959553  1
  Sc  Sc56  1  0.08807564  0.50311949  0.89831173  1
  Sc  Sc57  1  0.09865204  0.91270070  0.29420584  1
  Sc  Sc58  1  0.70538032  0.50564198  0.30280742  1
  Sc  Sc59  1  0.49356490  0.30107887  0.90655515  1
  Sc  Sc60  1  0.89280310  0.29611935  0.88781538  1
  Sc  Sc61  1  0.69762910  0.70267278  0.90036836  1
  Sc  Sc62  1  0.49869152  0.51299615  0.70307913  1
  Sc  Sc63  1  0.70006491  0.69774205  0.30427077  1
  Sc  Sc64  1  0.29746521  0.09615991  0.30597237  1
  Sc  Sc65  1  0.89730254  0.49921736  0.30954406  1
  Sc  Sc66  1  0.89739849  0.49209293  0.89872853  1
  Sc  Sc67  1  0.70358116  0.30333557  0.89981457  1
  Sc  Sc68  1  0.89157888  0.90577226  0.50368175  1
  Sc  Sc69  1  0.09830629  0.71069266  0.09408778  1
  Sc  Sc70  1  0.90190648  0.90342753  0.30384441  1
  Sc  Sc71  1  0.50861514  0.49602464  0.09646482  1
  Sc  Sc72  1  0.89795337  0.29067357  0.10431604  1
  Sc  Sc73  1  0.10343430  0.49135953  0.10291875  1
  Sc  Sc74  1  0.89822412  0.69354078  0.50686564  1
  Sc  Sc75  1  0.89616881  0.10349392  0.89450568  1
  Sc  Sc76  1  0.68807312  0.29709686  0.09722664  1
  Sc  Sc77  1  0.50528669  0.10022463  0.09912856  1
  Sc  Sc78  1  0.50361323  0.69449362  0.89156420  1
  Sc  Sc79  1  0.29955572  0.29711835  0.31038973  1
  Sc  Sc80  1  0.31187714  0.48940906  0.89347842  1
  Sc  Sc81  1  0.50210284  0.28819354  0.30310506  1
  Sc  Sc82  1  0.89622553  0.10229227  0.10110774  1
  Sc  Sc83  1  0.70627065  0.30008471  0.69469075  1
  Sc  Sc84  1  0.09969946  0.10300020  0.89280216  1
  Sc  Sc85  1  0.30030336  0.49762402  0.30231159  1
  Sc  Sc86  1  0.90764992  0.70574582  0.90452062  1
  Sc  Sc87  1  0.69637051  0.29030975  0.29613953  1
  Sc  Sc88  1  0.29529618  0.10385163  0.49125427  1
  Sc  Sc89  1  0.69622790  0.50557418  0.69776940  1
  Sc  Sc90  1  0.90184281  0.10487236  0.69599833  1
  Sc  Sc91  1  0.70396409  0.70022721  0.69275585  1
  Sc  Sc92  1  0.50147944  0.50619871  0.50545475  1
  Sc  Sc93  1  0.09397697  0.89757192  0.50936051  1
  Sc  Sc94  1  0.69623062  0.49727219  0.90158470  1
  Sc  Sc95  1  0.90563797  0.70497021  0.09948180  1
  Sc  Sc96  1  0.71338282  0.90368369  0.90329823  1
  Sc  Sc97  1  0.90142717  0.49673393  0.49952138  1
  Sc  Sc98  1  0.29697043  0.09303716  0.90334468  1
  Sc  Sc99  1  0.29846841  0.91055704  0.48712998  1
  Nb  Nb100  1  0.89845459  0.90237168  0.89578774  1
  Nb  Nb101  1  0.50557583  0.50271244  0.89905360  1
  Nb  Nb102  1  0.10268299  0.69946997  0.89975408  1
  Nb  Nb103  1  0.70330823  0.69794657  0.10323482  1
  Nb  Nb104  1  0.70612475  0.89978444  0.70148293  1
  Nb  Nb105  1  0.30241863  0.90030336  0.89587119  1
  Nb  Nb106  1  0.50727538  0.90172612  0.10060139  1
  Nb  Nb107  1  0.09650702  0.10170825  0.30019937  1
  Nb  Nb108  1  0.89988975  0.10045918  0.49502592  1
  Nb  Nb109  1  0.29593678  0.89665725  0.70838285  1
  Nb  Nb110  1  0.69454427  0.29780393  0.49879170  1
  Nb  Nb111  1  0.90062589  0.70276230  0.70200152  1
  Nb  Nb112  1  0.90220647  0.09856683  0.29975413  1
  Nb  Nb113  1  0.09946270  0.30038248  0.29533682  1
  Nb  Nb114  1  0.48909220  0.29729082  0.10247741  1
  Nb  Nb115  1  0.70170958  0.10227345  0.29850661  1
  Nb  Nb116  1  0.29960908  0.29822476  0.09874810  1
  Nb  Nb117  1  0.89627907  0.89299518  0.70888655  1
  Nb  Nb118  1  0.10825466  0.30443513  0.10185901  1
  Nb  Nb119  1  0.89225694  0.69898178  0.29888080  1
  Nb  Nb120  1  0.10051150  0.90167938  0.69685418  1
  Nb  Nb121  1  0.67758169  0.08810948  0.70199762  1
  Nb  Nb122  1  0.50353866  0.09978661  0.69725765  1
  Nb  Nb123  1  0.90141302  0.30161369  0.70032364  1
  Nb  Nb124  1  0.50337675  0.29710171  0.50055904  1
  Nb  Nb125  1  0.59378653  0.40072965  0.79833952  1
  Nb  Nb126  1  0.79615477  0.00053694  0.20538349  1
  Nb  Nb127  1  0.80270714  0.19294389  0.40188168  1
  Nb  Nb128  1  0.19812161  0.60523553  0.80335907  1
  Nb  Nb129  1  0.19498824  0.20685877  0.20084660  1
  Nb  Nb130  1  0.20442636  0.60401863  -0.00541353  1
  Nb  Nb131  1  0.40349804  0.39337915  0.59814954  1
  Nb  Nb132  1  0.19634906  0.80148293  0.39735925  1
  Nb  Nb133  1  0.00266119  0.80706553  0.79709611  1
  Nb  Nb134  1  0.79695498  0.39868829  0.19906867  1
  Nb  Nb135  1  0.39723878  0.81241911  0.60300323  1
  Nb  Nb136  1  0.60675521  0.80777270  0.79441105  1
  Nb  Nb137  1  0.40090805  0.59879030  -0.00066583  1
  Nb  Nb138  1  0.60046613  0.39520363  0.40721956  1
  Nb  Nb139  1  0.79612791  0.80254496  0.19957636  1
  Nb  Nb140  1  0.20364332  -0.00276037  0.60787391  1
  Nb  Nb141  1  0.80530005  0.60416439  0.80217482  1
  Nb  Nb142  1  0.19860225  0.59869566  0.19476971  1
  Nb  Nb143  1  -0.00418331  -0.00458828  -0.00845406  1
  Nb  Nb144  1  -0.00089212  0.79634478  0.40105992  1
  Nb  Nb145  1  0.00203412  0.59884150  0.20245315  1
  Nb  Nb146  1  0.00137188  0.38947457  0.00505101  1
  Nb  Nb147  1  0.39836873  0.00253484  0.60435741  1
  Nb  Nb148  1  0.79836400  0.60209642  0.00182636  1
  Nb  Nb149  1  0.40120945  0.39056075  0.19702322  1
  Pd  Pd150  1  -0.00472520  -0.00240286  0.60297629  1
  Pd  Pd151  1  0.59875546  0.59384465  0.39929383  1
  Pd  Pd152  1  -0.00584423  0.79743121  0.20968215  1
  Pd  Pd153  1  0.19135009  0.79369667  0.79528249  1
  Pd  Pd154  1  0.20105156  0.79723020  0.20428689  1
  Pd  Pd155  1  0.01006364  0.81251207  -0.00999023  1
  Pd  Pd156  1  0.80562381  0.39736827  0.00645701  1
  Pd  Pd157  1  0.39966348  0.59869713  0.40607627  1
  Pd  Pd158  1  0.41224646  0.39513543  0.78928018  1
  Pd  Pd159  1  0.00255207  0.39013619  0.80785094  1
  Pd  Pd160  1  0.19429930  0.00697083  0.00642195  1
  Pd  Pd161  1  0.41465665  0.79219344  0.00555314  1
  Pd  Pd162  1  -0.00480649  0.60576219  0.39420156  1
  Pd  Pd163  1  0.80069036  0.79324899  0.00212677  1
  Pd  Pd164  1  0.00586507  0.19727342  0.19703619  1
  Pd  Pd165  1  0.40816095  0.00770866  0.00076222  1
  Pd  Pd166  1  0.59844532  0.39357470  0.20982432  1
  Pd  Pd167  1  0.79132154  0.38994816  0.39334864  1
  Pd  Pd168  1  0.19892853  0.60459096  0.38999847  1
  Pd  Pd169  1  0.60351034  -0.00125705  0.20418590  1
  Pd  Pd170  1  0.39552923  0.20096767  0.80755497  1
  Pd  Pd171  1  -0.00924124  0.40223843  0.19584701  1
  Pd  Pd172  1  0.40449951  0.18881668  -0.00542299  1
  Pd  Pd173  1  0.19332550  0.41023266  -0.01137615  1
  Pd  Pd174  1  0.80412782  0.79833010  0.59768221  1
  Pd  Pd175  1  0.59538812  0.00746681  0.39959615  1
  Pd  Pd176  1  0.00203064  0.59315341  0.00812104  1
  Pd  Pd177  1  0.59639575  0.79981029  0.60597742  1
  Pd  Pd178  1  0.60639526  0.59892677  0.20681839  1
  Pd  Pd179  1  0.39121669  0.00498256  0.79455933  1
  Pd  Pd180  1  0.59692805  0.79706712  -0.00973992  1
  Pd  Pd181  1  0.79853373  0.40318043  0.60375426  1
  Pd  Pd182  1  0.80192089  0.20435486  -0.00035311  1
  Pd  Pd183  1  0.20172484  0.18752622  0.00929267  1
  Pd  Pd184  1  0.41065121  0.39689360  0.40066699  1
  Pd  Pd185  1  0.00090341  -0.00803829  0.40387335  1
  Pd  Pd186  1  0.40433137  0.81038047  0.19405916  1
  Pd  Pd187  1  0.79314379  0.19081418  0.60311060  1
  Pd  Pd188  1  0.60920208  0.21042606  0.80150349  1
  Pd  Pd189  1  -0.00093292  0.60931861  0.79653660  1
  Pd  Pd190  1  0.59254251  0.40173130  0.60291832  1
  Pd  Pd191  1  -0.00149382  0.20447920  0.40419642  1
  Pd  Pd192  1  0.79814301  0.00995884  0.79277903  1
  Pd  Pd193  1  -0.00251820  -0.00207810  0.80212789  1
  Pd  Pd194  1  0.19226827  0.40733283  0.80959320  1
  Pd  Pd195  1  0.39087357  0.80297420  0.40300797  1
  Pd  Pd196  1  0.79060979  0.19304503  0.78885033  1
  Pd  Pd197  1  -0.00509500  0.19872524  -0.00096891  1
  Pd  Pd198  1  0.59413369  0.20247252  -0.00319552  1
  Pd  Pd199  1  0.80251539  0.00579583  0.61132912  1
  Rh  Rh200  1  0.80084398  0.79196056  0.80066879  1
  Rh  Rh201  1  0.40755348  0.40637734  0.00831555  1
  Rh  Rh202  1  0.39918135  0.59815828  0.59337780  1
  Rh  Rh203  1  0.59759753  -0.00080292  0.59061466  1
  Rh  Rh204  1  0.80353751  0.60210616  0.40635618  1
  Rh  Rh205  1  0.21222099  0.39525521  0.20872281  1
  Rh  Rh206  1  -0.00107976  0.20185127  0.59929547  1
  Rh  Rh207  1  0.39191812  0.19912835  0.59911253  1
  Rh  Rh208  1  -0.00476999  0.59432431  0.60218046  1
  Rh  Rh209  1  0.59676998  -0.00076393  -0.00507614  1
  Rh  Rh210  1  0.39241651  0.58160412  0.18754782  1
  Rh  Rh211  1  0.41170936  0.80618172  0.79187921  1
  Rh  Rh212  1  0.60654675  0.80151930  0.20522734  1
  Rh  Rh213  1  -0.00109344  0.39226225  0.40540231  1
  Rh  Rh214  1  0.59673736  0.19838678  0.19458481  1
  Rh  Rh215  1  0.61134620  0.19811112  0.60036337  1
  Rh  Rh216  1  0.19764266  0.39597209  0.39915514  1
  Rh  Rh217  1  0.60156833  0.60517846  -0.00165014  1
  Rh  Rh218  1  0.80858137  0.00442983  0.00534390  1
  Rh  Rh219  1  0.60179162  0.60673501  0.59736512  1
  Rh  Rh220  1  0.59296559  0.39257678  -0.00820600  1
  Rh  Rh221  1  0.80608625  0.59723165  0.60670380  1
  Rh  Rh222  1  0.40722764  0.00819201  0.40400285  1
  Rh  Rh223  1  0.39104613  0.20691484  0.20671184  1
  Rh  Rh224  1  -0.00402076  0.20356648  0.79484073  1
  Rh  Rh225  1  0.19682640  0.01497117  0.19725257  1
  Rh  Rh226  1  0.60768264  0.19899467  0.40140663  1
  Rh  Rh227  1  0.40861943  -0.00694546  0.19598946  1
  Rh  Rh228  1  0.80441335  0.60279835  0.19555910  1
  Rh  Rh229  1  0.61236607  0.60104497  0.80057832  1
  Rh  Rh230  1  0.79782673  0.19881082  0.20597762  1
  Rh  Rh231  1  0.19979726  0.19100400  0.59788460  1
  Rh  Rh232  1  0.20429189  0.19954481  0.80652436  1
  Rh  Rh233  1  0.19874986  0.80177441  0.00116365  1
  Rh  Rh234  1  0.38960608  0.60307576  0.81196995  1
  Rh  Rh235  1  0.80351852  0.00755595  0.39432230  1
  Rh  Rh236  1  0.18679259  -0.00414048  0.40526025  1
  Rh  Rh237  1  0.61217756  -0.01094486  0.81311933  1
  Rh  Rh238  1  0.20668134  0.00589669  0.79289468  1
  Rh  Rh239  1  -0.01304628  0.80634218  0.60063981  1
  Rh  Rh240  1  0.20362977  0.40087279  0.59798127  1
  Rh  Rh241  1  0.40156627  0.19560198  0.39882173  1
  Rh  Rh242  1  0.79035161  0.40812310  0.79194370  1
  Rh  Rh243  1  -0.00231526  0.39555227  0.59762211  1
  Rh  Rh244  1  -0.00811412  0.00619701  0.19298928  1
  Rh  Rh245  1  0.19036909  0.19927883  0.39112218  1
  Rh  Rh246  1  0.59907275  0.79507298  0.39680607  1
  Rh  Rh247  1  0.21229361  0.81592883  0.58879213  1
  Rh  Rh248  1  0.80877977  0.79727981  0.39828900  1
  Rh  Rh249  1  0.19591092  0.59018829  0.60747061  1
