# generated using pymatgen
data_ZrScNbPdRh
_symmetry_space_group_name_H-M   'P 1'
_cell_length_a   16.56145465
_cell_length_b   16.56041996
_cell_length_c   16.56473888
_cell_angle_alpha   90.05000474
_cell_angle_beta   90.01092745
_cell_angle_gamma   89.99156260
_symmetry_Int_Tables_number   1
_chemical_formula_structural   ZrScNbPdRh
_chemical_formula_sum   'Zr50 Sc50 Nb50 Pd50 Rh50'
_cell_volume   4543.12034880
_cell_formula_units_Z   50
loop_
 _symmetry_equiv_pos_site_id
 _symmetry_equiv_pos_as_xyz
  1  'x, y, z'
loop_
 _atom_site_type_symbol
 _atom_site_label
 _atom_site_symmetry_multiplicity
 _atom_site_fract_x
 _atom_site_fract_y
 _atom_site_fract_z
 _atom_site_occupancy
  Zr  Zr0  1  0.69081190  0.89782937  0.90186299  1
  Zr  Zr1  1  0.70466412  0.50030541  0.30209743  1
  Zr  Zr2  1  0.30133014  0.50298547  0.30008635  1
  Zr  Zr3  1  0.89653257  0.90402851  0.50356382  1
  Zr  Zr4  1  0.70819556  0.30420273  0.50572165  1
  Zr  Zr5  1  0.30099852  0.70467466  0.30072906  1
  Zr  Zr6  1  0.89541361  0.30155891  0.89670338  1
  Zr  Zr7  1  0.30091630  0.10167593  0.30777297  1
  Zr  Zr8  1  0.49599199  0.09832881  0.49888941  1
  Zr  Zr9  1  0.09129554  0.30305514  0.90091947  1
  Zr  Zr10  1  0.30416847  0.69464480  0.90897941  1
  Zr  Zr11  1  0.90040427  0.29003641  0.70124507  1
  Zr  Zr12  1  0.70257822  0.69566409  0.69925179  1
  Zr  Zr13  1  0.09626208  0.70954576  0.30055793  1
  Zr  Zr14  1  0.70200652  0.10151933  0.90378409  1
  Zr  Zr15  1  0.09916209  0.69953949  0.10916811  1
  Zr  Zr16  1  0.10356089  0.49865876  0.89786452  1
  Zr  Zr17  1  0.89637063  0.09681679  0.09093143  1
  Zr  Zr18  1  0.69257817  0.10100901  0.30201907  1
  Zr  Zr19  1  0.29791678  0.49650358  0.89353126  1
  Zr  Zr20  1  0.09681449  0.50261774  0.10844502  1
  Zr  Zr21  1  0.30055902  0.89146189  0.09820949  1
  Zr  Zr22  1  0.90159857  0.90597770  0.10242266  1
  Zr  Zr23  1  0.69652816  0.10240896  0.09804077  1
  Zr  Zr24  1  0.49495272  0.89967579  0.30215755  1
  Zr  Zr25  1  0.69835717  0.70239693  0.50963496  1
  Zr  Zr26  1  0.29454131  0.30948779  0.89846804  1
  Zr  Zr27  1  0.50200043  0.49342310  0.10493151  1
  Zr  Zr28  1  0.50792098  0.71039561  0.89299735  1
  Zr  Zr29  1  0.10441947  0.29862815  0.30673564  1
  Zr  Zr30  1  0.70294435  0.50432717  0.50365450  1
  Zr  Zr31  1  0.90527375  0.08843884  0.70456663  1
  Zr  Zr32  1  0.50358085  0.30189166  0.09600111  1
  Zr  Zr33  1  0.50135335  0.10497103  0.09756418  1
  Zr  Zr34  1  0.90063858  0.29532775  0.50306877  1
  Zr  Zr35  1  0.10561517  0.69807527  0.90406538  1
  Zr  Zr36  1  0.50037985  0.09763076  0.30273174  1
  Zr  Zr37  1  0.49078814  0.69988399  0.50123154  1
  Zr  Zr38  1  0.89597990  0.10050541  0.30308946  1
  Zr  Zr39  1  0.70303974  0.30118034  0.70425212  1
  Zr  Zr40  1  0.70018520  0.29420010  0.30785445  1
  Zr  Zr41  1  0.29241254  0.70508094  0.10199885  1
  Zr  Zr42  1  0.29313808  0.10242653  0.10676267  1
  Zr  Zr43  1  0.10597128  0.10034400  0.29748612  1
  Zr  Zr44  1  0.10591060  0.49961745  0.50609852  1
  Zr  Zr45  1  0.10701416  0.50070122  0.69908464  1
  Zr  Zr46  1  0.69790748  0.09008787  0.49322514  1
  Zr  Zr47  1  0.89434717  0.49904271  0.49461968  1
  Zr  Zr48  1  0.90906144  0.10488269  0.90086831  1
  Zr  Zr49  1  0.10119879  0.09716781  0.49475766  1
  Sc  Sc50  1  0.49779573  0.30321779  0.29557900  1
  Sc  Sc51  1  0.90005266  0.50269679  0.29936781  1
  Sc  Sc52  1  0.49988030  0.89753370  0.09674416  1
  Sc  Sc53  1  0.50933664  0.10355767  0.89781709  1
  Sc  Sc54  1  0.90573213  0.68641155  0.89339148  1
  Sc  Sc55  1  0.30152257  0.30846924  0.09690088  1
  Sc  Sc56  1  0.30984007  0.69565946  0.69320602  1
  Sc  Sc57  1  0.28996434  0.88621449  0.89550299  1
  Sc  Sc58  1  0.49012481  0.30153952  0.51278678  1
  Sc  Sc59  1  0.30051231  0.90252236  0.29707106  1
  Sc  Sc60  1  0.89733943  0.49667161  0.90027828  1
  Sc  Sc61  1  0.90334358  0.30436987  0.08014310  1
  Sc  Sc62  1  0.50904609  0.89190953  0.50038292  1
  Sc  Sc63  1  0.90137223  0.09992772  0.50117537  1
  Sc  Sc64  1  0.10005044  0.30092917  0.69797417  1
  Sc  Sc65  1  0.30379204  0.10659038  0.49662027  1
  Sc  Sc66  1  0.09799865  0.89663158  0.48003927  1
  Sc  Sc67  1  0.10073992  0.30161179  0.49908348  1
  Sc  Sc68  1  0.50471852  0.10441914  0.70746030  1
  Sc  Sc69  1  0.09911853  0.09776611  0.70747500  1
  Sc  Sc70  1  0.09403816  0.69180992  0.70622086  1
  Sc  Sc71  1  0.30368217  0.49951797  0.09712812  1
  Sc  Sc72  1  0.49859082  0.50941037  0.90076229  1
  Sc  Sc73  1  0.90122888  0.30299334  0.31555902  1
  Sc  Sc74  1  0.69495913  0.49849405  0.09117195  1
  Sc  Sc75  1  0.09233160  0.09625338  0.10331874  1
  Sc  Sc76  1  0.49191743  0.69968534  0.30232651  1
  Sc  Sc77  1  0.89539526  0.69892105  0.50442533  1
  Sc  Sc78  1  0.30532403  0.49754081  0.69832377  1
  Sc  Sc79  1  0.49845639  0.29389137  0.89777596  1
  Sc  Sc80  1  0.69548052  0.91113206  0.30392448  1
  Sc  Sc81  1  0.29213832  0.10441286  0.70165414  1
  Sc  Sc82  1  0.70021744  0.89731962  0.68710025  1
  Sc  Sc83  1  0.29804123  0.10503203  0.88939982  1
  Sc  Sc84  1  0.70144816  0.90816845  0.09981434  1
  Sc  Sc85  1  0.70313232  0.69325214  0.10098515  1
  Sc  Sc86  1  0.69898501  0.09557538  0.70779581  1
  Sc  Sc87  1  0.30198324  0.89815859  0.48665498  1
  Sc  Sc88  1  0.90489992  0.89885499  0.29710368  1
  Sc  Sc89  1  0.49398914  0.70177756  0.09488352  1
  Sc  Sc90  1  0.90529292  0.50230008  0.09866956  1
  Sc  Sc91  1  0.69896019  0.50662781  0.69302133  1
  Sc  Sc92  1  0.30947997  0.30275955  0.69920745  1
  Sc  Sc93  1  0.49522675  0.50257808  0.29369912  1
  Sc  Sc94  1  0.90402904  0.90914292  0.89578125  1
  Sc  Sc95  1  0.90617041  0.51069798  0.70172506  1
  Sc  Sc96  1  0.09664138  0.30486608  0.09880227  1
  Sc  Sc97  1  0.10174047  0.89392339  0.88621910  1
  Sc  Sc98  1  0.49588937  0.50185160  0.51437296  1
  Sc  Sc99  1  0.70811293  0.69540775  0.29673082  1
  Nb  Nb100  1  0.90085201  0.70781144  0.10965901  1
  Nb  Nb101  1  0.50265375  0.70065152  0.69343294  1
  Nb  Nb102  1  0.49013151  0.88738548  0.70136235  1
  Nb  Nb103  1  0.29998763  0.50345938  0.50205832  1
  Nb  Nb104  1  0.70135923  0.89569204  0.49911567  1
  Nb  Nb105  1  0.29473143  0.29642558  0.30308212  1
  Nb  Nb106  1  0.10257491  0.10181196  0.90052866  1
  Nb  Nb107  1  0.89976245  0.70304198  0.29921675  1
  Nb  Nb108  1  0.09836810  0.89739067  0.10358542  1
  Nb  Nb109  1  0.70154617  0.30134078  0.09253001  1
  Nb  Nb110  1  0.10194239  0.89538027  0.70226506  1
  Nb  Nb111  1  0.50539066  0.30839754  0.70194166  1
  Nb  Nb112  1  0.29822092  0.30315786  0.49159658  1
  Nb  Nb113  1  0.29766981  0.69150859  0.49717047  1
  Nb  Nb114  1  0.70314171  0.50945406  0.89588962  1
  Nb  Nb115  1  0.70632796  0.30911199  0.90507128  1
  Nb  Nb116  1  0.10319148  0.70305096  0.49808459  1
  Nb  Nb117  1  0.49538156  0.89710107  0.89759613  1
  Nb  Nb118  1  0.10009518  0.50435885  0.30075587  1
  Nb  Nb119  1  0.70466892  0.69535775  0.89676269  1
  Nb  Nb120  1  0.09980518  0.89955848  0.29617290  1
  Nb  Nb121  1  0.50099660  0.49109924  0.69810849  1
  Nb  Nb122  1  0.89877094  0.70670298  0.70172868  1
  Nb  Nb123  1  0.90944720  0.89392974  0.70318335  1
  Nb  Nb124  1  0.29288730  0.90064667  0.70025234  1
  Nb  Nb125  1  0.20049682  -0.00995145  0.60032320  1
  Nb  Nb126  1  0.80127808  0.79634620  0.80235907  1
  Nb  Nb127  1  0.39630797  -0.00742590  0.60920026  1
  Nb  Nb128  1  0.80541217  0.79434330  -0.00513529  1
  Nb  Nb129  1  0.00504168  0.60544204  0.39966998  1
  Nb  Nb130  1  0.39602531  0.20157904  0.20140594  1
  Nb  Nb131  1  -0.00453109  0.79699091  0.00430786  1
  Nb  Nb132  1  0.19660005  0.80002209  0.59669767  1
  Nb  Nb133  1  0.39977894  -0.01024692  0.79906067  1
  Nb  Nb134  1  0.19545625  0.19689074  -0.00257286  1
  Nb  Nb135  1  0.79736279  0.80303163  0.40324974  1
  Nb  Nb136  1  0.60212878  0.20258615  0.60238323  1
  Nb  Nb137  1  0.19948158  0.00102347  -0.00323474  1
  Nb  Nb138  1  0.39483620  -0.00231105  -0.00918103  1
  Nb  Nb139  1  0.00506278  0.80203531  0.60220580  1
  Nb  Nb140  1  0.80106012  0.20643752  0.19402529  1
  Nb  Nb141  1  0.39469578  0.40055637  0.40369056  1
  Nb  Nb142  1  0.19703680  0.60092182  0.40212328  1
  Nb  Nb143  1  0.19798395  0.40240325  0.20918093  1
  Nb  Nb144  1  0.79784332  0.39010910  0.19491410  1
  Nb  Nb145  1  0.60429295  0.40412026  0.80233853  1
  Nb  Nb146  1  0.59605956  0.40518601  0.40603543  1
  Nb  Nb147  1  0.60030203  0.80034842  0.20194229  1
  Nb  Nb148  1  -0.00831927  0.20141259  0.20118137  1
  Nb  Nb149  1  0.59986273  0.59679363  0.40436454  1
  Pd  Pd150  1  0.80486986  0.58979067  0.19375382  1
  Pd  Pd151  1  0.79672341  0.00487320  0.20437149  1
  Pd  Pd152  1  0.59021105  0.00099212  0.60476256  1
  Pd  Pd153  1  -0.00240442  0.00004061  0.39382687  1
  Pd  Pd154  1  0.19868700  0.19685083  0.59574278  1
  Pd  Pd155  1  0.19514781  0.20987512  0.80206022  1
  Pd  Pd156  1  0.81043560  0.40714957  0.61131198  1
  Pd  Pd157  1  0.39150957  0.79553349  0.80090428  1
  Pd  Pd158  1  0.58922738  0.21277276  0.41379348  1
  Pd  Pd159  1  0.59092774  -0.00072387  -0.00029703  1
  Pd  Pd160  1  0.79857720  0.19426482  0.80335992  1
  Pd  Pd161  1  0.59431124  0.59520573  0.79393292  1
  Pd  Pd162  1  0.59868718  0.20561225  0.19819248  1
  Pd  Pd163  1  0.79759712  0.41182093  0.79322245  1
  Pd  Pd164  1  0.40269192  0.59879391  0.00474015  1
  Pd  Pd165  1  0.59655583  0.60827273  0.20572841  1
  Pd  Pd166  1  -0.00122466  0.60724099  0.59552076  1
  Pd  Pd167  1  0.40698706  0.40340861  -0.00836292  1
  Pd  Pd168  1  0.01198543  -0.00997685  -0.00781429  1
  Pd  Pd169  1  0.60846192  0.39757851  0.20719888  1
  Pd  Pd170  1  0.79939398  0.00226390  0.60430707  1
  Pd  Pd171  1  0.79475508  0.18437462  0.60099515  1
  Pd  Pd172  1  0.20735213  0.60434862  0.79296648  1
  Pd  Pd173  1  0.79067204  0.80698916  0.20218583  1
  Pd  Pd174  1  0.20079699  0.59231633  0.00669233  1
  Pd  Pd175  1  0.40327815  0.00356568  0.19198377  1
  Pd  Pd176  1  0.20535785  0.78208118  0.78963725  1
  Pd  Pd177  1  -0.00266918  0.60278916  0.00185535  1
  Pd  Pd178  1  0.40705293  0.60098540  0.79428143  1
  Pd  Pd179  1  0.40241703  0.19814874  0.79611716  1
  Pd  Pd180  1  -0.00532974  0.40012905  0.60262493  1
  Pd  Pd181  1  0.20848751  0.39253208  0.60374265  1
  Pd  Pd182  1  -0.00275312  0.40354758  0.79481517  1
  Pd  Pd183  1  0.59717184  0.40197733  -0.01261157  1
  Pd  Pd184  1  0.59704131  0.60640951  -0.00015195  1
  Pd  Pd185  1  -0.00497878  0.39101898  0.20445990  1
  Pd  Pd186  1  0.59346266  -0.01071339  0.79157347  1
  Pd  Pd187  1  0.01182489  -0.00812105  0.59891377  1
  Pd  Pd188  1  0.60843070  0.79408431  0.00974221  1
  Pd  Pd189  1  0.80628869  0.60185340  0.00467402  1
  Pd  Pd190  1  0.60868171  0.80333770  0.79026804  1
  Pd  Pd191  1  0.40336343  0.19352311  0.60985973  1
  Pd  Pd192  1  0.19824959  -0.00711616  0.19703865  1
  Pd  Pd193  1  0.79667074  -0.01042970  0.80104084  1
  Pd  Pd194  1  0.38938588  0.19448231  0.00104817  1
  Pd  Pd195  1  0.38954405  0.80453401  0.59099273  1
  Pd  Pd196  1  0.00698482  0.19497522  0.60201982  1
  Pd  Pd197  1  0.39882584  0.60476480  0.19165231  1
  Pd  Pd198  1  0.60784009  0.79041604  0.39144814  1
  Pd  Pd199  1  0.00243473  0.40717389  0.40264572  1
  Rh  Rh200  1  0.80838848  0.80407301  0.60221295  1
  Rh  Rh201  1  0.20257456  0.60547233  0.59910214  1
  Rh  Rh202  1  0.18564516  0.80652686  0.00105556  1
  Rh  Rh203  1  0.40712296  0.79884687  0.19983418  1
  Rh  Rh204  1  0.19474987  0.40027011  0.00972740  1
  Rh  Rh205  1  0.40464315  0.21038098  0.39155804  1
  Rh  Rh206  1  0.40288688  0.59615612  0.60663963  1
  Rh  Rh207  1  0.79685355  0.20067121  -0.00110792  1
  Rh  Rh208  1  0.60179569  0.39331258  0.60202786  1
  Rh  Rh209  1  0.00302560  0.19680185  0.39880699  1
  Rh  Rh210  1  0.00310827  0.59572516  0.80224954  1
  Rh  Rh211  1  -0.00645798  0.60348628  0.20919864  1
  Rh  Rh212  1  0.60669145  0.20655315  -0.00897057  1
  Rh  Rh213  1  0.00253149  0.00422821  0.20632717  1
  Rh  Rh214  1  0.40456811  -0.00540834  0.40873626  1
  Rh  Rh215  1  0.59181862  0.60450626  0.59948466  1
  Rh  Rh216  1  0.20280250  0.59538247  0.20397264  1
  Rh  Rh217  1  -0.01437431  0.79463533  0.40614679  1
  Rh  Rh218  1  0.19839097  0.19665814  0.40907855  1
  Rh  Rh219  1  0.00791436  0.00044006  0.80277437  1
  Rh  Rh220  1  0.60633904  0.21303467  0.80049897  1
  Rh  Rh221  1  0.00200993  0.40948797  -0.00524954  1
  Rh  Rh222  1  0.79885544  0.40980778  0.00267024  1
  Rh  Rh223  1  0.38935269  0.39114188  0.20859430  1
  Rh  Rh224  1  0.59393663  -0.00725214  0.19789524  1
  Rh  Rh225  1  0.80178161  0.19403530  0.40314346  1
  Rh  Rh226  1  0.20059853  0.39763506  0.79115312  1
  Rh  Rh227  1  0.20152963  -0.00058615  0.40109826  1
  Rh  Rh228  1  0.80212795  0.60234159  0.79659875  1
  Rh  Rh229  1  0.79593303  0.39923820  0.39562151  1
  Rh  Rh230  1  0.20232772  0.00180300  0.80046045  1
  Rh  Rh231  1  0.20530299  0.40847459  0.39846154  1
  Rh  Rh232  1  0.19969791  0.80597317  0.20606333  1
  Rh  Rh233  1  0.59412497  -0.00598256  0.40401640  1
  Rh  Rh234  1  0.19750527  0.21465915  0.18974304  1
  Rh  Rh235  1  0.79787193  -0.00545101  -0.00850837  1
  Rh  Rh236  1  0.00709875  0.19895568  0.00580129  1
  Rh  Rh237  1  0.00229893  0.19956191  0.79754393  1
  Rh  Rh238  1  0.39686297  0.80031927  0.40132925  1
  Rh  Rh239  1  0.80149942  -0.00528435  0.39942248  1
  Rh  Rh240  1  0.39990557  0.80285891  -0.00584652  1
  Rh  Rh241  1  0.40046350  0.59196261  0.40564101  1
  Rh  Rh242  1  0.40915726  0.40206881  0.80358617  1
  Rh  Rh243  1  -0.00039920  0.80607481  0.19757736  1
  Rh  Rh244  1  0.80806921  0.59858669  0.60395041  1
  Rh  Rh245  1  0.59771292  0.79848087  0.60374003  1
  Rh  Rh246  1  -0.00505889  0.79508345  0.80337306  1
  Rh  Rh247  1  0.80320235  0.61204992  0.40073667  1
  Rh  Rh248  1  0.39275784  0.40096557  0.59610898  1
  Rh  Rh249  1  0.20533969  0.79730122  0.39720497  1
