# generated using pymatgen
data_ZrScNbPdRh
_symmetry_space_group_name_H-M   'P 1'
_cell_length_a   16.55581687
_cell_length_b   16.54860875
_cell_length_c   16.55435186
_cell_angle_alpha   90.00440725
_cell_angle_beta   89.96937475
_cell_angle_gamma   90.00788398
_symmetry_Int_Tables_number   1
_chemical_formula_structural   ZrScNbPdRh
_chemical_formula_sum   'Zr50 Sc50 Nb50 Pd50 Rh50'
_cell_volume   4535.49003122
_cell_formula_units_Z   50
loop_
 _symmetry_equiv_pos_site_id
 _symmetry_equiv_pos_as_xyz
  1  'x, y, z'
loop_
 _atom_site_type_symbol
 _atom_site_label
 _atom_site_symmetry_multiplicity
 _atom_site_fract_x
 _atom_site_fract_y
 _atom_site_fract_z
 _atom_site_occupancy
  Zr  Zr0  1  0.29593594  0.68773570  0.90421449  1
  Zr  Zr1  1  0.48846782  0.70370328  0.50991176  1
  Zr  Zr2  1  0.70120872  0.90351955  0.10270128  1
  Zr  Zr3  1  0.29325352  0.30351072  0.30172157  1
  Zr  Zr4  1  0.29496496  0.89776523  0.30722956  1
  Zr  Zr5  1  0.70137589  0.90319626  0.88587676  1
  Zr  Zr6  1  0.89541464  0.29430179  0.89971741  1
  Zr  Zr7  1  0.10574787  0.50362209  0.50287544  1
  Zr  Zr8  1  0.90597312  0.10231242  0.50037813  1
  Zr  Zr9  1  0.50119289  0.69956462  0.89514473  1
  Zr  Zr10  1  0.30306806  0.30307648  0.10773066  1
  Zr  Zr11  1  0.50241362  0.29666901  0.89741153  1
  Zr  Zr12  1  0.10521655  0.89971096  0.50676592  1
  Zr  Zr13  1  0.89795225  0.30251654  0.30211095  1
  Zr  Zr14  1  0.89922679  0.10020682  0.90204840  1
  Zr  Zr15  1  0.69602553  0.49833456  0.29731610  1
  Zr  Zr16  1  0.29079756  0.49869968  0.69831384  1
  Zr  Zr17  1  0.49045356  0.49825171  0.49434505  1
  Zr  Zr18  1  0.89669244  0.50160024  0.50248734  1
  Zr  Zr19  1  0.09131028  0.30038442  0.88954387  1
  Zr  Zr20  1  0.69462639  0.29361118  0.70043167  1
  Zr  Zr21  1  0.89685980  0.10041104  0.09900754  1
  Zr  Zr22  1  0.89288011  0.29346362  0.49583142  1
  Zr  Zr23  1  0.51235163  0.70396199  0.11270830  1
  Zr  Zr24  1  0.90064838  0.09614958  0.30159438  1
  Zr  Zr25  1  0.10334462  0.29768262  0.49601279  1
  Zr  Zr26  1  0.09834213  0.70469087  0.70447143  1
  Zr  Zr27  1  0.29613159  0.89808458  0.09481990  1
  Zr  Zr28  1  0.70315886  0.29787705  0.89760891  1
  Zr  Zr29  1  0.10241456  0.09816492  0.49817417  1
  Zr  Zr30  1  0.30348905  0.29163976  0.89733094  1
  Zr  Zr31  1  0.10130823  0.70252645  0.50340794  1
  Zr  Zr32  1  0.09930369  0.69698150  0.90527995  1
  Zr  Zr33  1  0.29639759  0.90505618  0.90875655  1
  Zr  Zr34  1  0.49465777  0.90130095  0.09543198  1
  Zr  Zr35  1  0.49441210  0.90223287  0.89881366  1
  Zr  Zr36  1  0.10769221  0.30680531  0.28807352  1
  Zr  Zr37  1  0.50365155  0.29772928  0.69901960  1
  Zr  Zr38  1  0.90211162  0.29977753  0.09676389  1
  Zr  Zr39  1  0.90320529  0.90133812  0.70576699  1
  Zr  Zr40  1  0.10362673  0.09960091  0.29702976  1
  Zr  Zr41  1  0.49854079  0.10433211  0.29931651  1
  Zr  Zr42  1  0.29925864  0.09699964  0.09014982  1
  Zr  Zr43  1  0.10297504  0.90669482  0.09763416  1
  Zr  Zr44  1  0.90231111  0.89773153  0.48984852  1
  Zr  Zr45  1  0.69525687  0.10267213  0.29262347  1
  Zr  Zr46  1  0.29152243  0.90337686  0.70235686  1
  Zr  Zr47  1  0.69320053  0.70525508  0.69982400  1
  Zr  Zr48  1  0.49253314  0.31147788  0.29301075  1
  Zr  Zr49  1  0.48988712  0.50306571  0.90219059  1
  Sc  Sc50  1  0.50057965  0.70319645  0.30435771  1
  Sc  Sc51  1  0.90584828  0.68813667  0.09403857  1
  Sc  Sc52  1  0.29619590  0.10428412  0.30697781  1
  Sc  Sc53  1  0.10064257  0.69233035  0.30259456  1
  Sc  Sc54  1  0.28813027  0.69808027  0.09797239  1
  Sc  Sc55  1  0.09807436  0.50001519  0.70250008  1
  Sc  Sc56  1  0.50924981  0.89849204  0.69487463  1
  Sc  Sc57  1  0.29854276  0.49691408  0.30879601  1
  Sc  Sc58  1  0.49628611  0.49001674  0.10969081  1
  Sc  Sc59  1  0.09897297  0.50380507  0.11468692  1
  Sc  Sc60  1  0.90737784  0.70291328  0.49796226  1
  Sc  Sc61  1  0.71138716  0.50078649  0.90322204  1
  Sc  Sc62  1  0.29917747  0.50594647  0.09733046  1
  Sc  Sc63  1  0.70192568  0.90409538  0.30367301  1
  Sc  Sc64  1  0.90775899  0.51007776  0.28986956  1
  Sc  Sc65  1  0.30317976  0.09730441  0.50119993  1
  Sc  Sc66  1  0.10097902  0.50573735  0.89015145  1
  Sc  Sc67  1  0.69116317  0.70242564  0.28554227  1
  Sc  Sc68  1  0.90175117  0.50304291  0.09464772  1
  Sc  Sc69  1  0.70278738  0.50203322  0.69536369  1
  Sc  Sc70  1  0.70272839  0.30005386  0.50377358  1
  Sc  Sc71  1  0.11199209  0.30043023  0.69590998  1
  Sc  Sc72  1  0.70773530  0.10242692  0.50465361  1
  Sc  Sc73  1  0.30128504  0.09471627  0.89368295  1
  Sc  Sc74  1  0.49247487  0.10677888  0.89703065  1
  Sc  Sc75  1  0.90470773  0.69085765  0.89937629  1
  Sc  Sc76  1  0.70806536  0.50517680  0.09844077  1
  Sc  Sc77  1  0.70392448  0.10523649  0.89521773  1
  Sc  Sc78  1  0.50209536  0.90187069  0.30767246  1
  Sc  Sc79  1  0.10442016  0.08745675  0.69229417  1
  Sc  Sc80  1  0.70058198  0.30133670  0.30941068  1
  Sc  Sc81  1  0.90369436  0.50150686  0.89989686  1
  Sc  Sc82  1  0.90742934  0.29148598  0.70417678  1
  Sc  Sc83  1  0.09572469  0.89946982  0.89548043  1
  Sc  Sc84  1  0.49580900  0.10154329  0.69322613  1
  Sc  Sc85  1  0.50482667  0.50197960  0.69672822  1
  Sc  Sc86  1  0.90113904  0.69096069  0.70055923  1
  Sc  Sc87  1  0.50273143  0.70077233  0.69644658  1
  Sc  Sc88  1  0.09874167  0.09440365  0.89889931  1
  Sc  Sc89  1  0.70056597  0.29089936  0.09788897  1
  Sc  Sc90  1  0.30093109  0.70111928  0.69431512  1
  Sc  Sc91  1  0.70257141  0.49002179  0.50418447  1
  Sc  Sc92  1  0.10422539  0.90207803  0.30497380  1
  Sc  Sc93  1  0.90722046  0.91536721  0.09596697  1
  Sc  Sc94  1  0.10237492  0.69434471  0.09859870  1
  Sc  Sc95  1  0.89942753  0.10008172  0.69391013  1
  Sc  Sc96  1  0.29131007  0.29887056  0.49783518  1
  Sc  Sc97  1  0.69676126  0.90875351  0.50465575  1
  Sc  Sc98  1  0.70741912  0.69658343  0.88993213  1
  Sc  Sc99  1  0.29440817  0.70187332  0.31116368  1
  Nb  Nb100  1  0.49730980  0.29174080  0.09790971  1
  Nb  Nb101  1  0.69644500  0.70100560  0.50258616  1
  Nb  Nb102  1  0.30533320  0.70021403  0.50255995  1
  Nb  Nb103  1  0.89940411  0.70949743  0.30297590  1
  Nb  Nb104  1  0.49147854  0.89959935  0.50194652  1
  Nb  Nb105  1  0.29892002  0.49957591  0.90083307  1
  Nb  Nb106  1  0.69441827  0.09765316  0.10279622  1
  Nb  Nb107  1  0.70090911  0.70352348  0.09709256  1
  Nb  Nb108  1  0.89583750  0.90653443  0.90679757  1
  Nb  Nb109  1  0.49700917  0.50242054  0.30348017  1
  Nb  Nb110  1  0.09971875  0.49683262  0.29957036  1
  Nb  Nb111  1  0.90281364  0.49744824  0.69922606  1
  Nb  Nb112  1  0.70027110  0.09451108  0.69872293  1
  Nb  Nb113  1  0.09631594  0.10181850  0.10386483  1
  Nb  Nb114  1  0.30720944  0.88265045  0.49907206  1
  Nb  Nb115  1  0.30018478  0.29663172  0.69844882  1
  Nb  Nb116  1  0.10236076  0.89616607  0.69763456  1
  Nb  Nb117  1  0.50018458  0.30121819  0.50321976  1
  Nb  Nb118  1  0.30293832  0.50493532  0.50290054  1
  Nb  Nb119  1  0.10384409  0.30123616  0.10383221  1
  Nb  Nb120  1  0.90199535  0.89389546  0.30202788  1
  Nb  Nb121  1  0.29800097  0.10945065  0.70174452  1
  Nb  Nb122  1  0.70133370  0.89944859  0.69949190  1
  Nb  Nb123  1  0.49702720  0.09852498  0.49607321  1
  Nb  Nb124  1  0.50633431  0.11027247  0.10415539  1
  Nb  Nb125  1  0.39427548  0.39647207  0.60141092  1
  Nb  Nb126  1  0.39636078  0.80106971  0.80435238  1
  Nb  Nb127  1  -0.00589425  0.80162151  0.20336276  1
  Nb  Nb128  1  0.59668837  0.39893914  -0.00024966  1
  Nb  Nb129  1  0.39446390  0.39920553  0.79658837  1
  Nb  Nb130  1  0.60064922  0.60201875  0.40266517  1
  Nb  Nb131  1  0.60010399  0.60136899  0.00304517  1
  Nb  Nb132  1  0.58885199  0.19993340  0.40547415  1
  Nb  Nb133  1  0.19228653  0.20536781  0.00435121  1
  Nb  Nb134  1  0.79367606  0.60843025  0.39728587  1
  Nb  Nb135  1  0.80816822  0.80039018  0.19539742  1
  Nb  Nb136  1  0.60117770  0.00419592  0.00262044  1
  Nb  Nb137  1  0.80435088  0.39655110  0.79727703  1
  Nb  Nb138  1  0.59884583  0.79722678  0.41194672  1
  Nb  Nb139  1  0.80141418  0.80459957  0.00004879  1
  Nb  Nb140  1  0.40131412  0.60365791  0.20809338  1
  Nb  Nb141  1  0.00370922  0.40408448  0.39954068  1
  Nb  Nb142  1  0.39485000  0.80223123  0.20101749  1
  Nb  Nb143  1  0.00971776  0.39474247  0.00151766  1
  Nb  Nb144  1  0.80274728  0.39975655  0.19908486  1
  Nb  Nb145  1  0.60722193  0.80114976  -0.00327719  1
  Nb  Nb146  1  0.79499308  0.80246466  0.60169800  1
  Nb  Nb147  1  0.19694282  0.39668648  -0.00207912  1
  Nb  Nb148  1  -0.00160007  0.39944499  0.59494266  1
  Nb  Nb149  1  0.39894453  -0.00071803  0.19794902  1
  Pd  Pd150  1  0.00532148  -0.00360251  0.39772321  1
  Pd  Pd151  1  0.20342375  0.39948821  0.80480674  1
  Pd  Pd152  1  0.40118296  0.78569719  0.00224921  1
  Pd  Pd153  1  0.59406137  0.00822587  0.80162962  1
  Pd  Pd154  1  0.20334315  0.59849459  0.40063898  1
  Pd  Pd155  1  0.59940178  0.59240277  0.59189370  1
  Pd  Pd156  1  0.60901600  0.39592045  0.18910016  1
  Pd  Pd157  1  0.40066136  0.20845241  0.40440985  1
  Pd  Pd158  1  0.20695599  0.00403228  0.20120791  1
  Pd  Pd159  1  0.80727802  0.38882933  0.61164082  1
  Pd  Pd160  1  0.79771874  0.20579344  0.20120920  1
  Pd  Pd161  1  0.00815321  0.20386724  0.60545658  1
  Pd  Pd162  1  0.80712485  -0.00670880  0.59958391  1
  Pd  Pd163  1  -0.00056946  0.20009891  0.20466387  1
  Pd  Pd164  1  0.00843350  0.18670436  0.78812943  1
  Pd  Pd165  1  0.39214003  0.19348441  0.20085966  1
  Pd  Pd166  1  0.60117249  0.00284349  0.40811834  1
  Pd  Pd167  1  0.80595120  -0.00500150  0.20338917  1
  Pd  Pd168  1  -0.00590716  0.80223434  0.00654334  1
  Pd  Pd169  1  0.39576231  0.60011166  0.78923627  1
  Pd  Pd170  1  -0.00625010  0.79861019  0.80545253  1
  Pd  Pd171  1  0.40145923  -0.00329417  0.78918315  1
  Pd  Pd172  1  0.59982468  0.39816191  0.40552807  1
  Pd  Pd173  1  0.59052747  -0.00489621  0.19874494  1
  Pd  Pd174  1  -0.00516494  0.59859459  0.39885458  1
  Pd  Pd175  1  0.60359746  0.19799051  -0.00406495  1
  Pd  Pd176  1  0.19380981  0.19126979  0.80214650  1
  Pd  Pd177  1  0.60182927  0.19263704  0.59355419  1
  Pd  Pd178  1  0.19401402  0.79407682  0.20203231  1
  Pd  Pd179  1  0.60617646  0.59173655  0.80588000  1
  Pd  Pd180  1  0.59764549  0.00439875  0.59658106  1
  Pd  Pd181  1  0.80317656  0.00840918  0.79627704  1
  Pd  Pd182  1  0.80277928  0.60418005  0.20241036  1
  Pd  Pd183  1  0.39899191  0.39604737  -0.00286726  1
  Pd  Pd184  1  0.39478062  0.20406577  0.59431844  1
  Pd  Pd185  1  0.40829460  0.60717992  0.01658682  1
  Pd  Pd186  1  0.00613100  0.19947551  0.00113328  1
  Pd  Pd187  1  0.81022015  0.79447724  0.79956380  1
  Pd  Pd188  1  0.39523627  -0.00343297  0.60442442  1
  Pd  Pd189  1  0.39459625  -0.00184056  0.39685607  1
  Pd  Pd190  1  0.79704537  0.00454412  0.39984371  1
  Pd  Pd191  1  0.00287786  0.00163597  0.79769518  1
  Pd  Pd192  1  -0.00829421  0.80199906  0.60199552  1
  Pd  Pd193  1  0.19858520  0.60708992  0.60451688  1
  Pd  Pd194  1  0.20546226  0.79837113  0.80752807  1
  Pd  Pd195  1  0.78715572  0.79519043  0.39981930  1
  Pd  Pd196  1  0.21027796  -0.00026827  0.59515923  1
  Pd  Pd197  1  0.60406089  0.41036640  0.80658343  1
  Pd  Pd198  1  0.80132306  0.60898724  0.59630864  1
  Pd  Pd199  1  0.00719040  0.20654901  0.38958855  1
  Rh  Rh200  1  -0.00842220  0.40314751  0.79694653  1
  Rh  Rh201  1  0.39558129  0.19807408  0.00190825  1
  Rh  Rh202  1  0.20315065  0.19310950  0.59906278  1
  Rh  Rh203  1  0.00355645  0.00449777  -0.00283475  1
  Rh  Rh204  1  0.79380555  0.19050187  0.00559264  1
  Rh  Rh205  1  0.39546182  0.80793979  0.61352588  1
  Rh  Rh206  1  0.79021320  0.19038796  0.39766825  1
  Rh  Rh207  1  0.20406009  0.19153148  0.19390006  1
  Rh  Rh208  1  0.79639167  0.60947190  -0.00380733  1
  Rh  Rh209  1  0.19288950  0.58670162  0.00059158  1
  Rh  Rh210  1  0.19783128  0.00134319  0.79792396  1
  Rh  Rh211  1  0.19184207  0.80118193  -0.00479114  1
  Rh  Rh212  1  0.19613635  0.79647103  0.40778899  1
  Rh  Rh213  1  -0.00306167  -0.00744676  0.59921006  1
  Rh  Rh214  1  0.80327891  0.39691426  -0.00046636  1
  Rh  Rh215  1  0.60559314  0.80799074  0.59535991  1
  Rh  Rh216  1  0.39863095  0.59191735  0.60459922  1
  Rh  Rh217  1  0.20543771  -0.00303953  0.40955274  1
  Rh  Rh218  1  0.00856719  0.58609765  -0.00041621  1
  Rh  Rh219  1  0.00325588  0.61096220  0.20226882  1
  Rh  Rh220  1  0.19655305  0.40625544  0.40376946  1
  Rh  Rh221  1  0.19761216  0.19552780  0.40027427  1
  Rh  Rh222  1  0.79779162  0.19843704  0.79032249  1
  Rh  Rh223  1  0.20745332  0.41176430  0.19456787  1
  Rh  Rh224  1  0.80290451  0.58954198  0.79471488  1
  Rh  Rh225  1  0.39218260  0.41011563  0.20432220  1
  Rh  Rh226  1  0.20078568  0.39988388  0.59567513  1
  Rh  Rh227  1  0.79741122  0.19976103  0.60493915  1
  Rh  Rh228  1  0.01289936  0.80062849  0.39533417  1
  Rh  Rh229  1  0.39294567  0.39510443  0.40675222  1
  Rh  Rh230  1  0.59343816  0.80125458  0.80151251  1
  Rh  Rh231  1  0.40594403  0.79782636  0.39674687  1
  Rh  Rh232  1  0.19033130  0.00670702  -0.00306213  1
  Rh  Rh233  1  0.00024905  -0.00412178  0.20434874  1
  Rh  Rh234  1  0.81223179  0.41834887  0.38658275  1
  Rh  Rh235  1  0.00296660  0.59518450  0.60493268  1
  Rh  Rh236  1  0.60059364  0.18854181  0.79385983  1
  Rh  Rh237  1  0.60070672  0.21213221  0.20952223  1
  Rh  Rh238  1  0.00112008  0.60096705  0.79647616  1
  Rh  Rh239  1  0.40107467  0.20218830  0.79223635  1
  Rh  Rh240  1  0.60216744  0.81242624  0.20548169  1
  Rh  Rh241  1  0.20021105  0.60512257  0.79674445  1
  Rh  Rh242  1  0.20727180  0.59779797  0.20875701  1
  Rh  Rh243  1  0.20409269  0.79653972  0.59796909  1
  Rh  Rh244  1  0.79135446  0.00238074  -0.00343226  1
  Rh  Rh245  1  0.40193829  0.60506111  0.39686226  1
  Rh  Rh246  1  0.59340429  0.40308287  0.59573909  1
  Rh  Rh247  1  -0.00692652  0.40054035  0.19838672  1
  Rh  Rh248  1  0.59214828  0.59001591  0.19965410  1
  Rh  Rh249  1  0.41297613  0.01438665  0.00638741  1
