# generated using pymatgen
data_ZrScNbPdRh
_symmetry_space_group_name_H-M   'P 1'
_cell_length_a   16.55885300
_cell_length_b   16.55723070
_cell_length_c   16.55938018
_cell_angle_alpha   90.02590062
_cell_angle_beta   90.01517969
_cell_angle_gamma   89.98277232
_symmetry_Int_Tables_number   1
_chemical_formula_structural   ZrScNbPdRh
_chemical_formula_sum   'Zr50 Sc50 Nb50 Pd50 Rh50'
_cell_volume   4540.06372242
_cell_formula_units_Z   50
loop_
 _symmetry_equiv_pos_site_id
 _symmetry_equiv_pos_as_xyz
  1  'x, y, z'
loop_
 _atom_site_type_symbol
 _atom_site_label
 _atom_site_symmetry_multiplicity
 _atom_site_fract_x
 _atom_site_fract_y
 _atom_site_fract_z
 _atom_site_occupancy
  Zr  Zr0  1  0.90320122  0.10425778  0.89887255  1
  Zr  Zr1  1  0.90847835  0.30023332  0.29545769  1
  Zr  Zr2  1  0.49333623  0.90250716  0.09559314  1
  Zr  Zr3  1  0.49920633  0.31039600  0.50229128  1
  Zr  Zr4  1  0.30932635  0.10303008  0.30230847  1
  Zr  Zr5  1  0.89879865  0.10559875  0.29393841  1
  Zr  Zr6  1  0.09676320  0.49966400  0.49295843  1
  Zr  Zr7  1  0.49880260  0.49474848  0.90324047  1
  Zr  Zr8  1  0.69239537  0.48976737  0.49945495  1
  Zr  Zr9  1  0.10016797  0.90465465  0.69975098  1
  Zr  Zr10  1  0.09991625  0.48523009  0.29730350  1
  Zr  Zr11  1  0.70129414  0.30300373  0.50219915  1
  Zr  Zr12  1  0.09420574  0.29128095  0.89985349  1
  Zr  Zr13  1  0.09238184  0.30977480  0.10153330  1
  Zr  Zr14  1  0.70717127  0.90588155  0.49469932  1
  Zr  Zr15  1  0.68815335  0.09582392  0.29989992  1
  Zr  Zr16  1  0.30298677  0.49516975  0.90199743  1
  Zr  Zr17  1  0.09657261  0.70322069  0.90925633  1
  Zr  Zr18  1  0.50129230  0.70723811  0.69843750  1
  Zr  Zr19  1  0.49328367  0.30326487  0.90290120  1
  Zr  Zr20  1  0.69893327  0.70000971  0.69553187  1
  Zr  Zr21  1  0.89849748  0.50124485  0.69673674  1
  Zr  Zr22  1  0.10354879  0.89263451  0.29835255  1
  Zr  Zr23  1  0.89937222  0.90301367  0.70053806  1
  Zr  Zr24  1  0.70251685  0.49757687  0.69970054  1
  Zr  Zr25  1  0.49503329  0.69782544  0.50073919  1
  Zr  Zr26  1  0.30172755  0.69987318  0.30221680  1
  Zr  Zr27  1  0.90423472  0.69788683  0.09618932  1
  Zr  Zr28  1  0.30207107  0.49601646  0.50349389  1
  Zr  Zr29  1  0.09723444  0.70361131  0.10489584  1
  Zr  Zr30  1  0.29800433  0.70058474  0.68954120  1
  Zr  Zr31  1  0.49068223  0.10161230  0.69977063  1
  Zr  Zr32  1  0.49484080  0.69252163  0.29942328  1
  Zr  Zr33  1  0.89544855  0.70016526  0.70088939  1
  Zr  Zr34  1  0.90193878  0.49343155  0.49777334  1
  Zr  Zr35  1  0.49581483  0.49975836  0.49336402  1
  Zr  Zr36  1  0.09908113  0.10286851  0.71372498  1
  Zr  Zr37  1  0.29662214  0.30779365  0.89203713  1
  Zr  Zr38  1  0.89881094  0.90117329  0.50883306  1
  Zr  Zr39  1  0.30333314  0.11519785  0.50072861  1
  Zr  Zr40  1  0.30659050  0.70011335  0.49832773  1
  Zr  Zr41  1  0.29428723  0.49715468  0.09671450  1
  Zr  Zr42  1  0.90509270  0.10014474  0.69888269  1
  Zr  Zr43  1  0.30192033  0.09236061  0.09872109  1
  Zr  Zr44  1  0.30519031  0.70081838  0.89998340  1
  Zr  Zr45  1  0.09699752  0.09753343  0.10291610  1
  Zr  Zr46  1  0.50240612  0.91361402  0.30210634  1
  Zr  Zr47  1  0.90771103  0.09632118  0.49863609  1
  Zr  Zr48  1  0.50168293  0.50103555  0.69074233  1
  Zr  Zr49  1  0.69838866  0.50451659  0.29278917  1
  Sc  Sc50  1  0.49581148  0.09817265  0.49086377  1
  Sc  Sc51  1  0.49707471  0.89410373  0.89330237  1
  Sc  Sc52  1  0.49592771  0.49100748  0.11014315  1
  Sc  Sc53  1  0.70375039  0.49681629  0.90364919  1
  Sc  Sc54  1  0.10059806  0.89648180  0.50889691  1
  Sc  Sc55  1  0.70433351  0.90049489  0.89668177  1
  Sc  Sc56  1  0.09868962  0.89961540  0.10693935  1
  Sc  Sc57  1  0.30451186  0.91157934  0.90123177  1
  Sc  Sc58  1  0.69748287  0.70404005  0.89769877  1
  Sc  Sc59  1  0.90158605  0.90586732  0.31058554  1
  Sc  Sc60  1  0.31150779  0.29517646  0.09986660  1
  Sc  Sc61  1  0.70371662  0.10174629  0.49256244  1
  Sc  Sc62  1  0.08916589  0.10022036  0.30149487  1
  Sc  Sc63  1  0.10502134  0.49908115  0.68615870  1
  Sc  Sc64  1  0.30247715  0.49673484  0.29047175  1
  Sc  Sc65  1  0.89629276  0.69199390  0.50308381  1
  Sc  Sc66  1  0.70918693  0.89727132  0.70263999  1
  Sc  Sc67  1  0.89145115  0.90080141  0.89969088  1
  Sc  Sc68  1  0.29752857  0.48540617  0.69921521  1
  Sc  Sc69  1  0.48991325  0.29394942  0.70865243  1
  Sc  Sc70  1  0.49996522  0.29745762  0.29270154  1
  Sc  Sc71  1  0.31000186  0.69733765  0.10559678  1
  Sc  Sc72  1  0.89919230  0.29726694  0.90627451  1
  Sc  Sc73  1  0.50411676  0.10972546  0.88887486  1
  Sc  Sc74  1  0.89951908  0.49376501  0.30790674  1
  Sc  Sc75  1  0.89748497  0.70169711  0.90823890  1
  Sc  Sc76  1  0.89591231  0.29801254  0.49610352  1
  Sc  Sc77  1  0.50353479  0.29688256  0.09780215  1
  Sc  Sc78  1  0.11195948  0.48749206  0.91585464  1
  Sc  Sc79  1  0.50291464  0.70691222  0.90142841  1
  Sc  Sc80  1  0.49336332  0.10486220  0.11049101  1
  Sc  Sc81  1  0.89727428  0.30308057  0.69005074  1
  Sc  Sc82  1  0.30393974  0.89704705  0.30074894  1
  Sc  Sc83  1  0.69437700  0.29790279  0.90894541  1
  Sc  Sc84  1  0.70518654  0.29324329  0.29778192  1
  Sc  Sc85  1  0.69939398  0.89905129  0.09016370  1
  Sc  Sc86  1  0.31317195  0.90487309  0.70072778  1
  Sc  Sc87  1  0.90252288  0.89352437  0.09336776  1
  Sc  Sc88  1  0.30724001  0.89671594  0.50117172  1
  Sc  Sc89  1  0.70427822  0.09631229  0.90124715  1
  Sc  Sc90  1  0.89610513  0.29171408  0.10133201  1
  Sc  Sc91  1  0.70260660  0.10812960  0.09750038  1
  Sc  Sc92  1  0.49533207  0.90093734  0.50100887  1
  Sc  Sc93  1  0.89145562  0.50386579  0.90734471  1
  Sc  Sc94  1  0.10505954  0.29909738  0.70419492  1
  Sc  Sc95  1  0.11037393  0.29751655  0.48553378  1
  Sc  Sc96  1  0.11014700  0.69867247  0.51354951  1
  Sc  Sc97  1  0.70361291  0.69508795  0.10099512  1
  Sc  Sc98  1  0.69749512  0.30044627  0.10239329  1
  Sc  Sc99  1  0.89645562  0.68631974  0.30980896  1
  Nb  Nb100  1  0.09974300  0.09766188  0.89692747  1
  Nb  Nb101  1  0.49910216  0.90553387  0.69647941  1
  Nb  Nb102  1  0.28199113  0.09846822  0.89644454  1
  Nb  Nb103  1  0.30374708  0.29238619  0.69673879  1
  Nb  Nb104  1  0.69911112  0.30167749  0.69760250  1
  Nb  Nb105  1  0.10271172  0.30194525  0.29201227  1
  Nb  Nb106  1  0.49889999  0.50406331  0.30200502  1
  Nb  Nb107  1  0.70044527  0.90348922  0.30181891  1
  Nb  Nb108  1  0.89415443  0.50437145  0.10158149  1
  Nb  Nb109  1  0.69972643  0.70732870  0.49651920  1
  Nb  Nb110  1  0.10094338  0.69748472  0.30235839  1
  Nb  Nb111  1  0.70102676  0.50094807  0.09586617  1
  Nb  Nb112  1  0.69105051  0.10420279  0.70896094  1
  Nb  Nb113  1  0.30347025  0.30001960  0.49626229  1
  Nb  Nb114  1  0.10580052  0.70172586  0.70393710  1
  Nb  Nb115  1  0.30076148  0.10975269  0.69888529  1
  Nb  Nb116  1  0.28490716  0.29694097  0.30871109  1
  Nb  Nb117  1  0.10591300  0.91037237  0.89605417  1
  Nb  Nb118  1  0.89605434  0.09872767  0.09534227  1
  Nb  Nb119  1  0.10016908  0.49736061  0.10672733  1
  Nb  Nb120  1  0.50617278  0.70646561  0.09858521  1
  Nb  Nb121  1  0.29828180  0.90777020  0.09654828  1
  Nb  Nb122  1  0.69867461  0.70264870  0.30130630  1
  Nb  Nb123  1  0.50036328  0.09683623  0.29706694  1
  Nb  Nb124  1  0.10393128  0.09800617  0.50453337  1
  Nb  Nb125  1  0.00433004  0.79261919  0.40258153  1
  Nb  Nb126  1  0.00611888  0.79804821  0.80096903  1
  Nb  Nb127  1  0.19885944  0.60208302  0.80093239  1
  Nb  Nb128  1  0.79388704  0.80194051  0.20994610  1
  Nb  Nb129  1  0.59872770  0.00412585  0.60695684  1
  Nb  Nb130  1  0.19897846  0.59898578  0.39618870  1
  Nb  Nb131  1  0.60546932  0.79853947  0.39476895  1
  Nb  Nb132  1  0.19642812  0.19509368  0.00081408  1
  Nb  Nb133  1  0.19995979  0.00534095  0.40726245  1
  Nb  Nb134  1  0.00305930  0.00437702  -0.00473553  1
  Nb  Nb135  1  0.60047063  0.19785876  0.60521875  1
  Nb  Nb136  1  0.59489536  0.00001310  -0.00138147  1
  Nb  Nb137  1  0.59856507  0.59680631  0.00734961  1
  Nb  Nb138  1  0.39795775  0.59909189  0.79754944  1
  Nb  Nb139  1  0.20325478  0.80835625  0.00006547  1
  Nb  Nb140  1  0.00379682  0.59353671  0.19874022  1
  Nb  Nb141  1  -0.00131666  0.40847086  0.80006623  1
  Nb  Nb142  1  0.60094118  0.39815312  0.79731344  1
  Nb  Nb143  1  0.20517993  0.01120502  0.60064538  1
  Nb  Nb144  1  0.79745598  -0.00340532  0.19906130  1
  Nb  Nb145  1  0.00818660  0.59875800  0.80103803  1
  Nb  Nb146  1  0.19822194  0.20232757  0.20013683  1
  Nb  Nb147  1  0.79455247  0.20144467  0.79364059  1
  Nb  Nb148  1  0.60265208  0.80052326  0.20469780  1
  Nb  Nb149  1  0.19866451  0.80144780  0.80336725  1
  Pd  Pd150  1  0.00907830  0.20732284  0.59700524  1
  Pd  Pd151  1  0.60672929  -0.00190389  0.18550489  1
  Pd  Pd152  1  0.19694926  0.60000984  0.20336577  1
  Pd  Pd153  1  0.00318279  0.58784289  0.00126272  1
  Pd  Pd154  1  0.80684393  0.79881627  0.39806543  1
  Pd  Pd155  1  0.80152903  0.19813871  0.39675063  1
  Pd  Pd156  1  0.59362725  0.20401801  0.40447893  1
  Pd  Pd157  1  0.60069306  -0.00818931  0.80209903  1
  Pd  Pd158  1  0.41049708  0.20814397  0.39474014  1
  Pd  Pd159  1  0.59566034  0.60275439  0.19283535  1
  Pd  Pd160  1  0.39339930  0.80353979  0.00046857  1
  Pd  Pd161  1  0.39651199  0.00859522  0.80620723  1
  Pd  Pd162  1  0.20046653  0.60726255  0.00208689  1
  Pd  Pd163  1  0.80248856  0.60470891  0.80870988  1
  Pd  Pd164  1  0.40977332  0.01180064  -0.01218180  1
  Pd  Pd165  1  0.41070005  0.59979818  0.00337740  1
  Pd  Pd166  1  -0.01026026  0.40579813  -0.00148246  1
  Pd  Pd167  1  0.00909541  -0.00996638  0.40569143  1
  Pd  Pd168  1  0.60259445  0.39775262  0.20232698  1
  Pd  Pd169  1  0.59492066  0.59453961  0.80959427  1
  Pd  Pd170  1  0.60397335  0.60148582  0.59114698  1
  Pd  Pd171  1  0.79038430  0.59207284  0.40680871  1
  Pd  Pd172  1  0.19628760  0.80028143  0.40835259  1
  Pd  Pd173  1  0.39229593  0.19204788  -0.00849808  1
  Pd  Pd174  1  0.39552819  0.39846950  0.38827907  1
  Pd  Pd175  1  0.39655503  0.39259142  0.20467204  1
  Pd  Pd176  1  0.80102297  0.39843149  0.19842963  1
  Pd  Pd177  1  -0.00266243  0.79097221  0.59968354  1
  Pd  Pd178  1  0.79006500  0.01040458  0.60621005  1
  Pd  Pd179  1  0.60214738  0.39505707  0.38411089  1
  Pd  Pd180  1  0.79412085  0.79591460  0.00448302  1
  Pd  Pd181  1  -0.01589544  0.79124791  0.21516400  1
  Pd  Pd182  1  0.80656568  0.60380199  0.19972049  1
  Pd  Pd183  1  0.19839842  0.38850935  0.59466816  1
  Pd  Pd184  1  0.59754956  0.19214212  0.00142667  1
  Pd  Pd185  1  0.60414860  0.60345290  0.40366134  1
  Pd  Pd186  1  0.19498384  0.20379635  0.60261441  1
  Pd  Pd187  1  -0.01179003  -0.00530439  0.19313260  1
  Pd  Pd188  1  0.00302531  0.60507708  0.60349495  1
  Pd  Pd189  1  0.20323483  0.00455011  0.21270221  1
  Pd  Pd190  1  0.79361302  0.19273587  0.60303160  1
  Pd  Pd191  1  0.00459590  0.20378516  0.40195445  1
  Pd  Pd192  1  0.80155992  0.39427608  0.00694526  1
  Pd  Pd193  1  0.80091629  0.39019168  0.80320918  1
  Pd  Pd194  1  0.00637788  0.38987444  0.59845653  1
  Pd  Pd195  1  0.60311385  0.81231626  0.59297263  1
  Pd  Pd196  1  0.60306185  0.80798719  0.79775602  1
  Pd  Pd197  1  0.40365126  0.80591089  0.20143276  1
  Pd  Pd198  1  0.20945000  0.80024048  0.19166169  1
  Pd  Pd199  1  0.79142498  0.59645203  0.59009265  1
  Rh  Rh200  1  -0.00062605  0.38901144  0.40249070  1
  Rh  Rh201  1  0.59399787  0.39066358  0.61039505  1
  Rh  Rh202  1  0.80477722  0.00991741  0.39267898  1
  Rh  Rh203  1  0.39756862  0.79547797  0.79338043  1
  Rh  Rh204  1  0.20585659  0.59481351  0.59748481  1
  Rh  Rh205  1  0.80131475  0.40287276  0.59550730  1
  Rh  Rh206  1  0.18946689  0.40452968  0.79730383  1
  Rh  Rh207  1  0.01102636  0.60474259  0.39744456  1
  Rh  Rh208  1  0.39695725  0.59688280  0.60579200  1
  Rh  Rh209  1  0.79661195  0.39908992  0.39455207  1
  Rh  Rh210  1  0.79699931  0.20157538  -0.00504976  1
  Rh  Rh211  1  0.59743975  0.19819736  0.19924209  1
  Rh  Rh212  1  0.80238711  0.00979043  0.79661990  1
  Rh  Rh213  1  0.39950918  0.00641818  0.59697523  1
  Rh  Rh214  1  0.00281581  0.19221086  0.00664484  1
  Rh  Rh215  1  0.40748914  0.40685357  0.79052607  1
  Rh  Rh216  1  0.60142978  0.80083094  0.00389582  1
  Rh  Rh217  1  0.00819602  0.00534201  0.60006821  1
  Rh  Rh218  1  0.20973745  0.38924002  0.19221882  1
  Rh  Rh219  1  0.60703650  0.21346490  0.79911589  1
  Rh  Rh220  1  0.19171901  0.19060232  0.38978885  1
  Rh  Rh221  1  0.78901234  0.60349971  -0.00075966  1
  Rh  Rh222  1  0.41173077  0.80412286  0.39528268  1
  Rh  Rh223  1  -0.01313075  0.21604178  0.79434349  1
  Rh  Rh224  1  0.59713016  -0.00377783  0.41138366  1
  Rh  Rh225  1  0.39590961  -0.00319060  0.20286841  1
  Rh  Rh226  1  0.79805512  0.79790607  0.59891150  1
  Rh  Rh227  1  0.40287433  0.80309739  0.60148201  1
  Rh  Rh228  1  0.20819801  0.81494538  0.60701680  1
  Rh  Rh229  1  0.40519320  0.59705917  0.19518281  1
  Rh  Rh230  1  0.80532189  0.79443914  0.80034463  1
  Rh  Rh231  1  -0.01027388  -0.00854684  0.80851376  1
  Rh  Rh232  1  0.39235683  0.00045323  0.40223162  1
  Rh  Rh233  1  0.79748068  0.19386726  0.19980839  1
  Rh  Rh234  1  0.00230535  0.20159403  0.19374578  1
  Rh  Rh235  1  0.20562347  0.40702380  0.40065264  1
  Rh  Rh236  1  0.80057034  0.00174136  0.00545889  1
  Rh  Rh237  1  0.38661653  0.19550824  0.80944122  1
  Rh  Rh238  1  0.40007790  0.39752268  0.00802933  1
  Rh  Rh239  1  0.39775052  0.39260411  0.60444702  1
  Rh  Rh240  1  0.20362583  0.20480224  0.80337889  1
  Rh  Rh241  1  -0.01402463  0.40741835  0.19423475  1
  Rh  Rh242  1  0.20507429  0.38586467  0.00909829  1
  Rh  Rh243  1  0.21050241  -0.00260661  0.78615715  1
  Rh  Rh244  1  0.19244343  -0.00110700  0.00501505  1
  Rh  Rh245  1  0.00902205  0.81950133  -0.01087357  1
  Rh  Rh246  1  0.39549493  0.20442312  0.20765080  1
  Rh  Rh247  1  0.40756760  0.20665469  0.59462448  1
  Rh  Rh248  1  0.60114051  0.40704293  -0.00030805  1
  Rh  Rh249  1  0.39023869  0.58941474  0.39519441  1
