# generated using pymatgen
data_ZrScNbPdRh
_symmetry_space_group_name_H-M   'P 1'
_cell_length_a   16.56016292
_cell_length_b   16.55648383
_cell_length_c   16.56239903
_cell_angle_alpha   90.02965842
_cell_angle_beta   90.01230514
_cell_angle_gamma   90.03317497
_symmetry_Int_Tables_number   1
_chemical_formula_structural   ZrScNbPdRh
_chemical_formula_sum   'Zr50 Sc50 Nb50 Pd50 Rh50'
_cell_volume   4541.04511634
_cell_formula_units_Z   50
loop_
 _symmetry_equiv_pos_site_id
 _symmetry_equiv_pos_as_xyz
  1  'x, y, z'
loop_
 _atom_site_type_symbol
 _atom_site_label
 _atom_site_symmetry_multiplicity
 _atom_site_fract_x
 _atom_site_fract_y
 _atom_site_fract_z
 _atom_site_occupancy
  Zr  Zr0  1  0.89512569  0.30272369  0.11000249  1
  Zr  Zr1  1  0.10053018  0.29451803  0.09475001  1
  Zr  Zr2  1  0.50937471  0.09584758  0.30405672  1
  Zr  Zr3  1  0.50381765  0.49867814  0.69925200  1
  Zr  Zr4  1  0.09775723  0.29390819  0.89084543  1
  Zr  Zr5  1  0.90782554  0.89624060  0.29241441  1
  Zr  Zr6  1  0.10508037  0.89731685  0.90416535  1
  Zr  Zr7  1  0.09412330  0.70270337  0.29484565  1
  Zr  Zr8  1  0.70255135  0.51734375  0.70335855  1
  Zr  Zr9  1  0.70531271  0.08397350  0.70048595  1
  Zr  Zr10  1  0.10498064  0.69595034  0.90853749  1
  Zr  Zr11  1  0.10263006  0.49197661  0.70167599  1
  Zr  Zr12  1  0.89660370  0.10777551  0.28994156  1
  Zr  Zr13  1  0.30065448  0.69387891  0.29872653  1
  Zr  Zr14  1  0.69780057  0.89013397  0.70291863  1
  Zr  Zr15  1  0.70496070  0.50386669  0.90540251  1
  Zr  Zr16  1  0.30281821  0.69269434  0.50021994  1
  Zr  Zr17  1  0.31488290  0.90260582  0.29872176  1
  Zr  Zr18  1  0.90278199  0.49664895  0.70524782  1
  Zr  Zr19  1  0.29460585  0.29324038  0.69694249  1
  Zr  Zr20  1  0.88398630  0.90349321  0.70210047  1
  Zr  Zr21  1  0.89619373  0.49639199  0.50179989  1
  Zr  Zr22  1  0.70233517  0.89951005  0.10064797  1
  Zr  Zr23  1  0.69833661  0.70197814  0.29705778  1
  Zr  Zr24  1  0.49572162  0.90308167  0.89550076  1
  Zr  Zr25  1  0.69545766  0.90507890  0.29320225  1
  Zr  Zr26  1  0.49929762  0.70342201  0.09144938  1
  Zr  Zr27  1  0.50100170  0.89978798  0.29940814  1
  Zr  Zr28  1  0.11104323  0.10023655  0.70109238  1
  Zr  Zr29  1  0.09250240  0.50267904  0.89388341  1
  Zr  Zr30  1  0.89939635  0.10684330  0.69973587  1
  Zr  Zr31  1  0.49318909  0.30163335  0.70179253  1
  Zr  Zr32  1  0.90337335  0.10046487  0.90041091  1
  Zr  Zr33  1  0.70049369  0.50030645  0.09792142  1
  Zr  Zr34  1  0.90190586  0.69518046  0.10592475  1
  Zr  Zr35  1  0.90992044  0.69822912  0.30463400  1
  Zr  Zr36  1  0.09884197  0.89977909  0.30117412  1
  Zr  Zr37  1  0.69546248  0.30058915  0.90964988  1
  Zr  Zr38  1  0.10012898  0.89219528  0.09677905  1
  Zr  Zr39  1  0.90166650  0.10057662  0.09527701  1
  Zr  Zr40  1  0.10360121  0.69173842  0.70327160  1
  Zr  Zr41  1  0.29809235  0.30632237  0.49910923  1
  Zr  Zr42  1  0.29713109  0.30651860  0.30362394  1
  Zr  Zr43  1  0.88370106  0.70043409  0.70070062  1
  Zr  Zr44  1  0.49198164  0.49133685  0.50219443  1
  Zr  Zr45  1  0.90045957  0.30334009  0.50177116  1
  Zr  Zr46  1  0.50341085  0.30722478  0.09945674  1
  Zr  Zr47  1  0.49924561  0.29720349  0.90134947  1
  Zr  Zr48  1  0.69746276  0.69717407  0.10128463  1
  Zr  Zr49  1  0.70682673  0.90328420  0.51162946  1
  Sc  Sc50  1  0.30039107  0.69851296  0.09637977  1
  Sc  Sc51  1  0.49765742  0.89503229  0.09803819  1
  Sc  Sc52  1  0.49843516  0.49524856  0.90520556  1
  Sc  Sc53  1  0.30039893  0.10549529  0.50645732  1
  Sc  Sc54  1  0.10308651  0.50124888  0.10018667  1
  Sc  Sc55  1  0.31246839  0.90892140  0.50915918  1
  Sc  Sc56  1  0.10156596  0.50606647  0.30072740  1
  Sc  Sc57  1  0.30179793  0.30285773  0.89672324  1
  Sc  Sc58  1  0.29687679  0.49808924  0.90615793  1
  Sc  Sc59  1  0.69754899  0.50177274  0.30181152  1
  Sc  Sc60  1  0.10087920  0.11464986  0.30530331  1
  Sc  Sc61  1  0.70654585  0.09035909  0.10647955  1
  Sc  Sc62  1  0.90350355  0.90379133  0.50086228  1
  Sc  Sc63  1  0.10477616  0.69219996  0.10013978  1
  Sc  Sc64  1  0.10108287  0.10805855  0.50118256  1
  Sc  Sc65  1  0.29830892  0.09567407  0.88516044  1
  Sc  Sc66  1  0.49658671  0.09736960  0.50708896  1
  Sc  Sc67  1  0.50064296  0.70632292  0.29622136  1
  Sc  Sc68  1  0.90083116  0.68944333  0.90488544  1
  Sc  Sc69  1  0.10281678  0.29809642  0.50097246  1
  Sc  Sc70  1  0.48943353  0.49487150  0.29534978  1
  Sc  Sc71  1  0.69978837  0.49983519  0.49938721  1
  Sc  Sc72  1  0.30020236  0.70379368  0.90746430  1
  Sc  Sc73  1  0.70387529  0.90539224  0.89055235  1
  Sc  Sc74  1  0.90089745  0.49307661  0.30436624  1
  Sc  Sc75  1  0.90971529  0.10725425  0.49958810  1
  Sc  Sc76  1  0.49967168  0.90107193  0.50176005  1
  Sc  Sc77  1  0.29281577  0.30505883  0.09621505  1
  Sc  Sc78  1  0.50031731  0.70248781  0.49969771  1
  Sc  Sc79  1  0.49976812  0.49891233  0.09907059  1
  Sc  Sc80  1  0.70816732  0.28642003  0.69477321  1
  Sc  Sc81  1  0.50872724  0.70512983  0.70022033  1
  Sc  Sc82  1  0.09124495  0.69719956  0.48987485  1
  Sc  Sc83  1  0.70395900  0.30199604  0.50214974  1
  Sc  Sc84  1  0.09355116  0.91205820  0.49913583  1
  Sc  Sc85  1  0.69883687  0.69712512  0.50456284  1
  Sc  Sc86  1  0.49665029  0.29724536  0.51227090  1
  Sc  Sc87  1  0.90789920  0.29613089  0.69789698  1
  Sc  Sc88  1  0.69367918  0.10095415  0.50779603  1
  Sc  Sc89  1  0.49855661  0.10194549  0.70426505  1
  Sc  Sc90  1  0.30772420  0.89891203  0.89672321  1
  Sc  Sc91  1  0.29807895  0.50111977  0.10682299  1
  Sc  Sc92  1  0.09545195  0.30495128  0.30268902  1
  Sc  Sc93  1  0.69072292  0.09629774  0.89728287  1
  Sc  Sc94  1  0.69366745  0.69958855  0.89118666  1
  Sc  Sc95  1  0.89716426  0.69928825  0.49676633  1
  Sc  Sc96  1  0.50578717  0.08786795  0.09493368  1
  Sc  Sc97  1  0.69518888  0.30788505  0.10683128  1
  Sc  Sc98  1  0.30832312  0.70309609  0.69498701  1
  Sc  Sc99  1  0.10577304  0.49321316  0.50156577  1
  Nb  Nb100  1  0.30064708  0.90302950  0.10032072  1
  Nb  Nb101  1  0.90080368  0.90012891  0.90336649  1
  Nb  Nb102  1  0.29908562  0.10373957  0.10308790  1
  Nb  Nb103  1  0.10082441  0.30263020  0.69749316  1
  Nb  Nb104  1  0.30002241  0.50343319  0.68767366  1
  Nb  Nb105  1  0.29905806  0.49891576  0.31518399  1
  Nb  Nb106  1  0.69298943  0.29320921  0.29719805  1
  Nb  Nb107  1  0.30615199  0.10206598  0.30113805  1
  Nb  Nb108  1  0.89008656  0.49968634  0.08509822  1
  Nb  Nb109  1  0.50443071  0.29580492  0.29442199  1
  Nb  Nb110  1  0.69957330  0.10074002  0.29996903  1
  Nb  Nb111  1  0.49006265  0.70253014  0.89527508  1
  Nb  Nb112  1  0.70348829  0.70160343  0.70235032  1
  Nb  Nb113  1  0.89068684  0.29969566  0.30359539  1
  Nb  Nb114  1  0.10477055  0.10534493  0.09433803  1
  Nb  Nb115  1  0.10218870  0.90279932  0.69965783  1
  Nb  Nb116  1  0.29660338  0.09039499  0.69473742  1
  Nb  Nb117  1  0.90124063  0.29544335  0.89879091  1
  Nb  Nb118  1  0.89808803  0.90507763  0.09342167  1
  Nb  Nb119  1  0.29487073  0.90925853  0.70139067  1
  Nb  Nb120  1  0.89802830  0.49461449  0.90539413  1
  Nb  Nb121  1  0.50024567  0.10021860  0.89904032  1
  Nb  Nb122  1  0.09840951  0.10251667  0.90244640  1
  Nb  Nb123  1  0.30433068  0.49675127  0.49223349  1
  Nb  Nb124  1  0.48221999  0.89481199  0.70245589  1
  Nb  Nb125  1  -0.00686432  0.39767623  -0.00282575  1
  Nb  Nb126  1  0.00786174  0.00398843  0.19042692  1
  Nb  Nb127  1  0.80205259  0.20162181  0.00168158  1
  Nb  Nb128  1  0.20596390  0.80602651  0.20386120  1
  Nb  Nb129  1  0.40155933  0.19275337  0.00175843  1
  Nb  Nb130  1  0.40238250  0.59999848  0.79962797  1
  Nb  Nb131  1  0.40087581  0.19866539  0.19898797  1
  Nb  Nb132  1  0.60783398  0.39924885  0.79807066  1
  Nb  Nb133  1  0.20245167  0.00667458  0.00617807  1
  Nb  Nb134  1  0.79850242  0.00464194  0.39322032  1
  Nb  Nb135  1  0.80383596  0.80376798  0.00156800  1
  Nb  Nb136  1  0.80058576  0.39800485  0.80626616  1
  Nb  Nb137  1  0.79803001  0.80666562  0.39434978  1
  Nb  Nb138  1  0.79496225  0.19991774  0.39216784  1
  Nb  Nb139  1  0.00074694  0.80426742  0.79882450  1
  Nb  Nb140  1  0.20782885  0.00029767  0.39296137  1
  Nb  Nb141  1  0.59484712  0.38999804  0.39479169  1
  Nb  Nb142  1  0.00364922  -0.00341211  0.80317615  1
  Nb  Nb143  1  0.19738192  0.80372990  0.79220451  1
  Nb  Nb144  1  0.40393339  0.20352226  0.39139155  1
  Nb  Nb145  1  -0.00239398  0.59892883  0.60409845  1
  Nb  Nb146  1  0.00345836  0.79853748  0.61050542  1
  Nb  Nb147  1  0.19657051  0.80508989  0.59876788  1
  Nb  Nb148  1  0.20426634  0.80602243  0.40128220  1
  Nb  Nb149  1  0.20236795  0.00495852  0.19846516  1
  Pd  Pd150  1  0.58999473  0.59694009  0.20283722  1
  Pd  Pd151  1  0.60452091  -0.00315607  0.40783828  1
  Pd  Pd152  1  0.60635943  0.80529818  -0.01051515  1
  Pd  Pd153  1  0.59117058  0.59010134  0.39926106  1
  Pd  Pd154  1  0.00823611  0.00114942  -0.00002202  1
  Pd  Pd155  1  0.19498231  0.60172011  0.59183974  1
  Pd  Pd156  1  0.19411910  0.60314294  0.40268207  1
  Pd  Pd157  1  0.39323256  0.00539814  -0.00408007  1
  Pd  Pd158  1  -0.00360892  0.00038191  0.60823510  1
  Pd  Pd159  1  0.59612193  0.60052802  -0.00680940  1
  Pd  Pd160  1  0.60422993  -0.00698254  -0.00318556  1
  Pd  Pd161  1  0.21674291  0.60467478  0.80255932  1
  Pd  Pd162  1  0.79271173  0.20017909  0.80870175  1
  Pd  Pd163  1  0.00558005  0.39953492  0.40261543  1
  Pd  Pd164  1  -0.00697512  0.79090264  -0.00059208  1
  Pd  Pd165  1  0.59885089  0.19143508  0.18783057  1
  Pd  Pd166  1  0.59939362  0.20489488  0.41158596  1
  Pd  Pd167  1  0.60676564  0.80318686  0.40512803  1
  Pd  Pd168  1  0.39766980  0.79862750  0.40736897  1
  Pd  Pd169  1  0.60434253  0.20182510  0.79384198  1
  Pd  Pd170  1  0.59659560  0.60360879  0.59550093  1
  Pd  Pd171  1  0.39553129  0.19404209  0.80103120  1
  Pd  Pd172  1  0.80596085  0.59111903  0.20623892  1
  Pd  Pd173  1  0.59692141  0.80137515  0.59975651  1
  Pd  Pd174  1  0.00031044  0.01142391  0.39058312  1
  Pd  Pd175  1  0.39433669  0.39695304  0.19697144  1
  Pd  Pd176  1  -0.00752409  0.60568497  0.79795616  1
  Pd  Pd177  1  0.41197659  0.60170176  0.39640016  1
  Pd  Pd178  1  0.79438388  0.40669601  0.20775218  1
  Pd  Pd179  1  0.39719502  0.41032225  0.79717611  1
  Pd  Pd180  1  0.00100557  0.40603377  0.19421873  1
  Pd  Pd181  1  0.60231358  0.19180858  0.00946076  1
  Pd  Pd182  1  -0.00419214  0.58617127  0.19565185  1
  Pd  Pd183  1  0.79980305  0.60552788  0.39834781  1
  Pd  Pd184  1  0.59915620  0.19896818  0.60472277  1
  Pd  Pd185  1  0.40045089  0.59999687  0.19866708  1
  Pd  Pd186  1  0.40824312  0.60210578  0.60533013  1
  Pd  Pd187  1  0.80391234  0.79993730  0.19916017  1
  Pd  Pd188  1  0.19077145  0.40368813  -0.00494485  1
  Pd  Pd189  1  0.58854898  -0.00723186  0.61097939  1
  Pd  Pd190  1  0.40541772  0.00642857  0.19578317  1
  Pd  Pd191  1  0.39670742  0.59567596  -0.00399293  1
  Pd  Pd192  1  0.59581620  0.80262023  0.80269400  1
  Pd  Pd193  1  0.00477663  0.20162028  0.20090926  1
  Pd  Pd194  1  0.20332368  0.20222991  0.20652599  1
  Pd  Pd195  1  0.61084406  0.39808369  0.60281053  1
  Pd  Pd196  1  0.20765879  0.40150249  0.79930956  1
  Pd  Pd197  1  0.21251776  0.19611063  -0.01296545  1
  Pd  Pd198  1  0.79467747  0.40120818  0.61232478  1
  Pd  Pd199  1  0.19613014  0.40519879  0.20567476  1
  Rh  Rh200  1  0.40398252  0.00390971  0.60731603  1
  Rh  Rh201  1  0.20506297  0.60165341  0.20380612  1
  Rh  Rh202  1  0.80412252  0.79368097  0.81390136  1
  Rh  Rh203  1  0.40008750  0.01095092  0.40715625  1
  Rh  Rh204  1  0.00233101  0.80126128  0.18836881  1
  Rh  Rh205  1  0.00218322  0.59051227  0.00590048  1
  Rh  Rh206  1  0.39226277  0.79399163  0.79714833  1
  Rh  Rh207  1  0.80934102  0.01126344  0.58746102  1
  Rh  Rh208  1  0.00404466  0.40177837  0.59854611  1
  Rh  Rh209  1  0.80281927  0.79431907  0.59001598  1
  Rh  Rh210  1  0.39757940  0.79352221  0.19150038  1
  Rh  Rh211  1  0.19543131  -0.00325024  0.80875896  1
  Rh  Rh212  1  0.80203734  0.60033905  0.59517413  1
  Rh  Rh213  1  0.80869021  -0.00278115  0.20437064  1
  Rh  Rh214  1  0.80338691  0.19474887  0.58818277  1
  Rh  Rh215  1  -0.00608320  0.39254391  0.80361205  1
  Rh  Rh216  1  -0.00619438  0.20870905  0.00435013  1
  Rh  Rh217  1  0.80280133  0.59866791  0.80857330  1
  Rh  Rh218  1  0.00829004  0.19426514  0.79217518  1
  Rh  Rh219  1  -0.00866624  0.20938544  0.39940170  1
  Rh  Rh220  1  0.39601099  0.80089593  0.60073918  1
  Rh  Rh221  1  0.19471874  0.40285174  0.39834072  1
  Rh  Rh222  1  0.60310398  0.40833149  0.20793220  1
  Rh  Rh223  1  0.39687079  0.39224557  0.00520013  1
  Rh  Rh224  1  0.59769626  0.40686559  -0.00210719  1
  Rh  Rh225  1  0.58991138  -0.00529738  0.79401509  1
  Rh  Rh226  1  0.19879520  0.20054008  0.60089626  1
  Rh  Rh227  1  0.80507661  0.38773629  -0.00277761  1
  Rh  Rh228  1  0.20459921  0.40108860  0.59994504  1
  Rh  Rh229  1  0.40413280  0.00493975  0.79504937  1
  Rh  Rh230  1  0.40847526  0.39089268  0.39911138  1
  Rh  Rh231  1  0.39115718  0.39918481  0.60405575  1
  Rh  Rh232  1  0.58871592  0.59664081  0.80441630  1
  Rh  Rh233  1  0.20875164  0.19730612  0.40142847  1
  Rh  Rh234  1  0.79451803  0.00049747  -0.00630382  1
  Rh  Rh235  1  0.39576758  0.19770139  0.60070791  1
  Rh  Rh236  1  0.79504092  0.61295599  -0.00183750  1
  Rh  Rh237  1  0.59406806  0.79979322  0.19616206  1
  Rh  Rh238  1  0.20026996  -0.00352201  0.58679163  1
  Rh  Rh239  1  0.20074028  0.19918564  0.79749451  1
  Rh  Rh240  1  0.21070456  0.80473927  0.00324293  1
  Rh  Rh241  1  0.80537397  0.00521066  0.80683717  1
  Rh  Rh242  1  -0.00203589  0.58762609  0.40888107  1
  Rh  Rh243  1  0.00847855  0.20493090  0.60368375  1
  Rh  Rh244  1  0.78966064  0.20406318  0.19668968  1
  Rh  Rh245  1  0.39866826  0.80315440  0.00129716  1
  Rh  Rh246  1  0.59545727  -0.00189959  0.19618607  1
  Rh  Rh247  1  -0.00376479  0.80286513  0.41383386  1
  Rh  Rh248  1  0.20177583  0.59438292  0.00105903  1
  Rh  Rh249  1  0.78591615  0.39074224  0.39259398  1
