# generated using pymatgen
data_ZrScNbPdRh
_symmetry_space_group_name_H-M   'P 1'
_cell_length_a   16.56026293
_cell_length_b   16.55260388
_cell_length_c   16.55887621
_cell_angle_alpha   90.00932036
_cell_angle_beta   90.02472077
_cell_angle_gamma   90.02590815
_symmetry_Int_Tables_number   1
_chemical_formula_structural   ZrScNbPdRh
_chemical_formula_sum   'Zr50 Sc50 Nb50 Pd50 Rh50'
_cell_volume   4539.04322796
_cell_formula_units_Z   50
loop_
 _symmetry_equiv_pos_site_id
 _symmetry_equiv_pos_as_xyz
  1  'x, y, z'
loop_
 _atom_site_type_symbol
 _atom_site_label
 _atom_site_symmetry_multiplicity
 _atom_site_fract_x
 _atom_site_fract_y
 _atom_site_fract_z
 _atom_site_occupancy
  Zr  Zr0  1  0.09863522  0.88980397  0.29743606  1
  Zr  Zr1  1  0.09288210  0.49794565  0.49426374  1
  Zr  Zr2  1  0.70682517  0.70257720  0.10182521  1
  Zr  Zr3  1  0.29594370  0.50147317  0.50842400  1
  Zr  Zr4  1  0.70081891  0.30204683  0.69864019  1
  Zr  Zr5  1  0.70997493  0.50333267  0.10846711  1
  Zr  Zr6  1  0.30502261  0.29680722  0.30631642  1
  Zr  Zr7  1  0.50078276  0.90365650  0.50216866  1
  Zr  Zr8  1  0.09991041  0.09305509  0.90054320  1
  Zr  Zr9  1  0.10054543  0.90439839  0.71084424  1
  Zr  Zr10  1  0.90024635  0.70950502  0.69803903  1
  Zr  Zr11  1  0.70421502  0.50151767  0.50265937  1
  Zr  Zr12  1  0.70822654  0.90335763  0.70246436  1
  Zr  Zr13  1  0.29871575  0.10031618  0.69766069  1
  Zr  Zr14  1  0.90136667  0.70564005  0.09441101  1
  Zr  Zr15  1  0.10020661  0.90084251  0.49087153  1
  Zr  Zr16  1  0.30195580  0.69993013  0.09799285  1
  Zr  Zr17  1  0.89852381  0.49225842  0.08945658  1
  Zr  Zr18  1  0.10328935  0.10138444  0.50425980  1
  Zr  Zr19  1  0.30232457  0.50152400  0.89996008  1
  Zr  Zr20  1  0.89931743  0.89781082  0.50500882  1
  Zr  Zr21  1  0.29842128  0.30436725  0.89155092  1
  Zr  Zr22  1  0.10518742  0.29311049  0.69880033  1
  Zr  Zr23  1  0.90228336  0.49527021  0.90148864  1
  Zr  Zr24  1  0.30559237  0.10998837  0.49584085  1
  Zr  Zr25  1  0.70622381  0.90655804  0.29534722  1
  Zr  Zr26  1  0.50545514  0.10238883  0.29515108  1
  Zr  Zr27  1  0.29919177  0.70028095  0.90266676  1
  Zr  Zr28  1  0.70141367  0.50100082  0.90429399  1
  Zr  Zr29  1  0.08944958  0.08586902  0.30217783  1
  Zr  Zr30  1  0.30665819  0.09652396  0.10302475  1
  Zr  Zr31  1  0.71061322  0.30460744  0.09971223  1
  Zr  Zr32  1  0.29463614  0.69486916  0.70759399  1
  Zr  Zr33  1  0.90078569  0.70247839  0.90146144  1
  Zr  Zr34  1  0.70372975  0.69617977  0.50295260  1
  Zr  Zr35  1  0.29648393  0.70137472  0.49760265  1
  Zr  Zr36  1  0.10186139  0.71017840  0.90527394  1
  Zr  Zr37  1  0.30679744  0.49591600  0.70344295  1
  Zr  Zr38  1  0.50567205  0.29382428  0.09194690  1
  Zr  Zr39  1  0.49971031  0.29901435  0.89712666  1
  Zr  Zr40  1  0.49379717  0.70788363  0.09949492  1
  Zr  Zr41  1  0.69377420  0.28538022  0.90013967  1
  Zr  Zr42  1  0.89501172  0.49208109  0.70085339  1
  Zr  Zr43  1  0.90692687  0.91045343  0.29590518  1
  Zr  Zr44  1  0.50643581  0.10373024  0.89926672  1
  Zr  Zr45  1  0.69612758  0.68584450  0.29944224  1
  Zr  Zr46  1  0.49744115  0.50671893  0.30265426  1
  Zr  Zr47  1  0.89796412  0.89593687  0.69974938  1
  Zr  Zr48  1  0.30430588  0.10218299  0.29881497  1
  Zr  Zr49  1  0.49559072  0.90926230  0.10516809  1
  Sc  Sc50  1  0.29774701  0.50698423  0.10272037  1
  Sc  Sc51  1  0.30581291  0.89355260  0.10031174  1
  Sc  Sc52  1  0.30206301  0.89535236  0.49744022  1
  Sc  Sc53  1  0.90010729  0.50338574  0.49800719  1
  Sc  Sc54  1  0.49994336  0.91322107  0.90404114  1
  Sc  Sc55  1  0.89553282  0.10378343  0.69326386  1
  Sc  Sc56  1  0.11003123  0.70445743  0.09463892  1
  Sc  Sc57  1  0.09576598  0.10032058  0.09424188  1
  Sc  Sc58  1  0.48771475  0.69867381  0.49459864  1
  Sc  Sc59  1  0.89757700  0.29384938  0.29184856  1
  Sc  Sc60  1  0.48773612  0.91035165  0.69913420  1
  Sc  Sc61  1  0.90240853  0.71324621  0.28862342  1
  Sc  Sc62  1  0.89101585  0.29808329  0.70056883  1
  Sc  Sc63  1  0.70168044  0.09783367  0.70604878  1
  Sc  Sc64  1  0.29422587  0.29289955  0.10704945  1
  Sc  Sc65  1  0.69875217  0.89946464  0.09567149  1
  Sc  Sc66  1  0.90521440  0.10439999  0.90791977  1
  Sc  Sc67  1  0.88902273  0.10327237  0.50383778  1
  Sc  Sc68  1  0.69659430  0.91824243  0.50355937  1
  Sc  Sc69  1  0.90177657  0.49450971  0.30311871  1
  Sc  Sc70  1  0.69944814  0.28881126  0.29620156  1
  Sc  Sc71  1  0.30143726  0.10016333  0.89891057  1
  Sc  Sc72  1  0.10337084  0.29940025  0.49320035  1
  Sc  Sc73  1  0.09822244  0.49239935  0.30118589  1
  Sc  Sc74  1  0.69713086  0.10469828  0.10083706  1
  Sc  Sc75  1  0.89703637  0.69698570  0.51091903  1
  Sc  Sc76  1  0.09891705  0.28962043  0.09978012  1
  Sc  Sc77  1  0.48997296  0.30069985  0.49601693  1
  Sc  Sc78  1  0.89969732  0.30400523  0.90236074  1
  Sc  Sc79  1  0.08819878  0.70107482  0.50408651  1
  Sc  Sc80  1  0.30182181  0.30225017  0.70235467  1
  Sc  Sc81  1  0.29603391  0.50101985  0.29491305  1
  Sc  Sc82  1  0.09876085  0.29783241  0.90090590  1
  Sc  Sc83  1  0.50126477  0.50138385  0.89571700  1
  Sc  Sc84  1  0.30064274  0.70313572  0.29576763  1
  Sc  Sc85  1  0.50175624  0.69359561  0.90370336  1
  Sc  Sc86  1  0.30170240  0.88981246  0.30115793  1
  Sc  Sc87  1  0.70345462  0.09804294  0.30723284  1
  Sc  Sc88  1  0.09627476  0.49646852  0.90363265  1
  Sc  Sc89  1  0.69768787  0.70241832  0.90654926  1
  Sc  Sc90  1  0.70743530  0.70008636  0.70320393  1
  Sc  Sc91  1  0.10049250  0.89673550  0.09234375  1
  Sc  Sc92  1  0.90959358  0.89494312  0.89456819  1
  Sc  Sc93  1  0.10250755  0.30270820  0.29774189  1
  Sc  Sc94  1  0.69754553  0.49351201  0.70304221  1
  Sc  Sc95  1  0.48486170  0.49546078  0.50314065  1
  Sc  Sc96  1  0.49554124  0.50538587  0.09125693  1
  Sc  Sc97  1  0.11431664  0.49977343  0.69532468  1
  Sc  Sc98  1  0.48862770  0.69635337  0.30241241  1
  Sc  Sc99  1  0.49531470  0.69601278  0.71307754  1
  Nb  Nb100  1  0.90551562  0.09489475  0.29168430  1
  Nb  Nb101  1  0.50078559  0.30545505  0.30033920  1
  Nb  Nb102  1  0.10527271  0.90036369  0.90110931  1
  Nb  Nb103  1  0.28981106  0.89736136  0.88197484  1
  Nb  Nb104  1  0.29843621  0.89483630  0.70706340  1
  Nb  Nb105  1  0.70287354  0.29772568  0.50247401  1
  Nb  Nb106  1  0.09726270  0.70082149  0.69831022  1
  Nb  Nb107  1  0.89858212  0.29624841  0.50431218  1
  Nb  Nb108  1  0.69198766  0.10572703  0.50466698  1
  Nb  Nb109  1  0.30819487  0.30674878  0.49199587  1
  Nb  Nb110  1  0.70029239  0.91089325  0.89607761  1
  Nb  Nb111  1  0.50417656  0.30207562  0.70362894  1
  Nb  Nb112  1  0.10071980  0.10502056  0.69344908  1
  Nb  Nb113  1  0.49599546  0.10441102  0.69291888  1
  Nb  Nb114  1  0.10330416  0.49484655  0.10157634  1
  Nb  Nb115  1  0.69791909  0.09052424  0.90171897  1
  Nb  Nb116  1  0.10107614  0.70413753  0.29716096  1
  Nb  Nb117  1  0.89445137  0.89960507  0.11117205  1
  Nb  Nb118  1  0.49495702  0.09305574  0.09499619  1
  Nb  Nb119  1  0.50366822  0.49719890  0.70152451  1
  Nb  Nb120  1  0.50419879  0.90326096  0.30171170  1
  Nb  Nb121  1  0.90912390  0.10226633  0.10902258  1
  Nb  Nb122  1  0.90271085  0.29507255  0.09741818  1
  Nb  Nb123  1  0.50564088  0.09452625  0.50527024  1
  Nb  Nb124  1  0.69987110  0.49637346  0.30239645  1
  Nb  Nb125  1  0.19983805  0.40079057  0.00427615  1
  Nb  Nb126  1  0.19200070  0.60386590  0.39971398  1
  Nb  Nb127  1  -0.00226385  0.39933096  0.19000068  1
  Nb  Nb128  1  0.79355074  0.80254011  0.39831882  1
  Nb  Nb129  1  -0.00617837  0.19521719  0.39884825  1
  Nb  Nb130  1  0.40733522  0.39568201  0.20162065  1
  Nb  Nb131  1  0.60356819  0.80203278  0.39958833  1
  Nb  Nb132  1  0.79412925  0.39242872  0.40191643  1
  Nb  Nb133  1  0.60333870  0.80918659  0.79958646  1
  Nb  Nb134  1  0.00528073  0.19665488  0.79318210  1
  Nb  Nb135  1  -0.00118519  0.60375742  0.79663260  1
  Nb  Nb136  1  0.00584562  0.00312224  0.60202248  1
  Nb  Nb137  1  0.59753988  0.79857623  0.60217316  1
  Nb  Nb138  1  0.59887876  0.40229054  0.20460331  1
  Nb  Nb139  1  0.20065187  -0.00160693  0.20081094  1
  Nb  Nb140  1  0.80274351  0.00065481  0.00143643  1
  Nb  Nb141  1  0.40839641  0.00399730  0.39939502  1
  Nb  Nb142  1  0.80689233  0.59895515  0.80420012  1
  Nb  Nb143  1  0.60461483  0.39945089  0.39746715  1
  Nb  Nb144  1  0.19906925  0.80097185  0.60942400  1
  Nb  Nb145  1  -0.00070164  0.39337301  0.59650690  1
  Nb  Nb146  1  0.00577281  0.59677517  0.19401453  1
  Nb  Nb147  1  0.59514915  0.60038215  0.60389014  1
  Nb  Nb148  1  0.59859144  0.80051437  0.20701903  1
  Nb  Nb149  1  0.59557594  0.20060557  0.59999499  1
  Pd  Pd150  1  0.80342250  0.00099389  0.40415433  1
  Pd  Pd151  1  0.59502483  0.20515951  0.40688980  1
  Pd  Pd152  1  0.41152744  0.80395299  0.80860457  1
  Pd  Pd153  1  0.40049018  0.19696047  0.79866468  1
  Pd  Pd154  1  0.21123714  0.21120957  0.59341696  1
  Pd  Pd155  1  -0.01123453  0.79173841  0.40296416  1
  Pd  Pd156  1  0.81657887  0.59677513  0.20563209  1
  Pd  Pd157  1  0.21278783  -0.00363247  0.39332515  1
  Pd  Pd158  1  0.59603980  0.80873614  -0.00210521  1
  Pd  Pd159  1  0.20591094  0.40681333  0.39825338  1
  Pd  Pd160  1  0.18987277  0.59746634  0.80853039  1
  Pd  Pd161  1  0.79998844  0.19157994  0.19973018  1
  Pd  Pd162  1  -0.00275067  0.60991994  0.38819898  1
  Pd  Pd163  1  0.81348189  0.60389799  0.39258799  1
  Pd  Pd164  1  0.00883578  0.39744315  0.78997306  1
  Pd  Pd165  1  0.80207789  0.81358034  -0.00616509  1
  Pd  Pd166  1  0.18942537  0.18980583  0.20589980  1
  Pd  Pd167  1  0.40766168  0.20541965  0.19770349  1
  Pd  Pd168  1  0.00068330  0.58859465  0.60888934  1
  Pd  Pd169  1  0.39527914  0.20133809  -0.00243348  1
  Pd  Pd170  1  0.60141632  0.60018481  0.00725743  1
  Pd  Pd171  1  0.19105816  0.19952393  0.39486144  1
  Pd  Pd172  1  0.38911819  0.39833540  0.01005873  1
  Pd  Pd173  1  0.40491497  0.60448931  0.60740857  1
  Pd  Pd174  1  0.38929228  -0.00494913  -0.01038781  1
  Pd  Pd175  1  0.59933879  0.20159623  0.19430936  1
  Pd  Pd176  1  0.00809406  0.60165240  0.00088511  1
  Pd  Pd177  1  0.80480864  0.20025703  0.39772983  1
  Pd  Pd178  1  0.39887199  0.80915856  -0.01228048  1
  Pd  Pd179  1  0.80357558  0.19265819  0.00108368  1
  Pd  Pd180  1  0.60709748  0.00020593  0.19473519  1
  Pd  Pd181  1  0.59183256  0.00046804  0.79059892  1
  Pd  Pd182  1  0.40217512  0.20947693  0.60057166  1
  Pd  Pd183  1  0.20274307  0.20283025  -0.00419004  1
  Pd  Pd184  1  0.59160069  0.59664053  0.41276292  1
  Pd  Pd185  1  0.80638646  0.19527541  0.80437477  1
  Pd  Pd186  1  0.38771675  -0.00139415  0.59503899  1
  Pd  Pd187  1  0.39872119  0.79397452  0.60634262  1
  Pd  Pd188  1  0.20231560  0.00969072  0.79811811  1
  Pd  Pd189  1  0.59089046  0.39883704  0.59116935  1
  Pd  Pd190  1  0.19367606  0.60213792  0.20625962  1
  Pd  Pd191  1  0.19821390  0.39097424  0.59451745  1
  Pd  Pd192  1  0.59130375  0.60071042  0.19148435  1
  Pd  Pd193  1  0.81410576  0.00623955  0.80945804  1
  Pd  Pd194  1  0.60148252  0.40009231  0.80574511  1
  Pd  Pd195  1  0.20915464  -0.00589192  0.00632740  1
  Pd  Pd196  1  0.20397245  -0.00852201  0.59955481  1
  Pd  Pd197  1  -0.00980481  -0.00829129  0.00572486  1
  Pd  Pd198  1  -0.00658839  0.00945072  0.79321253  1
  Pd  Pd199  1  0.60473663  0.40442600  0.00520003  1
  Rh  Rh200  1  0.79487558  0.39259281  -0.00722695  1
  Rh  Rh201  1  0.79862270  0.60189643  -0.00475591  1
  Rh  Rh202  1  0.19388012  0.61068442  0.59017615  1
  Rh  Rh203  1  0.79006646  0.79562984  0.81050179  1
  Rh  Rh204  1  0.19874580  0.59290439  -0.00293351  1
  Rh  Rh205  1  0.40124887  0.39346157  0.60860887  1
  Rh  Rh206  1  0.20007332  0.80451007  0.19556713  1
  Rh  Rh207  1  0.00862418  0.79635013  0.80090044  1
  Rh  Rh208  1  0.59702773  0.00156887  0.39890486  1
  Rh  Rh209  1  0.01134139  0.81378751  0.60190365  1
  Rh  Rh210  1  0.41113929  0.19351582  0.40062000  1
  Rh  Rh211  1  0.39995902  0.59699566  0.19710066  1
  Rh  Rh212  1  0.19461862  0.79053960  0.40539269  1
  Rh  Rh213  1  0.78749314  0.19708636  0.60282407  1
  Rh  Rh214  1  0.38240562  0.59438038  0.39882033  1
  Rh  Rh215  1  0.39406048  -0.00334453  0.20923832  1
  Rh  Rh216  1  0.80282877  0.39780128  0.20733679  1
  Rh  Rh217  1  0.60283401  0.00474783  0.61061366  1
  Rh  Rh218  1  0.78651977  0.80887519  0.58796201  1
  Rh  Rh219  1  -0.01196737  0.01064632  0.41476068  1
  Rh  Rh220  1  0.19260484  0.79513933  0.79653270  1
  Rh  Rh221  1  0.79438059  0.59197956  0.61306577  1
  Rh  Rh222  1  0.20131927  0.39632343  0.19287679  1
  Rh  Rh223  1  0.39758800  0.00693787  0.79941318  1
  Rh  Rh224  1  0.19649274  0.40446348  0.80782032  1
  Rh  Rh225  1  0.79102152  0.79950318  0.20618404  1
  Rh  Rh226  1  0.40245043  0.59403363  0.80158364  1
  Rh  Rh227  1  0.39897590  0.60250332  -0.00223633  1
  Rh  Rh228  1  0.19499472  0.19441135  0.80366262  1
  Rh  Rh229  1  0.00930080  -0.00637667  0.18736511  1
  Rh  Rh230  1  0.60551114  0.00373009  0.00663935  1
  Rh  Rh231  1  0.40819462  0.40094984  0.79693420  1
  Rh  Rh232  1  0.60776746  0.60666559  0.79256273  1
  Rh  Rh233  1  0.00301838  0.20441985  0.20623477  1
  Rh  Rh234  1  0.80276905  0.00428200  0.59993132  1
  Rh  Rh235  1  0.40828163  0.80811765  0.39656961  1
  Rh  Rh236  1  0.00771025  0.79501391  0.18810035  1
  Rh  Rh237  1  0.79982333  0.00887804  0.18911584  1
  Rh  Rh238  1  0.21025036  0.80955378  -0.00318907  1
  Rh  Rh239  1  0.79020740  0.39857893  0.80945676  1
  Rh  Rh240  1  0.59917885  0.19451626  0.79102053  1
  Rh  Rh241  1  -0.00180933  0.20146820  0.59835511  1
  Rh  Rh242  1  0.00945247  0.38938462  0.00811541  1
  Rh  Rh243  1  0.60079742  0.19189274  0.00317884  1
  Rh  Rh244  1  0.80777404  0.40237037  0.59134709  1
  Rh  Rh245  1  -0.00148607  0.20334134  -0.00734428  1
  Rh  Rh246  1  -0.00231382  0.80807311  0.00330491  1
  Rh  Rh247  1  0.40665619  0.80083446  0.20533879  1
  Rh  Rh248  1  0.39818820  0.40715123  0.39251728  1
  Rh  Rh249  1  -0.01438307  0.38310669  0.39911706  1
