# generated using pymatgen
data_ZrScNbPdRh
_symmetry_space_group_name_H-M   'P 1'
_cell_length_a   16.55914378
_cell_length_b   16.55860172
_cell_length_c   16.55787322
_cell_angle_alpha   89.99342764
_cell_angle_beta   90.03670644
_cell_angle_gamma   89.99249042
_symmetry_Int_Tables_number   1
_chemical_formula_structural   ZrScNbPdRh
_chemical_formula_sum   'Zr50 Sc50 Nb50 Pd50 Rh50'
_cell_volume   4540.10602048
_cell_formula_units_Z   50
loop_
 _symmetry_equiv_pos_site_id
 _symmetry_equiv_pos_as_xyz
  1  'x, y, z'
loop_
 _atom_site_type_symbol
 _atom_site_label
 _atom_site_symmetry_multiplicity
 _atom_site_fract_x
 _atom_site_fract_y
 _atom_site_fract_z
 _atom_site_occupancy
  Zr  Zr0  1  0.09902746  0.09867839  0.30309457  1
  Zr  Zr1  1  0.69761040  0.09594590  0.09226771  1
  Zr  Zr2  1  0.90051225  0.89807376  0.09487421  1
  Zr  Zr3  1  0.30923173  0.89956579  0.70585111  1
  Zr  Zr4  1  0.90863701  0.29631671  0.09268086  1
  Zr  Zr5  1  0.30272473  0.69237991  0.70210655  1
  Zr  Zr6  1  0.49502797  0.29906753  0.49439256  1
  Zr  Zr7  1  0.49990702  0.69329905  0.89238587  1
  Zr  Zr8  1  0.09930253  0.10089707  0.10363861  1
  Zr  Zr9  1  0.30054542  0.90527360  0.09986513  1
  Zr  Zr10  1  0.49109472  0.70144499  0.69737896  1
  Zr  Zr11  1  0.11547562  0.30035472  0.49819913  1
  Zr  Zr12  1  0.50273356  0.49173408  0.90831577  1
  Zr  Zr13  1  0.89883351  0.29076345  0.29783257  1
  Zr  Zr14  1  0.89370950  0.29831820  0.50556030  1
  Zr  Zr15  1  0.89747953  0.10411899  0.09380147  1
  Zr  Zr16  1  0.50063738  0.50146323  0.10668411  1
  Zr  Zr17  1  0.09862292  0.50291294  0.09262180  1
  Zr  Zr18  1  0.71112864  0.70597962  0.30514388  1
  Zr  Zr19  1  0.49740611  0.49684248  0.29392104  1
  Zr  Zr20  1  0.10731021  0.49775106  0.30185906  1
  Zr  Zr21  1  0.68963591  0.29194034  0.29975998  1
  Zr  Zr22  1  0.50385839  0.31071127  0.09189667  1
  Zr  Zr23  1  0.09124834  0.09204749  0.70068641  1
  Zr  Zr24  1  0.29978458  0.30385310  0.31294595  1
  Zr  Zr25  1  0.49904718  0.09418323  0.70361771  1
  Zr  Zr26  1  0.89923346  0.30047927  0.70600950  1
  Zr  Zr27  1  0.50049133  0.90008695  0.50350811  1
  Zr  Zr28  1  0.10529409  0.90121937  0.09742028  1
  Zr  Zr29  1  0.50457377  0.09871946  0.90262443  1
  Zr  Zr30  1  0.69445679  0.09902385  0.49819256  1
  Zr  Zr31  1  0.70601696  0.89706476  0.10614433  1
  Zr  Zr32  1  0.10048342  0.89938541  0.70725546  1
  Zr  Zr33  1  0.49375937  0.50012421  0.49876281  1
  Zr  Zr34  1  0.10058162  0.69847869  0.50514542  1
  Zr  Zr35  1  0.50252547  0.69707930  0.10728389  1
  Zr  Zr36  1  0.29785496  0.91276949  0.90223195  1
  Zr  Zr37  1  0.10108720  0.70669697  0.30391581  1
  Zr  Zr38  1  0.09998698  0.29187044  0.30144443  1
  Zr  Zr39  1  0.90078550  0.50416464  0.09352332  1
  Zr  Zr40  1  0.69789152  0.29278940  0.09994098  1
  Zr  Zr41  1  0.69833178  0.09839977  0.29713360  1
  Zr  Zr42  1  0.30253209  0.31199869  0.69962990  1
  Zr  Zr43  1  0.90002533  0.91231317  0.70214159  1
  Zr  Zr44  1  0.10372177  0.50007306  0.50659824  1
  Zr  Zr45  1  0.89438398  0.50152404  0.50212522  1
  Zr  Zr46  1  0.90644455  0.69872826  0.70536588  1
  Zr  Zr47  1  0.49648294  0.90920742  0.89176285  1
  Zr  Zr48  1  0.10720579  0.10485396  0.50339788  1
  Zr  Zr49  1  0.68826139  0.68977619  0.69963269  1
  Sc  Sc50  1  0.10195071  0.89901927  0.89756526  1
  Sc  Sc51  1  0.29930648  0.69882291  0.88840974  1
  Sc  Sc52  1  0.49965714  0.09816204  0.09376090  1
  Sc  Sc53  1  0.09863005  0.50562010  0.90033993  1
  Sc  Sc54  1  0.29774118  0.09475498  0.69402040  1
  Sc  Sc55  1  0.89580071  0.70684279  0.09568083  1
  Sc  Sc56  1  0.09343480  0.69868655  0.89399999  1
  Sc  Sc57  1  0.69713444  0.10162675  0.89629275  1
  Sc  Sc58  1  0.30794220  0.90241305  0.50205929  1
  Sc  Sc59  1  0.49401676  0.50284285  0.69591916  1
  Sc  Sc60  1  0.69448281  0.49393589  0.50484571  1
  Sc  Sc61  1  0.30673013  0.09371665  0.30104632  1
  Sc  Sc62  1  0.69017983  0.29679445  0.50200396  1
  Sc  Sc63  1  0.90229624  0.89123780  0.29479096  1
  Sc  Sc64  1  0.09746360  0.90156298  0.29407107  1
  Sc  Sc65  1  0.90624233  0.09215844  0.50669698  1
  Sc  Sc66  1  0.10187624  0.29393764  0.70937418  1
  Sc  Sc67  1  0.50007794  0.89634015  0.30107332  1
  Sc  Sc68  1  0.69807791  0.30732862  0.70211444  1
  Sc  Sc69  1  0.50174065  0.09770679  0.30537920  1
  Sc  Sc70  1  0.11021481  0.10030800  0.89271098  1
  Sc  Sc71  1  0.30491670  0.70425352  0.50601310  1
  Sc  Sc72  1  0.29899163  0.50905695  0.10178833  1
  Sc  Sc73  1  0.49129751  0.10503693  0.50309211  1
  Sc  Sc74  1  0.49878595  0.30038753  0.69586931  1
  Sc  Sc75  1  0.30464490  0.70469504  0.29844001  1
  Sc  Sc76  1  0.90612446  0.50285193  0.89344644  1
  Sc  Sc77  1  0.69999126  0.50810559  0.29480758  1
  Sc  Sc78  1  0.91233283  0.30030423  0.89893096  1
  Sc  Sc79  1  0.89277175  0.51109976  0.30340456  1
  Sc  Sc80  1  0.70543925  0.69727488  0.10248089  1
  Sc  Sc81  1  0.90831526  0.09589320  0.29698944  1
  Sc  Sc82  1  0.50262305  0.90148104  0.10471112  1
  Sc  Sc83  1  0.10278976  0.51060279  0.70151187  1
  Sc  Sc84  1  0.50192449  0.70220514  0.51130108  1
  Sc  Sc85  1  0.70201416  0.90793706  0.90619012  1
  Sc  Sc86  1  0.09570879  0.89240692  0.50230056  1
  Sc  Sc87  1  0.90243765  0.89188802  0.89934178  1
  Sc  Sc88  1  0.31027208  0.50137219  0.30152354  1
  Sc  Sc89  1  0.10395528  0.70325215  0.09241424  1
  Sc  Sc90  1  0.67900278  0.30326265  0.89966832  1
  Sc  Sc91  1  0.70594625  0.90996344  0.70023412  1
  Sc  Sc92  1  0.30680349  0.89687154  0.29902055  1
  Sc  Sc93  1  0.90385686  0.70014418  0.90639761  1
  Sc  Sc94  1  0.30191603  0.49440302  0.88820753  1
  Sc  Sc95  1  0.29500373  0.70814286  0.10751610  1
  Sc  Sc96  1  0.30075624  0.29618110  0.07285834  1
  Sc  Sc97  1  0.90147010  0.69890146  0.48741895  1
  Sc  Sc98  1  0.69190967  0.50812469  0.10044910  1
  Sc  Sc99  1  0.10410583  0.70115519  0.70127543  1
  Nb  Nb100  1  0.30108073  0.10562552  0.50108727  1
  Nb  Nb101  1  0.89168509  0.49148581  0.69905753  1
  Nb  Nb102  1  0.88761127  0.89913642  0.50519938  1
  Nb  Nb103  1  0.69886628  0.70153675  0.50095732  1
  Nb  Nb104  1  0.29979138  0.29680097  0.50436932  1
  Nb  Nb105  1  0.49859773  0.90440192  0.70269966  1
  Nb  Nb106  1  0.89960564  0.09790456  0.88854325  1
  Nb  Nb107  1  0.89308337  0.09872867  0.70828127  1
  Nb  Nb108  1  0.30046058  0.50242581  0.69131251  1
  Nb  Nb109  1  0.69997526  0.89221398  0.49471492  1
  Nb  Nb110  1  0.89800290  0.69493191  0.29670841  1
  Nb  Nb111  1  0.09929663  0.30242796  0.09528431  1
  Nb  Nb112  1  0.30461589  0.10595961  0.91427211  1
  Nb  Nb113  1  0.49709503  0.69213360  0.29763618  1
  Nb  Nb114  1  0.30007347  0.29779616  0.89404401  1
  Nb  Nb115  1  0.71150181  0.49811615  0.70287969  1
  Nb  Nb116  1  0.69475586  0.69511443  0.89871485  1
  Nb  Nb117  1  0.11533841  0.30399875  0.91051146  1
  Nb  Nb118  1  0.69842202  0.50447503  0.89671474  1
  Nb  Nb119  1  0.30055952  0.10001129  0.09377018  1
  Nb  Nb120  1  0.29415392  0.48539567  0.50841035  1
  Nb  Nb121  1  0.49563293  0.30593771  0.29274327  1
  Nb  Nb122  1  0.70625856  0.09748827  0.70356174  1
  Nb  Nb123  1  0.48610476  0.30484170  0.90344029  1
  Nb  Nb124  1  0.70139744  0.89878691  0.30643234  1
  Nb  Nb125  1  0.60235431  -0.00169619  0.60135350  1
  Nb  Nb126  1  0.80304383  0.39660797  0.19709569  1
  Nb  Nb127  1  0.79922414  0.19176388  0.60950459  1
  Nb  Nb128  1  0.20071120  0.00263746  0.40565817  1
  Nb  Nb129  1  0.19640224  0.39053327  0.19404419  1
  Nb  Nb130  1  0.00024526  0.40180622  0.20189101  1
  Nb  Nb131  1  0.00078085  0.60135341  0.20186477  1
  Nb  Nb132  1  0.20753369  0.20287314  0.19376615  1
  Nb  Nb133  1  0.79661253  0.60147629  0.60466977  1
  Nb  Nb134  1  0.79159430  0.79424166  0.79756172  1
  Nb  Nb135  1  0.20361755  0.59845071  0.40699764  1
  Nb  Nb136  1  0.59737208  0.60675848  0.40009293  1
  Nb  Nb137  1  -0.00133919  0.00495525  -0.00293379  1
  Nb  Nb138  1  -0.00287595  0.39861008  0.40181040  1
  Nb  Nb139  1  0.79662855  0.79633956  0.59958265  1
  Nb  Nb140  1  0.39624319  0.20305911  0.80821947  1
  Nb  Nb141  1  0.39709746  0.20636819  0.19541079  1
  Nb  Nb142  1  0.80026843  0.39486340  0.39437110  1
  Nb  Nb143  1  -0.00197560  0.39984989  0.60137181  1
  Nb  Nb144  1  0.40433883  0.79843093  -0.00317300  1
  Nb  Nb145  1  0.59825280  0.79579901  -0.00627175  1
  Nb  Nb146  1  0.60143554  0.80300701  0.80016351  1
  Nb  Nb147  1  0.79606824  0.40233057  -0.00071026  1
  Nb  Nb148  1  0.79575514  -0.00872680  0.40062335  1
  Nb  Nb149  1  0.40303746  0.60545932  -0.00036083  1
  Pd  Pd150  1  0.79276964  0.21136572  0.80421900  1
  Pd  Pd151  1  0.20036208  0.60083570  0.20839518  1
  Pd  Pd152  1  -0.00123427  -0.01006815  0.40602971  1
  Pd  Pd153  1  0.60555334  0.80971826  0.61091262  1
  Pd  Pd154  1  0.00154338  0.79136535  0.19321255  1
  Pd  Pd155  1  0.80227999  0.19236446  0.40842352  1
  Pd  Pd156  1  -0.00536271  0.80490713  0.40050108  1
  Pd  Pd157  1  0.60402875  0.19464669  0.60628192  1
  Pd  Pd158  1  0.20720508  0.79488874  -0.00843280  1
  Pd  Pd159  1  0.20507175  0.80434408  0.40060710  1
  Pd  Pd160  1  0.20512509  0.00239012  0.20820840  1
  Pd  Pd161  1  0.01025098  0.19265181  -0.01334349  1
  Pd  Pd162  1  0.20887061  0.19336183  0.79504450  1
  Pd  Pd163  1  0.59656722  -0.00098846  0.20072087  1
  Pd  Pd164  1  0.80014751  0.19693171  0.19774697  1
  Pd  Pd165  1  0.80733691  0.00139480  -0.00861496  1
  Pd  Pd166  1  -0.00762541  0.59506482  0.60567513  1
  Pd  Pd167  1  0.20977720  0.60294637  -0.01001030  1
  Pd  Pd168  1  -0.00843854  0.80173700  0.60126260  1
  Pd  Pd169  1  0.59225530  0.20294547  0.79706490  1
  Pd  Pd170  1  0.59018130  0.79174381  0.39607756  1
  Pd  Pd171  1  0.20674996  0.80338214  0.60302513  1
  Pd  Pd172  1  0.00640812  0.19950432  0.80715338  1
  Pd  Pd173  1  0.20715142  0.41078004  -0.00001623  1
  Pd  Pd174  1  0.01103179  0.40430475  0.79777681  1
  Pd  Pd175  1  0.59608970  0.40414612  0.60606931  1
  Pd  Pd176  1  0.80630133  0.60436465  0.80094540  1
  Pd  Pd177  1  0.19363036  0.40726314  0.79662545  1
  Pd  Pd178  1  0.20427890  0.20215790  0.61306879  1
  Pd  Pd179  1  0.59167080  0.40622883  0.79254993  1
  Pd  Pd180  1  0.59238570  0.58978320  0.79524401  1
  Pd  Pd181  1  0.20097708  0.79901774  0.80228045  1
  Pd  Pd182  1  0.38325827  0.39035957  0.18655207  1
  Pd  Pd183  1  0.39743384  0.60356697  0.40732625  1
  Pd  Pd184  1  0.60463521  0.40702773  0.39187295  1
  Pd  Pd185  1  0.79664576  0.39245583  0.81607539  1
  Pd  Pd186  1  -0.00368861  0.20038462  0.40964367  1
  Pd  Pd187  1  0.19996992  -0.00937836  0.59485739  1
  Pd  Pd188  1  -0.00502627  0.20350780  0.60329442  1
  Pd  Pd189  1  0.59799344  -0.00100463  0.40500660  1
  Pd  Pd190  1  0.58581863  0.19491999  0.19687043  1
  Pd  Pd191  1  0.00702097  0.59553968  0.39461530  1
  Pd  Pd192  1  0.40689692  0.79672458  0.40114392  1
  Pd  Pd193  1  0.40162395  0.19752153  0.39329140  1
  Pd  Pd194  1  0.79576582  0.20864479  -0.01679529  1
  Pd  Pd195  1  0.40631557  0.00644698  0.19928200  1
  Pd  Pd196  1  0.60287396  0.79628819  0.20111673  1
  Pd  Pd197  1  0.79861172  0.59709924  -0.00500148  1
  Pd  Pd198  1  0.80598854  -0.00124729  0.20795669  1
  Pd  Pd199  1  0.00346315  -0.00436726  0.59584680  1
  Rh  Rh200  1  0.59458833  0.20065881  -0.00200112  1
  Rh  Rh201  1  0.79870552  0.39696411  0.59556354  1
  Rh  Rh202  1  -0.00110760  0.39988572  -0.00428564  1
  Rh  Rh203  1  0.79190647  0.00288989  0.59027160  1
  Rh  Rh204  1  0.60493921  0.60776171  0.21132222  1
  Rh  Rh205  1  0.00066884  0.60648830  0.00459634  1
  Rh  Rh206  1  0.40330481  0.39737156  0.59604237  1
  Rh  Rh207  1  0.40878461  0.19916231  -0.00004356  1
  Rh  Rh208  1  -0.00472193  0.80179916  0.79813778  1
  Rh  Rh209  1  0.39680872  0.80400529  0.60506657  1
  Rh  Rh210  1  0.39047037  0.41366161  0.00147454  1
  Rh  Rh211  1  0.60997238  0.40715541  0.00303654  1
  Rh  Rh212  1  0.40342838  0.39972536  0.79586810  1
  Rh  Rh213  1  0.20832236  0.60335158  0.59598488  1
  Rh  Rh214  1  0.58853742  0.20169201  0.39602366  1
  Rh  Rh215  1  0.39857076  0.39941183  0.40701356  1
  Rh  Rh216  1  0.00531291  0.20091858  0.19683451  1
  Rh  Rh217  1  0.38905835  0.01533414  0.80291316  1
  Rh  Rh218  1  0.40217396  0.80027800  0.19599122  1
  Rh  Rh219  1  0.19040400  0.39641943  0.61161086  1
  Rh  Rh220  1  0.20127489  0.59786002  0.79778908  1
  Rh  Rh221  1  0.39334011  0.20360969  0.60809601  1
  Rh  Rh222  1  -0.00610281  -0.00194179  0.18933979  1
  Rh  Rh223  1  0.80641295  0.59981695  0.19500673  1
  Rh  Rh224  1  0.80196341  0.80069631  0.20247428  1
  Rh  Rh225  1  0.78507592  0.59357976  0.41074546  1
  Rh  Rh226  1  0.60889700  0.39999719  0.20166244  1
  Rh  Rh227  1  0.60105516  -0.00694701  0.00496155  1
  Rh  Rh228  1  0.79971942  -0.00573667  0.80928200  1
  Rh  Rh229  1  0.60401968  0.59084223  0.59446697  1
  Rh  Rh230  1  0.59598027  0.60203751  0.00216430  1
  Rh  Rh231  1  -0.00027572  -0.00142599  0.80797491  1
  Rh  Rh232  1  0.40379552  0.80278305  0.80327779  1
  Rh  Rh233  1  0.78779922  0.79561679  -0.00955610  1
  Rh  Rh234  1  0.40424774  -0.00661367  0.00464484  1
  Rh  Rh235  1  0.40612826  0.00143148  0.59673779  1
  Rh  Rh236  1  0.39469518  0.00105964  0.40570426  1
  Rh  Rh237  1  0.21050199  0.18745108  0.39351294  1
  Rh  Rh238  1  0.19352052  0.19538513  0.00191325  1
  Rh  Rh239  1  0.80768304  0.80265296  0.40234403  1
  Rh  Rh240  1  0.60753882  -0.00339297  0.79426107  1
  Rh  Rh241  1  0.39411596  0.59675875  0.59420693  1
  Rh  Rh242  1  0.39324812  0.60481956  0.19482320  1
  Rh  Rh243  1  0.00638225  0.80775086  0.00015576  1
  Rh  Rh244  1  0.19903660  0.80586352  0.20359684  1
  Rh  Rh245  1  0.20600496  0.00519581  0.80081854  1
  Rh  Rh246  1  0.19240604  0.00685123  -0.00183989  1
  Rh  Rh247  1  0.20324286  0.40630322  0.39760522  1
  Rh  Rh248  1  -0.00175901  0.59717696  0.79688181  1
  Rh  Rh249  1  0.40053983  0.58896878  0.80158583  1
