# generated using pymatgen
data_ZrScNbPdRh
_symmetry_space_group_name_H-M   'P 1'
_cell_length_a   16.56638552
_cell_length_b   16.56517920
_cell_length_c   16.56555399
_cell_angle_alpha   89.97018337
_cell_angle_beta   90.04257316
_cell_angle_gamma   90.00951009
_symmetry_Int_Tables_number   1
_chemical_formula_structural   ZrScNbPdRh
_chemical_formula_sum   'Zr50 Sc50 Nb50 Pd50 Rh50'
_cell_volume   4546.00261981
_cell_formula_units_Z   50
loop_
 _symmetry_equiv_pos_site_id
 _symmetry_equiv_pos_as_xyz
  1  'x, y, z'
loop_
 _atom_site_type_symbol
 _atom_site_label
 _atom_site_symmetry_multiplicity
 _atom_site_fract_x
 _atom_site_fract_y
 _atom_site_fract_z
 _atom_site_occupancy
  Zr  Zr0  1  0.69223105  0.49879591  0.49783562  1
  Zr  Zr1  1  0.69636234  0.09786545  0.09419270  1
  Zr  Zr2  1  0.31115020  0.89828078  0.10644827  1
  Zr  Zr3  1  0.10396054  0.49040480  0.70081828  1
  Zr  Zr4  1  0.49997070  0.50266123  0.70380063  1
  Zr  Zr5  1  0.09912047  0.90747819  0.09484313  1
  Zr  Zr6  1  0.90584346  0.29878926  0.29798349  1
  Zr  Zr7  1  0.29713854  0.50471435  0.09381457  1
  Zr  Zr8  1  0.90737494  0.69780321  0.69337988  1
  Zr  Zr9  1  0.89293220  0.90319873  0.30271479  1
  Zr  Zr10  1  0.70706108  0.10204247  0.89612010  1
  Zr  Zr11  1  0.10529534  0.68915420  0.50394291  1
  Zr  Zr12  1  0.69081554  0.90438110  0.50180874  1
  Zr  Zr13  1  0.10437015  0.89477579  0.71109256  1
  Zr  Zr14  1  0.10167328  0.30354040  0.10090070  1
  Zr  Zr15  1  0.29982479  0.69399918  0.89577132  1
  Zr  Zr16  1  0.70318318  0.29754071  0.90259413  1
  Zr  Zr17  1  0.70954310  0.48978421  0.89394748  1
  Zr  Zr18  1  0.90721209  0.48930502  0.90095152  1
  Zr  Zr19  1  0.89376261  0.10036147  0.30095298  1
  Zr  Zr20  1  0.29799701  0.08949821  0.70315135  1
  Zr  Zr21  1  0.49695528  0.09537404  0.30445570  1
  Zr  Zr22  1  0.90407943  0.91429259  0.89396813  1
  Zr  Zr23  1  0.48365545  0.30699376  0.29950477  1
  Zr  Zr24  1  0.70864274  0.70601446  0.70633310  1
  Zr  Zr25  1  0.89925847  0.50096157  0.70399294  1
  Zr  Zr26  1  0.50516121  0.70444113  0.29709314  1
  Zr  Zr27  1  0.30714438  0.30480030  0.50202570  1
  Zr  Zr28  1  0.70341991  0.49831265  0.09952639  1
  Zr  Zr29  1  0.70373041  0.89182919  0.89668748  1
  Zr  Zr30  1  0.49210903  0.90129291  0.70095646  1
  Zr  Zr31  1  0.90339751  0.69878511  0.50717829  1
  Zr  Zr32  1  0.90864895  0.50369500  0.50288679  1
  Zr  Zr33  1  0.89437791  0.90101447  0.09783827  1
  Zr  Zr34  1  0.49287785  0.30340713  0.70045014  1
  Zr  Zr35  1  0.50099954  0.29901465  0.90502597  1
  Zr  Zr36  1  0.30004843  0.10141939  0.90228766  1
  Zr  Zr37  1  0.28852522  0.30558884  0.69924188  1
  Zr  Zr38  1  0.10029188  0.69085029  0.89651273  1
  Zr  Zr39  1  0.49933331  0.50297855  0.30493702  1
  Zr  Zr40  1  0.49555898  0.10311086  0.10079719  1
  Zr  Zr41  1  0.29906103  0.89627254  0.69245240  1
  Zr  Zr42  1  0.89399681  0.09733149  0.09592715  1
  Zr  Zr43  1  0.69351491  0.89102701  0.30265472  1
  Zr  Zr44  1  0.69714816  0.09982598  0.49904173  1
  Zr  Zr45  1  0.09468863  0.09088505  0.89879129  1
  Zr  Zr46  1  0.89994380  0.09511672  0.49953556  1
  Zr  Zr47  1  0.50276025  0.30061933  0.50331901  1
  Zr  Zr48  1  0.50523493  0.08996252  0.50246987  1
  Zr  Zr49  1  0.69512236  0.09878790  0.69455685  1
  Sc  Sc50  1  0.89822753  0.30154212  0.09327740  1
  Sc  Sc51  1  0.89887662  0.69352328  0.89362500  1
  Sc  Sc52  1  0.70716964  0.89479230  0.69922050  1
  Sc  Sc53  1  0.49883046  0.50566566  0.50161156  1
  Sc  Sc54  1  0.29679683  0.70136611  0.69717275  1
  Sc  Sc55  1  0.30196088  0.08312055  0.50155289  1
  Sc  Sc56  1  0.49164073  0.70710603  0.90088277  1
  Sc  Sc57  1  0.09223628  0.50473863  0.09195287  1
  Sc  Sc58  1  0.30573064  0.49178360  0.30081812  1
  Sc  Sc59  1  0.10261350  0.30736291  0.29348005  1
  Sc  Sc60  1  0.30832378  0.70334404  0.08971081  1
  Sc  Sc61  1  0.90132328  0.50002005  0.09153643  1
  Sc  Sc62  1  0.90241170  0.30569876  0.48712596  1
  Sc  Sc63  1  0.90040827  0.89398341  0.69873911  1
  Sc  Sc64  1  0.10871251  0.10379415  0.08980535  1
  Sc  Sc65  1  0.30177934  0.10999165  0.10280340  1
  Sc  Sc66  1  0.89291676  0.70914485  0.30383315  1
  Sc  Sc67  1  0.69005391  0.70569739  0.50761232  1
  Sc  Sc68  1  0.30177629  0.51320519  0.50471490  1
  Sc  Sc69  1  0.30199418  0.50070499  0.70693456  1
  Sc  Sc70  1  0.49931745  0.71290505  0.09745220  1
  Sc  Sc71  1  0.68818202  0.30407952  0.70995004  1
  Sc  Sc72  1  0.90075122  0.09527378  0.70281852  1
  Sc  Sc73  1  0.88839948  0.69847301  0.09381267  1
  Sc  Sc74  1  0.30993037  0.09920734  0.30074618  1
  Sc  Sc75  1  0.10690491  0.90709341  0.49290917  1
  Sc  Sc76  1  0.69215599  0.50061095  0.29049176  1
  Sc  Sc77  1  0.49913428  0.09911186  0.68929750  1
  Sc  Sc78  1  0.30382022  0.29943328  0.11107511  1
  Sc  Sc79  1  0.49136879  0.70335443  0.69896928  1
  Sc  Sc80  1  0.09168087  0.29393637  0.89403930  1
  Sc  Sc81  1  0.10305849  0.29939311  0.52012503  1
  Sc  Sc82  1  0.71387167  0.30456947  0.30201469  1
  Sc  Sc83  1  0.48809993  0.49653037  0.89846720  1
  Sc  Sc84  1  0.30015769  0.30821695  0.89605908  1
  Sc  Sc85  1  0.10358872  0.70412460  0.31490920  1
  Sc  Sc86  1  0.71088609  0.09591884  0.30174832  1
  Sc  Sc87  1  0.29732787  0.50621757  0.89341288  1
  Sc  Sc88  1  0.69841821  0.89327736  0.09192438  1
  Sc  Sc89  1  0.30572814  0.70633214  0.31728218  1
  Sc  Sc90  1  0.29406573  0.90604499  0.88111793  1
  Sc  Sc91  1  0.50136574  0.89369462  0.90405505  1
  Sc  Sc92  1  0.91510309  0.29738300  0.70860767  1
  Sc  Sc93  1  0.89788680  0.89731657  0.50315072  1
  Sc  Sc94  1  0.69929624  0.49960929  0.70144757  1
  Sc  Sc95  1  0.90309517  0.49402605  0.30389753  1
  Sc  Sc96  1  0.09670999  0.49998946  0.30439230  1
  Sc  Sc97  1  0.50401820  0.48359821  0.10578777  1
  Sc  Sc98  1  0.50145833  0.89516735  0.09998636  1
  Sc  Sc99  1  0.51001366  0.10569070  0.91236182  1
  Nb  Nb100  1  0.29788592  0.30173671  0.30676429  1
  Nb  Nb101  1  0.30072138  0.90047567  0.30505947  1
  Nb  Nb102  1  0.30335319  0.88723650  0.49334970  1
  Nb  Nb103  1  0.10077424  0.70183010  0.09669587  1
  Nb  Nb104  1  0.69057020  0.30858150  0.10186246  1
  Nb  Nb105  1  0.10771849  0.29194590  0.70154454  1
  Nb  Nb106  1  0.30539543  0.70623347  0.50193275  1
  Nb  Nb107  1  0.49465940  0.90186618  0.29548491  1
  Nb  Nb108  1  0.09973427  0.11764621  0.69054130  1
  Nb  Nb109  1  0.10355474  0.09275426  0.30753505  1
  Nb  Nb110  1  0.69933932  0.70330372  0.90457785  1
  Nb  Nb111  1  0.10085407  0.10029263  0.49784531  1
  Nb  Nb112  1  0.09697376  0.69750169  0.70309328  1
  Nb  Nb113  1  0.69775622  0.69546298  0.29085690  1
  Nb  Nb114  1  0.49943686  0.89915356  0.49462529  1
  Nb  Nb115  1  0.10029860  0.50388446  0.90367308  1
  Nb  Nb116  1  0.70217726  0.29868531  0.49938734  1
  Nb  Nb117  1  0.48174850  0.69978052  0.49837322  1
  Nb  Nb118  1  0.50284048  0.29373153  0.10064057  1
  Nb  Nb119  1  0.10362980  0.90104236  0.30006528  1
  Nb  Nb120  1  0.69926347  0.69727172  0.09859725  1
  Nb  Nb121  1  0.89490045  0.29263203  0.90071237  1
  Nb  Nb122  1  0.89696483  0.11328965  0.89933303  1
  Nb  Nb123  1  0.09963676  0.89958548  0.90144202  1
  Nb  Nb124  1  0.09981524  0.49686875  0.49837649  1
  Nb  Nb125  1  0.20004647  -0.00433582  0.20650694  1
  Nb  Nb126  1  0.01131797  0.19469299  0.39881542  1
  Nb  Nb127  1  0.59939213  0.20313743  0.20316296  1
  Nb  Nb128  1  0.60323889  0.60562158  0.80902942  1
  Nb  Nb129  1  0.19892747  0.20025314  0.40121624  1
  Nb  Nb130  1  0.20156873  0.39541823  0.40690143  1
  Nb  Nb131  1  0.00619608  0.80242200  0.19748511  1
  Nb  Nb132  1  0.20069774  0.60886539  0.19864176  1
  Nb  Nb133  1  0.60677723  0.60198515  -0.00333416  1
  Nb  Nb134  1  0.39864355  0.20012833  0.79801155  1
  Nb  Nb135  1  0.00421114  0.61279574  0.19857429  1
  Nb  Nb136  1  0.19868942  0.80068666  0.20031076  1
  Nb  Nb137  1  0.60061420  0.20304157  0.39733064  1
  Nb  Nb138  1  0.79797338  0.20885696  0.59775848  1
  Nb  Nb139  1  0.19365004  0.40422858  -0.00310408  1
  Nb  Nb140  1  0.60389904  -0.00135059  0.80175583  1
  Nb  Nb141  1  0.40030938  0.00170805  0.00093657  1
  Nb  Nb142  1  0.00541675  0.00176911  0.20421855  1
  Nb  Nb143  1  0.00366933  0.19031723  0.20382230  1
  Nb  Nb144  1  0.79952979  0.39467593  0.59862256  1
  Nb  Nb145  1  0.59774912  0.00057539  0.20135863  1
  Nb  Nb146  1  0.19522512  0.80284220  -0.00303076  1
  Nb  Nb147  1  0.79185587  0.60391247  0.39896392  1
  Nb  Nb148  1  0.00371389  0.80199858  -0.00168173  1
  Nb  Nb149  1  0.39814596  0.60154895  0.20095273  1
  Pd  Pd150  1  0.60337624  0.39962078  0.60316982  1
  Pd  Pd151  1  -0.00424800  -0.00181020  0.39934856  1
  Pd  Pd152  1  0.20837813  0.59166182  0.39396909  1
  Pd  Pd153  1  -0.00260123  0.40777164  0.19367013  1
  Pd  Pd154  1  0.20029524  0.41276222  0.19907719  1
  Pd  Pd155  1  0.00021459  0.19935116  0.00503890  1
  Pd  Pd156  1  0.79789502  0.41172178  0.40346172  1
  Pd  Pd157  1  0.19224542  -0.00387137  0.60237975  1
  Pd  Pd158  1  0.59611464  0.60783590  0.60903280  1
  Pd  Pd159  1  0.79244751  0.59424518  0.59433791  1
  Pd  Pd160  1  0.19775567  0.19272215  0.21061412  1
  Pd  Pd161  1  0.20222084  0.19687473  0.80690498  1
  Pd  Pd162  1  0.80215459  0.20519934  0.78617303  1
  Pd  Pd163  1  0.39740860  0.41290562  0.59941657  1
  Pd  Pd164  1  0.21216372  0.19232210  0.59058783  1
  Pd  Pd165  1  0.20391430  0.21435172  -0.00672320  1
  Pd  Pd166  1  0.79194310  0.79349498  0.40938603  1
  Pd  Pd167  1  0.39935872  0.19466317  0.40706274  1
  Pd  Pd168  1  0.00368287  0.00633012  0.78917270  1
  Pd  Pd169  1  -0.00824422  0.60473447  0.39074474  1
  Pd  Pd170  1  0.80139435  0.00036900  0.60281566  1
  Pd  Pd171  1  0.79807069  0.79963372  0.19573945  1
  Pd  Pd172  1  0.21407957  -0.00618809  0.00454890  1
  Pd  Pd173  1  0.41660491  0.59664251  0.00883835  1
  Pd  Pd174  1  0.58912074  0.19174223  0.79678768  1
  Pd  Pd175  1  0.41637840  0.01044615  0.81165001  1
  Pd  Pd176  1  0.79764924  -0.00147693  -0.00659373  1
  Pd  Pd177  1  -0.00392891  0.39548869  0.60163013  1
  Pd  Pd178  1  0.19161602  0.79982566  0.59525312  1
  Pd  Pd179  1  0.59414237  0.79397315  0.40270052  1
  Pd  Pd180  1  0.20160901  0.59647179  0.60647197  1
  Pd  Pd181  1  0.00616938  0.39680148  0.80256169  1
  Pd  Pd182  1  0.79867217  0.60069268  0.80261312  1
  Pd  Pd183  1  0.39072389  0.39476040  0.00506902  1
  Pd  Pd184  1  0.00897981  -0.00423727  0.60654380  1
  Pd  Pd185  1  0.60268269  0.60927224  0.40346592  1
  Pd  Pd186  1  -0.01092764  0.20394731  0.59287614  1
  Pd  Pd187  1  0.80735613  0.40376488  0.19559329  1
  Pd  Pd188  1  -0.00385069  0.79728719  0.80701918  1
  Pd  Pd189  1  0.59549303  0.79931651  0.79718095  1
  Pd  Pd190  1  0.79935792  0.59720280  -0.00704804  1
  Pd  Pd191  1  0.01214938  0.80762662  0.59331412  1
  Pd  Pd192  1  0.60088954  0.39208816  0.39266002  1
  Pd  Pd193  1  0.59121525  0.79925781  0.60445928  1
  Pd  Pd194  1  0.79680528  0.20771371  0.19115532  1
  Pd  Pd195  1  0.39182519  0.19405462  0.60365889  1
  Pd  Pd196  1  0.59826322  0.40729018  -0.00727858  1
  Pd  Pd197  1  0.58909238  0.60135535  0.18589557  1
  Pd  Pd198  1  0.00358138  0.80236703  0.40328754  1
  Pd  Pd199  1  0.81004432  0.59718323  0.20805221  1
  Rh  Rh200  1  0.39416433  0.20221430  -0.00565267  1
  Rh  Rh201  1  0.59844837  0.38937908  0.20984944  1
  Rh  Rh202  1  0.59740723  -0.01282765  0.61040191  1
  Rh  Rh203  1  0.60413831  0.79400002  0.00201989  1
  Rh  Rh204  1  0.39888969  0.39442403  0.79880149  1
  Rh  Rh205  1  0.39733900  0.60375320  0.60351555  1
  Rh  Rh206  1  0.60869433  0.20618591  0.00680114  1
  Rh  Rh207  1  0.39693983  0.40270636  0.19556376  1
  Rh  Rh208  1  0.18725496  0.00885369  0.79191450  1
  Rh  Rh209  1  0.40145463  0.20389994  0.20350870  1
  Rh  Rh210  1  0.40124070  0.80273815  0.59744549  1
  Rh  Rh211  1  0.40910938  0.80605164  0.39663127  1
  Rh  Rh212  1  -0.00779964  0.60667198  0.00304343  1
  Rh  Rh213  1  0.20213793  0.40836977  0.59496669  1
  Rh  Rh214  1  0.00389020  0.39246622  -0.00580780  1
  Rh  Rh215  1  0.81109671  0.79803878  0.80276473  1
  Rh  Rh216  1  0.60471165  0.20695326  0.59443733  1
  Rh  Rh217  1  0.39191679  0.79861036  0.79935255  1
  Rh  Rh218  1  0.01811055  0.38919905  0.40633527  1
  Rh  Rh219  1  0.79048961  -0.01117619  0.20020873  1
  Rh  Rh220  1  0.40046139  -0.01101504  0.59183541  1
  Rh  Rh221  1  0.80238293  0.19831239  0.40987625  1
  Rh  Rh222  1  0.79427462  -0.00864335  0.40498249  1
  Rh  Rh223  1  0.19187073  0.40211019  0.80948350  1
  Rh  Rh224  1  0.20017361  0.79236927  0.80395699  1
  Rh  Rh225  1  -0.00682475  0.00437343  0.00034181  1
  Rh  Rh226  1  0.60403472  0.80473060  0.19540225  1
  Rh  Rh227  1  0.39764552  -0.00916631  0.40512738  1
  Rh  Rh228  1  0.79633760  0.00130304  0.79825538  1
  Rh  Rh229  1  0.80662062  0.39013257  0.79161541  1
  Rh  Rh230  1  0.00168429  0.19291672  0.80051377  1
  Rh  Rh231  1  0.19571129  0.59944379  0.79133870  1
  Rh  Rh232  1  0.39438637  0.79129626  0.21003821  1
  Rh  Rh233  1  0.40180493  0.00015335  0.19565123  1
  Rh  Rh234  1  0.19808682  0.59888391  0.00214050  1
  Rh  Rh235  1  0.60292208  0.00351095  0.38938070  1
  Rh  Rh236  1  0.39486121  0.40955738  0.41002028  1
  Rh  Rh237  1  0.59364106  -0.00785838  -0.00042538  1
  Rh  Rh238  1  0.40624136  0.60387424  0.79696751  1
  Rh  Rh239  1  0.19786595  0.80067591  0.40477858  1
  Rh  Rh240  1  0.59307090  0.40981628  0.80615019  1
  Rh  Rh241  1  0.79408563  0.20591092  0.00652711  1
  Rh  Rh242  1  0.38365340  0.81338080  -0.01556780  1
  Rh  Rh243  1  0.21092955  0.00185032  0.39711391  1
  Rh  Rh244  1  0.80149014  0.39342810  0.00194077  1
  Rh  Rh245  1  0.01219020  0.59393695  0.60655769  1
  Rh  Rh246  1  0.80789051  0.79894726  -0.00726229  1
  Rh  Rh247  1  0.39879225  0.59969494  0.39593553  1
  Rh  Rh248  1  0.80142798  0.79986420  0.59693995  1
  Rh  Rh249  1  0.00336830  0.59400373  0.79470788  1
