# generated using pymatgen
data_ZrScNbPdRh
_symmetry_space_group_name_H-M   'P 1'
_cell_length_a   16.55107577
_cell_length_b   16.54922609
_cell_length_c   16.55704439
_cell_angle_alpha   90.07087845
_cell_angle_beta   90.01744737
_cell_angle_gamma   90.01825614
_symmetry_Int_Tables_number   1
_chemical_formula_structural   ZrScNbPdRh
_chemical_formula_sum   'Zr50 Sc50 Nb50 Pd50 Rh50'
_cell_volume   4535.09464149
_cell_formula_units_Z   50
loop_
 _symmetry_equiv_pos_site_id
 _symmetry_equiv_pos_as_xyz
  1  'x, y, z'
loop_
 _atom_site_type_symbol
 _atom_site_label
 _atom_site_symmetry_multiplicity
 _atom_site_fract_x
 _atom_site_fract_y
 _atom_site_fract_z
 _atom_site_occupancy
  Zr  Zr0  1  0.89307848  0.69387239  0.10760792  1
  Zr  Zr1  1  0.90074242  0.50037611  0.51371135  1
  Zr  Zr2  1  0.89972566  0.90133355  0.90262899  1
  Zr  Zr3  1  0.50628831  0.90426671  0.69611148  1
  Zr  Zr4  1  0.30088396  0.69362282  0.10017268  1
  Zr  Zr5  1  0.49896627  0.69405035  0.08898001  1
  Zr  Zr6  1  0.30152045  0.70016330  0.30176777  1
  Zr  Zr7  1  0.30081833  0.10122257  0.70649851  1
  Zr  Zr8  1  0.11087110  0.89566845  0.89751840  1
  Zr  Zr9  1  0.70278570  0.10801640  0.90701762  1
  Zr  Zr10  1  0.09584535  0.29456325  0.09291105  1
  Zr  Zr11  1  0.69528735  0.70421065  0.69758535  1
  Zr  Zr12  1  0.49546133  0.49931353  0.71026502  1
  Zr  Zr13  1  0.09419146  0.49254791  0.69477907  1
  Zr  Zr14  1  0.49292808  0.29456416  0.50018100  1
  Zr  Zr15  1  0.49211341  0.29894980  0.70298707  1
  Zr  Zr16  1  0.90341755  0.90353616  0.69809661  1
  Zr  Zr17  1  0.49828591  0.50677042  0.89970092  1
  Zr  Zr18  1  0.69581788  0.90308675  0.70340139  1
  Zr  Zr19  1  0.69930546  0.49646627  0.90049387  1
  Zr  Zr20  1  0.49728348  0.29820528  0.09743648  1
  Zr  Zr21  1  0.90136221  0.89094586  0.10053031  1
  Zr  Zr22  1  0.10119695  0.69360631  0.30761456  1
  Zr  Zr23  1  0.90232347  0.89796148  0.49904746  1
  Zr  Zr24  1  0.29846610  0.49731824  0.70596518  1
  Zr  Zr25  1  0.10921665  0.10469709  0.49581202  1
  Zr  Zr26  1  0.09869024  0.30364881  0.90569849  1
  Zr  Zr27  1  0.31469206  0.89584340  0.49480645  1
  Zr  Zr28  1  0.10328793  0.49487290  0.89988200  1
  Zr  Zr29  1  0.70063094  0.50197730  0.10622086  1
  Zr  Zr30  1  0.09726525  0.50202321  0.49393984  1
  Zr  Zr31  1  0.49914418  0.91010139  0.10532250  1
  Zr  Zr32  1  0.29869530  0.29380849  0.50451106  1
  Zr  Zr33  1  0.68587609  0.69493471  0.90511101  1
  Zr  Zr34  1  0.10631796  0.30212282  0.50279542  1
  Zr  Zr35  1  0.50476602  0.49852338  0.49061689  1
  Zr  Zr36  1  0.70407891  0.30679840  0.30582429  1
  Zr  Zr37  1  0.30709767  0.10624755  0.49817388  1
  Zr  Zr38  1  0.89211314  0.29833061  0.90290533  1
  Zr  Zr39  1  0.49966426  0.09896674  0.69736538  1
  Zr  Zr40  1  0.49793917  0.29844715  0.90147395  1
  Zr  Zr41  1  0.09801132  0.09087948  0.29225725  1
  Zr  Zr42  1  0.50454144  0.49681183  0.29421041  1
  Zr  Zr43  1  0.70171576  0.90381354  0.89924838  1
  Zr  Zr44  1  0.09928281  0.29872775  0.70280750  1
  Zr  Zr45  1  0.30755183  0.50280890  0.29243044  1
  Zr  Zr46  1  0.29343617  0.49428560  0.50419490  1
  Zr  Zr47  1  0.70860703  0.09978238  0.30291568  1
  Zr  Zr48  1  0.70014651  0.90197449  0.29829478  1
  Zr  Zr49  1  0.70066214  0.89868238  0.10113388  1
  Sc  Sc50  1  0.09801761  0.10266734  0.70019397  1
  Sc  Sc51  1  0.90604934  0.69307991  0.68272011  1
  Sc  Sc52  1  0.51092570  0.69729319  0.30260413  1
  Sc  Sc53  1  0.91352240  0.70037732  0.49404681  1
  Sc  Sc54  1  0.89856419  0.90095267  0.29967637  1
  Sc  Sc55  1  0.30181060  0.30170573  0.08881014  1
  Sc  Sc56  1  0.49405790  0.89671055  0.89677259  1
  Sc  Sc57  1  0.89863415  0.10203725  0.89928694  1
  Sc  Sc58  1  0.48763711  0.10441730  0.90393651  1
  Sc  Sc59  1  0.70705615  0.29589093  0.09946451  1
  Sc  Sc60  1  0.10410179  0.90844392  0.10858476  1
  Sc  Sc61  1  0.29776907  0.09256109  0.08793386  1
  Sc  Sc62  1  0.29635213  0.09853655  0.30921232  1
  Sc  Sc63  1  0.89927912  0.70303848  0.29550986  1
  Sc  Sc64  1  0.70168040  0.70378526  0.29525820  1
  Sc  Sc65  1  0.69943720  0.69798421  0.10074078  1
  Sc  Sc66  1  0.90253890  0.30377668  0.10323606  1
  Sc  Sc67  1  0.90049074  0.10425651  0.69601323  1
  Sc  Sc68  1  0.30517350  0.29650204  0.31172027  1
  Sc  Sc69  1  0.89986956  0.69584598  0.91785204  1
  Sc  Sc70  1  0.90656355  0.11210110  0.10838617  1
  Sc  Sc71  1  0.89902148  0.29751632  0.29298247  1
  Sc  Sc72  1  0.30408111  0.90753202  0.30173594  1
  Sc  Sc73  1  0.29968437  0.89970533  0.71280402  1
  Sc  Sc74  1  0.89348378  0.09646508  0.50205757  1
  Sc  Sc75  1  0.09432261  0.69400570  0.09682983  1
  Sc  Sc76  1  0.50028428  0.71480191  0.50165585  1
  Sc  Sc77  1  0.49474524  0.30960358  0.30559872  1
  Sc  Sc78  1  0.29733025  0.90400552  0.09076604  1
  Sc  Sc79  1  0.69738717  0.70455345  0.48868105  1
  Sc  Sc80  1  0.09734020  0.90131481  0.70016569  1
  Sc  Sc81  1  0.89481650  0.49272316  0.90819642  1
  Sc  Sc82  1  0.90350354  0.49095263  0.29100857  1
  Sc  Sc83  1  0.70045636  0.09578171  0.69635964  1
  Sc  Sc84  1  0.90010188  0.09963560  0.29835548  1
  Sc  Sc85  1  0.29823671  0.09221220  0.89839566  1
  Sc  Sc86  1  0.09806104  0.70225730  0.69104953  1
  Sc  Sc87  1  0.30002457  0.49622582  0.90091086  1
  Sc  Sc88  1  0.89552620  0.49731021  0.10183251  1
  Sc  Sc89  1  0.50049594  0.70600814  0.71091469  1
  Sc  Sc90  1  0.88958608  0.29751434  0.50256724  1
  Sc  Sc91  1  0.09299578  0.30585638  0.29982346  1
  Sc  Sc92  1  0.70955651  0.29889152  0.70054366  1
  Sc  Sc93  1  0.70376255  0.90544830  0.49520571  1
  Sc  Sc94  1  0.29568075  0.29458135  0.89748877  1
  Sc  Sc95  1  0.70732905  0.10236334  0.50668909  1
  Sc  Sc96  1  0.70648625  0.10491362  0.10229629  1
  Sc  Sc97  1  0.10447536  0.10678859  0.90046233  1
  Sc  Sc98  1  0.10018565  0.49631628  0.09314773  1
  Sc  Sc99  1  0.70455757  0.49193646  0.49663862  1
  Nb  Nb100  1  0.69808460  0.29875710  0.90675564  1
  Nb  Nb101  1  0.49975197  0.91406565  0.49653881  1
  Nb  Nb102  1  0.69579864  0.50360348  0.30470345  1
  Nb  Nb103  1  0.70343519  0.50178135  0.69449425  1
  Nb  Nb104  1  0.29421432  0.89961194  0.89983967  1
  Nb  Nb105  1  0.30999835  0.50024265  0.10691072  1
  Nb  Nb106  1  0.50427197  0.09047467  0.29487077  1
  Nb  Nb107  1  0.29939140  0.30140817  0.69848296  1
  Nb  Nb108  1  0.49969233  0.09860376  0.50092578  1
  Nb  Nb109  1  0.29772924  0.69941741  0.69936571  1
  Nb  Nb110  1  0.50320848  0.91255751  0.29847617  1
  Nb  Nb111  1  0.89562671  0.49945379  0.69547639  1
  Nb  Nb112  1  0.69820272  0.29728772  0.49953161  1
  Nb  Nb113  1  0.90354862  0.30969293  0.69662142  1
  Nb  Nb114  1  0.10417765  0.70363744  0.49802592  1
  Nb  Nb115  1  0.09971790  0.10103545  0.10016435  1
  Nb  Nb116  1  0.10196215  0.69739426  0.89808816  1
  Nb  Nb117  1  0.49990386  0.10188058  0.09844496  1
  Nb  Nb118  1  0.29300896  0.71835198  0.89345673  1
  Nb  Nb119  1  0.29949720  0.69985547  0.49975951  1
  Nb  Nb120  1  0.10314723  0.90388005  0.29852450  1
  Nb  Nb121  1  0.10263396  0.49299019  0.29724043  1
  Nb  Nb122  1  0.48633004  0.49697289  0.10211463  1
  Nb  Nb123  1  0.49289398  0.69525536  0.89978774  1
  Nb  Nb124  1  0.09760528  0.89493536  0.49794636  1
  Nb  Nb125  1  0.80353812  0.59972800  0.79356249  1
  Nb  Nb126  1  0.40167120  0.19313526  0.19903576  1
  Nb  Nb127  1  0.39801847  0.60271243  0.40629824  1
  Nb  Nb128  1  0.20185412  0.80019840  0.20609534  1
  Nb  Nb129  1  0.39853781  0.60518188  0.59890066  1
  Nb  Nb130  1  0.59831027  0.00532666  0.00389696  1
  Nb  Nb131  1  0.80515694  0.79106472  0.79777553  1
  Nb  Nb132  1  0.59396949  0.19634967  0.20647469  1
  Nb  Nb133  1  -0.00324224  0.79128711  0.80435488  1
  Nb  Nb134  1  0.60254340  0.40048732  0.60255366  1
  Nb  Nb135  1  0.20212619  -0.00632704  0.59286779  1
  Nb  Nb136  1  0.59645232  0.59461312  0.60072187  1
  Nb  Nb137  1  0.59757877  0.19680597  0.40053662  1
  Nb  Nb138  1  0.00386765  0.00228513  0.00444484  1
  Nb  Nb139  1  0.19639263  0.60821366  0.80170124  1
  Nb  Nb140  1  0.80143523  0.80188568  0.60221243  1
  Nb  Nb141  1  0.20104991  0.20074118  0.19618451  1
  Nb  Nb142  1  0.40253836  0.80267835  0.20020536  1
  Nb  Nb143  1  0.20385852  0.39992621  0.19721770  1
  Nb  Nb144  1  0.79960270  0.59369671  0.39498954  1
  Nb  Nb145  1  -0.00237404  0.59977184  0.79986854  1
  Nb  Nb146  1  0.59681656  0.40123584  0.00172238  1
  Nb  Nb147  1  0.20281590  0.80038021  0.59075652  1
  Nb  Nb148  1  0.60211172  0.20326404  0.80459570  1
  Nb  Nb149  1  0.00217114  0.19814305  0.40196598  1
  Pd  Pd150  1  0.00696989  0.00010444  0.80937161  1
  Pd  Pd151  1  0.80064534  0.40285552  0.79744532  1
  Pd  Pd152  1  0.40222629  0.80301440  0.79724645  1
  Pd  Pd153  1  0.59389063  0.79827659  0.19952543  1
  Pd  Pd154  1  -0.00393756  0.00457914  0.40186980  1
  Pd  Pd155  1  -0.00549186  0.20264538  0.59260725  1
  Pd  Pd156  1  0.80702636  0.00922069  0.01031260  1
  Pd  Pd157  1  0.20436081  0.39724957  0.39139256  1
  Pd  Pd158  1  -0.00453520  0.20184200  0.80356364  1
  Pd  Pd159  1  0.80212919  0.00421821  0.79629755  1
  Pd  Pd160  1  0.60376569  0.59991181  0.79369898  1
  Pd  Pd161  1  0.59517388  0.81096418  0.39909006  1
  Pd  Pd162  1  0.79035795  0.61010490  0.59094783  1
  Pd  Pd163  1  0.19969151  0.20203866  0.80048305  1
  Pd  Pd164  1  0.60624314  0.39198603  0.79877937  1
  Pd  Pd165  1  -0.00811207  0.40400502  0.80421670  1
  Pd  Pd166  1  0.59445643  0.80875930  -0.00338135  1
  Pd  Pd167  1  0.60390170  0.20431822  0.60269499  1
  Pd  Pd168  1  0.19855656  0.60412156  0.60412328  1
  Pd  Pd169  1  -0.00373146  0.59106666  -0.00168148  1
  Pd  Pd170  1  0.00964989  0.80014204  0.20524163  1
  Pd  Pd171  1  0.60299537  0.39167007  0.19345627  1
  Pd  Pd172  1  0.00011668  0.80250305  0.39024916  1
  Pd  Pd173  1  0.41288996  0.79897574  0.38907552  1
  Pd  Pd174  1  0.20814715  0.59743296  -0.00480494  1
  Pd  Pd175  1  -0.01010705  0.39331833  0.40533890  1
  Pd  Pd176  1  0.19178898  0.59678821  0.19635129  1
  Pd  Pd177  1  0.60537146  0.80495473  0.59006833  1
  Pd  Pd178  1  0.20471041  0.59489876  0.39945980  1
  Pd  Pd179  1  0.80679346  -0.00002781  0.19531481  1
  Pd  Pd180  1  0.39917305  0.40028133  -0.00676948  1
  Pd  Pd181  1  0.59652842  0.60186225  0.19496133  1
  Pd  Pd182  1  0.59353872  0.01277260  0.81308998  1
  Pd  Pd183  1  0.19284387  0.79935294  0.01378513  1
  Pd  Pd184  1  0.80810450  0.40489526  0.39901023  1
  Pd  Pd185  1  0.38838058  0.00457237  0.19845656  1
  Pd  Pd186  1  0.20020538  0.80796050  0.39743532  1
  Pd  Pd187  1  0.40462388  0.40545136  0.59856204  1
  Pd  Pd188  1  0.60733535  0.00786758  0.40693372  1
  Pd  Pd189  1  0.38695200  0.60256725  -0.01127716  1
  Pd  Pd190  1  0.20303470  -0.00741778  0.40638094  1
  Pd  Pd191  1  0.39316974  -0.00056127  0.60558710  1
  Pd  Pd192  1  0.00843937  0.00508568  0.59548740  1
  Pd  Pd193  1  0.79812912  0.19800589  0.79326183  1
  Pd  Pd194  1  0.39949554  0.80472505  0.00344228  1
  Pd  Pd195  1  0.01032196  0.80616374  0.00069769  1
  Pd  Pd196  1  -0.00857281  0.59221810  0.39270972  1
  Pd  Pd197  1  0.39732918  0.79798894  0.60874754  1
  Pd  Pd198  1  0.79363988  0.79185531  -0.00314889  1
  Pd  Pd199  1  0.00233554  0.59249995  0.20188399  1
  Rh  Rh200  1  0.19169291  0.79574423  0.78787178  1
  Rh  Rh201  1  0.20637047  0.40423835  0.00714764  1
  Rh  Rh202  1  0.20419028  0.19468566  0.60946865  1
  Rh  Rh203  1  -0.00413493  0.19476410  -0.00555970  1
  Rh  Rh204  1  0.79562495  0.20493665  0.20386440  1
  Rh  Rh205  1  0.18760064  0.20575523  0.38501539  1
  Rh  Rh206  1  0.60117457  -0.00078803  0.59195052  1
  Rh  Rh207  1  0.59597778  0.58837485  0.00736516  1
  Rh  Rh208  1  0.60191045  0.39102195  0.40664349  1
  Rh  Rh209  1  0.41334950  0.18823250  0.38984040  1
  Rh  Rh210  1  0.79689121  0.59898925  -0.00107852  1
  Rh  Rh211  1  0.80271997  -0.00079608  0.39963103  1
  Rh  Rh212  1  0.39149543  0.39369870  0.80548408  1
  Rh  Rh213  1  0.19688098  0.00183022  0.79507924  1
  Rh  Rh214  1  0.19879234  0.39499116  0.60589082  1
  Rh  Rh215  1  0.19139257  0.00136846  -0.00642453  1
  Rh  Rh216  1  0.00290042  0.80207618  0.60177726  1
  Rh  Rh217  1  0.39065931  0.38632222  0.20034707  1
  Rh  Rh218  1  0.40143742  -0.00566116  0.80293300  1
  Rh  Rh219  1  0.79455204  0.40128810  0.20125511  1
  Rh  Rh220  1  0.41169016  0.61075345  0.20658212  1
  Rh  Rh221  1  0.38688508  0.61152347  0.80368028  1
  Rh  Rh222  1  -0.00092357  0.39337156  0.59457571  1
  Rh  Rh223  1  -0.00597826  -0.00463462  0.19220580  1
  Rh  Rh224  1  0.60397200  0.60018275  0.40518382  1
  Rh  Rh225  1  0.61039012  0.00715901  0.19226193  1
  Rh  Rh226  1  0.80331885  0.20341415  0.60457436  1
  Rh  Rh227  1  0.39591099  0.19671704  0.60557103  1
  Rh  Rh228  1  0.79322807  0.39799486  0.00648639  1
  Rh  Rh229  1  0.20181790  0.39865917  0.79816983  1
  Rh  Rh230  1  0.80143746  0.19928493  0.40055718  1
  Rh  Rh231  1  0.80856637  0.20192824  0.00579490  1
  Rh  Rh232  1  0.00849523  0.20297868  0.20896272  1
  Rh  Rh233  1  0.40414845  -0.00360201  -0.00685134  1
  Rh  Rh234  1  0.79478956  0.39326527  0.60243673  1
  Rh  Rh235  1  0.59927717  0.79966380  0.81079952  1
  Rh  Rh236  1  -0.00567404  0.39876234  -0.00017332  1
  Rh  Rh237  1  0.79822469  0.59637000  0.20966911  1
  Rh  Rh238  1  0.20315142  0.19634125  0.00263007  1
  Rh  Rh239  1  0.79901588  -0.00660058  0.60342903  1
  Rh  Rh240  1  0.39979936  0.20067852  0.79960994  1
  Rh  Rh241  1  0.79740155  0.80059798  0.20131719  1
  Rh  Rh242  1  0.01075527  0.59720368  0.59929379  1
  Rh  Rh243  1  0.39323921  0.41014522  0.40252138  1
  Rh  Rh244  1  0.39121667  0.19484481  0.00277362  1
  Rh  Rh245  1  0.40488014  0.00572752  0.39871641  1
  Rh  Rh246  1  0.60022890  0.20034109  0.00128870  1
  Rh  Rh247  1  0.20541210  0.00132280  0.19937165  1
  Rh  Rh248  1  0.00974862  0.40218210  0.19392295  1
  Rh  Rh249  1  0.80706353  0.79339935  0.40497293  1
