# generated using pymatgen
data_ZrScNbPdRh
_symmetry_space_group_name_H-M   'P 1'
_cell_length_a   16.56089619
_cell_length_b   16.55812858
_cell_length_c   16.56093147
_cell_angle_alpha   89.97632529
_cell_angle_beta   89.97884317
_cell_angle_gamma   90.01625531
_symmetry_Int_Tables_number   1
_chemical_formula_structural   ZrScNbPdRh
_chemical_formula_sum   'Zr50 Sc50 Nb50 Pd50 Rh50'
_cell_volume   4541.29549191
_cell_formula_units_Z   50
loop_
 _symmetry_equiv_pos_site_id
 _symmetry_equiv_pos_as_xyz
  1  'x, y, z'
loop_
 _atom_site_type_symbol
 _atom_site_label
 _atom_site_symmetry_multiplicity
 _atom_site_fract_x
 _atom_site_fract_y
 _atom_site_fract_z
 _atom_site_occupancy
  Zr  Zr0  1  0.29772643  0.10128730  0.49452278  1
  Zr  Zr1  1  0.10438138  0.89306841  0.90040472  1
  Zr  Zr2  1  0.70619229  0.90187984  0.89846524  1
  Zr  Zr3  1  0.50181810  0.29853254  0.48720578  1
  Zr  Zr4  1  0.90713406  0.69974927  0.69904523  1
  Zr  Zr5  1  0.49537893  0.50597090  0.89781182  1
  Zr  Zr6  1  0.70002353  0.50726635  0.69499197  1
  Zr  Zr7  1  0.89208957  0.09655126  0.10440727  1
  Zr  Zr8  1  0.30014043  0.50348047  0.90879970  1
  Zr  Zr9  1  0.29722221  0.30230886  0.50497132  1
  Zr  Zr10  1  0.70053563  0.10727606  0.09226335  1
  Zr  Zr11  1  0.69613802  0.30341294  0.29221611  1
  Zr  Zr12  1  0.89494690  0.10719894  0.90787238  1
  Zr  Zr13  1  0.29593922  0.09942393  0.70050710  1
  Zr  Zr14  1  0.49880683  0.69666994  0.70119338  1
  Zr  Zr15  1  0.70489675  0.70324343  0.28943112  1
  Zr  Zr16  1  0.10286975  0.69674293  0.50116824  1
  Zr  Zr17  1  0.70033568  0.09571328  0.70807939  1
  Zr  Zr18  1  0.70036504  0.70903105  0.49552402  1
  Zr  Zr19  1  0.70793743  0.90783105  0.70027493  1
  Zr  Zr20  1  0.49480721  0.28911445  0.09774449  1
  Zr  Zr21  1  0.29906279  0.90375811  0.70632209  1
  Zr  Zr22  1  0.09097210  0.90896550  0.30089874  1
  Zr  Zr23  1  0.70881603  0.29171231  0.48982950  1
  Zr  Zr24  1  0.90347355  0.30310506  0.89075617  1
  Zr  Zr25  1  0.70112556  0.50387479  0.50423552  1
  Zr  Zr26  1  0.90667581  0.49475598  0.71182917  1
  Zr  Zr27  1  0.49906246  0.69583118  0.09797653  1
  Zr  Zr28  1  0.89373534  0.29565889  0.31151842  1
  Zr  Zr29  1  0.30436579  0.30140266  0.90853719  1
  Zr  Zr30  1  0.09596058  0.89669341  0.09461714  1
  Zr  Zr31  1  0.09564266  0.69825562  0.29953438  1
  Zr  Zr32  1  0.69634565  0.09234018  0.50853713  1
  Zr  Zr33  1  0.50504098  0.10469407  0.90818669  1
  Zr  Zr34  1  0.09834303  0.30065774  0.30232555  1
  Zr  Zr35  1  0.90297305  0.90083928  0.10997083  1
  Zr  Zr36  1  0.29784583  0.70365758  0.90994035  1
  Zr  Zr37  1  0.10655389  0.89848913  0.69877244  1
  Zr  Zr38  1  0.89823882  0.89380556  0.69931196  1
  Zr  Zr39  1  0.49349119  0.70065495  0.90010306  1
  Zr  Zr40  1  0.90042302  0.70539856  0.11127515  1
  Zr  Zr41  1  0.30518153  0.49693750  0.69335076  1
  Zr  Zr42  1  0.50005884  0.49284570  0.29500696  1
  Zr  Zr43  1  0.29511394  0.50537159  0.49720487  1
  Zr  Zr44  1  0.90045471  0.30311301  0.50271234  1
  Zr  Zr45  1  0.69979133  0.49929281  0.89446478  1
  Zr  Zr46  1  0.69860209  0.49730474  0.29543262  1
  Zr  Zr47  1  0.90890514  0.50041333  0.09339257  1
  Zr  Zr48  1  0.50620019  0.09364891  0.10035815  1
  Zr  Zr49  1  0.88909559  0.09683262  0.70149038  1
  Sc  Sc50  1  0.09451525  0.70471654  0.69892286  1
  Sc  Sc51  1  0.49441924  0.90251200  0.10305500  1
  Sc  Sc52  1  0.90653671  0.49861138  0.50734759  1
  Sc  Sc53  1  0.69406599  0.50073050  0.10923871  1
  Sc  Sc54  1  0.69627155  0.91614212  0.10106674  1
  Sc  Sc55  1  0.10196519  0.29792759  0.70602548  1
  Sc  Sc56  1  0.51245075  0.90747936  0.49261605  1
  Sc  Sc57  1  0.30006520  0.70984723  0.69776498  1
  Sc  Sc58  1  0.50829948  0.70745066  0.28889323  1
  Sc  Sc59  1  0.70383177  0.70705176  0.69524018  1
  Sc  Sc60  1  0.30080147  0.89632945  0.90323917  1
  Sc  Sc61  1  0.10216298  0.09734116  0.90458657  1
  Sc  Sc62  1  0.10703491  0.09497882  0.70847653  1
  Sc  Sc63  1  0.88891327  0.11000501  0.49466351  1
  Sc  Sc64  1  0.29886300  0.70123079  0.50577420  1
  Sc  Sc65  1  0.10352171  0.10229446  0.09749825  1
  Sc  Sc66  1  0.69186906  0.89119511  0.30443959  1
  Sc  Sc67  1  0.69938249  0.28506913  0.89566679  1
  Sc  Sc68  1  0.69854780  0.10265367  0.28951060  1
  Sc  Sc69  1  0.30080251  0.49948754  0.28844342  1
  Sc  Sc70  1  0.90477453  0.49936618  0.30150365  1
  Sc  Sc71  1  0.09763849  0.29173635  0.90421001  1
  Sc  Sc72  1  0.50627550  0.09140063  0.70859021  1
  Sc  Sc73  1  0.50379779  0.49694029  0.50880722  1
  Sc  Sc74  1  0.28944978  0.90267648  0.50747295  1
  Sc  Sc75  1  0.30079783  0.30096112  0.10318622  1
  Sc  Sc76  1  0.30495746  0.11089304  0.09918167  1
  Sc  Sc77  1  0.90782271  0.70242153  0.89355538  1
  Sc  Sc78  1  0.09539204  0.69699059  0.09451113  1
  Sc  Sc79  1  0.10491446  0.50844927  0.30328268  1
  Sc  Sc80  1  0.70096010  0.89755241  0.50293911  1
  Sc  Sc81  1  0.69742064  0.69815644  0.88929698  1
  Sc  Sc82  1  0.29857485  0.68691177  0.28868945  1
  Sc  Sc83  1  0.09436315  0.30158934  0.49876822  1
  Sc  Sc84  1  0.10335649  0.09816073  0.30431279  1
  Sc  Sc85  1  0.90495887  0.70970156  0.50429784  1
  Sc  Sc86  1  0.30454474  0.09255543  0.90086415  1
  Sc  Sc87  1  0.10681096  0.09533819  0.49346057  1
  Sc  Sc88  1  0.09938091  0.90233823  0.49797092  1
  Sc  Sc89  1  0.50564829  0.70933928  0.50668052  1
  Sc  Sc90  1  0.49594787  0.89548564  0.70631010  1
  Sc  Sc91  1  0.48881499  0.90443228  0.90425381  1
  Sc  Sc92  1  0.70634686  0.29529793  0.69635866  1
  Sc  Sc93  1  0.09730964  0.50477997  0.50342931  1
  Sc  Sc94  1  0.90634522  0.90069909  0.90186156  1
  Sc  Sc95  1  0.89258529  0.28910812  0.09409853  1
  Sc  Sc96  1  0.30696089  0.29348707  0.29210235  1
  Sc  Sc97  1  0.11187049  0.29091648  0.09658519  1
  Sc  Sc98  1  0.08325338  0.49533505  0.90828005  1
  Sc  Sc99  1  0.49672608  0.50077389  0.10387697  1
  Nb  Nb100  1  0.49946201  0.30273826  0.89977240  1
  Nb  Nb101  1  0.29317526  0.50916852  0.10411262  1
  Nb  Nb102  1  0.90361930  0.09247185  0.29566783  1
  Nb  Nb103  1  0.49606918  0.30568437  0.69579773  1
  Nb  Nb104  1  0.29960593  0.89142128  0.09689124  1
  Nb  Nb105  1  0.10148008  0.70453246  0.89381240  1
  Nb  Nb106  1  0.90294688  0.89895381  0.30228858  1
  Nb  Nb107  1  0.30435464  0.89999852  0.29408481  1
  Nb  Nb108  1  0.89518753  0.71378635  0.29951068  1
  Nb  Nb109  1  0.29966986  0.69552468  0.09719521  1
  Nb  Nb110  1  0.48804399  0.09486176  0.30625909  1
  Nb  Nb111  1  0.49429332  0.90670991  0.29903672  1
  Nb  Nb112  1  0.89552760  0.49633773  0.90167003  1
  Nb  Nb113  1  0.49899723  0.10023294  0.49896760  1
  Nb  Nb114  1  0.29894766  0.09311265  0.29856290  1
  Nb  Nb115  1  0.10053534  0.50315593  0.70665957  1
  Nb  Nb116  1  0.10158593  0.49415879  0.10550665  1
  Nb  Nb117  1  0.90065323  0.90201746  0.49683288  1
  Nb  Nb118  1  0.90248656  0.29365988  0.70013432  1
  Nb  Nb119  1  0.50301707  0.49674022  0.69903984  1
  Nb  Nb120  1  0.69674742  0.30063576  0.10108616  1
  Nb  Nb121  1  0.49828029  0.29991987  0.29488664  1
  Nb  Nb122  1  0.70088692  0.70006285  0.10099654  1
  Nb  Nb123  1  0.30106013  0.29988361  0.70034238  1
  Nb  Nb124  1  0.70038202  0.09269589  0.90401790  1
  Nb  Nb125  1  0.20818752  -0.00621445  0.19892511  1
  Nb  Nb126  1  -0.00405079  0.19585655  0.60491770  1
  Nb  Nb127  1  0.79569075  0.79384606  0.00583900  1
  Nb  Nb128  1  0.40816288  0.60475318  0.39810713  1
  Nb  Nb129  1  0.39691040  0.80225585  0.39196749  1
  Nb  Nb130  1  0.40275972  0.00866631  0.59677342  1
  Nb  Nb131  1  0.79519144  0.40270399  -0.00325076  1
  Nb  Nb132  1  0.80129592  0.59956707  0.00022128  1
  Nb  Nb133  1  0.60205501  0.60209409  0.39770634  1
  Nb  Nb134  1  0.60454247  0.79756018  0.00143073  1
  Nb  Nb135  1  0.59095550  0.19885725  0.59781839  1
  Nb  Nb136  1  0.20336407  0.40513519  0.80014337  1
  Nb  Nb137  1  0.59106858  0.39856999  0.79676868  1
  Nb  Nb138  1  0.40396283  0.20888882  0.79522979  1
  Nb  Nb139  1  -0.00590208  0.00390051  0.59829698  1
  Nb  Nb140  1  0.20300521  0.40062081  0.40025039  1
  Nb  Nb141  1  0.00382308  0.39448666  0.19659642  1
  Nb  Nb142  1  0.40496860  0.20034418  0.60268838  1
  Nb  Nb143  1  0.19526348  0.59621547  0.80299303  1
  Nb  Nb144  1  0.80593180  -0.00409413  0.39406629  1
  Nb  Nb145  1  -0.00385057  0.19944064  0.20493628  1
  Nb  Nb146  1  0.20526353  0.80079824  0.38869859  1
  Nb  Nb147  1  0.79944764  0.60847207  0.39594105  1
  Nb  Nb148  1  0.20313993  0.80349132  0.19749440  1
  Nb  Nb149  1  0.60056664  0.39460617  -0.00435239  1
  Pd  Pd150  1  0.19158568  0.19923797  0.59953906  1
  Pd  Pd151  1  0.59938874  0.59950214  0.79300591  1
  Pd  Pd152  1  0.80690300  0.59400930  0.19960184  1
  Pd  Pd153  1  0.60934242  0.00538440  0.39120678  1
  Pd  Pd154  1  -0.00082909  0.00064743  0.79674101  1
  Pd  Pd155  1  0.80329274  0.41304560  0.40325908  1
  Pd  Pd156  1  0.19768818  0.39827558  0.20543979  1
  Pd  Pd157  1  0.81091418  0.39828368  0.19115076  1
  Pd  Pd158  1  0.59967495  0.80931388  0.60771116  1
  Pd  Pd159  1  -0.00317094  0.60827296  -0.00496279  1
  Pd  Pd160  1  0.59198429  0.19534679  0.20458071  1
  Pd  Pd161  1  0.39537431  0.20065496  0.39755733  1
  Pd  Pd162  1  -0.01156728  0.60275927  0.40288946  1
  Pd  Pd163  1  0.60284240  0.40508692  0.40165173  1
  Pd  Pd164  1  0.18683755  0.59840161  -0.00240047  1
  Pd  Pd165  1  0.79101751  0.39324637  0.79939875  1
  Pd  Pd166  1  0.60661789  0.59905623  0.00265048  1
  Pd  Pd167  1  0.19554667  0.40109248  -0.00263723  1
  Pd  Pd168  1  0.39534471  0.00603008  0.19170675  1
  Pd  Pd169  1  0.60146973  0.81156177  0.18941904  1
  Pd  Pd170  1  0.19733145  0.60550989  0.61160495  1
  Pd  Pd171  1  0.20746534  0.20527026  0.80910694  1
  Pd  Pd172  1  -0.00294580  0.00348819  0.00194121  1
  Pd  Pd173  1  0.60787008  0.38964627  0.60045627  1
  Pd  Pd174  1  -0.00152891  0.38482098  0.00830304  1
  Pd  Pd175  1  0.40393608  0.40592924  0.01099071  1
  Pd  Pd176  1  0.79129856  -0.00767025  0.21025610  1
  Pd  Pd177  1  0.20451772  0.20805039  0.39471378  1
  Pd  Pd178  1  0.39294458  -0.01031406  0.40954300  1
  Pd  Pd179  1  0.00066174  0.19153980  0.40358208  1
  Pd  Pd180  1  0.38865269  0.60502748  0.79368681  1
  Pd  Pd181  1  0.80545673  0.60715609  0.80262638  1
  Pd  Pd182  1  0.60265842  0.19089293  0.39548127  1
  Pd  Pd183  1  0.20803643  0.00220193  0.00497404  1
  Pd  Pd184  1  0.18903208  0.39899301  0.60067508  1
  Pd  Pd185  1  0.80031182  0.39871237  0.60394581  1
  Pd  Pd186  1  0.39762659  0.39944500  0.80073253  1
  Pd  Pd187  1  0.39266641  0.40753233  0.39670624  1
  Pd  Pd188  1  0.00700088  0.79870078  0.40337460  1
  Pd  Pd189  1  0.59418024  -0.00981608  0.80752086  1
  Pd  Pd190  1  0.40203389  0.39850407  0.59231986  1
  Pd  Pd191  1  0.59508567  0.20587806  0.79294496  1
  Pd  Pd192  1  0.59714675  0.80533611  0.80553222  1
  Pd  Pd193  1  0.00236343  0.19220434  0.79555415  1
  Pd  Pd194  1  0.39597004  0.79239153  0.20021577  1
  Pd  Pd195  1  0.00020348  0.59583630  0.20358113  1
  Pd  Pd196  1  0.80847348  0.60577194  0.59339046  1
  Pd  Pd197  1  0.00693890  0.39493695  0.60954634  1
  Pd  Pd198  1  0.40574651  0.60243025  0.59320909  1
  Pd  Pd199  1  0.40422482  0.81539950  0.58926024  1
  Rh  Rh200  1  0.40631535  0.19352669  0.20559193  1
  Rh  Rh201  1  -0.00632397  0.79529558  -0.00290077  1
  Rh  Rh202  1  0.00810768  0.80084273  0.20368034  1
  Rh  Rh203  1  0.19578561  0.18751295  0.20468217  1
  Rh  Rh204  1  0.80638984  -0.00404998  0.58907835  1
  Rh  Rh205  1  0.80147001  0.80159679  0.59941618  1
  Rh  Rh206  1  0.79903936  0.20136243  0.60317512  1
  Rh  Rh207  1  0.40428520  0.60005934  0.20071667  1
  Rh  Rh208  1  0.60424866  0.20484835  -0.00033671  1
  Rh  Rh209  1  0.20758677  -0.00868120  0.39169274  1
  Rh  Rh210  1  0.00526107  0.59786579  0.80403910  1
  Rh  Rh211  1  -0.01097360  0.00776358  0.41007181  1
  Rh  Rh212  1  0.58809048  0.79600572  0.39522800  1
  Rh  Rh213  1  0.59414621  0.00141806  0.20828938  1
  Rh  Rh214  1  -0.00105860  0.59737239  0.60440159  1
  Rh  Rh215  1  0.00428632  0.81060346  0.59637370  1
  Rh  Rh216  1  0.21126982  0.60129088  0.39748112  1
  Rh  Rh217  1  0.39791484  0.59544686  0.00886342  1
  Rh  Rh218  1  0.00944922  0.40915088  0.39368339  1
  Rh  Rh219  1  0.59001520  0.39133507  0.19053543  1
  Rh  Rh220  1  0.00994027  0.01054511  0.19485335  1
  Rh  Rh221  1  0.00321685  0.80498776  0.79936009  1
  Rh  Rh222  1  0.79442076  0.20568872  -0.00471444  1
  Rh  Rh223  1  0.19294185  0.60529031  0.19008220  1
  Rh  Rh224  1  0.79911237  0.19734421  0.80307218  1
  Rh  Rh225  1  0.19771837  0.79498945  0.00650678  1
  Rh  Rh226  1  0.80536681  -0.00784959  -0.00132466  1
  Rh  Rh227  1  0.19642128  0.00412369  0.60092716  1
  Rh  Rh228  1  0.40656961  0.80002790  0.00353225  1
  Rh  Rh229  1  0.59634157  0.60507773  0.59900064  1
  Rh  Rh230  1  0.80753429  0.00077490  0.81170098  1
  Rh  Rh231  1  0.00742282  0.39706328  0.79908074  1
  Rh  Rh232  1  0.20623508  0.19690291  -0.00474887  1
  Rh  Rh233  1  0.59744956  -0.00710955  -0.00420011  1
  Rh  Rh234  1  0.79099340  0.18764136  0.38895876  1
  Rh  Rh235  1  0.39838986  0.19633385  -0.00630144  1
  Rh  Rh236  1  0.80401906  0.80357063  0.40063075  1
  Rh  Rh237  1  0.39701406  0.00016614  0.00626591  1
  Rh  Rh238  1  0.59356630  -0.00021943  0.60558236  1
  Rh  Rh239  1  0.59771442  0.59903104  0.20398728  1
  Rh  Rh240  1  0.79402599  0.81203215  0.19459690  1
  Rh  Rh241  1  0.20130218  -0.00513761  0.81120596  1
  Rh  Rh242  1  0.80396737  0.79738698  0.80404071  1
  Rh  Rh243  1  0.80493274  0.20544883  0.20446639  1
  Rh  Rh244  1  0.20244927  0.79357140  0.80012642  1
  Rh  Rh245  1  0.39807514  0.00688334  0.79526508  1
  Rh  Rh246  1  0.19511246  0.79774061  0.59488941  1
  Rh  Rh247  1  0.39814040  0.39831371  0.19324372  1
  Rh  Rh248  1  0.00007593  0.19644227  0.00842697  1
  Rh  Rh249  1  0.39628018  0.79715657  0.80509936  1
