# generated using pymatgen
data_ZrScNbPdRh
_symmetry_space_group_name_H-M   'P 1'
_cell_length_a   16.55564551
_cell_length_b   16.55583535
_cell_length_c   16.55366068
_cell_angle_alpha   89.98178208
_cell_angle_beta   90.00545064
_cell_angle_gamma   90.02082570
_symmetry_Int_Tables_number   1
_chemical_formula_structural   ZrScNbPdRh
_chemical_formula_sum   'Zr50 Sc50 Nb50 Pd50 Rh50'
_cell_volume   4537.23436890
_cell_formula_units_Z   50
loop_
 _symmetry_equiv_pos_site_id
 _symmetry_equiv_pos_as_xyz
  1  'x, y, z'
loop_
 _atom_site_type_symbol
 _atom_site_label
 _atom_site_symmetry_multiplicity
 _atom_site_fract_x
 _atom_site_fract_y
 _atom_site_fract_z
 _atom_site_occupancy
  Zr  Zr0  1  0.89932507  0.90089923  0.09543680  1
  Zr  Zr1  1  0.70162010  0.70185250  0.89659904  1
  Zr  Zr2  1  0.30108507  0.69810890  0.29976732  1
  Zr  Zr3  1  0.30680946  0.49169295  0.68976681  1
  Zr  Zr4  1  0.09459854  0.69931136  0.50770459  1
  Zr  Zr5  1  0.09616727  0.89953692  0.50215730  1
  Zr  Zr6  1  0.50234867  0.49485866  0.09895394  1
  Zr  Zr7  1  0.89030436  0.49119058  0.30251162  1
  Zr  Zr8  1  0.30151069  0.49608150  0.89960346  1
  Zr  Zr9  1  0.50502581  0.29506330  0.89959653  1
  Zr  Zr10  1  0.70688721  0.30196735  0.30824393  1
  Zr  Zr11  1  0.89881808  0.70198009  0.50125430  1
  Zr  Zr12  1  0.10021953  0.29880130  0.09800745  1
  Zr  Zr13  1  0.29566008  0.10437658  0.09123130  1
  Zr  Zr14  1  0.51082202  0.49552890  0.29686431  1
  Zr  Zr15  1  0.90149316  0.10054534  0.70289728  1
  Zr  Zr16  1  0.50000297  0.49307036  0.89323009  1
  Zr  Zr17  1  0.30755019  0.89404415  0.29655460  1
  Zr  Zr18  1  0.29863600  0.49966511  0.30703672  1
  Zr  Zr19  1  0.50699214  0.69466649  0.50306185  1
  Zr  Zr20  1  0.30514806  0.70872454  0.69841130  1
  Zr  Zr21  1  0.69801634  0.91082605  0.70196285  1
  Zr  Zr22  1  0.09380931  0.29957225  0.89273995  1
  Zr  Zr23  1  0.89824899  0.70430982  0.90040079  1
  Zr  Zr24  1  0.49520823  0.49726218  0.50527266  1
  Zr  Zr25  1  0.30165195  0.70740573  0.90115111  1
  Zr  Zr26  1  0.89993168  0.89915495  0.30308489  1
  Zr  Zr27  1  0.29936156  0.09774188  0.70050528  1
  Zr  Zr28  1  0.49786777  0.30282052  0.70145868  1
  Zr  Zr29  1  0.30294377  0.09754605  0.89854630  1
  Zr  Zr30  1  0.89767150  0.09316698  0.09632356  1
  Zr  Zr31  1  0.89624917  0.29699200  0.69462951  1
  Zr  Zr32  1  0.30306203  0.30036888  0.30160664  1
  Zr  Zr33  1  0.08699314  0.69406679  0.70065153  1
  Zr  Zr34  1  0.10275776  0.89420476  0.70187990  1
  Zr  Zr35  1  0.69164933  0.10582504  0.89768344  1
  Zr  Zr36  1  0.29456523  0.49678933  0.49876976  1
  Zr  Zr37  1  0.10348260  0.10347850  0.70183176  1
  Zr  Zr38  1  0.30089827  0.30296405  0.49984101  1
  Zr  Zr39  1  0.50121002  0.70660448  0.29752215  1
  Zr  Zr40  1  0.30414103  0.09651757  0.50131876  1
  Zr  Zr41  1  0.89328019  0.30218645  0.89161070  1
  Zr  Zr42  1  0.29458069  0.49575581  0.09628170  1
  Zr  Zr43  1  0.30788201  0.69684808  0.49782773  1
  Zr  Zr44  1  0.69880914  0.69432180  0.30994530  1
  Zr  Zr45  1  0.50324943  0.10148109  0.30644669  1
  Zr  Zr46  1  0.49274416  0.91067737  0.49712064  1
  Zr  Zr47  1  0.50340496  0.88916000  0.10009442  1
  Zr  Zr48  1  0.49994232  0.89840925  0.69653949  1
  Zr  Zr49  1  0.09549176  0.69842752  0.09628295  1
  Sc  Sc50  1  0.50427287  0.09216580  0.70828833  1
  Sc  Sc51  1  0.69832722  0.69405419  0.08836200  1
  Sc  Sc52  1  0.68888429  0.49852865  0.49997327  1
  Sc  Sc53  1  0.90713077  0.50113123  0.70038249  1
  Sc  Sc54  1  0.30886846  0.29758594  0.89803471  1
  Sc  Sc55  1  0.50775953  0.10331611  0.08988271  1
  Sc  Sc56  1  0.89049857  0.50114854  0.09489691  1
  Sc  Sc57  1  0.69826293  0.49897452  0.10570614  1
  Sc  Sc58  1  0.09865877  0.10021322  0.90148077  1
  Sc  Sc59  1  0.50584406  0.90055163  0.30044985  1
  Sc  Sc60  1  0.69554502  0.10554110  0.49888559  1
  Sc  Sc61  1  0.29674786  0.29617472  0.70236583  1
  Sc  Sc62  1  0.49901931  0.10264648  0.89510576  1
  Sc  Sc63  1  0.89481657  0.09239790  0.89694529  1
  Sc  Sc64  1  0.08893628  0.89845599  0.30052115  1
  Sc  Sc65  1  0.89906701  0.89812561  0.90291186  1
  Sc  Sc66  1  0.49684174  0.90289819  0.90334482  1
  Sc  Sc67  1  0.89648499  0.49264223  0.49771386  1
  Sc  Sc68  1  0.89197979  0.29674171  0.10653900  1
  Sc  Sc69  1  0.70193394  0.50298543  0.90572349  1
  Sc  Sc70  1  0.89430974  0.69993843  0.30835282  1
  Sc  Sc71  1  0.30809001  0.11325407  0.30596576  1
  Sc  Sc72  1  0.08901223  0.70222815  0.89511404  1
  Sc  Sc73  1  0.69978403  0.29727763  0.09198724  1
  Sc  Sc74  1  0.89991706  0.89167521  0.49657412  1
  Sc  Sc75  1  0.49580625  0.30458477  0.30034600  1
  Sc  Sc76  1  0.70403299  0.89746729  0.90070713  1
  Sc  Sc77  1  0.50893539  0.70757423  0.90157855  1
  Sc  Sc78  1  0.51261108  0.29942858  0.49919430  1
  Sc  Sc79  1  0.08836995  0.90545055  0.10012284  1
  Sc  Sc80  1  0.68471658  0.71079492  0.69999591  1
  Sc  Sc81  1  0.09486156  0.50080159  0.91171347  1
  Sc  Sc82  1  0.70440630  0.09578230  0.09613515  1
  Sc  Sc83  1  0.50245173  0.10071669  0.49078904  1
  Sc  Sc84  1  0.50507413  0.50250613  0.69156516  1
  Sc  Sc85  1  0.90385926  0.10933943  0.30030914  1
  Sc  Sc86  1  0.30759795  0.90075294  0.69395863  1
  Sc  Sc87  1  0.90442087  0.11079900  0.49788446  1
  Sc  Sc88  1  0.69263989  0.90134779  0.29851301  1
  Sc  Sc89  1  0.88881526  0.90139531  0.71051383  1
  Sc  Sc90  1  0.69919278  0.09770396  0.30299674  1
  Sc  Sc91  1  0.49873360  0.30896006  0.10283883  1
  Sc  Sc92  1  0.09897061  0.10153962  0.09817865  1
  Sc  Sc93  1  0.09882176  0.28897735  0.69793601  1
  Sc  Sc94  1  0.29763882  0.70985744  0.10574916  1
  Sc  Sc95  1  0.90072079  0.49887123  0.89790582  1
  Sc  Sc96  1  0.10168407  0.29320760  0.49761014  1
  Sc  Sc97  1  0.10558351  0.10533601  0.50540801  1
  Sc  Sc98  1  0.70262352  0.89811656  0.50667176  1
  Sc  Sc99  1  0.10786809  0.69881745  0.29812078  1
  Nb  Nb100  1  0.70190564  0.29717199  0.69633711  1
  Nb  Nb101  1  0.10498766  0.10604959  0.30509572  1
  Nb  Nb102  1  0.90205438  0.69258732  0.70613153  1
  Nb  Nb103  1  0.70490859  0.69868315  0.49970953  1
  Nb  Nb104  1  0.09765386  0.49682024  0.10545591  1
  Nb  Nb105  1  0.10427519  0.50162715  0.50536874  1
  Nb  Nb106  1  0.49578370  0.69994320  0.09611203  1
  Nb  Nb107  1  0.09770888  0.90014858  0.90273600  1
  Nb  Nb108  1  0.10268860  0.50347860  0.69024017  1
  Nb  Nb109  1  0.30108901  0.30315637  0.10577099  1
  Nb  Nb110  1  0.70852854  0.29819690  0.50785519  1
  Nb  Nb111  1  0.70212744  0.10123326  0.70648877  1
  Nb  Nb112  1  0.29885291  0.90624073  0.09605275  1
  Nb  Nb113  1  0.29797221  0.90403733  0.90733078  1
  Nb  Nb114  1  0.89386197  0.30044234  0.49178599  1
  Nb  Nb115  1  0.70411412  0.89931527  0.09965324  1
  Nb  Nb116  1  0.70079028  0.29563972  0.88769929  1
  Nb  Nb117  1  0.49747463  0.69704151  0.70053959  1
  Nb  Nb118  1  0.09580156  0.29156693  0.29910068  1
  Nb  Nb119  1  0.29943377  0.90622044  0.50218996  1
  Nb  Nb120  1  0.69793085  0.50068144  0.29829514  1
  Nb  Nb121  1  0.90301206  0.30021861  0.31696102  1
  Nb  Nb122  1  0.89730804  0.70347696  0.09704244  1
  Nb  Nb123  1  0.10217056  0.49959120  0.30302471  1
  Nb  Nb124  1  0.69668073  0.50294804  0.69789957  1
  Nb  Nb125  1  0.40019344  0.60328607  0.79985262  1
  Nb  Nb126  1  0.20205345  -0.00862039  0.80711530  1
  Nb  Nb127  1  0.19617564  0.40762594  0.79570015  1
  Nb  Nb128  1  0.79564684  0.60490719  0.60428092  1
  Nb  Nb129  1  0.60233610  0.20258987  0.20265929  1
  Nb  Nb130  1  0.00556288  0.59058145  0.39854358  1
  Nb  Nb131  1  0.00025272  0.00035932  0.60403387  1
  Nb  Nb132  1  0.19288473  0.39685129  0.20237675  1
  Nb  Nb133  1  0.00261641  0.40001840  0.20884727  1
  Nb  Nb134  1  0.20232956  0.59599066  0.79568787  1
  Nb  Nb135  1  0.40271753  0.19763694  0.60063531  1
  Nb  Nb136  1  0.40423971  0.59881051  0.19453414  1
  Nb  Nb137  1  0.00346854  0.39902524  0.59504754  1
  Nb  Nb138  1  0.20352540  0.80568762  0.40561295  1
  Nb  Nb139  1  0.79806538  0.79945407  0.19443978  1
  Nb  Nb140  1  0.40196938  0.60215149  0.00065096  1
  Nb  Nb141  1  0.20222165  -0.00265664  0.39594457  1
  Nb  Nb142  1  0.19777992  0.80932558  -0.00159600  1
  Nb  Nb143  1  0.80381860  0.00002548  0.40031654  1
  Nb  Nb144  1  0.61127926  0.39570144  0.79448819  1
  Nb  Nb145  1  0.79601277  0.60314970  0.79213631  1
  Nb  Nb146  1  -0.00653603  0.20351914  -0.00219069  1
  Nb  Nb147  1  -0.00052292  0.59161255  0.20205818  1
  Nb  Nb148  1  0.39685829  0.00134826  0.19413615  1
  Nb  Nb149  1  0.20455387  0.00396438  0.20493750  1
  Pd  Pd150  1  -0.00508947  0.20109078  0.19585900  1
  Pd  Pd151  1  0.60264473  -0.00479013  -0.00405500  1
  Pd  Pd152  1  0.19711133  0.79950617  0.80524374  1
  Pd  Pd153  1  -0.00798617  0.59792881  0.00408855  1
  Pd  Pd154  1  0.41118518  0.59514027  0.39232212  1
  Pd  Pd155  1  0.59596069  0.80316969  0.59421539  1
  Pd  Pd156  1  0.60387334  0.80547795  0.40959097  1
  Pd  Pd157  1  0.79970156  0.19101359  0.59808417  1
  Pd  Pd158  1  0.61172470  0.79010065  0.19367142  1
  Pd  Pd159  1  0.19679289  0.20726257  -0.00889712  1
  Pd  Pd160  1  0.79927093  -0.00401322  0.20807740  1
  Pd  Pd161  1  0.40488252  0.20741706  0.00549543  1
  Pd  Pd162  1  0.00073749  0.01002865  0.40768988  1
  Pd  Pd163  1  0.20815497  0.60684973  0.60410200  1
  Pd  Pd164  1  0.20252031  0.19929342  0.20154091  1
  Pd  Pd165  1  0.79570731  0.41010263  0.79441243  1
  Pd  Pd166  1  0.80218198  0.40763416  0.59989086  1
  Pd  Pd167  1  0.59827608  0.00919282  0.59668356  1
  Pd  Pd168  1  0.00836231  0.40568455  0.78913416  1
  Pd  Pd169  1  0.80323935  0.60777377  0.19817704  1
  Pd  Pd170  1  0.59390556  0.00795718  0.19593620  1
  Pd  Pd171  1  0.60331411  0.39684061  0.40258154  1
  Pd  Pd172  1  0.80825927  0.00711889  0.59035209  1
  Pd  Pd173  1  0.19132406  0.39150004  0.39672777  1
  Pd  Pd174  1  0.59507259  0.59802751  -0.00319355  1
  Pd  Pd175  1  0.00519376  0.00959911  0.20455822  1
  Pd  Pd176  1  0.19191842  0.81228588  0.19688004  1
  Pd  Pd177  1  0.41103328  0.19464880  0.19228728  1
  Pd  Pd178  1  0.20121377  0.59480831  0.19697187  1
  Pd  Pd179  1  0.80322232  0.19724618  -0.00662578  1
  Pd  Pd180  1  0.20467628  0.79841443  0.59491331  1
  Pd  Pd181  1  0.20139074  0.39040016  -0.00428554  1
  Pd  Pd182  1  0.79523208  0.19984471  0.20590564  1
  Pd  Pd183  1  0.79964067  0.39408074  0.19963764  1
  Pd  Pd184  1  -0.00840313  0.78881648  0.20509671  1
  Pd  Pd185  1  0.80076471  0.59072246  0.40946649  1
  Pd  Pd186  1  0.59444014  0.19418829  0.60492077  1
  Pd  Pd187  1  0.79582437  0.39985381  -0.00083318  1
  Pd  Pd188  1  0.59820020  0.60656073  0.19639199  1
  Pd  Pd189  1  0.00500903  -0.00420765  0.79834793  1
  Pd  Pd190  1  -0.01103554  0.39375208  0.00906698  1
  Pd  Pd191  1  0.59608498  0.80920131  0.80346831  1
  Pd  Pd192  1  0.40937200  0.00076070  0.00430158  1
  Pd  Pd193  1  0.80180837  0.79407309  0.61075638  1
  Pd  Pd194  1  -0.01484987  0.80954255  0.61240903  1
  Pd  Pd195  1  0.40101169  0.80259196  0.40564358  1
  Pd  Pd196  1  0.20157310  0.61033768  -0.00510146  1
  Pd  Pd197  1  0.40751124  0.80338712  0.80394414  1
  Pd  Pd198  1  0.00912978  0.40082879  0.40512153  1
  Pd  Pd199  1  0.60772867  0.39497306  -0.00693295  1
  Rh  Rh200  1  0.39435604  0.79884176  0.00394533  1
  Rh  Rh201  1  0.80277323  0.60002929  -0.00790139  1
  Rh  Rh202  1  0.40772162  0.80127340  0.59274644  1
  Rh  Rh203  1  -0.01188105  0.58910584  0.58876469  1
  Rh  Rh204  1  0.80121207  0.19387956  0.79743362  1
  Rh  Rh205  1  -0.00818674  0.19820268  0.80728676  1
  Rh  Rh206  1  0.20372798  0.19820150  0.80590161  1
  Rh  Rh207  1  0.40226615  0.80083101  0.19475748  1
  Rh  Rh208  1  0.38983079  0.40845127  0.20111994  1
  Rh  Rh209  1  0.78959182  0.81026330  0.39211604  1
  Rh  Rh210  1  0.79857093  0.79319196  0.79605699  1
  Rh  Rh211  1  0.60103224  0.20505608  0.00398636  1
  Rh  Rh212  1  0.59767508  0.59266245  0.79671248  1
  Rh  Rh213  1  0.60542263  0.80314939  0.00113882  1
  Rh  Rh214  1  0.79483216  -0.00277150  -0.00503379  1
  Rh  Rh215  1  0.00414504  0.80167340  -0.00131204  1
  Rh  Rh216  1  0.78762661  0.40378903  0.40792781  1
  Rh  Rh217  1  -0.00559994  0.20405701  0.59548357  1
  Rh  Rh218  1  0.19152133  -0.00307120  0.60284410  1
  Rh  Rh219  1  0.00144742  0.59160551  0.80530016  1
  Rh  Rh220  1  0.40224984  0.19565262  0.79265468  1
  Rh  Rh221  1  0.40796504  0.00849147  0.60245902  1
  Rh  Rh222  1  0.40622865  0.39991888  0.40368848  1
  Rh  Rh223  1  0.61303776  0.39020613  0.20273645  1
  Rh  Rh224  1  0.19196803  0.60983480  0.40728836  1
  Rh  Rh225  1  0.39449041  -0.00047165  0.38886905  1
  Rh  Rh226  1  0.40456078  0.38902231  0.59448925  1
  Rh  Rh227  1  0.20090590  0.19754319  0.40137739  1
  Rh  Rh228  1  0.21073209  0.20284167  0.59693000  1
  Rh  Rh229  1  0.40248487  0.40283671  0.79446130  1
  Rh  Rh230  1  0.79709950  0.19379342  0.40172444  1
  Rh  Rh231  1  -0.00002659  0.00763469  -0.00360092  1
  Rh  Rh232  1  0.00433390  0.19996574  0.40328247  1
  Rh  Rh233  1  0.60467574  0.20742470  0.39409751  1
  Rh  Rh234  1  0.60618621  0.60525297  0.59961651  1
  Rh  Rh235  1  -0.00741081  0.80508551  0.80047708  1
  Rh  Rh236  1  0.18921894  0.39085021  0.60605931  1
  Rh  Rh237  1  0.39433278  -0.00569283  0.80052670  1
  Rh  Rh238  1  0.60139749  0.20337500  0.79099477  1
  Rh  Rh239  1  0.60531617  0.39503771  0.60451787  1
  Rh  Rh240  1  0.39882273  0.60262701  0.60492357  1
  Rh  Rh241  1  0.00899958  0.78457291  0.39355118  1
  Rh  Rh242  1  0.39904985  0.39713396  0.00207670  1
  Rh  Rh243  1  0.79186443  0.00373536  0.80615230  1
  Rh  Rh244  1  0.19042418  -0.00497985  0.00159449  1
  Rh  Rh245  1  0.59812939  0.59747011  0.40182121  1
  Rh  Rh246  1  0.79726456  0.80058499  0.00581394  1
  Rh  Rh247  1  0.60208785  -0.00323371  0.80533381  1
  Rh  Rh248  1  0.61111432  -0.00479206  0.40576566  1
  Rh  Rh249  1  0.40541541  0.20934222  0.41140407  1
