# generated using pymatgen
data_ZrScNbPdRh
_symmetry_space_group_name_H-M   'P 1'
_cell_length_a   16.55200578
_cell_length_b   16.55092404
_cell_length_c   16.55371280
_cell_angle_alpha   89.98171840
_cell_angle_beta   90.00067455
_cell_angle_gamma   90.02504688
_symmetry_Int_Tables_number   1
_chemical_formula_structural   ZrScNbPdRh
_chemical_formula_sum   'Zr50 Sc50 Nb50 Pd50 Rh50'
_cell_volume   4534.90535072
_cell_formula_units_Z   50
loop_
 _symmetry_equiv_pos_site_id
 _symmetry_equiv_pos_as_xyz
  1  'x, y, z'
loop_
 _atom_site_type_symbol
 _atom_site_label
 _atom_site_symmetry_multiplicity
 _atom_site_fract_x
 _atom_site_fract_y
 _atom_site_fract_z
 _atom_site_occupancy
  Zr  Zr0  1  0.90493853  0.29728949  0.10222539  1
  Zr  Zr1  1  0.10443104  0.89882230  0.90194110  1
  Zr  Zr2  1  0.90433865  0.10726028  0.09814540  1
  Zr  Zr3  1  0.09997613  0.09995201  0.49356826  1
  Zr  Zr4  1  0.90051921  0.49794388  0.69923815  1
  Zr  Zr5  1  0.49518710  0.50513580  0.50878421  1
  Zr  Zr6  1  0.50392576  0.09658278  0.69623160  1
  Zr  Zr7  1  0.90055886  0.89586748  0.89826509  1
  Zr  Zr8  1  0.69486947  0.09957842  0.90054940  1
  Zr  Zr9  1  0.50113313  0.49729713  0.70129772  1
  Zr  Zr10  1  0.11746619  0.30568616  0.89423787  1
  Zr  Zr11  1  0.69708333  0.50320795  0.10202779  1
  Zr  Zr12  1  0.89530718  0.89294229  0.29867618  1
  Zr  Zr13  1  0.89095162  0.10610773  0.49909014  1
  Zr  Zr14  1  0.30031532  0.50285377  0.29976347  1
  Zr  Zr15  1  0.69897574  0.69922556  0.30592230  1
  Zr  Zr16  1  0.29642351  0.10872557  0.49443320  1
  Zr  Zr17  1  0.50466652  0.90018852  0.29743307  1
  Zr  Zr18  1  0.09026017  0.68807959  0.29989156  1
  Zr  Zr19  1  0.90011164  0.89295207  0.09857103  1
  Zr  Zr20  1  0.89661306  0.11113297  0.90126121  1
  Zr  Zr21  1  0.09383682  0.49446492  0.71468954  1
  Zr  Zr22  1  0.89986742  0.89618670  0.70466981  1
  Zr  Zr23  1  0.49289143  0.50145637  0.90600348  1
  Zr  Zr24  1  0.10428604  0.68457511  0.90330087  1
  Zr  Zr25  1  0.49578883  0.70238616  0.90214061  1
  Zr  Zr26  1  0.49570371  0.71008592  0.30274700  1
  Zr  Zr27  1  0.70431565  0.50495509  0.69274596  1
  Zr  Zr28  1  0.09005019  0.90404259  0.30681094  1
  Zr  Zr29  1  0.70026037  0.29944688  0.29986573  1
  Zr  Zr30  1  0.69806751  0.49950686  0.30381193  1
  Zr  Zr31  1  0.29884160  0.30005503  0.50350059  1
  Zr  Zr32  1  0.49415605  0.90311294  0.69736483  1
  Zr  Zr33  1  0.29139769  0.29715547  0.70663291  1
  Zr  Zr34  1  0.49835905  0.70070349  0.69854863  1
  Zr  Zr35  1  0.29835761  0.90715912  0.09435180  1
  Zr  Zr36  1  0.30437531  0.69758169  0.89720659  1
  Zr  Zr37  1  0.30638145  0.70403130  0.50175961  1
  Zr  Zr38  1  0.69609962  0.10310181  0.69434315  1
  Zr  Zr39  1  0.69963097  0.69220697  0.50274848  1
  Zr  Zr40  1  0.50133830  0.29566037  0.69957726  1
  Zr  Zr41  1  0.10455770  0.90276716  0.09797796  1
  Zr  Zr42  1  0.69957781  0.10031627  0.09732234  1
  Zr  Zr43  1  0.69833460  0.29732744  0.10769117  1
  Zr  Zr44  1  0.69370810  0.90218878  0.69226892  1
  Zr  Zr45  1  0.69570027  0.69652484  0.90391152  1
  Zr  Zr46  1  0.89791211  0.29755209  0.29488615  1
  Zr  Zr47  1  0.10677104  0.10347736  0.70607651  1
  Zr  Zr48  1  0.11231742  0.10780524  0.10045295  1
  Zr  Zr49  1  0.10157477  0.89592312  0.49919594  1
  Sc  Sc50  1  0.89931150  0.70164397  0.90381445  1
  Sc  Sc51  1  0.89332800  0.69423029  0.71265063  1
  Sc  Sc52  1  0.30607732  0.09696535  0.70527824  1
  Sc  Sc53  1  0.30481519  0.70724797  0.70109028  1
  Sc  Sc54  1  0.90013480  0.69888717  0.48065499  1
  Sc  Sc55  1  0.69989114  0.70127820  0.70024880  1
  Sc  Sc56  1  0.48846365  0.49997199  0.10721175  1
  Sc  Sc57  1  0.49469696  0.89538846  0.09807599  1
  Sc  Sc58  1  0.69815665  0.90203454  0.49332398  1
  Sc  Sc59  1  0.69985077  0.90694749  0.10233847  1
  Sc  Sc60  1  0.09920484  0.51038858  0.09803225  1
  Sc  Sc61  1  0.09740641  0.69622333  0.09746385  1
  Sc  Sc62  1  0.30358077  0.10086806  0.90598357  1
  Sc  Sc63  1  0.49829063  0.50589009  0.30032855  1
  Sc  Sc64  1  0.90890762  0.50428468  0.89608460  1
  Sc  Sc65  1  0.30955016  0.89495651  0.30312107  1
  Sc  Sc66  1  0.31162850  0.69814074  0.29777251  1
  Sc  Sc67  1  0.29038286  0.29871165  0.30685085  1
  Sc  Sc68  1  0.69596016  0.89996564  0.29729621  1
  Sc  Sc69  1  0.50269176  0.70263064  0.49874659  1
  Sc  Sc70  1  0.68961042  0.09534399  0.29174711  1
  Sc  Sc71  1  0.49646152  0.70024405  0.10024800  1
  Sc  Sc72  1  0.50544242  0.10242012  0.09316381  1
  Sc  Sc73  1  0.08909436  0.49289123  0.48537392  1
  Sc  Sc74  1  0.91197644  0.50226639  0.29636363  1
  Sc  Sc75  1  0.90731371  0.29963167  0.69801031  1
  Sc  Sc76  1  0.10127443  0.29825735  0.70185251  1
  Sc  Sc77  1  0.90309237  0.10186960  0.30411959  1
  Sc  Sc78  1  0.89676840  0.69852444  0.29209191  1
  Sc  Sc79  1  0.50173457  0.89956073  0.50452661  1
  Sc  Sc80  1  0.90149190  0.10720209  0.69711136  1
  Sc  Sc81  1  0.89777552  0.49951881  0.10115057  1
  Sc  Sc82  1  0.90049968  0.90511033  0.48500253  1
  Sc  Sc83  1  0.49452926  0.89691645  0.90210962  1
  Sc  Sc84  1  0.70145401  0.69130178  0.09962609  1
  Sc  Sc85  1  0.90553761  0.29946020  0.49722964  1
  Sc  Sc86  1  0.69851122  0.49717105  0.90749471  1
  Sc  Sc87  1  0.29126287  0.49863735  0.90810969  1
  Sc  Sc88  1  0.49745452  0.28817395  0.90216905  1
  Sc  Sc89  1  0.10563847  0.89749558  0.70889220  1
  Sc  Sc90  1  0.09220456  0.30505550  0.30131132  1
  Sc  Sc91  1  0.71339134  0.30385588  0.48970409  1
  Sc  Sc92  1  0.50503880  0.30513005  0.29514983  1
  Sc  Sc93  1  0.11047081  0.70307721  0.70574322  1
  Sc  Sc94  1  0.10844936  0.10451475  0.29806931  1
  Sc  Sc95  1  0.69925415  0.29167294  0.90120764  1
  Sc  Sc96  1  0.69951938  0.89435636  0.90234104  1
  Sc  Sc97  1  0.31182864  0.50455801  0.69598731  1
  Sc  Sc98  1  0.29876083  0.69387886  0.10356918  1
  Sc  Sc99  1  0.30642601  0.90360381  0.90138624  1
  Nb  Nb100  1  0.30207094  0.30411825  0.90787873  1
  Nb  Nb101  1  0.70392721  0.50250281  0.50493220  1
  Nb  Nb102  1  0.29662038  0.29774060  0.08704113  1
  Nb  Nb103  1  0.89140759  0.50160685  0.50992965  1
  Nb  Nb104  1  0.09824783  0.49738411  0.90175670  1
  Nb  Nb105  1  0.49558959  0.29976532  0.50500158  1
  Nb  Nb106  1  0.29807030  0.49301529  0.10470752  1
  Nb  Nb107  1  0.30230240  0.50046470  0.50017783  1
  Nb  Nb108  1  0.69793359  0.10034674  0.50056739  1
  Nb  Nb109  1  0.89821601  0.30172033  0.90487770  1
  Nb  Nb110  1  0.09972407  0.69940698  0.49988179  1
  Nb  Nb111  1  0.10117392  0.09627732  0.89705859  1
  Nb  Nb112  1  0.30197547  0.10461544  0.29700413  1
  Nb  Nb113  1  0.49470376  0.09296033  0.89677096  1
  Nb  Nb114  1  0.29647646  0.10393017  0.10449614  1
  Nb  Nb115  1  0.49159766  0.30089160  0.09804776  1
  Nb  Nb116  1  0.49888531  0.10779967  0.50256751  1
  Nb  Nb117  1  0.10406077  0.29967003  0.10054822  1
  Nb  Nb118  1  0.11096007  0.29947342  0.49954173  1
  Nb  Nb119  1  0.49773530  0.10223802  0.29816642  1
  Nb  Nb120  1  0.30256658  0.90034182  0.50484760  1
  Nb  Nb121  1  0.30631454  0.89952087  0.68702083  1
  Nb  Nb122  1  0.10401476  0.49756395  0.29466427  1
  Nb  Nb123  1  0.90222578  0.69287847  0.10125242  1
  Nb  Nb124  1  0.69075471  0.30418005  0.70914171  1
  Nb  Nb125  1  0.40017261  0.39966020  0.40863576  1
  Nb  Nb126  1  0.19958337  0.40115234  0.19361167  1
  Nb  Nb127  1  0.59441550  0.19687803  0.40586315  1
  Nb  Nb128  1  0.19878077  0.40708089  0.59419809  1
  Nb  Nb129  1  0.19465948  0.59515615  0.59267073  1
  Nb  Nb130  1  0.39778134  0.39468793  0.80563853  1
  Nb  Nb131  1  0.79792320  0.00289349  0.79839995  1
  Nb  Nb132  1  0.00383325  0.00482428  -0.00162470  1
  Nb  Nb133  1  0.80679853  0.79977070  0.59580496  1
  Nb  Nb134  1  0.59586769  0.59887258  0.80352755  1
  Nb  Nb135  1  -0.00281413  0.79644307  0.59792059  1
  Nb  Nb136  1  0.00095757  0.00086177  0.19248280  1
  Nb  Nb137  1  0.00486768  -0.00269657  0.59978264  1
  Nb  Nb138  1  0.79910237  0.39552755  0.79955538  1
  Nb  Nb139  1  0.19951199  0.79399501  0.39905944  1
  Nb  Nb140  1  0.00706428  0.39520084  -0.00271564  1
  Nb  Nb141  1  0.59293546  0.39517966  0.00772930  1
  Nb  Nb142  1  0.39484546  0.20114103  0.19461057  1
  Nb  Nb143  1  0.19653147  0.79920830  0.20670509  1
  Nb  Nb144  1  0.60551091  0.39816745  0.59479368  1
  Nb  Nb145  1  0.40331809  0.01109720  0.39993758  1
  Nb  Nb146  1  0.20178190  -0.00297046  0.59854840  1
  Nb  Nb147  1  0.00212920  0.60278635  0.59679106  1
  Nb  Nb148  1  0.19914378  0.59933866  0.40334683  1
  Nb  Nb149  1  0.39778874  0.01066201  0.20240312  1
  Pd  Pd150  1  0.60166430  0.80138959  0.00794105  1
  Pd  Pd151  1  0.01348398  0.20451469  -0.00927662  1
  Pd  Pd152  1  0.79466827  0.79474382  0.00668167  1
  Pd  Pd153  1  0.80373176  0.40787544  0.20438136  1
  Pd  Pd154  1  0.21222088  -0.00449677  0.79764492  1
  Pd  Pd155  1  0.00367844  0.20825412  0.80455531  1
  Pd  Pd156  1  0.59331663  0.59961072  0.40149276  1
  Pd  Pd157  1  0.59264877  -0.00745504  0.00080051  1
  Pd  Pd158  1  0.79318302  0.59094981  0.81009681  1
  Pd  Pd159  1  0.79839913  0.20248853  0.79281085  1
  Pd  Pd160  1  0.00825926  0.40314368  0.59527945  1
  Pd  Pd161  1  0.59515803  0.40434471  0.19577219  1
  Pd  Pd162  1  0.79817895  0.18978522  0.20584734  1
  Pd  Pd163  1  -0.00874654  0.39913134  0.40008816  1
  Pd  Pd164  1  0.80815862  -0.00583408  0.60119093  1
  Pd  Pd165  1  0.59754943  0.20329994  -0.00125857  1
  Pd  Pd166  1  0.60087754  -0.00353619  0.80417189  1
  Pd  Pd167  1  0.00565298  0.78889187  0.79979317  1
  Pd  Pd168  1  0.59328208  0.60450224  0.20051580  1
  Pd  Pd169  1  0.40655199  0.20811635  0.39074352  1
  Pd  Pd170  1  0.21043044  0.80663743  0.80321083  1
  Pd  Pd171  1  0.60630283  0.79688287  0.19316177  1
  Pd  Pd172  1  0.80710633  0.00484690  0.20344080  1
  Pd  Pd173  1  0.39398866  0.59889060  0.00826646  1
  Pd  Pd174  1  0.59921303  0.40432669  0.80879854  1
  Pd  Pd175  1  0.21113986  -0.00697378  0.39779828  1
  Pd  Pd176  1  0.80585143  -0.00035906  -0.00605044  1
  Pd  Pd177  1  0.60042471  0.79662841  0.79981768  1
  Pd  Pd178  1  0.80727534  0.59689330  -0.00324460  1
  Pd  Pd179  1  0.20558980  0.79111398  0.00481539  1
  Pd  Pd180  1  0.59273090  0.39618462  0.40908099  1
  Pd  Pd181  1  -0.00753645  0.00564426  0.79973204  1
  Pd  Pd182  1  0.81122873  0.40905193  0.39584666  1
  Pd  Pd183  1  0.61242698  0.21171356  0.59044142  1
  Pd  Pd184  1  0.00738089  0.19681149  0.59690959  1
  Pd  Pd185  1  0.39884635  0.20073409  0.80362825  1
  Pd  Pd186  1  0.59424720  0.00541783  0.40520100  1
  Pd  Pd187  1  0.20916861  0.59250343  0.79185861  1
  Pd  Pd188  1  0.00376146  0.79681868  -0.00240576  1
  Pd  Pd189  1  0.20307153  -0.00826341  0.21204746  1
  Pd  Pd190  1  0.79596000  0.38800920  0.60672712  1
  Pd  Pd191  1  0.79899258  0.39669404  -0.00319889  1
  Pd  Pd192  1  0.00415661  0.20226047  0.39735680  1
  Pd  Pd193  1  0.39010132  0.39011248  0.20952771  1
  Pd  Pd194  1  0.00506938  0.79981809  0.19868260  1
  Pd  Pd195  1  0.79115164  0.79330375  0.19468981  1
  Pd  Pd196  1  0.79425383  0.00563709  0.38986612  1
  Pd  Pd197  1  0.80654442  0.59151431  0.39394848  1
  Pd  Pd198  1  0.79340525  0.21180471  0.60381931  1
  Pd  Pd199  1  0.39350479  0.19683006  0.60725223  1
  Rh  Rh200  1  -0.00505070  0.00938818  0.39880321  1
  Rh  Rh201  1  -0.00170208  0.59315388  0.40304579  1
  Rh  Rh202  1  0.19801249  0.00824799  -0.00825973  1
  Rh  Rh203  1  0.20570149  0.19364993  0.80888377  1
  Rh  Rh204  1  0.59478043  0.19130334  0.80370787  1
  Rh  Rh205  1  0.59001055  -0.00135236  0.19124599  1
  Rh  Rh206  1  0.21216084  0.40931574  0.79355744  1
  Rh  Rh207  1  0.39596970  0.61007497  0.60209445  1
  Rh  Rh208  1  -0.00791205  0.39075233  0.81077713  1
  Rh  Rh209  1  0.00094287  0.79523898  0.39816397  1
  Rh  Rh210  1  0.20381976  0.40552138  0.39921425  1
  Rh  Rh211  1  0.19354346  0.40664837  0.00882512  1
  Rh  Rh212  1  0.39437462  0.00808763  0.59103842  1
  Rh  Rh213  1  0.00304801  0.60664771  0.79804513  1
  Rh  Rh214  1  0.39370699  0.79599034  0.00125116  1
  Rh  Rh215  1  0.81295758  0.61423989  0.59472043  1
  Rh  Rh216  1  0.20392998  0.21432607  0.20269988  1
  Rh  Rh217  1  0.40324393  0.39805227  -0.00400202  1
  Rh  Rh218  1  0.38934341  0.80799888  0.19075173  1
  Rh  Rh219  1  0.40260260  0.60321541  0.19875590  1
  Rh  Rh220  1  0.78878635  0.80825349  0.79358712  1
  Rh  Rh221  1  0.59758935  0.59706382  0.60496151  1
  Rh  Rh222  1  0.19782146  0.80020050  0.59669572  1
  Rh  Rh223  1  0.40144611  0.59561267  0.39933190  1
  Rh  Rh224  1  0.40345390  0.00676396  0.00615455  1
  Rh  Rh225  1  0.80019794  0.59838952  0.20338959  1
  Rh  Rh226  1  0.40042995  0.80984462  0.40654644  1
  Rh  Rh227  1  0.79344428  0.20557883  0.00480636  1
  Rh  Rh228  1  0.59483949  0.59264228  -0.00061434  1
  Rh  Rh229  1  0.78712166  0.19110919  0.39316466  1
  Rh  Rh230  1  -0.00252153  0.59583934  0.19278877  1
  Rh  Rh231  1  0.39918155  0.19372232  0.00422145  1
  Rh  Rh232  1  0.79262431  0.79995308  0.40133465  1
  Rh  Rh233  1  0.60627878  0.80013330  0.59553181  1
  Rh  Rh234  1  0.20375416  0.59665761  0.00292200  1
  Rh  Rh235  1  0.19233618  0.20526194  0.39402014  1
  Rh  Rh236  1  0.39834875  0.39269410  0.60390879  1
  Rh  Rh237  1  0.19764033  0.19852098  0.60272906  1
  Rh  Rh238  1  0.59597219  0.00094253  0.59165876  1
  Rh  Rh239  1  0.60163907  0.79991156  0.40115810  1
  Rh  Rh240  1  0.39654646  0.80756435  0.79775616  1
  Rh  Rh241  1  0.40246005  0.59472524  0.80072801  1
  Rh  Rh242  1  0.59217360  0.20127012  0.20294223  1
  Rh  Rh243  1  0.40790574  0.79774253  0.59719715  1
  Rh  Rh244  1  -0.00540273  0.59493173  0.00108590  1
  Rh  Rh245  1  0.40074674  -0.00350210  0.79968120  1
  Rh  Rh246  1  0.00894689  0.40167311  0.18899854  1
  Rh  Rh247  1  0.00592688  0.19619299  0.20556771  1
  Rh  Rh248  1  0.20105835  0.59981421  0.20510407  1
  Rh  Rh249  1  0.20090952  0.19650693  -0.00792073  1
