# generated using pymatgen
data_ZrScNbPdRh
_symmetry_space_group_name_H-M   'P 1'
_cell_length_a   16.56071831
_cell_length_b   16.55799692
_cell_length_c   16.55861730
_cell_angle_alpha   90.01330931
_cell_angle_beta   90.02464499
_cell_angle_gamma   89.98630015
_symmetry_Int_Tables_number   1
_chemical_formula_structural   ZrScNbPdRh
_chemical_formula_sum   'Zr50 Sc50 Nb50 Pd50 Rh50'
_cell_volume   4540.57623927
_cell_formula_units_Z   50
loop_
 _symmetry_equiv_pos_site_id
 _symmetry_equiv_pos_as_xyz
  1  'x, y, z'
loop_
 _atom_site_type_symbol
 _atom_site_label
 _atom_site_symmetry_multiplicity
 _atom_site_fract_x
 _atom_site_fract_y
 _atom_site_fract_z
 _atom_site_occupancy
  Zr  Zr0  1  0.90315364  0.89348295  0.09720415  1
  Zr  Zr1  1  0.51151234  0.30374201  0.49998481  1
  Zr  Zr2  1  0.09579534  0.10151691  0.29803076  1
  Zr  Zr3  1  0.30083000  0.09928439  0.30280364  1
  Zr  Zr4  1  0.70119969  0.10237208  0.10023471  1
  Zr  Zr5  1  0.90013991  0.10126087  0.48967211  1
  Zr  Zr6  1  0.29314245  0.91058701  0.69519636  1
  Zr  Zr7  1  0.49604317  0.50187956  0.90194458  1
  Zr  Zr8  1  0.50098755  0.09269535  0.30628864  1
  Zr  Zr9  1  0.29634769  0.90348755  0.09700352  1
  Zr  Zr10  1  0.49717534  0.10343127  0.90124558  1
  Zr  Zr11  1  0.90872206  0.89734927  0.70688899  1
  Zr  Zr12  1  0.29962468  0.10419049  0.69976575  1
  Zr  Zr13  1  0.10163400  0.89283719  0.29814803  1
  Zr  Zr14  1  0.70262445  0.09806509  0.49505010  1
  Zr  Zr15  1  0.29595440  0.49677959  0.29061780  1
  Zr  Zr16  1  0.90431470  0.69301548  0.50130628  1
  Zr  Zr17  1  0.50204563  0.49668781  0.50130993  1
  Zr  Zr18  1  0.89609572  0.49218951  0.69231828  1
  Zr  Zr19  1  0.50314172  0.70323800  0.29458105  1
  Zr  Zr20  1  0.90262900  0.30728184  0.30197389  1
  Zr  Zr21  1  0.90249539  0.29368238  0.88949060  1
  Zr  Zr22  1  0.50044697  0.90105620  0.10174694  1
  Zr  Zr23  1  0.29630462  0.49469583  0.69723799  1
  Zr  Zr24  1  0.69154911  0.49116017  0.50466437  1
  Zr  Zr25  1  0.90147145  0.70710126  0.90265993  1
  Zr  Zr26  1  0.50915363  0.10956514  0.09168769  1
  Zr  Zr27  1  0.29170288  0.49953610  0.49947325  1
  Zr  Zr28  1  0.09412842  0.70077364  0.69589152  1
  Zr  Zr29  1  0.30262736  0.30835286  0.10741337  1
  Zr  Zr30  1  0.10055088  0.69762677  0.49821284  1
  Zr  Zr31  1  0.90040213  0.50004161  0.11479153  1
  Zr  Zr32  1  0.90882583  0.29983942  0.69776104  1
  Zr  Zr33  1  0.09705607  0.69227458  0.91419137  1
  Zr  Zr34  1  0.49897251  0.89952874  0.30008851  1
  Zr  Zr35  1  0.09540143  0.90228931  0.69622731  1
  Zr  Zr36  1  0.89971636  0.90492531  0.29541508  1
  Zr  Zr37  1  0.50435562  0.10341320  0.50931779  1
  Zr  Zr38  1  0.10408137  0.28691259  0.09690502  1
  Zr  Zr39  1  0.50937528  0.50481468  0.69697093  1
  Zr  Zr40  1  0.70187011  0.90516536  0.71246694  1
  Zr  Zr41  1  0.49857002  0.69982208  0.89161581  1
  Zr  Zr42  1  0.91041709  0.09531179  0.10585874  1
  Zr  Zr43  1  0.70125989  0.69654095  0.29895879  1
  Zr  Zr44  1  0.90071502  0.09293680  0.70584059  1
  Zr  Zr45  1  0.51044589  0.70181339  0.50000914  1
  Zr  Zr46  1  0.09857332  0.48555138  0.70344472  1
  Zr  Zr47  1  0.68857796  0.29687445  0.10041677  1
  Zr  Zr48  1  0.49480091  0.09850256  0.69419120  1
  Zr  Zr49  1  0.90668811  0.90812112  0.50516200  1
  Sc  Sc50  1  0.30610775  0.50483748  0.09885649  1
  Sc  Sc51  1  0.69919437  0.90335681  0.49836521  1
  Sc  Sc52  1  0.70603952  0.30899133  0.69810376  1
  Sc  Sc53  1  0.29411868  0.09785300  0.89776936  1
  Sc  Sc54  1  0.70282043  0.30102089  0.29198683  1
  Sc  Sc55  1  0.28805748  0.10045175  0.09254678  1
  Sc  Sc56  1  0.49338230  0.29711537  0.69006300  1
  Sc  Sc57  1  0.51139703  0.50091005  0.29388459  1
  Sc  Sc58  1  0.50512118  0.90362281  0.90346530  1
  Sc  Sc59  1  0.30160994  0.89917180  0.29456246  1
  Sc  Sc60  1  0.70036461  0.89249149  0.09738872  1
  Sc  Sc61  1  0.49883779  0.69818834  0.09769099  1
  Sc  Sc62  1  0.50734161  0.90069781  0.70284198  1
  Sc  Sc63  1  0.09410712  0.90515425  0.10563852  1
  Sc  Sc64  1  0.90591972  0.30491530  0.50042130  1
  Sc  Sc65  1  0.09613386  0.90221549  0.89531626  1
  Sc  Sc66  1  0.29946663  0.90239318  0.89656683  1
  Sc  Sc67  1  0.49576723  0.49373281  0.09909639  1
  Sc  Sc68  1  0.29836228  0.70528541  0.71090235  1
  Sc  Sc69  1  0.09771669  0.49889968  0.49770763  1
  Sc  Sc70  1  0.09692526  0.29513185  0.50023054  1
  Sc  Sc71  1  0.90107325  0.89771374  0.89172958  1
  Sc  Sc72  1  0.70227682  0.70262361  0.09945156  1
  Sc  Sc73  1  0.28251279  0.69613509  0.49939810  1
  Sc  Sc74  1  0.69442756  0.09563182  0.89383112  1
  Sc  Sc75  1  0.09959008  0.51744658  0.09870684  1
  Sc  Sc76  1  0.69984840  0.70327007  0.49247338  1
  Sc  Sc77  1  0.90345580  0.29964382  0.10910053  1
  Sc  Sc78  1  0.30216721  0.69080386  0.10552435  1
  Sc  Sc79  1  0.89498036  0.50686030  0.89882442  1
  Sc  Sc80  1  0.51216498  0.30890865  0.28788277  1
  Sc  Sc81  1  0.09434460  0.49868670  0.30307344  1
  Sc  Sc82  1  0.70093860  0.89347364  0.30212936  1
  Sc  Sc83  1  0.28673490  0.29424211  0.70027965  1
  Sc  Sc84  1  0.70128245  0.70355646  0.90516563  1
  Sc  Sc85  1  0.29273297  0.29810416  0.50316000  1
  Sc  Sc86  1  0.68676446  0.70252558  0.70317537  1
  Sc  Sc87  1  0.09517940  0.70277136  0.10423236  1
  Sc  Sc88  1  0.50627013  0.91098223  0.49723776  1
  Sc  Sc89  1  0.70366605  0.50433644  0.10648519  1
  Sc  Sc90  1  0.10988421  0.30302483  0.30413263  1
  Sc  Sc91  1  0.90078881  0.69967109  0.09563027  1
  Sc  Sc92  1  0.10282759  0.10111983  0.69943085  1
  Sc  Sc93  1  0.69309362  0.09742894  0.69713301  1
  Sc  Sc94  1  0.69732142  0.30464639  0.89689477  1
  Sc  Sc95  1  0.30649904  0.69743759  0.90438808  1
  Sc  Sc96  1  0.30123092  0.09882321  0.51324967  1
  Sc  Sc97  1  0.11114516  0.69477471  0.30086608  1
  Sc  Sc98  1  0.69709901  0.50330658  0.89201609  1
  Sc  Sc99  1  0.29529020  0.29176949  0.89702528  1
  Nb  Nb100  1  0.09794678  0.09399068  0.49877513  1
  Nb  Nb101  1  0.09918264  0.10863497  0.91738061  1
  Nb  Nb102  1  0.70801935  0.10206313  0.29985530  1
  Nb  Nb103  1  0.89938046  0.09775063  0.90091342  1
  Nb  Nb104  1  0.10323533  0.89636057  0.50174561  1
  Nb  Nb105  1  0.89391632  0.50428408  0.30676493  1
  Nb  Nb106  1  0.88803961  0.10104060  0.30309518  1
  Nb  Nb107  1  0.89980905  0.50132657  0.49129500  1
  Nb  Nb108  1  0.49610492  0.70340919  0.69652335  1
  Nb  Nb109  1  0.70294501  0.29746025  0.49830022  1
  Nb  Nb110  1  0.29290417  0.89639067  0.50202407  1
  Nb  Nb111  1  0.30287257  0.30237773  0.30095806  1
  Nb  Nb112  1  0.50275160  0.29789743  0.09392719  1
  Nb  Nb113  1  0.30284527  0.69383513  0.30543331  1
  Nb  Nb114  1  0.70377519  0.50159893  0.69454417  1
  Nb  Nb115  1  0.50159087  0.30169845  0.90872195  1
  Nb  Nb116  1  0.09988842  0.30533109  0.89029812  1
  Nb  Nb117  1  0.09593295  0.30090406  0.71027064  1
  Nb  Nb118  1  0.29647601  0.50186941  0.90094064  1
  Nb  Nb119  1  0.71004726  0.49983197  0.29656996  1
  Nb  Nb120  1  0.90325970  0.70023868  0.69886920  1
  Nb  Nb121  1  0.69988119  0.90373549  0.90052047  1
  Nb  Nb122  1  0.89194519  0.68895088  0.31516542  1
  Nb  Nb123  1  0.09893442  0.49833037  0.90048655  1
  Nb  Nb124  1  0.09963272  0.09823965  0.09345528  1
  Nb  Nb125  1  0.79832892  0.59952520  0.60154012  1
  Nb  Nb126  1  0.80430317  0.19692516  -0.00283151  1
  Nb  Nb127  1  0.20037743  0.80090330  0.00308058  1
  Nb  Nb128  1  0.39930173  0.39912063  0.39532671  1
  Nb  Nb129  1  0.00029829  0.79783961  0.40144524  1
  Nb  Nb130  1  0.59068014  0.20439711  0.79998617  1
  Nb  Nb131  1  0.39902839  0.79969706  0.59541353  1
  Nb  Nb132  1  0.19329392  0.59321525  0.80528423  1
  Nb  Nb133  1  0.80558998  0.79614825  0.60649916  1
  Nb  Nb134  1  0.00220916  0.39971827  -0.00378029  1
  Nb  Nb135  1  0.19363260  0.40275495  -0.00626857  1
  Nb  Nb136  1  0.40083213  0.40035479  0.80493655  1
  Nb  Nb137  1  0.39437086  0.79522193  0.40657743  1
  Nb  Nb138  1  0.00046195  0.59864986  0.79791337  1
  Nb  Nb139  1  0.40505071  0.20754872  0.39637207  1
  Nb  Nb140  1  0.80301226  0.00214221  -0.00394326  1
  Nb  Nb141  1  0.40180970  0.60834640  0.59814026  1
  Nb  Nb142  1  0.39967192  0.59977064  0.40157254  1
  Nb  Nb143  1  0.80556752  0.39468062  0.00327907  1
  Nb  Nb144  1  0.60323305  0.00392819  0.20075068  1
  Nb  Nb145  1  0.60380653  0.19891852  0.39803847  1
  Nb  Nb146  1  0.40226229  0.20484014  0.20074548  1
  Nb  Nb147  1  0.19629450  -0.00285944  0.40752369  1
  Nb  Nb148  1  0.80273082  0.20015781  0.59691269  1
  Nb  Nb149  1  0.79868766  0.40500965  0.39978263  1
  Pd  Pd150  1  0.39347594  0.59396434  0.79245751  1
  Pd  Pd151  1  0.59812621  0.79822242  -0.00270870  1
  Pd  Pd152  1  0.00511546  -0.00476110  0.39355430  1
  Pd  Pd153  1  0.80139509  0.40214619  0.80617521  1
  Pd  Pd154  1  0.79489071  0.79325339  0.79730380  1
  Pd  Pd155  1  -0.00154875  0.58853312  0.60237554  1
  Pd  Pd156  1  0.80072622  0.59378207  0.00432602  1
  Pd  Pd157  1  0.40327475  0.20930255  0.79905662  1
  Pd  Pd158  1  0.80749993  0.80675262  0.40903308  1
  Pd  Pd159  1  0.39691549  0.39867336  0.59990543  1
  Pd  Pd160  1  0.39382695  0.79528157  0.20102178  1
  Pd  Pd161  1  0.80419646  0.20452419  0.19583004  1
  Pd  Pd162  1  0.39518280  0.79833120  0.00159976  1
  Pd  Pd163  1  0.60491785  0.80839815  0.60064057  1
  Pd  Pd164  1  0.40449825  0.01184409  0.18744252  1
  Pd  Pd165  1  0.00907627  0.18911053  0.80120636  1
  Pd  Pd166  1  0.80056220  0.60736603  0.79210983  1
  Pd  Pd167  1  0.20375648  0.79488010  0.60605352  1
  Pd  Pd168  1  0.60916020  0.41100100  0.00268261  1
  Pd  Pd169  1  0.39786597  0.00443923  0.00035351  1
  Pd  Pd170  1  0.19610411  0.00338450  0.20326321  1
  Pd  Pd171  1  0.19143873  0.00795026  0.80626628  1
  Pd  Pd172  1  0.18872881  0.40788634  0.18922141  1
  Pd  Pd173  1  0.40243382  0.81157416  0.79417120  1
  Pd  Pd174  1  -0.00253603  -0.00716543  -0.00624521  1
  Pd  Pd175  1  0.20622608  0.19340240  0.40686533  1
  Pd  Pd176  1  0.20678649  0.79371790  0.19391608  1
  Pd  Pd177  1  0.38897523  0.20130106  0.00518631  1
  Pd  Pd178  1  0.18989661  0.39032189  0.59622009  1
  Pd  Pd179  1  0.60159860  0.59585290  0.39581688  1
  Pd  Pd180  1  0.79291378  -0.00580477  0.19406988  1
  Pd  Pd181  1  0.40261319  -0.00527594  0.80019464  1
  Pd  Pd182  1  0.78766281  0.19513987  0.79537377  1
  Pd  Pd183  1  0.01230928  0.40039018  0.19553399  1
  Pd  Pd184  1  0.80470889  0.79286530  0.20059750  1
  Pd  Pd185  1  -0.00135029  0.19380800  0.59968601  1
  Pd  Pd186  1  0.19356499  0.79218272  0.81116908  1
  Pd  Pd187  1  -0.00020068  0.20096771  0.20921775  1
  Pd  Pd188  1  0.59160544  0.39302275  0.79341990  1
  Pd  Pd189  1  -0.00948929  0.78436804  0.21345975  1
  Pd  Pd190  1  0.20561529  0.19526314  0.20036188  1
  Pd  Pd191  1  0.59974221  0.59965883  0.19192813  1
  Pd  Pd192  1  0.39025473  0.39730915  -0.00627534  1
  Pd  Pd193  1  0.59921183  0.59724260  0.00277270  1
  Pd  Pd194  1  0.38904727  -0.00258109  0.41206710  1
  Pd  Pd195  1  -0.00390976  0.60819205  0.21050038  1
  Pd  Pd196  1  -0.00573290  0.20736708  -0.00105012  1
  Pd  Pd197  1  0.00051428  0.20360922  0.39491520  1
  Pd  Pd198  1  0.60290948  0.60337937  0.80043013  1
  Pd  Pd199  1  0.79885584  -0.00108966  0.60308951  1
  Rh  Rh200  1  0.60982035  0.20220561  -0.01541629  1
  Rh  Rh201  1  0.20605453  0.60523390  0.61488886  1
  Rh  Rh202  1  -0.00316187  0.40063781  0.40108122  1
  Rh  Rh203  1  0.80012127  0.80925334  -0.00421374  1
  Rh  Rh204  1  0.40225424  -0.01069123  0.59974801  1
  Rh  Rh205  1  0.00451751  0.40060347  0.59365092  1
  Rh  Rh206  1  0.21014999  0.40064496  0.80625324  1
  Rh  Rh207  1  0.00149073  0.00521086  0.20638789  1
  Rh  Rh208  1  0.19390946  0.00356155  0.59532012  1
  Rh  Rh209  1  0.40510772  0.59684451  0.20623635  1
  Rh  Rh210  1  0.20118004  0.80688064  0.39527270  1
  Rh  Rh211  1  0.59816245  0.80003131  0.80730862  1
  Rh  Rh212  1  0.00733327  0.80620173  0.00040654  1
  Rh  Rh213  1  0.79871726  -0.00640777  0.39592022  1
  Rh  Rh214  1  0.61204503  0.00314655  0.39095777  1
  Rh  Rh215  1  0.60892878  -0.00470018  0.00566698  1
  Rh  Rh216  1  0.60444441  0.60415278  0.60186571  1
  Rh  Rh217  1  0.40366908  0.60105419  0.00044137  1
  Rh  Rh218  1  0.20031345  0.58937873  0.39289071  1
  Rh  Rh219  1  0.20642854  0.60193859  -0.00166375  1
  Rh  Rh220  1  0.61318958  0.20493001  0.60263975  1
  Rh  Rh221  1  0.19061904  0.19983765  0.60228948  1
  Rh  Rh222  1  0.79771692  0.39799977  0.20019319  1
  Rh  Rh223  1  0.19979452  0.59891317  0.20108448  1
  Rh  Rh224  1  0.80009186  0.00211107  0.80642862  1
  Rh  Rh225  1  0.20268465  0.20670093  -0.00327563  1
  Rh  Rh226  1  0.79834078  0.21027875  0.40192138  1
  Rh  Rh227  1  0.20185100  0.39990114  0.40113406  1
  Rh  Rh228  1  -0.01124464  0.59170951  -0.00201432  1
  Rh  Rh229  1  0.60807621  0.39366639  0.39034470  1
  Rh  Rh230  1  0.59280685  0.00699854  0.80122854  1
  Rh  Rh231  1  0.00712485  0.00912772  0.80598210  1
  Rh  Rh232  1  0.19162461  0.19417481  0.80265392  1
  Rh  Rh233  1  0.00435190  0.00549908  0.60165368  1
  Rh  Rh234  1  0.60319988  0.39307095  0.61031948  1
  Rh  Rh235  1  -0.00411046  0.80250127  0.59267422  1
  Rh  Rh236  1  0.60303423  -0.00544544  0.60386257  1
  Rh  Rh237  1  0.19248160  -0.00864966  -0.00327509  1
  Rh  Rh238  1  0.78721968  0.59088789  0.41032653  1
  Rh  Rh239  1  0.60211243  0.80488504  0.19813622  1
  Rh  Rh240  1  0.59478368  0.80526290  0.39626513  1
  Rh  Rh241  1  0.80478912  0.60907333  0.19977201  1
  Rh  Rh242  1  0.00676399  0.60363657  0.39471851  1
  Rh  Rh243  1  0.00676628  0.79069964  0.80431130  1
  Rh  Rh244  1  0.40708490  0.39722834  0.20224618  1
  Rh  Rh245  1  -0.01100090  0.40804937  0.80569567  1
  Rh  Rh246  1  0.39275490  0.20705813  0.59330502  1
  Rh  Rh247  1  0.59172235  0.19088833  0.21106753  1
  Rh  Rh248  1  0.60423529  0.40711540  0.19172451  1
  Rh  Rh249  1  0.80205135  0.39915724  0.59017513  1
