# generated using pymatgen
data_ZrScNbPdRh
_symmetry_space_group_name_H-M   'P 1'
_cell_length_a   16.54913402
_cell_length_b   16.55656515
_cell_length_c   16.55717971
_cell_angle_alpha   89.98899234
_cell_angle_beta   89.98060476
_cell_angle_gamma   89.99228279
_symmetry_Int_Tables_number   1
_chemical_formula_structural   ZrScNbPdRh
_chemical_formula_sum   'Zr50 Sc50 Nb50 Pd50 Rh50'
_cell_volume   4536.61413064
_cell_formula_units_Z   50
loop_
 _symmetry_equiv_pos_site_id
 _symmetry_equiv_pos_as_xyz
  1  'x, y, z'
loop_
 _atom_site_type_symbol
 _atom_site_label
 _atom_site_symmetry_multiplicity
 _atom_site_fract_x
 _atom_site_fract_y
 _atom_site_fract_z
 _atom_site_occupancy
  Zr  Zr0  1  0.29963274  0.69795121  0.68565362  1
  Zr  Zr1  1  0.10509664  0.69586470  0.29839819  1
  Zr  Zr2  1  0.09982573  0.69407483  0.50706042  1
  Zr  Zr3  1  0.09701259  0.50605962  0.29775911  1
  Zr  Zr4  1  0.69522480  0.29463519  0.09473115  1
  Zr  Zr5  1  0.09348349  0.90132918  0.49334487  1
  Zr  Zr6  1  0.49847139  0.90241084  0.71848494  1
  Zr  Zr7  1  0.89919319  0.50581658  0.50527237  1
  Zr  Zr8  1  0.49923131  0.90573835  0.10398239  1
  Zr  Zr9  1  0.89381268  0.30863198  0.49495895  1
  Zr  Zr10  1  0.09807641  0.30275940  0.10340295  1
  Zr  Zr11  1  0.70512955  0.50166617  0.29017316  1
  Zr  Zr12  1  0.30801969  0.89531475  0.89753943  1
  Zr  Zr13  1  0.30097966  0.09935227  0.70669537  1
  Zr  Zr14  1  0.50600199  0.10091401  0.49077197  1
  Zr  Zr15  1  0.89900364  0.50431014  0.70454351  1
  Zr  Zr16  1  0.90354823  0.30277322  0.10108126  1
  Zr  Zr17  1  0.49334282  0.49671742  0.69703926  1
  Zr  Zr18  1  0.10126084  0.10106960  0.49967703  1
  Zr  Zr19  1  0.10219529  0.30581560  0.69938529  1
  Zr  Zr20  1  0.09459452  0.30153814  0.90634197  1
  Zr  Zr21  1  0.70600020  0.90782232  0.09921967  1
  Zr  Zr22  1  0.29704289  0.10041027  0.10504656  1
  Zr  Zr23  1  0.70094425  0.09310075  0.70283078  1
  Zr  Zr24  1  0.09524231  0.89729247  0.70456837  1
  Zr  Zr25  1  0.09695072  0.30410742  0.29648088  1
  Zr  Zr26  1  0.49257795  0.70038901  0.30857519  1
  Zr  Zr27  1  0.49896771  0.70105326  0.50013623  1
  Zr  Zr28  1  0.30768147  0.51078968  0.30048952  1
  Zr  Zr29  1  0.89608103  0.90400822  0.09631561  1
  Zr  Zr30  1  0.50272868  0.09757411  0.70481263  1
  Zr  Zr31  1  0.70569165  0.70220079  0.29809281  1
  Zr  Zr32  1  0.49326568  0.50182409  0.28720549  1
  Zr  Zr33  1  0.29926135  0.10367131  0.49132551  1
  Zr  Zr34  1  0.50180654  0.70798434  0.89611840  1
  Zr  Zr35  1  0.70181088  0.30485294  0.30054148  1
  Zr  Zr36  1  0.69896396  0.70127061  0.50711760  1
  Zr  Zr37  1  0.29756999  0.49205733  0.70028256  1
  Zr  Zr38  1  0.10014990  0.50623437  0.69434650  1
  Zr  Zr39  1  0.89996049  0.09717361  0.69847563  1
  Zr  Zr40  1  0.89270139  0.70086765  0.89455864  1
  Zr  Zr41  1  0.30886165  0.70024176  0.49263206  1
  Zr  Zr42  1  0.89486436  0.69953578  0.29927862  1
  Zr  Zr43  1  0.30234215  0.30527837  0.70090860  1
  Zr  Zr44  1  0.89525584  0.90097918  0.49522158  1
  Zr  Zr45  1  0.10548401  0.09580168  0.29870831  1
  Zr  Zr46  1  0.50327389  0.49662034  0.90038672  1
  Zr  Zr47  1  0.30476866  0.30675010  0.29819713  1
  Zr  Zr48  1  0.10051836  0.09561166  0.89936805  1
  Zr  Zr49  1  0.70342144  0.29754145  0.89795448  1
  Sc  Sc50  1  0.89932083  0.70029556  0.09717658  1
  Sc  Sc51  1  0.49661768  0.30403430  0.70508415  1
  Sc  Sc52  1  0.09293709  0.49840602  0.90561998  1
  Sc  Sc53  1  0.29776650  0.29620606  0.09197621  1
  Sc  Sc54  1  0.29739046  0.30156661  0.49340736  1
  Sc  Sc55  1  0.29664630  0.89192649  0.10352854  1
  Sc  Sc56  1  0.69440268  0.10034838  0.30313552  1
  Sc  Sc57  1  0.28963199  0.49194030  0.90309002  1
  Sc  Sc58  1  0.49422026  0.09880036  0.89541118  1
  Sc  Sc59  1  0.29784072  0.90132931  0.70293155  1
  Sc  Sc60  1  0.70095901  0.49848668  0.50083897  1
  Sc  Sc61  1  0.49955770  0.69643169  0.10148946  1
  Sc  Sc62  1  0.30655178  0.50045076  0.50549736  1
  Sc  Sc63  1  0.90266473  0.49740838  0.10831765  1
  Sc  Sc64  1  0.70284827  0.89588076  0.49795273  1
  Sc  Sc65  1  0.29746626  0.91312049  0.29404715  1
  Sc  Sc66  1  0.89711722  0.69981526  0.50142537  1
  Sc  Sc67  1  0.29002197  0.70235024  0.09981311  1
  Sc  Sc68  1  0.89793350  0.49932497  0.29904877  1
  Sc  Sc69  1  0.50262090  0.09384661  0.30215184  1
  Sc  Sc70  1  0.10817555  0.09993392  0.70452875  1
  Sc  Sc71  1  0.50274581  0.89388922  0.90417408  1
  Sc  Sc72  1  0.50313534  0.70299595  0.69529454  1
  Sc  Sc73  1  0.51162982  0.10124169  0.10571923  1
  Sc  Sc74  1  0.70459448  0.70251154  0.70160830  1
  Sc  Sc75  1  0.89734218  0.08826541  0.29912989  1
  Sc  Sc76  1  0.50733286  0.49625923  0.50618768  1
  Sc  Sc77  1  0.89607686  0.09323438  0.09580672  1
  Sc  Sc78  1  0.90545655  0.10158653  0.90786479  1
  Sc  Sc79  1  0.29918931  0.10709811  0.89984262  1
  Sc  Sc80  1  0.30403887  0.70503138  0.90785677  1
  Sc  Sc81  1  0.09254937  0.49799972  0.49935438  1
  Sc  Sc82  1  0.89434523  0.09394839  0.49496051  1
  Sc  Sc83  1  0.70256833  0.88714939  0.90663668  1
  Sc  Sc84  1  0.70518088  0.10279618  0.90853738  1
  Sc  Sc85  1  0.69504795  0.50277559  0.69435126  1
  Sc  Sc86  1  0.49600800  0.29799982  0.09394290  1
  Sc  Sc87  1  0.09792328  0.10662791  0.10165177  1
  Sc  Sc88  1  0.50450024  0.89534632  0.48803837  1
  Sc  Sc89  1  0.50691573  0.29464196  0.30414256  1
  Sc  Sc90  1  0.30081717  0.89891372  0.50090041  1
  Sc  Sc91  1  0.70397105  0.08683638  0.49832280  1
  Sc  Sc92  1  0.29837698  0.29831945  0.89971300  1
  Sc  Sc93  1  0.09359819  0.68987230  0.92104726  1
  Sc  Sc94  1  0.70663852  0.70161189  0.10220757  1
  Sc  Sc95  1  0.50386305  0.30331447  0.49353029  1
  Sc  Sc96  1  0.49630490  0.29716781  0.90013475  1
  Sc  Sc97  1  0.69634600  0.30734819  0.48904592  1
  Sc  Sc98  1  0.70169800  0.89501300  0.69585731  1
  Sc  Sc99  1  0.68800271  0.50021704  0.89368321  1
  Nb  Nb100  1  0.70800329  0.29178703  0.70353348  1
  Nb  Nb101  1  0.89936392  0.89782396  0.29859025  1
  Nb  Nb102  1  0.69609634  0.49813147  0.09409091  1
  Nb  Nb103  1  0.90207284  0.70453668  0.69986038  1
  Nb  Nb104  1  0.49965628  0.49839966  0.09789256  1
  Nb  Nb105  1  0.30224994  0.10589271  0.29646462  1
  Nb  Nb106  1  0.31143655  0.49688980  0.10489122  1
  Nb  Nb107  1  0.10040858  0.69938685  0.69799268  1
  Nb  Nb108  1  0.70719837  0.10427899  0.10185016  1
  Nb  Nb109  1  0.10025914  0.89103440  0.09826991  1
  Nb  Nb110  1  0.50465263  0.89805626  0.30000175  1
  Nb  Nb111  1  0.89917373  0.89137950  0.70436025  1
  Nb  Nb112  1  0.90151649  0.50084575  0.90386104  1
  Nb  Nb113  1  0.30193386  0.70274135  0.30238702  1
  Nb  Nb114  1  0.89434565  0.30062949  0.70654877  1
  Nb  Nb115  1  0.10509919  0.51410757  0.09478111  1
  Nb  Nb116  1  0.10062450  0.70110061  0.10513509  1
  Nb  Nb117  1  0.70892701  0.89573263  0.29979691  1
  Nb  Nb118  1  0.69981643  0.69939222  0.90035243  1
  Nb  Nb119  1  0.90346844  0.90009857  0.90103426  1
  Nb  Nb120  1  0.90042300  0.31025283  0.89967607  1
  Nb  Nb121  1  0.89662371  0.30515780  0.29349024  1
  Nb  Nb122  1  0.09444462  0.90087720  0.90249769  1
  Nb  Nb123  1  0.09231164  0.89892884  0.29923132  1
  Nb  Nb124  1  0.09227587  0.29678226  0.49714531  1
  Nb  Nb125  1  -0.00158666  -0.00189519  0.60198862  1
  Nb  Nb126  1  -0.00283395  0.20508657  0.39862115  1
  Nb  Nb127  1  0.79852448  0.20124309  0.19934646  1
  Nb  Nb128  1  0.39509990  0.59854181  0.80271828  1
  Nb  Nb129  1  0.79691564  0.59304835  -0.00567676  1
  Nb  Nb130  1  0.19760110  0.79928565  0.39367376  1
  Nb  Nb131  1  0.40423497  0.19442134  0.59757720  1
  Nb  Nb132  1  0.59828223  0.40391295  0.19084610  1
  Nb  Nb133  1  0.79940231  0.20512007  0.60248483  1
  Nb  Nb134  1  0.80156156  0.40341458  -0.00551197  1
  Nb  Nb135  1  0.60555097  0.19973538  0.60349105  1
  Nb  Nb136  1  0.19930494  0.60623657  0.79896145  1
  Nb  Nb137  1  0.39522847  -0.00075920  0.00546804  1
  Nb  Nb138  1  0.00446181  0.80365186  0.19933348  1
  Nb  Nb139  1  0.80878975  -0.00945832  0.80407895  1
  Nb  Nb140  1  0.40424323  0.00644550  0.60001208  1
  Nb  Nb141  1  0.40143743  0.59273127  0.00004317  1
  Nb  Nb142  1  0.20331966  0.41072038  0.19647463  1
  Nb  Nb143  1  -0.00506855  0.20443591  0.59737247  1
  Nb  Nb144  1  0.40216860  0.80076058  0.20814872  1
  Nb  Nb145  1  0.59887537  0.80465557  0.20616364  1
  Nb  Nb146  1  0.39801243  0.19595680  0.20395796  1
  Nb  Nb147  1  0.19665773  -0.00799093  -0.00010577  1
  Nb  Nb148  1  0.60033416  0.60313597  0.39556379  1
  Nb  Nb149  1  0.19059363  0.79215060  0.80123480  1
  Pd  Pd150  1  0.79501950  0.59723086  0.40363782  1
  Pd  Pd151  1  0.59229633  0.19374002  -0.00626888  1
  Pd  Pd152  1  -0.00588519  0.40223020  0.39547253  1
  Pd  Pd153  1  0.80195007  0.19667988  0.39793732  1
  Pd  Pd154  1  0.59834255  0.20212427  0.80106669  1
  Pd  Pd155  1  -0.00651949  0.79744669  0.00384717  1
  Pd  Pd156  1  0.59458885  0.60604917  0.79165939  1
  Pd  Pd157  1  -0.00484306  0.39638264  0.60489794  1
  Pd  Pd158  1  -0.00585806  0.80145311  0.59677762  1
  Pd  Pd159  1  0.00684537  0.60568185  0.80259890  1
  Pd  Pd160  1  0.40916154  0.81478269  0.60390773  1
  Pd  Pd161  1  0.61570230  -0.00717685  0.81529499  1
  Pd  Pd162  1  0.00630404  0.78828942  0.80878526  1
  Pd  Pd163  1  0.19311418  -0.00452654  0.19227588  1
  Pd  Pd164  1  0.19651912  0.80144905  -0.00840161  1
  Pd  Pd165  1  0.60123204  0.60395882  0.20033777  1
  Pd  Pd166  1  -0.01165146  0.19161139  0.20761566  1
  Pd  Pd167  1  0.19853102  0.39966349  0.58762431  1
  Pd  Pd168  1  0.20097281  -0.00459764  0.60196949  1
  Pd  Pd169  1  -0.00207319  0.19887265  0.00135091  1
  Pd  Pd170  1  0.79357589  0.59624690  0.80122114  1
  Pd  Pd171  1  0.39910439  0.40028291  -0.00481646  1
  Pd  Pd172  1  0.00109650  0.79050654  0.39463166  1
  Pd  Pd173  1  0.60994372  -0.00231763  0.20582927  1
  Pd  Pd174  1  0.20878913  0.59763954  0.19440790  1
  Pd  Pd175  1  0.59710578  0.00563834  -0.00581185  1
  Pd  Pd176  1  0.00324033  0.40311234  0.79787331  1
  Pd  Pd177  1  0.19905202  0.80499973  0.59611965  1
  Pd  Pd178  1  0.20260571  -0.00573470  0.39881079  1
  Pd  Pd179  1  0.19533515  0.20532524  0.39235258  1
  Pd  Pd180  1  0.20292125  0.20600861  0.59977137  1
  Pd  Pd181  1  0.79437758  0.40983101  0.80298050  1
  Pd  Pd182  1  -0.00629589  0.60566762  0.19694974  1
  Pd  Pd183  1  0.80836050  0.18952092  0.80547954  1
  Pd  Pd184  1  0.00271356  -0.00316919  0.19263137  1
  Pd  Pd185  1  0.39925222  -0.00331120  0.40064078  1
  Pd  Pd186  1  0.59494107  0.80792146  0.60385271  1
  Pd  Pd187  1  0.40775433  0.40428125  0.40291011  1
  Pd  Pd188  1  0.79410975  0.39854949  0.60227905  1
  Pd  Pd189  1  0.60177517  0.39385487  0.79428751  1
  Pd  Pd190  1  0.60556858  0.38874165  0.60638102  1
  Pd  Pd191  1  0.19782685  0.20694333  0.80499511  1
  Pd  Pd192  1  -0.00078144  0.20328957  0.79666949  1
  Pd  Pd193  1  0.60021875  0.60719414  0.00097124  1
  Pd  Pd194  1  0.60105552  0.79455842  0.01219460  1
  Pd  Pd195  1  0.19718717  0.40277010  0.00734268  1
  Pd  Pd196  1  0.20109453  0.59917107  0.40928674  1
  Pd  Pd197  1  -0.00498750  0.00169458  0.79727521  1
  Pd  Pd198  1  0.19834952  0.40810302  0.39871478  1
  Pd  Pd199  1  0.59441939  -0.00433374  0.59513204  1
  Rh  Rh200  1  0.61130728  0.79596757  0.39365202  1
  Rh  Rh201  1  -0.01042052  0.59710924  0.00787192  1
  Rh  Rh202  1  0.19394233  0.19432901  -0.00473840  1
  Rh  Rh203  1  0.79559330  0.00597208  0.20433431  1
  Rh  Rh204  1  0.60275710  0.39496380  0.00131996  1
  Rh  Rh205  1  0.59942951  0.60193454  0.59582571  1
  Rh  Rh206  1  -0.00087570  0.00772526  0.40214002  1
  Rh  Rh207  1  0.38512815  0.81365710  0.39078760  1
  Rh  Rh208  1  0.40531219  0.80043464  0.01567045  1
  Rh  Rh209  1  0.00806969  -0.00158645  0.00504031  1
  Rh  Rh210  1  0.80255184  0.40971544  0.39836484  1
  Rh  Rh211  1  0.20960084  0.59653969  -0.00010561  1
  Rh  Rh212  1  0.40408696  0.59633464  0.60241485  1
  Rh  Rh213  1  0.39543734  0.00104517  0.80634832  1
  Rh  Rh214  1  0.60769521  0.19682991  0.40609302  1
  Rh  Rh215  1  0.79091805  0.39274912  0.18856927  1
  Rh  Rh216  1  0.40069064  0.38700471  0.59265248  1
  Rh  Rh217  1  0.19022205  0.40440712  0.80504161  1
  Rh  Rh218  1  0.20177613  0.59504975  0.59756642  1
  Rh  Rh219  1  0.20847166  0.21212554  0.20309241  1
  Rh  Rh220  1  0.79819179  0.80391672  0.80093124  1
  Rh  Rh221  1  0.39374995  0.61378077  0.18756250  1
  Rh  Rh222  1  0.01096083  0.41004954  0.19629069  1
  Rh  Rh223  1  0.40123899  0.00350906  0.19734391  1
  Rh  Rh224  1  0.39768460  0.20466849  0.79485340  1
  Rh  Rh225  1  0.79847713  -0.00114841  -0.00888253  1
  Rh  Rh226  1  0.40385449  0.38701194  0.19452899  1
  Rh  Rh227  1  0.80686259  -0.00529015  0.60872943  1
  Rh  Rh228  1  0.20171916  -0.01215133  0.81095910  1
  Rh  Rh229  1  0.80307913  0.59896259  0.18819024  1
  Rh  Rh230  1  0.38959769  0.78842049  0.79069411  1
  Rh  Rh231  1  -0.00294690  0.40781221  0.00629269  1
  Rh  Rh232  1  0.39812725  0.40441770  0.80829395  1
  Rh  Rh233  1  0.19827075  0.80245500  0.21015978  1
  Rh  Rh234  1  0.80067974  0.79994077  0.40326717  1
  Rh  Rh235  1  0.80169753  0.79366955  -0.00157897  1
  Rh  Rh236  1  -0.00427039  0.60107753  0.40197460  1
  Rh  Rh237  1  0.41046196  0.59010274  0.41058789  1
  Rh  Rh238  1  0.80481740  0.79806725  0.60137338  1
  Rh  Rh239  1  0.60853971  0.79776317  0.79972899  1
  Rh  Rh240  1  0.79596342  -0.00522776  0.39257708  1
  Rh  Rh241  1  0.80389658  0.80495605  0.19678635  1
  Rh  Rh242  1  0.80222728  0.60296148  0.60748781  1
  Rh  Rh243  1  -0.00699974  0.60444357  0.60267672  1
  Rh  Rh244  1  0.60111327  0.20615473  0.20203739  1
  Rh  Rh245  1  0.59808493  0.41584398  0.38520555  1
  Rh  Rh246  1  0.40319337  0.18787071  0.00862881  1
  Rh  Rh247  1  0.80838536  0.20831650  0.00421668  1
  Rh  Rh248  1  0.60767907  -0.00836351  0.39585350  1
  Rh  Rh249  1  0.40080147  0.20083362  0.39602794  1
