# generated using pymatgen
data_ZrScNbPdRh
_symmetry_space_group_name_H-M   'P 1'
_cell_length_a   16.55531623
_cell_length_b   16.55612445
_cell_length_c   16.55671184
_cell_angle_alpha   90.00247512
_cell_angle_beta   90.00181055
_cell_angle_gamma   89.99567837
_symmetry_Int_Tables_number   1
_chemical_formula_structural   ZrScNbPdRh
_chemical_formula_sum   'Zr50 Sc50 Nb50 Pd50 Rh50'
_cell_volume   4538.06018722
_cell_formula_units_Z   50
loop_
 _symmetry_equiv_pos_site_id
 _symmetry_equiv_pos_as_xyz
  1  'x, y, z'
loop_
 _atom_site_type_symbol
 _atom_site_label
 _atom_site_symmetry_multiplicity
 _atom_site_fract_x
 _atom_site_fract_y
 _atom_site_fract_z
 _atom_site_occupancy
  Zr  Zr0  1  0.49782312  0.29206551  0.10505042  1
  Zr  Zr1  1  0.09796624  0.90090626  0.09949489  1
  Zr  Zr2  1  0.90439276  0.70032337  0.29774364  1
  Zr  Zr3  1  0.90898986  0.90213329  0.09290904  1
  Zr  Zr4  1  0.30334197  0.10521327  0.09838958  1
  Zr  Zr5  1  0.29557023  0.71987830  0.29240888  1
  Zr  Zr6  1  0.09945088  0.90710322  0.49332746  1
  Zr  Zr7  1  0.50845932  0.90375934  0.89618916  1
  Zr  Zr8  1  0.50000192  0.70514920  0.89762192  1
  Zr  Zr9  1  0.29528121  0.29706173  0.10714318  1
  Zr  Zr10  1  0.09028205  0.90068939  0.90375050  1
  Zr  Zr11  1  0.49754861  0.29971139  0.49994419  1
  Zr  Zr12  1  0.69030672  0.08435794  0.30828903  1
  Zr  Zr13  1  0.69092526  0.29827290  0.89269554  1
  Zr  Zr14  1  0.09673932  0.30529541  0.70877094  1
  Zr  Zr15  1  0.69985771  0.70134620  0.09887252  1
  Zr  Zr16  1  0.10716791  0.29995514  0.90407336  1
  Zr  Zr17  1  0.50019016  0.09668233  0.90322257  1
  Zr  Zr18  1  0.70071504  0.69410170  0.49747798  1
  Zr  Zr19  1  0.90141345  0.50627620  0.09987472  1
  Zr  Zr20  1  0.30670088  0.70368331  0.49635090  1
  Zr  Zr21  1  0.09724507  0.10074467  0.69068544  1
  Zr  Zr22  1  0.09624375  0.48751852  0.89847504  1
  Zr  Zr23  1  0.30266831  0.69394020  0.89981027  1
  Zr  Zr24  1  0.09448433  0.69779501  0.69344474  1
  Zr  Zr25  1  0.29609957  0.90101146  0.11798439  1
  Zr  Zr26  1  0.50735604  0.30169044  0.70319845  1
  Zr  Zr27  1  0.70089014  0.50114386  0.10180729  1
  Zr  Zr28  1  0.50447918  0.49314452  0.49192681  1
  Zr  Zr29  1  0.89975504  0.69788450  0.68908400  1
  Zr  Zr30  1  0.50386307  0.10658094  0.49504763  1
  Zr  Zr31  1  0.89808542  0.49374953  0.30866029  1
  Zr  Zr32  1  0.09675739  0.49440978  0.49556812  1
  Zr  Zr33  1  0.69902957  0.10299952  0.50216307  1
  Zr  Zr34  1  0.69471357  0.29855806  0.10207924  1
  Zr  Zr35  1  0.89694967  0.29972345  0.30341745  1
  Zr  Zr36  1  0.70122305  0.70290666  0.29450793  1
  Zr  Zr37  1  0.10414679  0.10687982  0.89502488  1
  Zr  Zr38  1  0.69766423  0.29922748  0.50990947  1
  Zr  Zr39  1  0.70113607  0.50314932  0.90189320  1
  Zr  Zr40  1  0.11001425  0.29444180  0.50242311  1
  Zr  Zr41  1  0.90789907  0.89873335  0.49511869  1
  Zr  Zr42  1  0.49352967  0.50246050  0.68823043  1
  Zr  Zr43  1  0.49959832  0.29422080  0.90126550  1
  Zr  Zr44  1  0.89249578  0.29823465  0.11373315  1
  Zr  Zr45  1  0.10133677  0.69718010  0.89947375  1
  Zr  Zr46  1  0.48766558  0.30172966  0.30984348  1
  Zr  Zr47  1  0.10204327  0.30692535  0.09941824  1
  Zr  Zr48  1  0.30112166  0.10455003  0.50930028  1
  Zr  Zr49  1  0.89933414  0.10088160  0.10615955  1
  Sc  Sc50  1  0.69557135  0.89646779  0.90067889  1
  Sc  Sc51  1  0.70407344  0.11866098  0.70095829  1
  Sc  Sc52  1  0.10238909  0.50127726  0.09748976  1
  Sc  Sc53  1  0.89736155  0.89155187  0.90237012  1
  Sc  Sc54  1  0.48490419  0.50545859  0.10388226  1
  Sc  Sc55  1  0.50136309  0.89606562  0.70451338  1
  Sc  Sc56  1  0.70924026  0.30671479  0.29736470  1
  Sc  Sc57  1  0.90234844  0.30520621  0.49678066  1
  Sc  Sc58  1  0.08668084  0.70388704  0.49421176  1
  Sc  Sc59  1  0.69889012  0.89578035  0.10147068  1
  Sc  Sc60  1  0.29473516  0.49958720  0.10140608  1
  Sc  Sc61  1  0.09406366  0.10029117  0.10401805  1
  Sc  Sc62  1  0.90309398  0.09498758  0.29715036  1
  Sc  Sc63  1  0.50146351  0.90660013  0.09521186  1
  Sc  Sc64  1  0.30510511  0.49078120  0.50500390  1
  Sc  Sc65  1  0.09030316  0.69572454  0.10690973  1
  Sc  Sc66  1  0.89961786  0.11679492  0.69641304  1
  Sc  Sc67  1  0.70187733  0.90167279  0.49092435  1
  Sc  Sc68  1  0.49236224  0.89392545  0.50878555  1
  Sc  Sc69  1  0.29410451  0.50202553  0.90298675  1
  Sc  Sc70  1  0.30338557  0.30258576  0.69692293  1
  Sc  Sc71  1  0.50002695  0.90447270  0.29541219  1
  Sc  Sc72  1  0.89701197  0.89836785  0.30062898  1
  Sc  Sc73  1  0.89554584  0.70355020  0.90237489  1
  Sc  Sc74  1  0.31122756  0.90576640  0.69355376  1
  Sc  Sc75  1  0.89410960  0.50108917  0.69728417  1
  Sc  Sc76  1  0.30255202  0.09362576  0.70600626  1
  Sc  Sc77  1  0.70043764  0.49925083  0.49807083  1
  Sc  Sc78  1  0.89453619  0.50395705  0.49869702  1
  Sc  Sc79  1  0.31412401  0.68991141  0.70017817  1
  Sc  Sc80  1  0.10623093  0.30193719  0.30697216  1
  Sc  Sc81  1  0.89877627  0.70416509  0.49563264  1
  Sc  Sc82  1  0.10016582  0.09428017  0.30607203  1
  Sc  Sc83  1  0.09589787  0.90291818  0.69254654  1
  Sc  Sc84  1  0.69925892  0.50385946  0.30972367  1
  Sc  Sc85  1  0.70675272  0.70932759  0.90355946  1
  Sc  Sc86  1  0.30081142  0.49477653  0.69856728  1
  Sc  Sc87  1  0.29743189  0.29839710  0.29901214  1
  Sc  Sc88  1  0.49904740  0.49079742  0.89731904  1
  Sc  Sc89  1  0.30050852  0.89638396  0.49551495  1
  Sc  Sc90  1  0.70815034  0.49870169  0.69492178  1
  Sc  Sc91  1  0.69176297  0.10524272  0.11052590  1
  Sc  Sc92  1  0.30784332  0.91015977  0.89032283  1
  Sc  Sc93  1  0.89982476  0.50214064  0.90217231  1
  Sc  Sc94  1  0.50135655  0.69533203  0.51153179  1
  Sc  Sc95  1  0.70544170  0.70440400  0.69340846  1
  Sc  Sc96  1  0.90680391  0.11118756  0.89900940  1
  Sc  Sc97  1  0.89847230  0.88770826  0.69900646  1
  Sc  Sc98  1  0.91533043  0.30527172  0.89351151  1
  Sc  Sc99  1  0.29334481  0.10193658  0.29078884  1
  Nb  Nb100  1  0.89495694  0.70138978  0.09909703  1
  Nb  Nb101  1  0.10090210  0.69746779  0.30058366  1
  Nb  Nb102  1  0.49899903  0.10567031  0.10780358  1
  Nb  Nb103  1  0.30492628  0.29793510  0.49748521  1
  Nb  Nb104  1  0.49970183  0.10136137  0.30530296  1
  Nb  Nb105  1  0.71463831  0.29790317  0.69616743  1
  Nb  Nb106  1  0.29257756  0.90371179  0.30309168  1
  Nb  Nb107  1  0.50041280  0.09101900  0.69756936  1
  Nb  Nb108  1  0.10114983  0.50501365  0.29586764  1
  Nb  Nb109  1  0.89101719  0.30330009  0.69927930  1
  Nb  Nb110  1  0.12411668  0.89020251  0.29954471  1
  Nb  Nb111  1  0.70142972  0.91054957  0.70227324  1
  Nb  Nb112  1  0.10300564  0.49666980  0.69698198  1
  Nb  Nb113  1  0.30820483  0.70150827  0.09302317  1
  Nb  Nb114  1  0.49297248  0.49620250  0.29993025  1
  Nb  Nb115  1  0.50011796  0.69352270  0.29329436  1
  Nb  Nb116  1  0.29886157  0.10438307  0.90328825  1
  Nb  Nb117  1  0.91216159  0.09410309  0.49830643  1
  Nb  Nb118  1  0.70125211  0.10117377  0.89858156  1
  Nb  Nb119  1  0.69583830  0.89572578  0.30602910  1
  Nb  Nb120  1  0.50487618  0.69508200  0.69709465  1
  Nb  Nb121  1  0.49474523  0.69776210  0.09770855  1
  Nb  Nb122  1  0.30081832  0.49514433  0.29513091  1
  Nb  Nb123  1  0.08859721  0.09475531  0.50555862  1
  Nb  Nb124  1  0.29985511  0.28265783  0.91003079  1
  Nb  Nb125  1  0.80173277  0.19241300  0.40367186  1
  Nb  Nb126  1  0.60457165  0.00291228  0.60379808  1
  Nb  Nb127  1  0.20232935  0.00056198  -0.00232154  1
  Nb  Nb128  1  0.80067245  0.00501053  0.80029729  1
  Nb  Nb129  1  0.79926587  0.00942604  -0.00412968  1
  Nb  Nb130  1  0.59879434  0.60370770  0.79791846  1
  Nb  Nb131  1  0.00150492  0.40569385  0.20652643  1
  Nb  Nb132  1  0.19712802  0.60018522  0.59262069  1
  Nb  Nb133  1  0.79543100  0.20233538  -0.00272813  1
  Nb  Nb134  1  0.00259877  0.39962303  0.60390405  1
  Nb  Nb135  1  0.79773801  0.39321376  0.00210001  1
  Nb  Nb136  1  0.20663282  0.80217439  -0.00212278  1
  Nb  Nb137  1  -0.00604584  0.00340912  0.79774171  1
  Nb  Nb138  1  0.39480997  0.38821832  -0.00001029  1
  Nb  Nb139  1  0.39728712  0.59905175  0.38905814  1
  Nb  Nb140  1  0.59498340  0.60452552  -0.00208121  1
  Nb  Nb141  1  0.39688249  0.79963392  0.00173240  1
  Nb  Nb142  1  0.00384952  0.59718497  0.79533815  1
  Nb  Nb143  1  0.80092805  0.00354848  0.60222324  1
  Nb  Nb144  1  0.59026018  0.40471795  0.20564298  1
  Nb  Nb145  1  0.20123442  0.79856329  0.79738739  1
  Nb  Nb146  1  0.20361484  0.59965986  0.39389922  1
  Nb  Nb147  1  0.20096979  0.79310342  0.60197299  1
  Nb  Nb148  1  0.39824123  0.00336190  0.39556125  1
  Nb  Nb149  1  0.59790904  0.79583129  0.39291359  1
  Pd  Pd150  1  0.19584500  0.60384396  0.00814235  1
  Pd  Pd151  1  0.60609019  0.80824673  0.59567569  1
  Pd  Pd152  1  0.00857051  0.20756951  0.20995960  1
  Pd  Pd153  1  0.40115546  0.19310809  0.79389324  1
  Pd  Pd154  1  0.20564218  0.20249613  0.79013806  1
  Pd  Pd155  1  -0.00145753  0.60280187  -0.00699172  1
  Pd  Pd156  1  0.80442832  0.80743282  0.19621552  1
  Pd  Pd157  1  0.20435206  0.20263654  0.60853868  1
  Pd  Pd158  1  0.38889885  0.60240118  0.20476856  1
  Pd  Pd159  1  0.59990262  0.20760224  0.21691191  1
  Pd  Pd160  1  0.21217946  0.39516951  0.80599287  1
  Pd  Pd161  1  0.59137472  0.40845009  0.01072740  1
  Pd  Pd162  1  0.60878061  0.79423635  0.79234157  1
  Pd  Pd163  1  0.20705927  0.01102749  0.40662785  1
  Pd  Pd164  1  0.60885562  0.00645336  0.00660511  1
  Pd  Pd165  1  0.20223884  0.19048328  0.40109255  1
  Pd  Pd166  1  -0.00419109  0.21270623  0.59875527  1
  Pd  Pd167  1  0.39046690  0.39741349  0.80891253  1
  Pd  Pd168  1  0.41221644  0.80220653  0.39226716  1
  Pd  Pd169  1  0.59212476  0.80323809  0.19973774  1
  Pd  Pd170  1  0.59643194  0.19390408  0.79518270  1
  Pd  Pd171  1  0.39643345  0.80213759  0.79754926  1
  Pd  Pd172  1  0.00385700  0.80381525  0.20565425  1
  Pd  Pd173  1  0.20402565  -0.00777824  0.59756050  1
  Pd  Pd174  1  0.19657097  0.60117766  0.78978403  1
  Pd  Pd175  1  0.00032553  0.59987625  0.39893252  1
  Pd  Pd176  1  0.60570679  0.40914621  0.78791429  1
  Pd  Pd177  1  -0.00175259  0.19989738  0.39903862  1
  Pd  Pd178  1  0.00103798  0.79789548  0.79818568  1
  Pd  Pd179  1  0.40281589  0.00587164  0.20652761  1
  Pd  Pd180  1  0.20619506  0.40402037  0.39834628  1
  Pd  Pd181  1  0.41046589  0.80560637  0.19698689  1
  Pd  Pd182  1  0.59700365  0.59246676  0.19483133  1
  Pd  Pd183  1  0.80095376  0.60799167  0.79940539  1
  Pd  Pd184  1  0.40416223  0.20188217  0.60875855  1
  Pd  Pd185  1  0.00796942  -0.00924368  0.21137535  1
  Pd  Pd186  1  0.59162667  0.60577681  0.40000949  1
  Pd  Pd187  1  0.79519825  -0.00410347  0.19494361  1
  Pd  Pd188  1  -0.00421110  0.20508706  0.00494839  1
  Pd  Pd189  1  0.80211458  0.59700963  0.20646459  1
  Pd  Pd190  1  0.80644654  0.00272109  0.40414363  1
  Pd  Pd191  1  0.60412436  0.40349789  0.60556232  1
  Pd  Pd192  1  0.79433058  0.80777563  0.59265716  1
  Pd  Pd193  1  0.40734172  0.59058655  0.80420232  1
  Pd  Pd194  1  0.61110916  0.21222613  0.39206765  1
  Pd  Pd195  1  0.39462074  -0.00422149  0.00192441  1
  Pd  Pd196  1  0.80346021  0.39822409  0.80834985  1
  Pd  Pd197  1  0.19315829  -0.00744330  0.80140101  1
  Pd  Pd198  1  0.20593098  0.60593254  0.19894603  1
  Pd  Pd199  1  0.59774441  -0.00465538  0.19624862  1
  Rh  Rh200  1  0.19280445  0.19169678  0.00824460  1
  Rh  Rh201  1  0.80396520  0.20546938  0.81020613  1
  Rh  Rh202  1  0.80332168  0.80862753  0.00744150  1
  Rh  Rh203  1  0.39693004  0.59672795  0.59035437  1
  Rh  Rh204  1  0.79188608  0.39204952  0.41057206  1
  Rh  Rh205  1  0.60585704  0.59461867  0.60741849  1
  Rh  Rh206  1  0.60122266  0.19032942  -0.00029864  1
  Rh  Rh207  1  0.19210285  0.79027312  0.18593633  1
  Rh  Rh208  1  0.19394665  0.79226802  0.41060097  1
  Rh  Rh209  1  0.58398811  -0.01531559  0.41084766  1
  Rh  Rh210  1  0.00569384  -0.00740459  0.38963860  1
  Rh  Rh211  1  0.40834979  0.00304703  0.59243441  1
  Rh  Rh212  1  -0.00170787  0.01075452  -0.01016619  1
  Rh  Rh213  1  0.00176701  0.58762084  0.60223081  1
  Rh  Rh214  1  0.60603739  0.00740504  0.79290259  1
  Rh  Rh215  1  0.19855747  0.39956596  0.59711560  1
  Rh  Rh216  1  0.79949193  0.60053796  0.59416023  1
  Rh  Rh217  1  -0.00035332  0.78750305  0.00439497  1
  Rh  Rh218  1  0.81191292  0.19767482  0.58647646  1
  Rh  Rh219  1  0.80341288  0.60650259  0.39817376  1
  Rh  Rh220  1  0.39044793  0.40324762  0.40163888  1
  Rh  Rh221  1  -0.00783742  0.41066459  0.78838026  1
  Rh  Rh222  1  0.19290055  0.19917395  0.20005707  1
  Rh  Rh223  1  0.80019814  0.41143951  0.19666072  1
  Rh  Rh224  1  0.19284341  0.40132421  0.20490319  1
  Rh  Rh225  1  0.40098872  0.39239389  0.59714057  1
  Rh  Rh226  1  0.38728492  0.19058185  0.39657139  1
  Rh  Rh227  1  -0.01133191  0.39503492  0.01504362  1
  Rh  Rh228  1  0.79377088  0.79663013  0.39885866  1
  Rh  Rh229  1  0.00470178  0.39754596  0.39925454  1
  Rh  Rh230  1  0.59256740  0.19768538  0.60989787  1
  Rh  Rh231  1  0.79568868  0.59986276  -0.00003836  1
  Rh  Rh232  1  0.00171067  0.19886008  0.79341381  1
  Rh  Rh233  1  -0.00569974  0.59519483  0.20440506  1
  Rh  Rh234  1  0.59147449  0.79430388  0.00563963  1
  Rh  Rh235  1  0.40094983  0.19543421  0.20866968  1
  Rh  Rh236  1  0.80705290  0.40018259  0.59521277  1
  Rh  Rh237  1  0.19411053  0.00680163  0.19442736  1
  Rh  Rh238  1  0.39606258  0.79517912  0.60964686  1
  Rh  Rh239  1  0.40707971  0.19811881  0.00160887  1
  Rh  Rh240  1  0.00694062  0.80630674  0.38839481  1
  Rh  Rh241  1  0.79571718  0.80672660  0.79905733  1
  Rh  Rh242  1  0.60325412  0.39654443  0.39231701  1
  Rh  Rh243  1  0.00518261  0.80710677  0.59219088  1
  Rh  Rh244  1  0.21082689  0.39696878  -0.00457363  1
  Rh  Rh245  1  0.40028864  0.39565692  0.19322618  1
  Rh  Rh246  1  0.40520203  0.00537578  0.80192622  1
  Rh  Rh247  1  0.79015401  0.18243692  0.21403383  1
  Rh  Rh248  1  -0.01323515  -0.00328151  0.61076748  1
  Rh  Rh249  1  0.40565552  0.59631396  -0.00660311  1
