# generated using pymatgen
data_ZrScNbPdRh
_symmetry_space_group_name_H-M   'P 1'
_cell_length_a   16.55613105
_cell_length_b   16.55735745
_cell_length_c   16.55891902
_cell_angle_alpha   89.95818078
_cell_angle_beta   90.01307627
_cell_angle_gamma   90.04257283
_symmetry_Int_Tables_number   1
_chemical_formula_structural   ZrScNbPdRh
_chemical_formula_sum   'Zr50 Sc50 Nb50 Pd50 Rh50'
_cell_volume   4539.22400804
_cell_formula_units_Z   50
loop_
 _symmetry_equiv_pos_site_id
 _symmetry_equiv_pos_as_xyz
  1  'x, y, z'
loop_
 _atom_site_type_symbol
 _atom_site_label
 _atom_site_symmetry_multiplicity
 _atom_site_fract_x
 _atom_site_fract_y
 _atom_site_fract_z
 _atom_site_occupancy
  Zr  Zr0  1  0.30189411  0.71084205  0.09899525  1
  Zr  Zr1  1  0.89675645  0.49485859  0.70371321  1
  Zr  Zr2  1  0.30143503  0.89589533  0.29277815  1
  Zr  Zr3  1  0.89672209  0.89453860  0.90405461  1
  Zr  Zr4  1  0.29211248  0.10777867  0.29306550  1
  Zr  Zr5  1  0.89520590  0.09415971  0.69863805  1
  Zr  Zr6  1  0.90237424  0.89443584  0.28649730  1
  Zr  Zr7  1  0.28860264  0.09538556  0.89966750  1
  Zr  Zr8  1  0.88318796  0.49313323  0.50249620  1
  Zr  Zr9  1  0.09616890  0.89172986  0.50833396  1
  Zr  Zr10  1  0.10426705  0.89455795  0.09622155  1
  Zr  Zr11  1  0.90303230  0.50538070  0.89782922  1
  Zr  Zr12  1  0.70586940  0.30855094  0.49355302  1
  Zr  Zr13  1  0.31837189  0.10731529  0.70379388  1
  Zr  Zr14  1  0.69960685  0.90046768  0.08897157  1
  Zr  Zr15  1  0.29247086  0.51452641  0.09915805  1
  Zr  Zr16  1  0.69267125  0.29889901  0.09708743  1
  Zr  Zr17  1  0.09869219  0.28599637  0.30063831  1
  Zr  Zr18  1  0.70062067  0.50409642  0.49641445  1
  Zr  Zr19  1  0.09672476  0.28538638  0.90306739  1
  Zr  Zr20  1  0.30610765  0.89737434  0.49966835  1
  Zr  Zr21  1  0.90203571  0.69607134  0.89281908  1
  Zr  Zr22  1  0.30450876  0.30081448  0.29452871  1
  Zr  Zr23  1  0.10322932  0.11064074  0.49547951  1
  Zr  Zr24  1  0.69992311  0.29599951  0.90229574  1
  Zr  Zr25  1  0.08772939  0.50146415  0.10037550  1
  Zr  Zr26  1  0.10224637  0.91558282  0.89337332  1
  Zr  Zr27  1  0.50995282  0.89381717  0.90325691  1
  Zr  Zr28  1  0.09916133  0.50194415  0.90041694  1
  Zr  Zr29  1  0.90347445  0.28926896  0.30137725  1
  Zr  Zr30  1  0.30579368  0.69660283  0.30110971  1
  Zr  Zr31  1  0.08983404  0.69827171  0.29890598  1
  Zr  Zr32  1  0.30658554  0.69638852  0.90805816  1
  Zr  Zr33  1  0.69676478  0.50700125  0.68928212  1
  Zr  Zr34  1  0.69154209  0.10222668  0.10417733  1
  Zr  Zr35  1  0.09235770  0.08861009  0.71961213  1
  Zr  Zr36  1  0.09532041  0.90052285  0.29181839  1
  Zr  Zr37  1  0.91694569  0.10307479  0.89328164  1
  Zr  Zr38  1  0.69419545  0.29262423  0.70298641  1
  Zr  Zr39  1  0.70364182  0.29677900  0.29826505  1
  Zr  Zr40  1  0.69820255  0.50180245  0.90547479  1
  Zr  Zr41  1  0.11261755  0.31003005  0.70329305  1
  Zr  Zr42  1  0.09707537  0.70397053  0.90299714  1
  Zr  Zr43  1  0.29692830  0.70152221  0.50117373  1
  Zr  Zr44  1  0.29226305  0.29696244  0.89554939  1
  Zr  Zr45  1  0.70677769  0.50228273  0.30010220  1
  Zr  Zr46  1  0.50170664  0.29403262  0.10452749  1
  Zr  Zr47  1  0.49797242  0.28986219  0.69385238  1
  Zr  Zr48  1  0.50468041  0.90249062  0.71345239  1
  Zr  Zr49  1  0.89694002  0.90201460  0.50303529  1
  Sc  Sc50  1  0.30062269  0.50037926  0.69389339  1
  Sc  Sc51  1  0.09892179  0.10361025  0.09642813  1
  Sc  Sc52  1  0.89649253  0.70079689  0.10132815  1
  Sc  Sc53  1  0.70280782  0.50195578  0.10230345  1
  Sc  Sc54  1  0.50193392  0.90297689  0.49116435  1
  Sc  Sc55  1  0.09708753  0.69934415  0.50191650  1
  Sc  Sc56  1  0.91238670  0.30246774  0.10708150  1
  Sc  Sc57  1  0.09694239  0.70754251  0.69327045  1
  Sc  Sc58  1  0.30404928  0.10336023  0.50281001  1
  Sc  Sc59  1  0.49512818  0.70757417  0.49279498  1
  Sc  Sc60  1  0.29236058  0.09863964  0.09775683  1
  Sc  Sc61  1  0.50387897  0.89560046  0.09205602  1
  Sc  Sc62  1  0.49712305  0.49714387  0.50274345  1
  Sc  Sc63  1  0.30640404  0.50788485  0.49965990  1
  Sc  Sc64  1  0.30947063  0.90105220  0.69995875  1
  Sc  Sc65  1  0.51090763  0.09001053  0.30352231  1
  Sc  Sc66  1  0.50161920  0.69718233  0.71268083  1
  Sc  Sc67  1  0.49900399  0.09131659  0.89485804  1
  Sc  Sc68  1  0.89902892  0.89736296  0.10016692  1
  Sc  Sc69  1  0.49763600  0.51217282  0.90513247  1
  Sc  Sc70  1  0.30877829  0.70158533  0.69544471  1
  Sc  Sc71  1  0.29733815  0.29678868  0.51295874  1
  Sc  Sc72  1  0.69767765  0.70078149  0.90247661  1
  Sc  Sc73  1  0.90251440  0.89326194  0.69221486  1
  Sc  Sc74  1  0.89824716  0.10000019  0.50182287  1
  Sc  Sc75  1  0.49805762  0.31004203  0.29491622  1
  Sc  Sc76  1  0.89804382  0.50302007  0.29461953  1
  Sc  Sc77  1  0.30450755  0.90387649  0.90786953  1
  Sc  Sc78  1  0.69722308  0.70537460  0.69771821  1
  Sc  Sc79  1  0.10773014  0.30000159  0.50485460  1
  Sc  Sc80  1  0.69663943  0.10192179  0.49594036  1
  Sc  Sc81  1  0.30693355  0.50334797  0.90324412  1
  Sc  Sc82  1  0.70067884  0.10643246  0.90767354  1
  Sc  Sc83  1  0.50524729  0.49447069  0.09365337  1
  Sc  Sc84  1  0.69636811  0.69757806  0.10667281  1
  Sc  Sc85  1  0.50553580  0.30615740  0.91241557  1
  Sc  Sc86  1  0.50037369  0.89104098  0.30381864  1
  Sc  Sc87  1  0.30213643  0.29083708  0.10719007  1
  Sc  Sc88  1  0.10485070  0.69238681  0.09734083  1
  Sc  Sc89  1  0.50160528  0.09997743  0.49932106  1
  Sc  Sc90  1  0.10600180  0.50100624  0.50496505  1
  Sc  Sc91  1  0.69661541  0.69862773  0.50158537  1
  Sc  Sc92  1  0.89729327  0.09397997  0.10477396  1
  Sc  Sc93  1  0.69743165  0.89761643  0.50520219  1
  Sc  Sc94  1  0.89608544  0.69572758  0.49559971  1
  Sc  Sc95  1  0.50373291  0.30156498  0.50067813  1
  Sc  Sc96  1  0.09369347  0.50997651  0.29528978  1
  Sc  Sc97  1  0.68732023  0.89942116  0.29285092  1
  Sc  Sc98  1  0.89591935  0.69496003  0.29370825  1
  Sc  Sc99  1  0.10273637  0.49565272  0.70440333  1
  Nb  Nb100  1  0.49882765  0.70039194  0.91077807  1
  Nb  Nb101  1  0.10514350  0.89835301  0.69656146  1
  Nb  Nb102  1  0.30037261  0.89814205  0.10255602  1
  Nb  Nb103  1  0.50196499  0.70271066  0.09891983  1
  Nb  Nb104  1  0.10307477  0.09899392  0.90245199  1
  Nb  Nb105  1  0.10104537  0.30605787  0.10346907  1
  Nb  Nb106  1  0.50599377  0.70394590  0.29307767  1
  Nb  Nb107  1  0.48759513  0.50350631  0.30396943  1
  Nb  Nb108  1  0.30472076  0.30578035  0.70107556  1
  Nb  Nb109  1  0.09397009  0.10223455  0.30243120  1
  Nb  Nb110  1  0.90570898  0.09808471  0.29772939  1
  Nb  Nb111  1  0.89446200  0.29886638  0.89240859  1
  Nb  Nb112  1  0.89992567  0.30346384  0.50589524  1
  Nb  Nb113  1  0.89941669  0.30161186  0.70187003  1
  Nb  Nb114  1  0.90098245  0.69186504  0.70321783  1
  Nb  Nb115  1  0.69432864  0.10377470  0.70052516  1
  Nb  Nb116  1  0.70833967  0.09798850  0.30115811  1
  Nb  Nb117  1  0.50865207  0.10474103  0.69977479  1
  Nb  Nb118  1  0.30394250  0.50078374  0.30080073  1
  Nb  Nb119  1  0.69568185  0.70268111  0.29584027  1
  Nb  Nb120  1  0.90269776  0.49810622  0.09959059  1
  Nb  Nb121  1  0.69880733  0.89899837  0.89599164  1
  Nb  Nb122  1  0.49937914  0.09960117  0.09829189  1
  Nb  Nb123  1  0.49828073  0.49668527  0.70335533  1
  Nb  Nb124  1  0.70093608  0.90287135  0.70270963  1
  Nb  Nb125  1  0.00043368  0.39547912  0.40271004  1
  Nb  Nb126  1  0.80939275  0.39740075  -0.00248002  1
  Nb  Nb127  1  0.59411719  0.60154513  0.38860275  1
  Nb  Nb128  1  0.20086545  0.80205313  0.79949020  1
  Nb  Nb129  1  0.20166443  0.60873793  0.80188103  1
  Nb  Nb130  1  -0.00908325  0.59484921  0.60524721  1
  Nb  Nb131  1  0.20157972  0.40180828  0.39142390  1
  Nb  Nb132  1  0.79314559  -0.00371334  0.79886041  1
  Nb  Nb133  1  0.19474495  0.39652989  0.00629701  1
  Nb  Nb134  1  0.39924244  -0.00306580  0.19395753  1
  Nb  Nb135  1  0.39966053  0.20196550  0.39378749  1
  Nb  Nb136  1  0.40672442  0.60326958  0.20279703  1
  Nb  Nb137  1  0.40070017  0.19446300  0.00184173  1
  Nb  Nb138  1  0.79641700  0.80374381  0.39217942  1
  Nb  Nb139  1  0.80125703  0.20485091  0.60356529  1
  Nb  Nb140  1  0.60102820  0.00211013  0.61136700  1
  Nb  Nb141  1  0.19467798  -0.00216064  0.40127652  1
  Nb  Nb142  1  0.59474675  0.40455061  0.79621462  1
  Nb  Nb143  1  0.19815337  0.80378038  0.39752794  1
  Nb  Nb144  1  0.19816945  0.40314629  0.20152970  1
  Nb  Nb145  1  -0.00419953  0.20704667  0.60837387  1
  Nb  Nb146  1  0.80235633  -0.00155419  0.39035383  1
  Nb  Nb147  1  -0.00064237  0.00231055  0.39499553  1
  Nb  Nb148  1  0.19882184  -0.00047177  0.60219064  1
  Nb  Nb149  1  0.40422965  0.39872573  0.79554677  1
  Pd  Pd150  1  0.00203625  0.39379389  0.80591018  1
  Pd  Pd151  1  0.00853209  0.00941352  0.59385260  1
  Pd  Pd152  1  0.80435620  0.19445775  0.40653403  1
  Pd  Pd153  1  0.80106224  0.00634995  -0.00780823  1
  Pd  Pd154  1  -0.00164089  0.79693613  0.00469290  1
  Pd  Pd155  1  -0.00065823  -0.00003872  0.00622547  1
  Pd  Pd156  1  0.80097478  0.79208446  0.59583643  1
  Pd  Pd157  1  0.59218024  -0.00619334  0.19544961  1
  Pd  Pd158  1  0.59970680  0.39854326  0.60191493  1
  Pd  Pd159  1  0.60083508  0.60049929  0.80452318  1
  Pd  Pd160  1  -0.00572600  0.20035063  0.00766313  1
  Pd  Pd161  1  0.00491188  0.40194278  0.59541887  1
  Pd  Pd162  1  0.81265787  0.20423281  0.00824333  1
  Pd  Pd163  1  0.79756108  0.80128675  0.79710330  1
  Pd  Pd164  1  -0.00560411  0.80238194  0.40023068  1
  Pd  Pd165  1  0.19301743  0.60097439  0.60948276  1
  Pd  Pd166  1  0.19514137  0.19002897  0.61551208  1
  Pd  Pd167  1  0.59540839  0.19722545  0.21231167  1
  Pd  Pd168  1  0.39558098  0.79981785  0.80725606  1
  Pd  Pd169  1  0.00437841  0.80503418  0.79446787  1
  Pd  Pd170  1  -0.00486686  0.58806640  0.41124115  1
  Pd  Pd171  1  0.40934536  0.60328038  0.60131748  1
  Pd  Pd172  1  0.39480214  0.41088127  0.18671893  1
  Pd  Pd173  1  0.58770157  0.60729072  0.59063626  1
  Pd  Pd174  1  0.39162250  0.00913910  0.38935977  1
  Pd  Pd175  1  0.78929988  0.40348034  0.80171747  1
  Pd  Pd176  1  0.60733753  0.00664609  0.80435868  1
  Pd  Pd177  1  0.80316626  0.20070840  0.19223704  1
  Pd  Pd178  1  0.80390920  0.39625859  0.19472806  1
  Pd  Pd179  1  0.78857661  0.60284003  0.79682439  1
  Pd  Pd180  1  0.79568566  0.79124243  0.00175925  1
  Pd  Pd181  1  0.41187127  0.80054840  0.60310402  1
  Pd  Pd182  1  0.40835706  0.00114563  0.60230754  1
  Pd  Pd183  1  0.59185645  0.80506643  0.60175675  1
  Pd  Pd184  1  0.39164936  0.39232537  0.41170145  1
  Pd  Pd185  1  0.59660362  0.40802296  0.39431620  1
  Pd  Pd186  1  0.79981045  0.19106746  0.79865057  1
  Pd  Pd187  1  0.19400237  0.78983554  0.20314606  1
  Pd  Pd188  1  0.19783073  0.00429295  0.19791411  1
  Pd  Pd189  1  0.80198590  0.59847589  0.00623316  1
  Pd  Pd190  1  0.60001948  0.40852804  0.20403729  1
  Pd  Pd191  1  0.19965697  0.19508858  0.79115629  1
  Pd  Pd192  1  0.38971115  0.39167924  0.00053316  1
  Pd  Pd193  1  0.40035528  0.00287151  0.00467376  1
  Pd  Pd194  1  0.19563544  0.59967302  0.39777932  1
  Pd  Pd195  1  -0.00220220  0.39359198  -0.00933782  1
  Pd  Pd196  1  0.41050598  0.20719721  0.81382790  1
  Pd  Pd197  1  0.59386733  0.20242106  0.39541200  1
  Pd  Pd198  1  0.79470033  -0.00474960  0.20100233  1
  Pd  Pd199  1  0.59381066  0.59112851  0.20091151  1
  Rh  Rh200  1  0.21310425  -0.00582051  0.79033519  1
  Rh  Rh201  1  0.21295767  0.20314481  0.40031713  1
  Rh  Rh202  1  0.00510124  0.40052474  0.21397969  1
  Rh  Rh203  1  0.19672645  -0.00311547  0.00642694  1
  Rh  Rh204  1  0.40561440  0.19987602  0.59017945  1
  Rh  Rh205  1  -0.01460266  -0.01619881  0.79852470  1
  Rh  Rh206  1  0.19017540  0.20250829  0.19260218  1
  Rh  Rh207  1  0.60356007  0.00314915  -0.00309068  1
  Rh  Rh208  1  0.21304533  0.41236586  0.80831967  1
  Rh  Rh209  1  0.60372230  0.79242674  0.80477620  1
  Rh  Rh210  1  -0.00748690  0.60396699  0.19253557  1
  Rh  Rh211  1  0.40736233  0.60753077  0.39759190  1
  Rh  Rh212  1  -0.00879903  0.20078762  0.41284750  1
  Rh  Rh213  1  0.60909768  0.40351205  -0.00270726  1
  Rh  Rh214  1  0.59818036  0.60464536  0.00479015  1
  Rh  Rh215  1  0.41151854  0.18383437  0.20186787  1
  Rh  Rh216  1  0.41033944  0.80233615  0.19378110  1
  Rh  Rh217  1  0.80953955  0.39513852  0.38707264  1
  Rh  Rh218  1  0.61170628  -0.00382317  0.40768510  1
  Rh  Rh219  1  0.79023697  0.39235535  0.61015161  1
  Rh  Rh220  1  0.60563533  0.19471683  0.58923446  1
  Rh  Rh221  1  0.60732415  0.79366149  0.40088846  1
  Rh  Rh222  1  0.20905848  0.40796074  0.59232374  1
  Rh  Rh223  1  0.20856965  0.80553739  0.60113719  1
  Rh  Rh224  1  0.01184939  0.60285189  0.78924558  1
  Rh  Rh225  1  0.40190827  0.80339638  0.00051802  1
  Rh  Rh226  1  0.20422813  0.20426377  0.00606502  1
  Rh  Rh227  1  0.39481577  0.59432173  0.79756673  1
  Rh  Rh228  1  0.78509228  0.00960751  0.60101468  1
  Rh  Rh229  1  0.79187853  0.80095844  0.20139441  1
  Rh  Rh230  1  0.00374955  0.00368436  0.19648830  1
  Rh  Rh231  1  0.20458625  0.60097443  0.20741279  1
  Rh  Rh232  1  0.59988188  0.80610483  0.19136345  1
  Rh  Rh233  1  -0.00722791  0.60635349  0.00261443  1
  Rh  Rh234  1  0.39825666  0.39941707  0.60224531  1
  Rh  Rh235  1  0.80486072  0.60693394  0.60365398  1
  Rh  Rh236  1  0.20104112  0.80760218  -0.00857305  1
  Rh  Rh237  1  0.40842766  0.60280847  0.01300114  1
  Rh  Rh238  1  0.00263667  0.79170483  0.18967389  1
  Rh  Rh239  1  0.00348371  0.20894609  0.79184941  1
  Rh  Rh240  1  0.00199539  0.19258790  0.19219304  1
  Rh  Rh241  1  0.60611124  0.79267420  -0.00043403  1
  Rh  Rh242  1  0.78859943  0.61200046  0.39462431  1
  Rh  Rh243  1  0.58819335  0.19089261  -0.00432686  1
  Rh  Rh244  1  -0.01206917  0.78497277  0.60090913  1
  Rh  Rh245  1  0.19612742  0.59628081  -0.00829131  1
  Rh  Rh246  1  0.59328729  0.20385869  0.81063273  1
  Rh  Rh247  1  0.39657075  0.79689951  0.39788100  1
  Rh  Rh248  1  0.40057606  -0.00065195  0.80187751  1
  Rh  Rh249  1  0.80125512  0.60095257  0.19672805  1
