# generated using pymatgen
data_ZrScNbPdRh
_symmetry_space_group_name_H-M   'P 1'
_cell_length_a   16.55713091
_cell_length_b   16.56318947
_cell_length_c   16.56247555
_cell_angle_alpha   89.98852475
_cell_angle_beta   89.98942726
_cell_angle_gamma   90.00712297
_symmetry_Int_Tables_number   1
_chemical_formula_structural   ZrScNbPdRh
_chemical_formula_sum   'Zr50 Sc50 Nb50 Pd50 Rh50'
_cell_volume   4542.07481392
_cell_formula_units_Z   50
loop_
 _symmetry_equiv_pos_site_id
 _symmetry_equiv_pos_as_xyz
  1  'x, y, z'
loop_
 _atom_site_type_symbol
 _atom_site_label
 _atom_site_symmetry_multiplicity
 _atom_site_fract_x
 _atom_site_fract_y
 _atom_site_fract_z
 _atom_site_occupancy
  Zr  Zr0  1  0.89944820  0.49806752  0.09946805  1
  Zr  Zr1  1  0.48928520  0.90857657  0.90928569  1
  Zr  Zr2  1  0.29932776  0.70193801  0.51155578  1
  Zr  Zr3  1  0.29896690  0.90421313  0.50221428  1
  Zr  Zr4  1  0.49645171  0.70698005  0.50179863  1
  Zr  Zr5  1  0.70680662  0.09596208  0.30012081  1
  Zr  Zr6  1  0.70002908  0.49274879  0.09084138  1
  Zr  Zr7  1  0.69392818  0.30278527  0.49472366  1
  Zr  Zr8  1  0.10493501  0.50892763  0.49419094  1
  Zr  Zr9  1  0.70013598  0.10327859  0.10814992  1
  Zr  Zr10  1  0.89354310  0.29505277  0.49544476  1
  Zr  Zr11  1  0.09914364  0.49708325  0.30064151  1
  Zr  Zr12  1  0.10276628  0.10364665  0.90461728  1
  Zr  Zr13  1  0.09751820  0.90897568  0.90477085  1
  Zr  Zr14  1  0.10661113  0.09413351  0.49184729  1
  Zr  Zr15  1  0.90508869  0.70985999  0.49277238  1
  Zr  Zr16  1  0.30291524  0.28829395  0.10298390  1
  Zr  Zr17  1  0.30928433  0.50214511  0.10584520  1
  Zr  Zr18  1  0.49328976  0.29883616  0.49626099  1
  Zr  Zr19  1  0.49868518  0.49826334  0.29480224  1
  Zr  Zr20  1  0.09709539  0.31184372  0.50514987  1
  Zr  Zr21  1  0.89419888  0.51594771  0.90104045  1
  Zr  Zr22  1  0.90257730  0.89616999  0.90651041  1
  Zr  Zr23  1  0.50034296  0.09877840  0.89998672  1
  Zr  Zr24  1  0.32162950  0.49759182  0.71210200  1
  Zr  Zr25  1  0.29478053  0.50372349  0.91401274  1
  Zr  Zr26  1  0.90063458  0.09885471  0.49514684  1
  Zr  Zr27  1  0.70432824  0.70140210  0.10096584  1
  Zr  Zr28  1  0.29668127  0.89587000  0.90564262  1
  Zr  Zr29  1  0.49484326  0.49325556  0.89817519  1
  Zr  Zr30  1  0.10251555  0.69465891  0.68792089  1
  Zr  Zr31  1  0.10230549  0.29865045  0.70159302  1
  Zr  Zr32  1  0.09670986  0.69578345  0.90597531  1
  Zr  Zr33  1  0.70146056  0.10866055  0.49719179  1
  Zr  Zr34  1  0.49320747  0.10429150  0.10034518  1
  Zr  Zr35  1  0.89005054  0.10785726  0.70092175  1
  Zr  Zr36  1  0.70508401  0.69150729  0.51325350  1
  Zr  Zr37  1  0.09631379  0.90176682  0.49432473  1
  Zr  Zr38  1  0.10016913  0.69760905  0.30372728  1
  Zr  Zr39  1  0.29808927  0.10070247  0.69024513  1
  Zr  Zr40  1  0.29884551  0.69943184  0.09828138  1
  Zr  Zr41  1  0.10327402  0.09469910  0.10341838  1
  Zr  Zr42  1  0.90264416  0.90215709  0.49484661  1
  Zr  Zr43  1  0.69524579  0.49377089  0.29570309  1
  Zr  Zr44  1  0.70714146  0.89708895  0.49200039  1
  Zr  Zr45  1  0.49680579  0.90397251  0.09673051  1
  Zr  Zr46  1  0.50678696  0.49734005  0.10895300  1
  Zr  Zr47  1  0.69933496  0.51496047  0.68450369  1
  Zr  Zr48  1  0.29601605  0.29828229  0.90507679  1
  Zr  Zr49  1  0.49875014  0.29099763  0.89986471  1
  Sc  Sc50  1  0.30467234  0.29561749  0.69615600  1
  Sc  Sc51  1  0.49368326  0.09754500  0.29541779  1
  Sc  Sc52  1  0.09781384  0.29902124  0.30336853  1
  Sc  Sc53  1  0.09920711  0.29799484  0.09724774  1
  Sc  Sc54  1  0.67860719  0.89172673  0.90056718  1
  Sc  Sc55  1  0.29502139  0.90260217  0.10196082  1
  Sc  Sc56  1  0.29818654  0.10390047  0.48820787  1
  Sc  Sc57  1  0.48875476  0.69716274  0.69795792  1
  Sc  Sc58  1  0.49602934  0.69853465  0.10483417  1
  Sc  Sc59  1  0.10036507  0.10031928  0.70131010  1
  Sc  Sc60  1  0.30221122  0.10082061  0.90912001  1
  Sc  Sc61  1  0.09466736  0.49853231  0.68566035  1
  Sc  Sc62  1  0.90582806  0.49181689  0.29644691  1
  Sc  Sc63  1  0.30160714  0.29617587  0.49709218  1
  Sc  Sc64  1  0.90231841  0.29366953  0.69609517  1
  Sc  Sc65  1  0.49393285  0.29948346  0.70044952  1
  Sc  Sc66  1  0.49787422  0.89715106  0.71732292  1
  Sc  Sc67  1  0.90238883  0.69902895  0.29266239  1
  Sc  Sc68  1  0.89816714  0.70695559  0.08892323  1
  Sc  Sc69  1  0.70038423  0.70432186  0.29440089  1
  Sc  Sc70  1  0.09797778  0.70836569  0.10709287  1
  Sc  Sc71  1  0.70175868  0.90075968  0.29697382  1
  Sc  Sc72  1  0.49671148  0.30454457  0.29712526  1
  Sc  Sc73  1  0.89494872  0.69112594  0.69095167  1
  Sc  Sc74  1  0.49828766  0.10607979  0.49503941  1
  Sc  Sc75  1  0.90762890  0.49095206  0.49728037  1
  Sc  Sc76  1  0.10540385  0.49893888  0.09378354  1
  Sc  Sc77  1  0.90685578  0.30024008  0.30021402  1
  Sc  Sc78  1  0.89718292  0.90014163  0.30720019  1
  Sc  Sc79  1  0.30166150  0.49199948  0.50046610  1
  Sc  Sc80  1  0.50022543  0.90098669  0.29858055  1
  Sc  Sc81  1  0.50217880  0.70480671  0.29307734  1
  Sc  Sc82  1  0.50007653  0.71584682  0.90312974  1
  Sc  Sc83  1  0.69936102  0.29793078  0.91136314  1
  Sc  Sc84  1  0.49724873  0.11039099  0.70851298  1
  Sc  Sc85  1  0.29675631  0.89269325  0.70246208  1
  Sc  Sc86  1  0.10528928  0.90736140  0.69953145  1
  Sc  Sc87  1  0.90217705  0.10471797  0.10737704  1
  Sc  Sc88  1  0.90469259  0.50500186  0.69362449  1
  Sc  Sc89  1  0.50403859  0.49150747  0.51201842  1
  Sc  Sc90  1  0.90590971  0.09834884  0.90136199  1
  Sc  Sc91  1  0.30756699  0.49333712  0.30645374  1
  Sc  Sc92  1  0.49639116  0.89782925  0.49031752  1
  Sc  Sc93  1  0.69371706  0.11304575  0.70440562  1
  Sc  Sc94  1  0.09597776  0.90325871  0.09986722  1
  Sc  Sc95  1  0.90624022  0.89917671  0.69413841  1
  Sc  Sc96  1  0.89325119  0.29088272  0.90136754  1
  Sc  Sc97  1  0.69905555  0.29828538  0.30680548  1
  Sc  Sc98  1  0.10082451  0.90086036  0.29225553  1
  Sc  Sc99  1  0.29966033  0.90676664  0.29553618  1
  Nb  Nb100  1  0.69779937  0.89886841  0.70087812  1
  Nb  Nb101  1  0.70056611  0.30173083  0.09775351  1
  Nb  Nb102  1  0.50880230  0.30129007  0.09730294  1
  Nb  Nb103  1  0.29686743  0.69895586  0.70461483  1
  Nb  Nb104  1  0.70746575  0.90131736  0.09855244  1
  Nb  Nb105  1  0.70293224  0.09776069  0.89556234  1
  Nb  Nb106  1  0.70554862  0.30038650  0.70369179  1
  Nb  Nb107  1  0.29239332  0.70045456  0.90248404  1
  Nb  Nb108  1  0.70644135  0.69422954  0.89671087  1
  Nb  Nb109  1  0.90763995  0.10168972  0.30513113  1
  Nb  Nb110  1  0.10462586  0.69713498  0.49375705  1
  Nb  Nb111  1  0.30505434  0.29467363  0.30156436  1
  Nb  Nb112  1  0.89647182  0.70279534  0.89710174  1
  Nb  Nb113  1  0.70235095  0.50130575  0.89798175  1
  Nb  Nb114  1  0.89569643  0.89986883  0.08977158  1
  Nb  Nb115  1  0.29277252  0.10872482  0.29191303  1
  Nb  Nb116  1  0.69925900  0.49545307  0.49434146  1
  Nb  Nb117  1  0.69639097  0.70283153  0.70146172  1
  Nb  Nb118  1  0.10483582  0.09494618  0.30142215  1
  Nb  Nb119  1  0.29770888  0.69831494  0.30010617  1
  Nb  Nb120  1  0.10159841  0.49940132  0.90005181  1
  Nb  Nb121  1  0.30002398  0.09971041  0.11045614  1
  Nb  Nb122  1  0.10439689  0.30342490  0.90272671  1
  Nb  Nb123  1  0.89630858  0.30406876  0.09804077  1
  Nb  Nb124  1  0.50375579  0.49687839  0.70714185  1
  Nb  Nb125  1  0.19594491  0.40557878  0.80446630  1
  Nb  Nb126  1  0.40351948  0.39310614  0.00738411  1
  Nb  Nb127  1  0.20403028  0.59992582  0.80050490  1
  Nb  Nb128  1  0.19958417  0.79474201  0.40229327  1
  Nb  Nb129  1  0.59980386  0.59778937  0.40427197  1
  Nb  Nb130  1  0.60255924  0.80511768  0.60444291  1
  Nb  Nb131  1  0.40523124  -0.00102654  0.60034913  1
  Nb  Nb132  1  0.79800339  0.39309782  0.19177796  1
  Nb  Nb133  1  0.79793299  0.40433676  0.79641007  1
  Nb  Nb134  1  0.60012210  -0.00395460  0.60125173  1
  Nb  Nb135  1  0.60727534  0.40435786  0.79712381  1
  Nb  Nb136  1  0.79810666  0.79807269  0.79991981  1
  Nb  Nb137  1  0.20638726  0.39905423  0.20105815  1
  Nb  Nb138  1  0.20392532  0.59656355  0.20530124  1
  Nb  Nb139  1  0.60477162  0.59825924  -0.00745909  1
  Nb  Nb140  1  0.79396152  -0.00592023  0.80129863  1
  Nb  Nb141  1  0.00145364  0.40138763  0.80742279  1
  Nb  Nb142  1  0.79433581  0.59365820  0.40115909  1
  Nb  Nb143  1  0.40399780  0.60362480  0.40213318  1
  Nb  Nb144  1  0.79167240  0.00095853  0.60396876  1
  Nb  Nb145  1  -0.00053231  0.39978781  -0.00926672  1
  Nb  Nb146  1  -0.00306300  0.79314984  0.80260678  1
  Nb  Nb147  1  0.60148308  0.59972497  0.80110714  1
  Nb  Nb148  1  0.79357802  0.39805318  0.59989276  1
  Nb  Nb149  1  0.79366946  -0.00276986  -0.00168572  1
  Pd  Pd150  1  0.18993032  0.20693986  0.20328884  1
  Pd  Pd151  1  0.21308581  0.58698336  0.60862852  1
  Pd  Pd152  1  0.60575149  0.00724879  0.00501757  1
  Pd  Pd153  1  0.00704421  0.19482599  0.59571653  1
  Pd  Pd154  1  0.18896778  0.79350503  0.80036679  1
  Pd  Pd155  1  -0.00737729  -0.00272854  0.79575606  1
  Pd  Pd156  1  0.80043823  0.18971524  0.00088138  1
  Pd  Pd157  1  0.60117576  0.79268971  0.00718328  1
  Pd  Pd158  1  0.60152432  0.00475140  0.79418748  1
  Pd  Pd159  1  0.00695963  0.59867351  0.19334663  1
  Pd  Pd160  1  0.38957925  0.00418962  0.79519674  1
  Pd  Pd161  1  0.80413415  0.20884137  0.20683600  1
  Pd  Pd162  1  0.00791978  0.20113486  0.40234511  1
  Pd  Pd163  1  -0.00027607  0.20306706  0.00288525  1
  Pd  Pd164  1  -0.01130424  0.59783651  0.39907296  1
  Pd  Pd165  1  0.59942337  0.80755911  0.19348960  1
  Pd  Pd166  1  0.60782968  0.79202961  0.40326387  1
  Pd  Pd167  1  0.59756130  0.20412689  0.20600086  1
  Pd  Pd168  1  0.41246001  0.60320737  -0.00395450  1
  Pd  Pd169  1  0.80027121  0.80647331  0.60608966  1
  Pd  Pd170  1  -0.00736749  -0.00440301  0.20074889  1
  Pd  Pd171  1  0.20526298  0.20067526  0.80021488  1
  Pd  Pd172  1  0.59788629  -0.00382735  0.20007195  1
  Pd  Pd173  1  0.21055062  0.40536087  0.61081875  1
  Pd  Pd174  1  -0.00377104  0.00822525  0.60441932  1
  Pd  Pd175  1  0.20357872  0.39330046  0.39419445  1
  Pd  Pd176  1  0.59485229  0.20118205  0.60397461  1
  Pd  Pd177  1  0.20703599  0.00487609  0.80259047  1
  Pd  Pd178  1  0.60152937  0.39057245  0.60693841  1
  Pd  Pd179  1  -0.00035068  0.20443156  0.80344233  1
  Pd  Pd180  1  -0.00960255  0.80759823  0.19882307  1
  Pd  Pd181  1  0.40211309  0.61222209  0.81287887  1
  Pd  Pd182  1  0.00551601  0.79835305  0.60364706  1
  Pd  Pd183  1  0.19375969  0.80652393  0.59689447  1
  Pd  Pd184  1  0.39620500  0.00602851  0.39857970  1
  Pd  Pd185  1  0.81077100  -0.00434947  0.19732154  1
  Pd  Pd186  1  0.19793201  0.19941954  0.59029851  1
  Pd  Pd187  1  0.00645743  0.60112595  0.79456103  1
  Pd  Pd188  1  0.59165737  0.19770457  0.38804895  1
  Pd  Pd189  1  0.80810114  0.80538954  0.20255542  1
  Pd  Pd190  1  0.19333251  0.80326419  0.00685118  1
  Pd  Pd191  1  0.39602740  0.79612997  0.80328009  1
  Pd  Pd192  1  0.00434067  0.20373486  0.19980784  1
  Pd  Pd193  1  0.39119254  0.79791423  0.39213091  1
  Pd  Pd194  1  0.40177340  0.59317159  0.59518062  1
  Pd  Pd195  1  0.79975976  0.59181573  0.20401517  1
  Pd  Pd196  1  0.59818415  0.00219248  0.40236490  1
  Pd  Pd197  1  0.39585032  0.80578426  0.19932982  1
  Pd  Pd198  1  0.60498079  0.19081919  -0.00083985  1
  Pd  Pd199  1  0.00208393  0.59947961  0.00937876  1
  Rh  Rh200  1  0.00212935  0.39825669  0.40317424  1
  Rh  Rh201  1  -0.00267185  0.60449460  0.58582156  1
  Rh  Rh202  1  0.20070064  0.00129095  0.20118604  1
  Rh  Rh203  1  0.39149162  0.19797912  0.80107355  1
  Rh  Rh204  1  0.79745742  0.20098324  0.80700940  1
  Rh  Rh205  1  0.39738226  0.00048916  0.19907496  1
  Rh  Rh206  1  0.40708511  0.20239290  0.20306149  1
  Rh  Rh207  1  0.58719311  0.60941983  0.60068486  1
  Rh  Rh208  1  0.40017692  0.39676566  0.60040078  1
  Rh  Rh209  1  0.80293758  0.19862046  0.39061305  1
  Rh  Rh210  1  0.19604168  0.20308883  0.39652947  1
  Rh  Rh211  1  0.21266937  0.60465246  0.39830431  1
  Rh  Rh212  1  0.19458455  0.60597798  0.00697227  1
  Rh  Rh213  1  0.79800109  0.78774498  0.39164483  1
  Rh  Rh214  1  0.60913538  0.38794044  0.20153147  1
  Rh  Rh215  1  -0.01025750  0.39393210  0.60513209  1
  Rh  Rh216  1  0.78936984  0.80626202  -0.00931073  1
  Rh  Rh217  1  0.79444936  0.20259342  0.59604784  1
  Rh  Rh218  1  0.81348165  0.59034249  0.58503398  1
  Rh  Rh219  1  0.39086878  0.00435231  0.00779264  1
  Rh  Rh220  1  0.39608692  0.60559247  0.21116581  1
  Rh  Rh221  1  0.00719174  0.80136250  0.39369513  1
  Rh  Rh222  1  0.60028849  0.79019475  0.79573657  1
  Rh  Rh223  1  0.20153817  -0.00507226  0.39100493  1
  Rh  Rh224  1  0.60661247  0.20943725  0.80528171  1
  Rh  Rh225  1  0.39907509  0.19854903  0.39293476  1
  Rh  Rh226  1  0.40125240  0.19239987  0.59524190  1
  Rh  Rh227  1  0.20173648  0.39628937  0.00505849  1
  Rh  Rh228  1  0.60358118  0.60564346  0.19677504  1
  Rh  Rh229  1  0.00101481  0.39489429  0.18715440  1
  Rh  Rh230  1  0.40745285  0.81255501  0.61094191  1
  Rh  Rh231  1  0.20335345  0.79491661  0.20651404  1
  Rh  Rh232  1  0.20391422  0.00314229  0.00464708  1
  Rh  Rh233  1  -0.00755993  0.00806701  0.00940972  1
  Rh  Rh234  1  0.40390188  0.40303693  0.40358452  1
  Rh  Rh235  1  0.39511436  0.38716784  0.19447051  1
  Rh  Rh236  1  0.58924202  0.40469662  0.39858960  1
  Rh  Rh237  1  0.39906725  0.38818635  0.80859212  1
  Rh  Rh238  1  0.39368859  0.79956428  0.00366452  1
  Rh  Rh239  1  0.80563332  0.40280788  0.39549494  1
  Rh  Rh240  1  0.20542162  0.00045837  0.59901977  1
  Rh  Rh241  1  0.00562400  0.79914016  -0.00302625  1
  Rh  Rh242  1  0.40059561  0.19985891  0.00307261  1
  Rh  Rh243  1  0.79602411  0.60591824  0.00524110  1
  Rh  Rh244  1  0.59331159  0.40218505  -0.00631358  1
  Rh  Rh245  1  0.80907578  0.39752834  -0.00399587  1
  Rh  Rh246  1  0.79678761  0.60141016  0.79258161  1
  Rh  Rh247  1  0.80117560  0.00520001  0.40039896  1
  Rh  Rh248  1  0.00253479  -0.00018667  0.38945756  1
  Rh  Rh249  1  0.19803570  0.19284034  0.00599352  1
