# generated using pymatgen
data_ZrScNbPdRh
_symmetry_space_group_name_H-M   'P 1'
_cell_length_a   16.55449734
_cell_length_b   16.55528163
_cell_length_c   16.55505139
_cell_angle_alpha   90.02847239
_cell_angle_beta   90.00671340
_cell_angle_gamma   89.97824278
_symmetry_Int_Tables_number   1
_chemical_formula_structural   ZrScNbPdRh
_chemical_formula_sum   'Zr50 Sc50 Nb50 Pd50 Rh50'
_cell_volume   4537.14873976
_cell_formula_units_Z   50
loop_
 _symmetry_equiv_pos_site_id
 _symmetry_equiv_pos_as_xyz
  1  'x, y, z'
loop_
 _atom_site_type_symbol
 _atom_site_label
 _atom_site_symmetry_multiplicity
 _atom_site_fract_x
 _atom_site_fract_y
 _atom_site_fract_z
 _atom_site_occupancy
  Zr  Zr0  1  0.09538161  0.09391695  0.10200056  1
  Zr  Zr1  1  0.70405238  0.10445265  0.49658990  1
  Zr  Zr2  1  0.70584781  0.10084414  0.90623088  1
  Zr  Zr3  1  0.10876734  0.49196756  0.70151659  1
  Zr  Zr4  1  0.70034346  0.28716460  0.09558592  1
  Zr  Zr5  1  0.49836470  0.09720551  0.10756724  1
  Zr  Zr6  1  0.89838943  0.70805786  0.10839942  1
  Zr  Zr7  1  0.49890070  0.09821591  0.69477366  1
  Zr  Zr8  1  0.29188517  0.90816836  0.49572239  1
  Zr  Zr9  1  0.69983315  0.49624459  0.10492437  1
  Zr  Zr10  1  0.90035390  0.50492917  0.29913481  1
  Zr  Zr11  1  0.69850912  0.10107370  0.29249312  1
  Zr  Zr12  1  0.30287711  0.70330769  0.70621169  1
  Zr  Zr13  1  0.50493648  0.30147236  0.90450177  1
  Zr  Zr14  1  0.10395170  0.90258160  0.69948933  1
  Zr  Zr15  1  0.90515925  0.49237004  0.09910195  1
  Zr  Zr16  1  0.10403505  0.89660757  0.50096436  1
  Zr  Zr17  1  0.49839963  0.09165193  0.89903379  1
  Zr  Zr18  1  0.29999329  0.30883559  0.68567346  1
  Zr  Zr19  1  0.90354363  0.29800844  0.90502198  1
  Zr  Zr20  1  0.50969432  0.30766101  0.69891725  1
  Zr  Zr21  1  0.50287204  0.90046456  0.49924190  1
  Zr  Zr22  1  0.30315741  0.29631093  0.10441986  1
  Zr  Zr23  1  0.30337021  0.69815300  0.10858153  1
  Zr  Zr24  1  0.70505791  0.89990902  0.70430369  1
  Zr  Zr25  1  0.69890101  0.29216012  0.89520067  1
  Zr  Zr26  1  0.29465608  0.70151164  0.50659418  1
  Zr  Zr27  1  0.29932484  0.09802158  0.70097878  1
  Zr  Zr28  1  0.50290621  0.70010949  0.50415876  1
  Zr  Zr29  1  0.29844717  0.90147760  0.70068364  1
  Zr  Zr30  1  0.10103145  0.09275956  0.49280365  1
  Zr  Zr31  1  0.10893994  0.29593290  0.30221974  1
  Zr  Zr32  1  0.09520235  0.30233667  0.89073138  1
  Zr  Zr33  1  0.69641628  0.49838834  0.30206576  1
  Zr  Zr34  1  0.90485247  0.90137878  0.29934488  1
  Zr  Zr35  1  0.89644032  0.29120135  0.50093567  1
  Zr  Zr36  1  0.09709401  0.50430072  0.50143426  1
  Zr  Zr37  1  0.30259756  0.10478223  0.49765897  1
  Zr  Zr38  1  0.29297621  0.29736544  0.48581840  1
  Zr  Zr39  1  0.10103198  0.49281182  0.90044307  1
  Zr  Zr40  1  0.30063667  0.09321845  0.09772501  1
  Zr  Zr41  1  0.49997101  0.90857772  0.30378071  1
  Zr  Zr42  1  0.89372226  0.90264777  0.91008459  1
  Zr  Zr43  1  0.30247229  0.49997668  0.90897966  1
  Zr  Zr44  1  0.29518893  0.50153723  0.29436714  1
  Zr  Zr45  1  0.49727617  0.10008659  0.48741765  1
  Zr  Zr46  1  0.29905591  0.49252767  0.50373386  1
  Zr  Zr47  1  0.29993612  0.10563575  0.30010333  1
  Zr  Zr48  1  0.69106553  0.49294482  0.69494411  1
  Zr  Zr49  1  0.10168906  0.70406260  0.68863531  1
  Sc  Sc50  1  0.50141067  0.70527312  0.90252797  1
  Sc  Sc51  1  0.90017629  0.69397887  0.50661562  1
  Sc  Sc52  1  0.09929993  0.49102841  0.29752195  1
  Sc  Sc53  1  0.50743369  0.30071174  0.10023146  1
  Sc  Sc54  1  0.29401951  0.30052846  0.90619852  1
  Sc  Sc55  1  0.49668523  0.89611738  0.10031280  1
  Sc  Sc56  1  0.69786665  0.50568445  0.89356647  1
  Sc  Sc57  1  0.10722068  0.49528362  0.10393949  1
  Sc  Sc58  1  0.09532127  0.10335375  0.90696032  1
  Sc  Sc59  1  0.50624930  0.90170602  0.70798281  1
  Sc  Sc60  1  0.70859618  0.69978892  0.29912555  1
  Sc  Sc61  1  0.09346146  0.29998346  0.10180365  1
  Sc  Sc62  1  0.69131822  0.50708296  0.50218373  1
  Sc  Sc63  1  0.89498087  0.70225948  0.30449340  1
  Sc  Sc64  1  0.31482636  0.90701744  0.89696102  1
  Sc  Sc65  1  0.10227604  0.09748735  0.71562276  1
  Sc  Sc66  1  0.69065764  0.29820993  0.29251795  1
  Sc  Sc67  1  0.88779293  0.51032948  0.69620893  1
  Sc  Sc68  1  0.70332307  0.89294687  0.30231560  1
  Sc  Sc69  1  0.50199401  0.50402672  0.90465073  1
  Sc  Sc70  1  0.70786228  0.89774780  0.10175720  1
  Sc  Sc71  1  0.70021924  0.89462875  0.49990831  1
  Sc  Sc72  1  0.49476598  0.49891707  0.09243146  1
  Sc  Sc73  1  0.28970812  0.90090053  0.29660391  1
  Sc  Sc74  1  0.89719472  0.09886189  0.48540825  1
  Sc  Sc75  1  0.10508199  0.70844047  0.10579314  1
  Sc  Sc76  1  0.49932501  0.70278940  0.70131092  1
  Sc  Sc77  1  0.48618451  0.30198380  0.50236384  1
  Sc  Sc78  1  0.49343967  0.70252542  0.28823061  1
  Sc  Sc79  1  0.70397297  0.30268445  0.50549674  1
  Sc  Sc80  1  0.89273105  0.70338765  0.69354867  1
  Sc  Sc81  1  0.69995220  0.70424943  0.10650152  1
  Sc  Sc82  1  0.70711441  0.09815265  0.70580222  1
  Sc  Sc83  1  0.29980830  0.50597956  0.09777465  1
  Sc  Sc84  1  0.70405525  0.69008537  0.70091966  1
  Sc  Sc85  1  0.49695631  0.70203953  0.09611381  1
  Sc  Sc86  1  0.09544589  0.90048860  0.10506609  1
  Sc  Sc87  1  0.69485733  0.70563646  0.89608030  1
  Sc  Sc88  1  0.29998810  0.09973637  0.90560689  1
  Sc  Sc89  1  0.90151493  0.09882563  0.90571552  1
  Sc  Sc90  1  0.89887982  0.49363245  0.89924441  1
  Sc  Sc91  1  0.50308743  0.29743763  0.30274695  1
  Sc  Sc92  1  0.89220389  0.70225282  0.89647084  1
  Sc  Sc93  1  0.30154849  0.50263340  0.69599438  1
  Sc  Sc94  1  0.10219932  0.90628158  0.29613506  1
  Sc  Sc95  1  0.70224377  0.70372639  0.50085007  1
  Sc  Sc96  1  0.50419589  0.50302589  0.69293263  1
  Sc  Sc97  1  0.91523022  0.29316753  0.29896782  1
  Sc  Sc98  1  0.89374478  0.89383771  0.50163374  1
  Sc  Sc99  1  0.10127215  0.70641091  0.90220203  1
  Nb  Nb100  1  0.90272287  0.90090513  0.69826638  1
  Nb  Nb101  1  0.29622258  0.69758114  0.29771654  1
  Nb  Nb102  1  0.09204022  0.90169669  0.90202408  1
  Nb  Nb103  1  0.89927472  0.30082900  0.09605480  1
  Nb  Nb104  1  0.90107987  0.49653655  0.49602684  1
  Nb  Nb105  1  0.69385558  0.90197442  0.90015635  1
  Nb  Nb106  1  0.70218496  0.10231753  0.09890582  1
  Nb  Nb107  1  0.29469806  0.90319394  0.09559192  1
  Nb  Nb108  1  0.70192201  0.29736920  0.69823176  1
  Nb  Nb109  1  0.91052681  0.09452475  0.29836205  1
  Nb  Nb110  1  0.09587111  0.29728562  0.50015066  1
  Nb  Nb111  1  0.10770585  0.70780491  0.29692820  1
  Nb  Nb112  1  0.30062015  0.69884526  0.90277567  1
  Nb  Nb113  1  0.51487368  0.90123956  0.90141969  1
  Nb  Nb114  1  0.09591577  0.30191746  0.69992216  1
  Nb  Nb115  1  0.50280725  0.49693885  0.30071599  1
  Nb  Nb116  1  0.89289094  0.29181770  0.69772476  1
  Nb  Nb117  1  0.08653255  0.09528027  0.30046816  1
  Nb  Nb118  1  0.90285395  0.90185754  0.10169937  1
  Nb  Nb119  1  0.29494662  0.30416812  0.29974833  1
  Nb  Nb120  1  0.09985994  0.70222714  0.50019705  1
  Nb  Nb121  1  0.50159208  0.50196037  0.49299556  1
  Nb  Nb122  1  0.89209392  0.09868512  0.10078782  1
  Nb  Nb123  1  0.89808668  0.09983788  0.69689425  1
  Nb  Nb124  1  0.50196660  0.09684024  0.30263175  1
  Nb  Nb125  1  0.80455867  0.39374007  0.19998512  1
  Nb  Nb126  1  0.40134665  0.20659508  0.79679097  1
  Nb  Nb127  1  0.20718167  0.80599741  -0.00263160  1
  Nb  Nb128  1  0.00093460  0.60420925  0.19929276  1
  Nb  Nb129  1  0.79645569  0.39017065  0.79248742  1
  Nb  Nb130  1  0.80374913  0.40210923  0.39675593  1
  Nb  Nb131  1  0.39822082  0.60012439  0.39736811  1
  Nb  Nb132  1  0.60192089  0.19990334  0.60061236  1
  Nb  Nb133  1  -0.00163362  0.60217603  0.00211269  1
  Nb  Nb134  1  0.00832649  0.79512642  0.40314154  1
  Nb  Nb135  1  0.00509767  0.60435252  0.80120176  1
  Nb  Nb136  1  0.40271684  0.39729542  0.80155402  1
  Nb  Nb137  1  -0.00518717  0.39316405  0.60090216  1
  Nb  Nb138  1  0.20000657  0.60366649  0.80479782  1
  Nb  Nb139  1  0.59787143  0.59378206  0.20242985  1
  Nb  Nb140  1  0.60575079  -0.00088117  0.00234943  1
  Nb  Nb141  1  0.00084367  0.19738058  0.60469641  1
  Nb  Nb142  1  -0.00411322  0.00365040  0.60415402  1
  Nb  Nb143  1  0.39878373  0.40078043  0.20551315  1
  Nb  Nb144  1  -0.00080903  0.80472628  0.79797026  1
  Nb  Nb145  1  0.80378886  0.59998530  0.00527341  1
  Nb  Nb146  1  0.39970227  -0.00028199  0.59539587  1
  Nb  Nb147  1  0.19984791  0.60640876  0.39852663  1
  Nb  Nb148  1  0.18960557  0.20336162  0.60018113  1
  Nb  Nb149  1  0.39393478  0.79585111  0.39869059  1
  Pd  Pd150  1  0.60053018  0.79679681  0.20201967  1
  Pd  Pd151  1  0.19747529  0.80175817  0.80940080  1
  Pd  Pd152  1  0.20120588  -0.00046969  0.81463622  1
  Pd  Pd153  1  0.60005058  0.20918958  0.40715151  1
  Pd  Pd154  1  0.40645911  0.20745848  0.20587257  1
  Pd  Pd155  1  0.59426113  0.79280498  0.39191834  1
  Pd  Pd156  1  0.19302979  0.20294267  0.00324379  1
  Pd  Pd157  1  -0.01587149  0.40830812  0.78661032  1
  Pd  Pd158  1  0.39983439  0.40278312  0.39339263  1
  Pd  Pd159  1  0.60463278  0.39199024  0.40728260  1
  Pd  Pd160  1  -0.00314273  0.19877712  0.19284586  1
  Pd  Pd161  1  0.80147930  -0.00272176  0.20036759  1
  Pd  Pd162  1  0.19551703  0.19353247  0.19852864  1
  Pd  Pd163  1  -0.00176856  0.59374860  0.60772910  1
  Pd  Pd164  1  -0.00251611  0.39545256  0.40271368  1
  Pd  Pd165  1  -0.00590781  0.19511726  0.79784560  1
  Pd  Pd166  1  0.79631646  -0.00396132  0.39617555  1
  Pd  Pd167  1  0.60653794  0.60611343  0.00770101  1
  Pd  Pd168  1  0.19608015  -0.00669633  -0.00585343  1
  Pd  Pd169  1  0.80815780  0.20462277  0.20612256  1
  Pd  Pd170  1  0.60719534  0.79675148  0.60901001  1
  Pd  Pd171  1  0.00423072  0.79644283  -0.00185563  1
  Pd  Pd172  1  0.79877494  0.20775936  0.38407026  1
  Pd  Pd173  1  0.59703014  0.19209175  0.79387460  1
  Pd  Pd174  1  0.39333561  -0.00696275  0.20315159  1
  Pd  Pd175  1  0.00752716  0.60972729  0.39060736  1
  Pd  Pd176  1  0.19296552  0.61020427  0.00010373  1
  Pd  Pd177  1  -0.00542530  -0.00285061  0.80086734  1
  Pd  Pd178  1  0.80367698  0.00085615  0.59417485  1
  Pd  Pd179  1  0.19679553  0.39133148  0.00648184  1
  Pd  Pd180  1  0.39996094  0.59322344  0.80512184  1
  Pd  Pd181  1  0.40337464  0.59651082  0.59596590  1
  Pd  Pd182  1  0.80278840  0.80089654  0.79776618  1
  Pd  Pd183  1  0.60717741  0.40277510  -0.00353095  1
  Pd  Pd184  1  0.79053028  0.40254271  -0.00479415  1
  Pd  Pd185  1  0.80535834  0.00147057  0.80434607  1
  Pd  Pd186  1  0.59460266  0.60240634  0.79743150  1
  Pd  Pd187  1  0.40828550  0.80444247  0.80647420  1
  Pd  Pd188  1  0.60536019  -0.00488915  0.19405218  1
  Pd  Pd189  1  0.40362746  0.20031844  -0.00396556  1
  Pd  Pd190  1  0.60119020  0.00574982  0.59743479  1
  Pd  Pd191  1  0.79752295  0.59775945  0.40867981  1
  Pd  Pd192  1  0.20822612  0.20661891  0.79627825  1
  Pd  Pd193  1  0.80198673  0.40634322  0.59702038  1
  Pd  Pd194  1  0.59374695  0.61285061  0.39081158  1
  Pd  Pd195  1  0.39815366  0.80993092  0.59689642  1
  Pd  Pd196  1  0.61234919  -0.00177300  0.39830612  1
  Pd  Pd197  1  0.39705113  0.80303224  -0.00360861  1
  Pd  Pd198  1  0.79285190  0.79472334  0.00070465  1
  Pd  Pd199  1  0.39424179  0.81028801  0.20521345  1
  Rh  Rh200  1  0.60356338  0.80646032  0.00346688  1
  Rh  Rh201  1  -0.00164552  0.79869675  0.21074281  1
  Rh  Rh202  1  0.59425016  0.19419256  0.20057122  1
  Rh  Rh203  1  0.59807078  0.60396877  0.60030096  1
  Rh  Rh204  1  0.59612909  0.39431200  0.58851469  1
  Rh  Rh205  1  0.40998234  -0.00484664  0.00254683  1
  Rh  Rh206  1  -0.00546280  0.00128566  0.00687890  1
  Rh  Rh207  1  0.19950118  0.00534027  0.19988587  1
  Rh  Rh208  1  0.40244020  0.20337141  0.38825699  1
  Rh  Rh209  1  0.40245372  0.00373890  0.79498846  1
  Rh  Rh210  1  0.80013524  0.59365134  0.19237229  1
  Rh  Rh211  1  0.21464904  0.40424769  0.80247955  1
  Rh  Rh212  1  0.59532117  0.40335126  0.19608700  1
  Rh  Rh213  1  0.19075801  0.39327365  0.59074377  1
  Rh  Rh214  1  0.79526431  0.59646580  0.59275736  1
  Rh  Rh215  1  0.19818615  0.01166477  0.60285928  1
  Rh  Rh216  1  0.19269146  0.19371318  0.39885853  1
  Rh  Rh217  1  0.20482226  0.80673285  0.19060426  1
  Rh  Rh218  1  0.80865380  0.19822300  0.00110511  1
  Rh  Rh219  1  0.19352089  0.40682763  0.40364997  1
  Rh  Rh220  1  0.18842333  0.59836193  0.20469031  1
  Rh  Rh221  1  0.20009448  0.79575602  0.40011574  1
  Rh  Rh222  1  0.00737507  0.39965195  0.00232859  1
  Rh  Rh223  1  0.60659450  0.00297683  0.80513247  1
  Rh  Rh224  1  0.39954436  0.39592455  0.00302675  1
  Rh  Rh225  1  0.60181020  0.40447037  0.80466757  1
  Rh  Rh226  1  -0.00231281  0.40036838  0.20108219  1
  Rh  Rh227  1  -0.00453873  -0.00063996  0.19422750  1
  Rh  Rh228  1  0.79588187  -0.00085683  0.00723461  1
  Rh  Rh229  1  0.79585372  0.79985095  0.60254622  1
  Rh  Rh230  1  0.40830115  0.40911518  0.60238114  1
  Rh  Rh231  1  0.20096684  0.60127867  0.60171192  1
  Rh  Rh232  1  0.19864278  0.00774004  0.38676582  1
  Rh  Rh233  1  0.59356912  0.18748951  0.00434654  1
  Rh  Rh234  1  0.39852128  0.19411993  0.60511261  1
  Rh  Rh235  1  0.00423086  0.19655613  0.40097897  1
  Rh  Rh236  1  0.41021535  0.58953538  0.20176240  1
  Rh  Rh237  1  0.80586162  0.20073380  0.80328606  1
  Rh  Rh238  1  0.80257907  0.80800028  0.20374159  1
  Rh  Rh239  1  0.20492544  0.80119528  0.60192010  1
  Rh  Rh240  1  0.39499662  -0.00520534  0.39887940  1
  Rh  Rh241  1  0.20748464  0.39610410  0.19436262  1
  Rh  Rh242  1  0.80515752  0.59285132  0.80875251  1
  Rh  Rh243  1  -0.00260749  0.19765927  0.00654821  1
  Rh  Rh244  1  0.60306394  0.79765192  0.79606938  1
  Rh  Rh245  1  0.40207711  0.60811598  -0.00087998  1
  Rh  Rh246  1  0.79707228  0.18943161  0.60145633  1
  Rh  Rh247  1  0.80878410  0.79680724  0.40348658  1
  Rh  Rh248  1  -0.00275372  0.80838930  0.59783423  1
  Rh  Rh249  1  -0.00120256  -0.01184622  0.40742157  1
