# generated using pymatgen
data_ZrScNbPdRh
_symmetry_space_group_name_H-M   'P 1'
_cell_length_a   16.55701406
_cell_length_b   16.55486971
_cell_length_c   16.56418066
_cell_angle_alpha   89.96932382
_cell_angle_beta   90.02305112
_cell_angle_gamma   90.00553619
_symmetry_Int_Tables_number   1
_chemical_formula_structural   ZrScNbPdRh
_chemical_formula_sum   'Zr50 Sc50 Nb50 Pd50 Rh50'
_cell_volume   4540.22780027
_cell_formula_units_Z   50
loop_
 _symmetry_equiv_pos_site_id
 _symmetry_equiv_pos_as_xyz
  1  'x, y, z'
loop_
 _atom_site_type_symbol
 _atom_site_label
 _atom_site_symmetry_multiplicity
 _atom_site_fract_x
 _atom_site_fract_y
 _atom_site_fract_z
 _atom_site_occupancy
  Zr  Zr0  1  0.90509867  0.50181418  0.90565501  1
  Zr  Zr1  1  0.50238730  0.69772066  0.70281822  1
  Zr  Zr2  1  0.09869319  0.29965058  0.09966081  1
  Zr  Zr3  1  0.70053215  0.71024005  0.09221028  1
  Zr  Zr4  1  0.71127639  0.70932672  0.30180387  1
  Zr  Zr5  1  0.70132217  0.09542319  0.50524029  1
  Zr  Zr6  1  0.69645908  0.09887275  0.89580798  1
  Zr  Zr7  1  0.10159246  0.70324382  0.30775452  1
  Zr  Zr8  1  0.49610268  0.29732581  0.49455267  1
  Zr  Zr9  1  0.30107919  0.29932989  0.49843841  1
  Zr  Zr10  1  0.10895045  0.10228205  0.10286672  1
  Zr  Zr11  1  0.49779543  0.70192867  0.30972181  1
  Zr  Zr12  1  0.90317507  0.90907121  0.90843817  1
  Zr  Zr13  1  0.29441582  0.89960116  0.69194937  1
  Zr  Zr14  1  0.89784454  0.29837815  0.09526171  1
  Zr  Zr15  1  0.70147991  0.89883668  0.90763577  1
  Zr  Zr16  1  0.70045955  0.70224295  0.50425842  1
  Zr  Zr17  1  0.30136277  0.90045153  0.09734291  1
  Zr  Zr18  1  0.90586795  0.30190698  0.89816989  1
  Zr  Zr19  1  0.50285479  0.90393217  0.30342831  1
  Zr  Zr20  1  0.90108752  0.49554179  0.10862355  1
  Zr  Zr21  1  0.29341056  0.69498120  0.29326938  1
  Zr  Zr22  1  0.70194250  0.50616117  0.49819993  1
  Zr  Zr23  1  0.49404129  0.29689430  0.29847550  1
  Zr  Zr24  1  0.69483837  0.29465243  0.70003500  1
  Zr  Zr25  1  0.29280112  0.50117272  0.50343865  1
  Zr  Zr26  1  0.48893089  0.69556068  0.09811245  1
  Zr  Zr27  1  0.30312010  0.51448295  0.10404948  1
  Zr  Zr28  1  0.10574777  0.49770676  0.68797666  1
  Zr  Zr29  1  0.90409383  0.08877216  0.30264489  1
  Zr  Zr30  1  0.70082282  0.90322518  0.09872279  1
  Zr  Zr31  1  0.09327375  0.30147228  0.30766373  1
  Zr  Zr32  1  0.69881251  0.30188153  0.49447048  1
  Zr  Zr33  1  0.09602275  0.08981498  0.30285796  1
  Zr  Zr34  1  0.89601845  0.90219655  0.29940352  1
  Zr  Zr35  1  0.49888096  0.91087039  0.09928194  1
  Zr  Zr36  1  0.30538851  0.69567220  0.49176719  1
  Zr  Zr37  1  0.89676118  0.31873840  0.29327297  1
  Zr  Zr38  1  0.91002954  0.28929300  0.50090535  1
  Zr  Zr39  1  0.49653546  0.51470377  0.50240530  1
  Zr  Zr40  1  0.49945545  0.49519947  0.10221487  1
  Zr  Zr41  1  0.11266758  0.29595679  0.90444201  1
  Zr  Zr42  1  0.10252874  0.50251634  0.49768432  1
  Zr  Zr43  1  0.10182641  0.49350163  0.89782207  1
  Zr  Zr44  1  0.71947898  0.49051779  0.30080059  1
  Zr  Zr45  1  0.29535749  0.10471837  0.89445525  1
  Zr  Zr46  1  0.90627175  0.49204774  0.70874041  1
  Zr  Zr47  1  0.49876377  0.30105402  0.70634199  1
  Zr  Zr48  1  0.89370229  0.90354967  0.10323609  1
  Zr  Zr49  1  0.49970766  0.29679902  0.10207618  1
  Sc  Sc50  1  0.29556819  0.29256710  0.70959517  1
  Sc  Sc51  1  0.50504356  0.89910024  0.89590920  1
  Sc  Sc52  1  0.68876158  0.09843994  0.09842524  1
  Sc  Sc53  1  0.70129891  0.89875713  0.69499989  1
  Sc  Sc54  1  0.48674754  0.49557127  0.29498020  1
  Sc  Sc55  1  0.90837418  0.30020470  0.69456256  1
  Sc  Sc56  1  0.90281753  0.89256389  0.70237643  1
  Sc  Sc57  1  0.90218108  0.51048706  0.49689022  1
  Sc  Sc58  1  0.69672844  0.51129367  0.70361592  1
  Sc  Sc59  1  0.09625458  0.10390757  0.50091183  1
  Sc  Sc60  1  0.49926150  0.89957965  0.49756303  1
  Sc  Sc61  1  0.09507974  0.69861766  0.50454843  1
  Sc  Sc62  1  0.09447558  0.09398193  0.90987825  1
  Sc  Sc63  1  0.50017875  0.51100705  0.70568329  1
  Sc  Sc64  1  0.09924174  0.30011046  0.69581125  1
  Sc  Sc65  1  0.10892750  0.90521978  0.10188945  1
  Sc  Sc66  1  0.30228754  0.90206158  0.50239147  1
  Sc  Sc67  1  0.89599243  0.69656949  0.90499327  1
  Sc  Sc68  1  0.50108616  0.70810754  0.50549070  1
  Sc  Sc69  1  0.69569011  0.09366830  0.69348624  1
  Sc  Sc70  1  0.49715095  0.89637801  0.69983874  1
  Sc  Sc71  1  0.30761902  0.70571432  0.69771230  1
  Sc  Sc72  1  0.10727558  0.89665909  0.49932259  1
  Sc  Sc73  1  0.50130886  0.09956924  0.70236436  1
  Sc  Sc74  1  0.90490295  0.09501920  0.08847777  1
  Sc  Sc75  1  0.49827658  0.09490074  0.89083698  1
  Sc  Sc76  1  0.69523930  0.30063677  0.90050755  1
  Sc  Sc77  1  0.69606942  0.89844717  0.50199106  1
  Sc  Sc78  1  0.49762146  0.49881271  0.88489295  1
  Sc  Sc79  1  0.68980955  0.29848901  0.09751280  1
  Sc  Sc80  1  0.70040963  0.49430920  0.09657122  1
  Sc  Sc81  1  0.29967661  0.10083842  0.69653144  1
  Sc  Sc82  1  0.90144464  0.89687567  0.50831658  1
  Sc  Sc83  1  0.30578044  0.09663633  0.50212215  1
  Sc  Sc84  1  0.28668802  0.29462960  0.10011440  1
  Sc  Sc85  1  0.49524930  0.09415150  0.29111216  1
  Sc  Sc86  1  0.89842663  0.70559993  0.69367787  1
  Sc  Sc87  1  0.89901691  0.69144347  0.09968318  1
  Sc  Sc88  1  0.50325236  0.29733601  0.89159011  1
  Sc  Sc89  1  0.90440273  0.09396228  0.50485778  1
  Sc  Sc90  1  0.30455945  0.09749246  0.29669919  1
  Sc  Sc91  1  0.89721977  0.70293371  0.49594167  1
  Sc  Sc92  1  0.70023182  0.70639522  0.89426196  1
  Sc  Sc93  1  0.10703935  0.70440051  0.90454716  1
  Sc  Sc94  1  0.09460212  0.50406737  0.09484927  1
  Sc  Sc95  1  0.09926293  0.30746076  0.50687234  1
  Sc  Sc96  1  0.30329384  0.89680436  0.90295709  1
  Sc  Sc97  1  0.28947795  0.89855165  0.30816465  1
  Sc  Sc98  1  0.70182707  0.50139135  0.89173479  1
  Sc  Sc99  1  0.11480630  0.70411661  0.09919284  1
  Nb  Nb100  1  0.30659934  0.50098883  0.70496253  1
  Nb  Nb101  1  0.49609877  0.10297743  0.48953496  1
  Nb  Nb102  1  0.90340866  0.09718422  0.69845392  1
  Nb  Nb103  1  0.91077646  0.51364868  0.29409711  1
  Nb  Nb104  1  0.29974169  0.30233199  0.90245953  1
  Nb  Nb105  1  0.10056248  0.88718694  0.70400082  1
  Nb  Nb106  1  0.09620519  0.89439565  0.89571037  1
  Nb  Nb107  1  0.70086222  0.90739642  0.29106597  1
  Nb  Nb108  1  0.30583519  0.69497410  0.91354102  1
  Nb  Nb109  1  0.69646374  0.70273434  0.69369850  1
  Nb  Nb110  1  0.10037782  0.70464198  0.70626973  1
  Nb  Nb111  1  0.50069934  0.69917504  0.89806785  1
  Nb  Nb112  1  0.29031998  0.49998419  0.30641668  1
  Nb  Nb113  1  0.90214858  0.69941382  0.29765449  1
  Nb  Nb114  1  0.29964457  0.70639332  0.09672215  1
  Nb  Nb115  1  0.29816896  0.49291032  0.89430067  1
  Nb  Nb116  1  0.09465405  0.90007101  0.30119371  1
  Nb  Nb117  1  0.30732236  0.09258022  0.09602655  1
  Nb  Nb118  1  0.48288754  0.09806695  0.10371034  1
  Nb  Nb119  1  0.70461806  0.09293747  0.30092288  1
  Nb  Nb120  1  0.69974871  0.29528874  0.30197642  1
  Nb  Nb121  1  0.29751064  0.30694561  0.30866092  1
  Nb  Nb122  1  0.10430640  0.09733022  0.70188316  1
  Nb  Nb123  1  0.09308672  0.50012335  0.30326248  1
  Nb  Nb124  1  0.90149250  0.10087233  0.90025255  1
  Nb  Nb125  1  0.19836954  0.40621000  0.21087531  1
  Nb  Nb126  1  0.59736250  0.40311598  0.59766821  1
  Nb  Nb127  1  0.60643056  0.60053702  0.39114091  1
  Nb  Nb128  1  0.39272884  0.39579354  -0.00544736  1
  Nb  Nb129  1  0.40074847  0.40259465  0.60512697  1
  Nb  Nb130  1  0.39696750  0.19903210  0.00133569  1
  Nb  Nb131  1  0.00129525  0.80215324  0.20306821  1
  Nb  Nb132  1  0.01129826  -0.00441579  0.61425246  1
  Nb  Nb133  1  0.39820040  0.79894020  0.19853871  1
  Nb  Nb134  1  0.79846103  0.19801443  0.39294727  1
  Nb  Nb135  1  -0.00054820  0.19183516  0.80069535  1
  Nb  Nb136  1  0.80733518  0.00486752  0.80121168  1
  Nb  Nb137  1  0.79924789  0.19725810  0.20568663  1
  Nb  Nb138  1  0.60419958  0.19368958  0.39421541  1
  Nb  Nb139  1  0.20248801  0.20451748  0.39698991  1
  Nb  Nb140  1  0.20598480  0.60027195  0.79969459  1
  Nb  Nb141  1  0.00246353  0.80504858  0.00461680  1
  Nb  Nb142  1  0.60243836  0.60398320  0.20148873  1
  Nb  Nb143  1  0.18866864  -0.00902479  0.79542756  1
  Nb  Nb144  1  0.80797999  0.19379879  0.79868947  1
  Nb  Nb145  1  0.01115440  0.60211410  0.79698511  1
  Nb  Nb146  1  -0.00568565  0.19933395  0.20246839  1
  Nb  Nb147  1  0.59407094  0.60305112  -0.00103956  1
  Nb  Nb148  1  0.59723058  0.80094902  0.20107455  1
  Nb  Nb149  1  0.79597542  0.40012956  0.59896230  1
  Pd  Pd150  1  0.80687802  0.59598787  0.60790788  1
  Pd  Pd151  1  0.19816867  0.39954612  0.79055192  1
  Pd  Pd152  1  0.40199993  0.20131763  0.60590188  1
  Pd  Pd153  1  0.80310618  0.80495398  0.80207163  1
  Pd  Pd154  1  0.80691110  0.60664821  0.79473385  1
  Pd  Pd155  1  0.59211618  0.00690392  -0.00218174  1
  Pd  Pd156  1  -0.00817827  0.78922987  0.81002333  1
  Pd  Pd157  1  0.19864916  0.59613432  -0.00593077  1
  Pd  Pd158  1  0.19775106  0.19962592  0.59296286  1
  Pd  Pd159  1  0.21254004  0.79529296  0.80889388  1
  Pd  Pd160  1  0.79971354  0.80992019  0.40409603  1
  Pd  Pd161  1  0.79543619  0.40039009  -0.00135630  1
  Pd  Pd162  1  0.81324585  0.39892493  0.41078274  1
  Pd  Pd163  1  0.19846114  0.20364083  0.21092637  1
  Pd  Pd164  1  0.19962648  -0.00501087  -0.00979406  1
  Pd  Pd165  1  0.58843970  -0.00326939  0.59958250  1
  Pd  Pd166  1  0.60294939  0.80333588  0.79598627  1
  Pd  Pd167  1  0.79453190  0.39164826  0.79453735  1
  Pd  Pd168  1  0.38400693  0.39305522  0.19163390  1
  Pd  Pd169  1  0.80307252  0.20229370  0.60089217  1
  Pd  Pd170  1  0.39030980  -0.00411973  0.79698432  1
  Pd  Pd171  1  0.40733790  0.00171022  0.59983810  1
  Pd  Pd172  1  0.78960284  0.59515267  -0.00001206  1
  Pd  Pd173  1  0.40649189  0.58722707  -0.01137650  1
  Pd  Pd174  1  0.18968994  0.59477610  0.20150175  1
  Pd  Pd175  1  0.80187597  -0.00359286  0.41102015  1
  Pd  Pd176  1  0.00237293  0.39853448  0.00116355  1
  Pd  Pd177  1  0.59157311  0.19969749  0.59371904  1
  Pd  Pd178  1  0.20057475  0.00761413  0.40798952  1
  Pd  Pd179  1  0.38806612  0.20538538  0.19829492  1
  Pd  Pd180  1  0.00148696  0.00121740  0.79693408  1
  Pd  Pd181  1  0.79421212  0.60190614  0.19572402  1
  Pd  Pd182  1  0.60505262  0.40520813  0.20877642  1
  Pd  Pd183  1  0.58605789  0.19350692  -0.00388256  1
  Pd  Pd184  1  0.39278417  0.80612906  0.39707911  1
  Pd  Pd185  1  0.59095326  0.40712820  -0.01258101  1
  Pd  Pd186  1  0.79538277  0.19739186  -0.00008974  1
  Pd  Pd187  1  0.20661503  0.61089239  0.60753467  1
  Pd  Pd188  1  0.59910529  0.00414683  0.40154861  1
  Pd  Pd189  1  -0.00213510  0.80369198  0.40012200  1
  Pd  Pd190  1  0.40638490  0.80654423  -0.00065341  1
  Pd  Pd191  1  0.40067029  0.40970115  0.40762160  1
  Pd  Pd192  1  0.39617286  0.79891916  0.80268538  1
  Pd  Pd193  1  0.59185430  0.40583070  0.39666749  1
  Pd  Pd194  1  0.01037227  0.61186401  0.19486761  1
  Pd  Pd195  1  0.60232306  0.19042762  0.20584505  1
  Pd  Pd196  1  0.20042457  0.79195346  0.59179503  1
  Pd  Pd197  1  0.20638434  -0.00362964  0.20379110  1
  Pd  Pd198  1  -0.00716124  0.40735392  0.40748274  1
  Pd  Pd199  1  -0.00470035  0.60475008  0.60491923  1
  Rh  Rh200  1  0.39648873  0.59929572  0.60505264  1
  Rh  Rh201  1  0.39122753  -0.01223714  0.20691879  1
  Rh  Rh202  1  0.60994422  -0.00604329  0.79537328  1
  Rh  Rh203  1  0.79363104  0.00927625  -0.00192754  1
  Rh  Rh204  1  0.00581549  0.61017888  -0.00678824  1
  Rh  Rh205  1  0.19369493  0.39727676  0.39875130  1
  Rh  Rh206  1  0.60426152  0.40311579  0.79240964  1
  Rh  Rh207  1  0.60025532  0.00153735  0.19797799  1
  Rh  Rh208  1  0.79641657  0.79993384  0.59990052  1
  Rh  Rh209  1  0.61008277  0.80009324  0.39515598  1
  Rh  Rh210  1  0.19715852  0.80551251  -0.00348604  1
  Rh  Rh211  1  0.39923576  0.19901825  0.80504294  1
  Rh  Rh212  1  0.21403159  0.39413194  0.60603927  1
  Rh  Rh213  1  0.00271819  -0.00137846  0.19299256  1
  Rh  Rh214  1  0.00219363  -0.00950844  0.41645476  1
  Rh  Rh215  1  0.20039760  0.79677416  0.40483501  1
  Rh  Rh216  1  0.39142870  0.60893956  0.80495205  1
  Rh  Rh217  1  0.00460401  0.20031952  -0.00005998  1
  Rh  Rh218  1  0.60391720  0.60902325  0.80730165  1
  Rh  Rh219  1  -0.00078855  0.60365184  0.39943875  1
  Rh  Rh220  1  0.20548703  0.19267078  0.00010817  1
  Rh  Rh221  1  0.40013311  0.59598860  0.39454180  1
  Rh  Rh222  1  0.39964013  0.60628249  0.20870712  1
  Rh  Rh223  1  0.40247512  0.00608544  -0.01023154  1
  Rh  Rh224  1  0.79615088  0.01118765  0.18957087  1
  Rh  Rh225  1  0.19457964  -0.00231298  0.60427967  1
  Rh  Rh226  1  0.79075443  0.39021684  0.18709254  1
  Rh  Rh227  1  0.00430498  0.80123042  0.59842230  1
  Rh  Rh228  1  0.39877935  0.19275269  0.39088721  1
  Rh  Rh229  1  0.00952872  -0.00639046  0.00734894  1
  Rh  Rh230  1  0.01093224  0.39541456  0.80014276  1
  Rh  Rh231  1  0.40112051  0.80159355  0.59719496  1
  Rh  Rh232  1  0.20052171  0.80608386  0.20192378  1
  Rh  Rh233  1  0.39867143  -0.00024683  0.39952693  1
  Rh  Rh234  1  0.39803900  0.39586525  0.79827672  1
  Rh  Rh235  1  0.81188338  0.79881996  0.00069196  1
  Rh  Rh236  1  0.00866482  0.39964641  0.19769073  1
  Rh  Rh237  1  0.60032849  0.60316646  0.59678156  1
  Rh  Rh238  1  0.19454079  0.60183136  0.40111195  1
  Rh  Rh239  1  0.80328236  0.80017665  0.19735783  1
  Rh  Rh240  1  -0.00110590  0.19468900  0.39340776  1
  Rh  Rh241  1  0.60549403  0.19529922  0.79853490  1
  Rh  Rh242  1  0.58977584  0.79397645  0.00363073  1
  Rh  Rh243  1  -0.00884973  0.40464760  0.59416158  1
  Rh  Rh244  1  0.19141931  0.19277332  0.80323222  1
  Rh  Rh245  1  0.80351503  0.60346137  0.39335669  1
  Rh  Rh246  1  0.21010150  0.41117785  0.01351315  1
  Rh  Rh247  1  0.59770309  0.80056523  0.60372809  1
  Rh  Rh248  1  0.00744146  0.19144207  0.60829459  1
  Rh  Rh249  1  0.81099806  -0.00631952  0.60766556  1
