# generated using pymatgen
data_ZrScNbPdRh
_symmetry_space_group_name_H-M   'P 1'
_cell_length_a   16.55447824
_cell_length_b   16.55481092
_cell_length_c   16.55305627
_cell_angle_alpha   90.00560275
_cell_angle_beta   90.00055109
_cell_angle_gamma   89.99873989
_symmetry_Int_Tables_number   1
_chemical_formula_structural   ZrScNbPdRh
_chemical_formula_sum   'Zr50 Sc50 Nb50 Pd50 Rh50'
_cell_volume   4536.46862480
_cell_formula_units_Z   50
loop_
 _symmetry_equiv_pos_site_id
 _symmetry_equiv_pos_as_xyz
  1  'x, y, z'
loop_
 _atom_site_type_symbol
 _atom_site_label
 _atom_site_symmetry_multiplicity
 _atom_site_fract_x
 _atom_site_fract_y
 _atom_site_fract_z
 _atom_site_occupancy
  Zr  Zr0  1  0.49292429  0.90229359  0.30373525  1
  Zr  Zr1  1  0.49307882  0.70189303  0.50446810  1
  Zr  Zr2  1  0.10260052  0.09893747  0.69211553  1
  Zr  Zr3  1  0.69682422  0.69811606  0.09070655  1
  Zr  Zr4  1  0.90243876  0.49420423  0.30972076  1
  Zr  Zr5  1  0.09106491  0.70624856  0.10269667  1
  Zr  Zr6  1  0.69850780  0.69526829  0.70995430  1
  Zr  Zr7  1  0.70178391  0.10083476  0.70845822  1
  Zr  Zr8  1  0.88580089  0.30546291  0.69255581  1
  Zr  Zr9  1  0.90328200  0.30277036  0.30884992  1
  Zr  Zr10  1  0.89960910  0.50233376  0.69702755  1
  Zr  Zr11  1  0.10403985  0.30158492  0.70279709  1
  Zr  Zr12  1  0.69728369  0.89468243  0.30361416  1
  Zr  Zr13  1  0.90788099  0.89662907  0.09804218  1
  Zr  Zr14  1  0.09836859  0.30279707  0.89833761  1
  Zr  Zr15  1  0.70054475  0.90448034  0.49885301  1
  Zr  Zr16  1  0.50304715  0.69865301  0.89993332  1
  Zr  Zr17  1  0.90682338  0.09785184  0.09814462  1
  Zr  Zr18  1  0.70603308  0.10494117  0.09615107  1
  Zr  Zr19  1  0.10537078  0.89298437  0.29450370  1
  Zr  Zr20  1  0.30187175  0.51087544  0.10155280  1
  Zr  Zr21  1  0.29844553  0.50635388  0.29327089  1
  Zr  Zr22  1  0.29595301  0.09851642  0.09942217  1
  Zr  Zr23  1  0.49603272  0.30175155  0.90133219  1
  Zr  Zr24  1  0.29365370  0.70446173  0.50312755  1
  Zr  Zr25  1  0.09972940  0.30181293  0.29911212  1
  Zr  Zr26  1  0.09722672  0.50462577  0.10217465  1
  Zr  Zr27  1  0.50773739  0.09874106  0.70188141  1
  Zr  Zr28  1  0.89469071  0.69862368  0.09576600  1
  Zr  Zr29  1  0.89330479  0.29118588  0.10515274  1
  Zr  Zr30  1  0.08607297  0.10130410  0.89595713  1
  Zr  Zr31  1  0.50563164  0.90326230  0.69853320  1
  Zr  Zr32  1  0.69867930  0.89479735  0.09351180  1
  Zr  Zr33  1  0.09543965  0.09705991  0.49884387  1
  Zr  Zr34  1  0.89925268  0.89592575  0.50767881  1
  Zr  Zr35  1  0.29478131  0.89395094  0.69332578  1
  Zr  Zr36  1  0.29474562  0.70032522  0.69610631  1
  Zr  Zr37  1  0.90420337  0.90518786  0.89085410  1
  Zr  Zr38  1  0.30334645  0.29493727  0.30738826  1
  Zr  Zr39  1  0.50605823  0.50214027  0.69907787  1
  Zr  Zr40  1  0.29925589  0.70486941  0.29687356  1
  Zr  Zr41  1  0.09780642  0.29116888  0.10209727  1
  Zr  Zr42  1  0.90035196  0.90117173  0.30315540  1
  Zr  Zr43  1  0.50475421  0.10142241  0.09348053  1
  Zr  Zr44  1  0.29924565  0.89682078  0.90459994  1
  Zr  Zr45  1  0.09913855  0.90424780  0.09897588  1
  Zr  Zr46  1  0.69185162  0.29859415  0.10394183  1
  Zr  Zr47  1  0.90898942  0.70486481  0.50269945  1
  Zr  Zr48  1  0.50152658  0.69878377  0.69791318  1
  Zr  Zr49  1  0.10513836  0.28884605  0.49520411  1
  Sc  Sc50  1  0.89577894  0.08981063  0.70771640  1
  Sc  Sc51  1  0.70568937  0.50834621  0.89553948  1
  Sc  Sc52  1  0.30039223  0.48728635  0.69009620  1
  Sc  Sc53  1  0.69913517  0.70776689  0.49765601  1
  Sc  Sc54  1  0.10442633  0.10651491  0.29993179  1
  Sc  Sc55  1  0.09667093  0.51067715  0.51113012  1
  Sc  Sc56  1  0.10141408  0.50484148  0.29188374  1
  Sc  Sc57  1  0.89776534  0.09917920  0.30177591  1
  Sc  Sc58  1  0.30214002  0.70711268  0.89772629  1
  Sc  Sc59  1  0.50081854  0.49814999  0.50834003  1
  Sc  Sc60  1  0.10232583  0.70241243  0.50230566  1
  Sc  Sc61  1  0.29653501  0.30274196  0.89400443  1
  Sc  Sc62  1  0.49673012  0.69776481  0.09842947  1
  Sc  Sc63  1  0.09371067  0.89141598  0.89975163  1
  Sc  Sc64  1  0.91284936  0.70119755  0.30241440  1
  Sc  Sc65  1  0.30894108  0.49918987  0.89917469  1
  Sc  Sc66  1  0.51005350  0.29904717  0.30474186  1
  Sc  Sc67  1  0.89620535  0.30952001  0.49815699  1
  Sc  Sc68  1  0.29070067  0.29162376  0.09193984  1
  Sc  Sc69  1  0.90055187  0.50036999  0.89765464  1
  Sc  Sc70  1  0.28849427  0.11182274  0.49970561  1
  Sc  Sc71  1  0.51102369  0.09792312  0.90267532  1
  Sc  Sc72  1  0.88617144  0.69841033  0.89469779  1
  Sc  Sc73  1  0.50298091  0.31102746  0.70869118  1
  Sc  Sc74  1  0.30559703  0.89940224  0.10660925  1
  Sc  Sc75  1  0.69088195  0.50347937  0.09355030  1
  Sc  Sc76  1  0.10528209  0.70282440  0.30185031  1
  Sc  Sc77  1  0.09772466  0.50708068  0.70626970  1
  Sc  Sc78  1  0.69760788  0.89181800  0.90187811  1
  Sc  Sc79  1  0.50194331  0.69945335  0.29591881  1
  Sc  Sc80  1  0.69920209  0.30575821  0.31431004  1
  Sc  Sc81  1  0.09305396  0.89574027  0.50813769  1
  Sc  Sc82  1  0.70254168  0.09510168  0.30838917  1
  Sc  Sc83  1  0.30087768  0.09371167  0.29391216  1
  Sc  Sc84  1  0.89938651  0.29558568  0.89412979  1
  Sc  Sc85  1  0.50946924  0.49900505  0.30599951  1
  Sc  Sc86  1  0.89993992  0.09686154  0.49588245  1
  Sc  Sc87  1  0.30825069  0.70286809  0.10149911  1
  Sc  Sc88  1  0.49782237  0.50290717  0.08992579  1
  Sc  Sc89  1  0.30431539  0.89681699  0.29550277  1
  Sc  Sc90  1  0.50029238  0.09809299  0.30494875  1
  Sc  Sc91  1  0.50135444  0.89808795  0.90934515  1
  Sc  Sc92  1  0.90689473  0.50616157  0.09735920  1
  Sc  Sc93  1  0.70423208  0.09740552  0.50248092  1
  Sc  Sc94  1  0.49909010  0.30699561  0.49454759  1
  Sc  Sc95  1  0.50793618  0.09333953  0.49522979  1
  Sc  Sc96  1  0.69165260  0.49559193  0.50340935  1
  Sc  Sc97  1  0.70456725  0.29332879  0.88972569  1
  Sc  Sc98  1  0.49931980  0.49580110  0.90062712  1
  Sc  Sc99  1  0.69822527  0.49501470  0.70086060  1
  Nb  Nb100  1  0.89097627  0.09729825  0.89774478  1
  Nb  Nb101  1  0.70220959  0.29872417  0.69550562  1
  Nb  Nb102  1  0.50176871  0.29998050  0.10041649  1
  Nb  Nb103  1  0.10198172  0.69886953  0.69904138  1
  Nb  Nb104  1  0.49564388  0.90053550  0.49883777  1
  Nb  Nb105  1  0.29972781  0.29589173  0.69411602  1
  Nb  Nb106  1  0.90041530  0.89193602  0.69709813  1
  Nb  Nb107  1  0.70193164  0.50212520  0.30511664  1
  Nb  Nb108  1  0.30188917  0.49574503  0.49937124  1
  Nb  Nb109  1  0.09795733  0.50105446  0.90220119  1
  Nb  Nb110  1  0.89822556  0.50615102  0.50438971  1
  Nb  Nb111  1  0.30469871  0.89090343  0.49644223  1
  Nb  Nb112  1  0.30175940  0.30767297  0.50647515  1
  Nb  Nb113  1  0.10699438  0.10259977  0.09693389  1
  Nb  Nb114  1  0.10886719  0.69062856  0.89027203  1
  Nb  Nb115  1  0.89701656  0.70679558  0.69552691  1
  Nb  Nb116  1  0.08888425  0.90291742  0.70016557  1
  Nb  Nb117  1  0.69857440  0.69462832  0.29752056  1
  Nb  Nb118  1  0.70569309  0.90438401  0.69189926  1
  Nb  Nb119  1  0.71097961  0.09853021  0.89736574  1
  Nb  Nb120  1  0.29687576  0.09909293  0.89961477  1
  Nb  Nb121  1  0.70603398  0.30165659  0.51513408  1
  Nb  Nb122  1  0.50180128  0.90387680  0.10105654  1
  Nb  Nb123  1  0.29818725  0.09969449  0.69826633  1
  Nb  Nb124  1  0.70020758  0.69584018  0.90598890  1
  Nb  Nb125  1  0.39552915  0.00195396  0.59862783  1
  Nb  Nb126  1  0.20591022  0.40232064  0.40521895  1
  Nb  Nb127  1  -0.00222865  0.20104491  0.60133424  1
  Nb  Nb128  1  0.19391921  0.60076785  -0.00560389  1
  Nb  Nb129  1  0.60153780  0.20494196  0.60440052  1
  Nb  Nb130  1  0.39321929  0.59850163  0.40381348  1
  Nb  Nb131  1  0.80401248  0.00218245  -0.00382255  1
  Nb  Nb132  1  0.19129349  0.40854428  -0.00020085  1
  Nb  Nb133  1  0.40668921  0.20452284  0.19365066  1
  Nb  Nb134  1  0.40394350  0.39205926  0.19581948  1
  Nb  Nb135  1  0.79636499  0.40601663  0.20084347  1
  Nb  Nb136  1  0.19597286  0.00523871  -0.00363288  1
  Nb  Nb137  1  0.20038800  0.00027407  0.79944808  1
  Nb  Nb138  1  0.80399493  0.60371682  0.59617597  1
  Nb  Nb139  1  0.39519503  0.19419079  0.79546626  1
  Nb  Nb140  1  0.79624369  0.79319618  0.20158913  1
  Nb  Nb141  1  0.79541681  0.59882935  0.20793178  1
  Nb  Nb142  1  0.79972724  0.59861616  0.40104094  1
  Nb  Nb143  1  0.40133408  0.20078798  0.60419212  1
  Nb  Nb144  1  0.79971150  0.39518421  0.00670652  1
  Nb  Nb145  1  0.40256762  0.60127789  0.79223266  1
  Nb  Nb146  1  0.20134489  -0.00777781  0.40393178  1
  Nb  Nb147  1  0.59958425  -0.00372155  0.19537249  1
  Nb  Nb148  1  0.60138540  0.80719246  0.60163636  1
  Nb  Nb149  1  0.39246179  0.00396578  0.79765352  1
  Pd  Pd150  1  0.60234471  -0.00791034  0.81023258  1
  Pd  Pd151  1  0.01561138  0.40784682  0.41071854  1
  Pd  Pd152  1  0.00019795  0.60947920  -0.01094433  1
  Pd  Pd153  1  0.21235066  0.58982807  0.80025345  1
  Pd  Pd154  1  0.60554676  0.20428698  -0.01059509  1
  Pd  Pd155  1  0.20397401  -0.00829309  0.59310658  1
  Pd  Pd156  1  0.60415995  0.80491533  0.79870288  1
  Pd  Pd157  1  0.40239389  0.80183982  0.79936005  1
  Pd  Pd158  1  -0.01043811  0.20070256  0.78816328  1
  Pd  Pd159  1  0.20268911  0.19617368  0.80253680  1
  Pd  Pd160  1  0.20049023  0.79724718  0.00591552  1
  Pd  Pd161  1  0.59861620  0.80212541  0.19752963  1
  Pd  Pd162  1  0.40081606  0.19364128  0.40467539  1
  Pd  Pd163  1  0.79450789  0.80506802  0.80024490  1
  Pd  Pd164  1  0.59242817  0.79791561  0.40443789  1
  Pd  Pd165  1  -0.00759302  0.60693801  0.80005876  1
  Pd  Pd166  1  0.59847764  0.19160280  0.20888018  1
  Pd  Pd167  1  -0.00433374  0.39468385  0.00266576  1
  Pd  Pd168  1  -0.00775296  0.40078589  0.19612660  1
  Pd  Pd169  1  0.00683329  0.00735862  0.20676751  1
  Pd  Pd170  1  0.20074320  0.59467926  0.40413342  1
  Pd  Pd171  1  0.00706541  -0.00497876  0.39578644  1
  Pd  Pd172  1  0.60904705  0.39858215  -0.00992931  1
  Pd  Pd173  1  0.39269167  0.59408464  0.60040155  1
  Pd  Pd174  1  0.20887325  0.39275858  0.19743485  1
  Pd  Pd175  1  0.80589586  0.00558556  0.60016245  1
  Pd  Pd176  1  0.00133358  0.78877574  0.79919950  1
  Pd  Pd177  1  0.59787234  0.60157626  0.40917344  1
  Pd  Pd178  1  -0.00431303  0.78789688  -0.01603707  1
  Pd  Pd179  1  0.79194516  0.20703453  0.21561634  1
  Pd  Pd180  1  0.59746095  0.59354048  0.19633300  1
  Pd  Pd181  1  0.00620055  0.39400084  0.59616997  1
  Pd  Pd182  1  0.20504777  0.40899469  0.80368425  1
  Pd  Pd183  1  0.60550789  0.20178069  0.41228201  1
  Pd  Pd184  1  0.39547222  -0.00094167  -0.00246192  1
  Pd  Pd185  1  0.79425162  -0.00690832  0.19459639  1
  Pd  Pd186  1  0.80452513  0.79195456  0.39422674  1
  Pd  Pd187  1  0.60879928  0.40247998  0.80725097  1
  Pd  Pd188  1  0.39808448  0.20071636  -0.00412965  1
  Pd  Pd189  1  0.19207686  0.80693871  0.79508997  1
  Pd  Pd190  1  -0.00110532  0.19246793  0.20742622  1
  Pd  Pd191  1  0.59889395  0.40625281  0.20170854  1
  Pd  Pd192  1  0.39985584  0.40812644  0.39235142  1
  Pd  Pd193  1  0.38785783  0.00834592  0.40963370  1
  Pd  Pd194  1  0.80065446  0.20096220  0.40506548  1
  Pd  Pd195  1  0.18952305  0.40309535  0.59609479  1
  Pd  Pd196  1  -0.00555465  0.20164865  -0.00286696  1
  Pd  Pd197  1  0.00456532  0.59883061  0.39862523  1
  Pd  Pd198  1  -0.00637006  0.40131477  0.79699249  1
  Pd  Pd199  1  0.38925796  0.39507577  0.00735682  1
  Rh  Rh200  1  0.80613978  0.80751974  -0.00102727  1
  Rh  Rh201  1  -0.00318066  0.60906043  0.60878116  1
  Rh  Rh202  1  0.19878588  0.20457520  0.60131554  1
  Rh  Rh203  1  -0.00764210  0.19938909  0.40452923  1
  Rh  Rh204  1  0.79616524  0.41311193  0.59783410  1
  Rh  Rh205  1  0.40449024  0.80183096  0.00604246  1
  Rh  Rh206  1  0.59722412  0.20365775  0.79908579  1
  Rh  Rh207  1  0.41194466  0.59043294  0.21009330  1
  Rh  Rh208  1  0.00114839  0.00436507  -0.00203610  1
  Rh  Rh209  1  0.60228553  -0.00289730  0.39548891  1
  Rh  Rh210  1  0.41197641  0.00888873  0.19575727  1
  Rh  Rh211  1  0.40717006  0.80141833  0.19942398  1
  Rh  Rh212  1  0.79930510  0.58879368  0.00547754  1
  Rh  Rh213  1  0.61194582  0.00199382  0.00205792  1
  Rh  Rh214  1  0.19553997  -0.00039286  0.19918974  1
  Rh  Rh215  1  0.20719259  0.20016971  0.20588345  1
  Rh  Rh216  1  0.19810912  0.80850251  0.40375871  1
  Rh  Rh217  1  0.00703640  0.79527557  0.60858528  1
  Rh  Rh218  1  0.79354325  -0.01145533  0.80345534  1
  Rh  Rh219  1  0.59704078  0.39078603  0.59994174  1
  Rh  Rh220  1  0.61194438  0.61136859  0.59593531  1
  Rh  Rh221  1  0.40742779  0.39332216  0.60270621  1
  Rh  Rh222  1  0.18938751  0.80171673  0.60141077  1
  Rh  Rh223  1  0.78962281  0.79292288  0.60537731  1
  Rh  Rh224  1  0.40719011  0.80833284  0.60215848  1
  Rh  Rh225  1  0.20188397  0.59732619  0.60299180  1
  Rh  Rh226  1  0.79366627  0.40615215  0.40628943  1
  Rh  Rh227  1  0.59679068  0.59954359  -0.00628533  1
  Rh  Rh228  1  0.80149686  0.20032484  -0.00490954  1
  Rh  Rh229  1  -0.00277466  0.60287106  0.20651936  1
  Rh  Rh230  1  0.80247353  0.59839953  0.79171042  1
  Rh  Rh231  1  0.79979848  0.40039477  0.80548078  1
  Rh  Rh232  1  0.20456106  0.19950594  0.39577931  1
  Rh  Rh233  1  0.59527368  0.59477285  0.80696016  1
  Rh  Rh234  1  0.00219686  -0.00036156  0.79394855  1
  Rh  Rh235  1  0.19369712  0.20003247  -0.01090110  1
  Rh  Rh236  1  0.40261266  0.79084105  0.39488780  1
  Rh  Rh237  1  0.80263292  -0.00235911  0.40298653  1
  Rh  Rh238  1  -0.00523198  0.79976610  0.20489979  1
  Rh  Rh239  1  0.39680366  0.40066614  0.79446827  1
  Rh  Rh240  1  0.19495863  0.61458330  0.18879126  1
  Rh  Rh241  1  0.80084284  0.19260366  0.60157462  1
  Rh  Rh242  1  0.00519052  0.80476851  0.40103244  1
  Rh  Rh243  1  0.60442652  0.39865483  0.40800304  1
  Rh  Rh244  1  0.39395759  0.60647869  -0.01287095  1
  Rh  Rh245  1  0.80360697  0.20244247  0.79392915  1
  Rh  Rh246  1  0.59840441  -0.00114422  0.59351972  1
  Rh  Rh247  1  0.20398563  0.79913664  0.19288283  1
  Rh  Rh248  1  0.59233308  0.79374446  0.00025380  1
  Rh  Rh249  1  -0.00886842  0.00391592  0.60418187  1
