# generated using pymatgen
data_ZrScNbPdRh
_symmetry_space_group_name_H-M   'P 1'
_cell_length_a   16.56155435
_cell_length_b   16.56097034
_cell_length_c   16.55704622
_cell_angle_alpha   90.03740632
_cell_angle_beta   90.00182621
_cell_angle_gamma   89.99543354
_symmetry_Int_Tables_number   1
_chemical_formula_structural   ZrScNbPdRh
_chemical_formula_sum   'Zr50 Sc50 Nb50 Pd50 Rh50'
_cell_volume   4541.18966175
_cell_formula_units_Z   50
loop_
 _symmetry_equiv_pos_site_id
 _symmetry_equiv_pos_as_xyz
  1  'x, y, z'
loop_
 _atom_site_type_symbol
 _atom_site_label
 _atom_site_symmetry_multiplicity
 _atom_site_fract_x
 _atom_site_fract_y
 _atom_site_fract_z
 _atom_site_occupancy
  Zr  Zr0  1  0.69686341  0.90225638  0.29791883  1
  Zr  Zr1  1  0.49984469  0.70175619  0.69591225  1
  Zr  Zr2  1  0.30056517  0.29670364  0.50984391  1
  Zr  Zr3  1  0.68640310  0.29833051  0.69649812  1
  Zr  Zr4  1  0.10318291  0.70225598  0.89471030  1
  Zr  Zr5  1  0.70073456  0.69416675  0.50546989  1
  Zr  Zr6  1  0.50141414  0.89276478  0.70153498  1
  Zr  Zr7  1  0.10343623  0.70735298  0.09628759  1
  Zr  Zr8  1  0.70272417  0.89620429  0.69805916  1
  Zr  Zr9  1  0.09425547  0.70155791  0.49802237  1
  Zr  Zr10  1  0.69428887  0.69435381  0.70450024  1
  Zr  Zr11  1  0.89600780  0.90948837  0.50512477  1
  Zr  Zr12  1  0.89750434  0.69822658  0.10089927  1
  Zr  Zr13  1  0.69526476  0.70410595  0.31446134  1
  Zr  Zr14  1  0.29370957  0.10410465  0.49373849  1
  Zr  Zr15  1  0.70751150  0.89962889  0.90186661  1
  Zr  Zr16  1  0.90885972  0.29990580  0.10710886  1
  Zr  Zr17  1  0.49425251  0.30236948  0.69169228  1
  Zr  Zr18  1  0.30147305  0.90256112  0.29637365  1
  Zr  Zr19  1  0.10461928  0.30071409  0.50300238  1
  Zr  Zr20  1  0.29971642  0.10110251  0.90151242  1
  Zr  Zr21  1  0.29163415  0.10200511  0.09642534  1
  Zr  Zr22  1  0.30784837  0.89848298  0.69721072  1
  Zr  Zr23  1  0.70297506  0.89004752  0.49486431  1
  Zr  Zr24  1  0.10095931  0.90396494  0.30066265  1
  Zr  Zr25  1  0.10095187  0.89530506  0.70022376  1
  Zr  Zr26  1  0.90781216  0.11201695  0.30297324  1
  Zr  Zr27  1  0.09069498  0.30506054  0.90517790  1
  Zr  Zr28  1  0.30344023  0.69350336  0.49654652  1
  Zr  Zr29  1  0.49860410  0.30417332  0.10232981  1
  Zr  Zr30  1  0.10266667  0.89235856  0.90046459  1
  Zr  Zr31  1  0.90654496  0.09750789  0.88706835  1
  Zr  Zr32  1  0.49960005  0.90050933  0.29895323  1
  Zr  Zr33  1  0.90622972  0.29637798  0.90232644  1
  Zr  Zr34  1  0.69908927  0.09604852  0.10155252  1
  Zr  Zr35  1  0.09112926  0.89615586  0.49780651  1
  Zr  Zr36  1  0.71173171  0.10304529  0.50379605  1
  Zr  Zr37  1  0.30025995  0.70020977  0.89599299  1
  Zr  Zr38  1  0.70008287  0.90707840  0.09742227  1
  Zr  Zr39  1  0.50014286  0.89666257  0.90075359  1
  Zr  Zr40  1  0.50192921  0.69928558  0.89752415  1
  Zr  Zr41  1  0.30290271  0.10489355  0.68886815  1
  Zr  Zr42  1  0.49819273  0.50561266  0.69404224  1
  Zr  Zr43  1  0.29803865  0.89841455  0.09897464  1
  Zr  Zr44  1  0.90328247  0.91872357  0.70414530  1
  Zr  Zr45  1  0.29356704  0.49657738  0.10382403  1
  Zr  Zr46  1  0.09648117  0.49331535  0.50208861  1
  Zr  Zr47  1  0.29997655  0.29603413  0.30033200  1
  Zr  Zr48  1  0.10349663  0.90410056  0.10453946  1
  Zr  Zr49  1  0.50340040  0.50493562  0.09465133  1
  Sc  Sc50  1  0.89925810  0.70340530  0.49982090  1
  Sc  Sc51  1  0.49518656  0.88944775  0.50296811  1
  Sc  Sc52  1  0.50147442  0.90121036  0.10041455  1
  Sc  Sc53  1  0.09898074  0.69974864  0.29078730  1
  Sc  Sc54  1  0.50458869  0.69195684  0.29567323  1
  Sc  Sc55  1  0.90581473  0.90409363  0.30508977  1
  Sc  Sc56  1  0.69198238  0.69700217  0.09491606  1
  Sc  Sc57  1  0.09836929  0.48465686  0.10154515  1
  Sc  Sc58  1  0.30604131  0.69938716  0.69986536  1
  Sc  Sc59  1  0.29907092  0.70202863  0.10399237  1
  Sc  Sc60  1  0.50638116  0.09989140  0.10348349  1
  Sc  Sc61  1  0.89955257  0.30373117  0.30090842  1
  Sc  Sc62  1  0.89666993  0.90028504  0.89842524  1
  Sc  Sc63  1  0.69840470  0.10644979  0.69779397  1
  Sc  Sc64  1  0.49621891  0.10366155  0.30244684  1
  Sc  Sc65  1  0.70774870  0.50381989  0.69684121  1
  Sc  Sc66  1  0.30195784  0.09820104  0.30881741  1
  Sc  Sc67  1  0.30804527  0.89913658  0.90320133  1
  Sc  Sc68  1  0.69925715  0.30631628  0.49873067  1
  Sc  Sc69  1  0.09484152  0.10752865  0.90891727  1
  Sc  Sc70  1  0.70049395  0.10677484  0.29234657  1
  Sc  Sc71  1  0.30740234  0.50334900  0.70140367  1
  Sc  Sc72  1  0.69581369  0.29209583  0.10741570  1
  Sc  Sc73  1  0.70842983  0.50440495  0.30788572  1
  Sc  Sc74  1  0.90564433  0.10085392  0.10880336  1
  Sc  Sc75  1  0.09578673  0.49432589  0.69336072  1
  Sc  Sc76  1  0.49220403  0.10829964  0.49610493  1
  Sc  Sc77  1  0.89838117  0.30893596  0.70206027  1
  Sc  Sc78  1  0.68786331  0.29733187  0.89977642  1
  Sc  Sc79  1  0.29917151  0.30322787  0.91580322  1
  Sc  Sc80  1  0.89464579  0.70617495  0.90014181  1
  Sc  Sc81  1  0.89318619  0.48757891  0.50308520  1
  Sc  Sc82  1  0.10758504  0.70544858  0.69962360  1
  Sc  Sc83  1  0.29494431  0.29856668  0.10250096  1
  Sc  Sc84  1  0.69695160  0.50255173  0.89343318  1
  Sc  Sc85  1  0.30227743  0.90710041  0.49791009  1
  Sc  Sc86  1  0.49976056  0.69922971  0.09428500  1
  Sc  Sc87  1  0.90196455  0.48511028  0.89068034  1
  Sc  Sc88  1  0.89638033  0.49596381  0.69675562  1
  Sc  Sc89  1  0.50366947  0.29482814  0.31374174  1
  Sc  Sc90  1  0.10755348  0.49817702  0.28893662  1
  Sc  Sc91  1  0.08230944  0.10023141  0.71030970  1
  Sc  Sc92  1  0.49452857  0.30270063  0.90754213  1
  Sc  Sc93  1  0.89958500  0.69395846  0.29584257  1
  Sc  Sc94  1  0.50558186  0.10860239  0.69769793  1
  Sc  Sc95  1  0.50790932  0.69172721  0.50235777  1
  Sc  Sc96  1  0.90252800  0.90367895  0.09853812  1
  Sc  Sc97  1  0.50410122  0.10348422  0.90312675  1
  Sc  Sc98  1  0.88972296  0.68790283  0.69816311  1
  Sc  Sc99  1  0.10427386  0.29720189  0.10038625  1
  Nb  Nb100  1  0.30067330  0.50016042  0.89929730  1
  Nb  Nb101  1  0.70239083  0.49644341  0.09967393  1
  Nb  Nb102  1  0.29280372  0.29795126  0.69574592  1
  Nb  Nb103  1  0.09998391  0.49578408  0.90021246  1
  Nb  Nb104  1  0.09489707  0.09931631  0.10828192  1
  Nb  Nb105  1  0.10126141  0.10409979  0.30869787  1
  Nb  Nb106  1  0.48485159  0.49642005  0.89922348  1
  Nb  Nb107  1  0.10114741  0.29905580  0.30112615  1
  Nb  Nb108  1  0.30103287  0.50250803  0.49166822  1
  Nb  Nb109  1  0.89516885  0.10449011  0.69713173  1
  Nb  Nb110  1  0.30204384  0.50752078  0.30179830  1
  Nb  Nb111  1  0.69414102  0.30037398  0.29689186  1
  Nb  Nb112  1  0.90320646  0.29656570  0.49798408  1
  Nb  Nb113  1  0.89514672  0.49877394  0.10996469  1
  Nb  Nb114  1  0.50348165  0.48988938  0.49454356  1
  Nb  Nb115  1  0.70734507  0.69907448  0.89651438  1
  Nb  Nb116  1  0.70068529  0.09795243  0.89925549  1
  Nb  Nb117  1  0.29485714  0.69162059  0.29915061  1
  Nb  Nb118  1  0.50643210  0.31001161  0.50462293  1
  Nb  Nb119  1  0.90439419  0.49954955  0.29122839  1
  Nb  Nb120  1  0.10132821  0.10449016  0.49213576  1
  Nb  Nb121  1  0.89958807  0.10791659  0.50321867  1
  Nb  Nb122  1  0.10566223  0.30293133  0.69339598  1
  Nb  Nb123  1  0.50093139  0.49523155  0.30423957  1
  Nb  Nb124  1  0.69206368  0.49877926  0.50067403  1
  Nb  Nb125  1  -0.00417712  0.19988128  0.59525070  1
  Nb  Nb126  1  0.20250186  0.39667949  0.80015920  1
  Nb  Nb127  1  0.79896131  0.19831493  0.80335830  1
  Nb  Nb128  1  0.39327394  0.79176503  0.39256037  1
  Nb  Nb129  1  0.19097345  0.00349577  0.60101613  1
  Nb  Nb130  1  -0.00113758  0.59289943  -0.00264487  1
  Nb  Nb131  1  0.19999085  0.20515116  0.79762519  1
  Nb  Nb132  1  0.79446478  0.80110842  0.19980211  1
  Nb  Nb133  1  0.60289542  -0.00084598  0.40600084  1
  Nb  Nb134  1  -0.00304829  0.58898543  0.39477652  1
  Nb  Nb135  1  0.80324664  0.59021038  0.00244976  1
  Nb  Nb136  1  0.58724419  0.40380403  0.79883533  1
  Nb  Nb137  1  0.20626835  0.40390528  0.39899240  1
  Nb  Nb138  1  0.79781275  0.39919424  0.00741110  1
  Nb  Nb139  1  0.60442663  -0.00143170  0.79920640  1
  Nb  Nb140  1  0.20423682  0.79648860  0.39470527  1
  Nb  Nb141  1  0.20222871  0.59652076  0.59149000  1
  Nb  Nb142  1  0.20201741  0.00428698  0.79575277  1
  Nb  Nb143  1  0.00453279  0.59730982  0.80587088  1
  Nb  Nb144  1  0.80151708  0.19910515  -0.00334415  1
  Nb  Nb145  1  0.19475174  0.59408919  -0.00764240  1
  Nb  Nb146  1  0.40430165  0.40724900  0.20934277  1
  Nb  Nb147  1  0.59941034  0.40510841  0.20570811  1
  Nb  Nb148  1  0.39132318  0.20659603  0.79669890  1
  Nb  Nb149  1  0.60298471  -0.00208893  0.59649435  1
  Pd  Pd150  1  0.60315157  0.19899367  0.00211634  1
  Pd  Pd151  1  0.39564862  0.39173678  0.80062933  1
  Pd  Pd152  1  0.20079538  0.01077865  0.20626694  1
  Pd  Pd153  1  0.81303777  0.79888952  0.39249479  1
  Pd  Pd154  1  -0.00559153  0.79956340  -0.00042519  1
  Pd  Pd155  1  0.78802853  0.60851209  0.19900878  1
  Pd  Pd156  1  0.19429564  0.00059331  -0.00673999  1
  Pd  Pd157  1  0.60819905  0.59320069  0.20559495  1
  Pd  Pd158  1  0.81027006  0.59496143  0.40709892  1
  Pd  Pd159  1  0.79593879  0.20823829  0.39369563  1
  Pd  Pd160  1  0.19677217  0.19271351  0.20357518  1
  Pd  Pd161  1  0.60264317  0.79756428  0.19552807  1
  Pd  Pd162  1  0.41269041  0.60311825  0.40074524  1
  Pd  Pd163  1  -0.00886467  0.80489513  0.20247546  1
  Pd  Pd164  1  0.80565599  0.79928568  0.79160322  1
  Pd  Pd165  1  0.40182032  0.79166065  0.20175240  1
  Pd  Pd166  1  -0.01185409  0.79480556  0.61029795  1
  Pd  Pd167  1  0.80929406  -0.00131888  0.20597903  1
  Pd  Pd168  1  0.40205432  0.19843027  0.00051117  1
  Pd  Pd169  1  0.60441290  0.19529401  0.40593135  1
  Pd  Pd170  1  0.00511829  0.01033498  0.59511628  1
  Pd  Pd171  1  0.39357555  0.40774838  0.59667395  1
  Pd  Pd172  1  -0.00280063  0.00634374  0.40168758  1
  Pd  Pd173  1  0.38993231  0.60247397  0.00154951  1
  Pd  Pd174  1  0.40142840  0.59803154  0.19782417  1
  Pd  Pd175  1  -0.01112909  0.79188769  0.79106846  1
  Pd  Pd176  1  0.40752537  0.00308609  0.59359048  1
  Pd  Pd177  1  0.60446623  0.40395718  -0.00221814  1
  Pd  Pd178  1  0.78496000  0.39146842  0.80525453  1
  Pd  Pd179  1  0.00526107  0.40174068  0.39172699  1
  Pd  Pd180  1  0.00188262  0.60059366  0.60227064  1
  Pd  Pd181  1  0.19526199  0.58983846  0.79145444  1
  Pd  Pd182  1  0.60447723  0.80084226  -0.00212172  1
  Pd  Pd183  1  0.79834297  0.00744346  0.39330211  1
  Pd  Pd184  1  0.81168573  0.01090304  0.00147459  1
  Pd  Pd185  1  0.59398080  0.59369192  0.80422825  1
  Pd  Pd186  1  0.18628762  0.59834207  0.39996515  1
  Pd  Pd187  1  0.40722310  0.00327064  0.00716023  1
  Pd  Pd188  1  0.00926093  0.59563700  0.19499191  1
  Pd  Pd189  1  -0.00083136  0.00037050  -0.00235343  1
  Pd  Pd190  1  0.80372368  0.21330855  0.60742731  1
  Pd  Pd191  1  0.40027143  0.00851281  0.19530806  1
  Pd  Pd192  1  0.40580949  0.01172920  0.79857898  1
  Pd  Pd193  1  0.40245504  0.20208171  0.20051868  1
  Pd  Pd194  1  0.79250884  0.39296316  0.20113803  1
  Pd  Pd195  1  0.20902370  0.79986853  0.59100313  1
  Pd  Pd196  1  0.80630948  0.79831517  0.60743242  1
  Pd  Pd197  1  0.39547598  0.39382144  0.39803146  1
  Pd  Pd198  1  0.79780045  0.39806652  0.39865361  1
  Pd  Pd199  1  0.60548305  0.59647030  -0.01071112  1
  Rh  Rh200  1  0.39994773  0.79774624  0.00365012  1
  Rh  Rh201  1  0.58713526  0.80228511  0.40148919  1
  Rh  Rh202  1  0.59516949  0.20134311  0.80506686  1
  Rh  Rh203  1  0.00347515  0.39598204  0.20457749  1
  Rh  Rh204  1  -0.00245789  0.19302763  0.01289091  1
  Rh  Rh205  1  0.00976586  0.20338151  0.20540152  1
  Rh  Rh206  1  0.19394044  -0.00736218  0.40709075  1
  Rh  Rh207  1  0.60426908  0.40929637  0.60556068  1
  Rh  Rh208  1  0.00335665  0.00289000  0.20570589  1
  Rh  Rh209  1  0.60540859  0.80190752  0.80720674  1
  Rh  Rh210  1  -0.00856801  0.39031801  0.60130865  1
  Rh  Rh211  1  0.19600381  0.60117941  0.18760182  1
  Rh  Rh212  1  0.60725831  0.40241260  0.39454207  1
  Rh  Rh213  1  0.59436116  0.00530570  0.20936468  1
  Rh  Rh214  1  0.20312024  0.79974758  0.20592448  1
  Rh  Rh215  1  0.40025332  0.20907503  0.40784470  1
  Rh  Rh216  1  0.59847007  0.59267253  0.40241219  1
  Rh  Rh217  1  0.79508857  0.79270569  0.00930168  1
  Rh  Rh218  1  0.79469305  0.39645869  0.59639689  1
  Rh  Rh219  1  -0.00104102  0.21498941  0.78674522  1
  Rh  Rh220  1  0.20826992  0.79608262  -0.00039953  1
  Rh  Rh221  1  0.80106078  0.20314557  0.19726524  1
  Rh  Rh222  1  -0.01104317  0.40834542  0.00942691  1
  Rh  Rh223  1  0.01129177  -0.00752737  0.80915223  1
  Rh  Rh224  1  0.21245511  0.81193215  0.79945717  1
  Rh  Rh225  1  0.60308666  0.79992276  0.59706649  1
  Rh  Rh226  1  0.00999885  0.40132705  0.79019092  1
  Rh  Rh227  1  0.40397861  0.60359562  0.80153049  1
  Rh  Rh228  1  0.79829206  0.59297481  0.59136683  1
  Rh  Rh229  1  0.39846676  0.59500064  0.59199350  1
  Rh  Rh230  1  0.60100402  0.59352530  0.59745492  1
  Rh  Rh231  1  0.00319891  0.78820466  0.39095636  1
  Rh  Rh232  1  0.21080932  0.41400272  0.59996082  1
  Rh  Rh233  1  0.59488927  0.20574913  0.20357209  1
  Rh  Rh234  1  0.39816293  0.79196278  0.59257561  1
  Rh  Rh235  1  0.00188719  0.20590729  0.40440754  1
  Rh  Rh236  1  0.19937077  0.20831206  0.39568126  1
  Rh  Rh237  1  0.20307018  0.40369071  -0.00608668  1
  Rh  Rh238  1  0.59707852  0.19658261  0.58687199  1
  Rh  Rh239  1  0.20734576  0.39585948  0.21036529  1
  Rh  Rh240  1  0.18275609  0.18554503  0.60896472  1
  Rh  Rh241  1  0.39542410  0.40347976  0.01166948  1
  Rh  Rh242  1  0.40644895  0.20234033  0.59750581  1
  Rh  Rh243  1  0.41048900  -0.00812378  0.40208881  1
  Rh  Rh244  1  0.39970308  0.79463113  0.80060182  1
  Rh  Rh245  1  0.79569894  0.00106369  0.60260481  1
  Rh  Rh246  1  0.19217262  0.19956574  0.00056771  1
  Rh  Rh247  1  0.59653352  -0.00224916  -0.00771399  1
  Rh  Rh248  1  0.81108772  0.59670510  0.81156764  1
  Rh  Rh249  1  0.79088203  0.00923776  0.79379568  1
