# generated using pymatgen
data_ZrScNbPdRh
_symmetry_space_group_name_H-M   'P 1'
_cell_length_a   16.55404721
_cell_length_b   16.55715259
_cell_length_c   16.55700290
_cell_angle_alpha   89.98103483
_cell_angle_beta   90.00162489
_cell_angle_gamma   89.97766325
_symmetry_Int_Tables_number   1
_chemical_formula_structural   ZrScNbPdRh
_chemical_formula_sum   'Zr50 Sc50 Nb50 Pd50 Rh50'
_cell_volume   4538.07332323
_cell_formula_units_Z   50
loop_
 _symmetry_equiv_pos_site_id
 _symmetry_equiv_pos_as_xyz
  1  'x, y, z'
loop_
 _atom_site_type_symbol
 _atom_site_label
 _atom_site_symmetry_multiplicity
 _atom_site_fract_x
 _atom_site_fract_y
 _atom_site_fract_z
 _atom_site_occupancy
  Zr  Zr0  1  0.50680276  0.09616367  0.69016847  1
  Zr  Zr1  1  0.69666937  0.89501009  0.29527553  1
  Zr  Zr2  1  0.50302029  0.50089004  0.70632524  1
  Zr  Zr3  1  0.29815541  0.51257649  0.70781522  1
  Zr  Zr4  1  0.89014895  0.09873672  0.89711116  1
  Zr  Zr5  1  0.69649574  0.29773843  0.09841254  1
  Zr  Zr6  1  0.50055737  0.70936888  0.49670947  1
  Zr  Zr7  1  0.90064299  0.30072789  0.89485468  1
  Zr  Zr8  1  0.50043669  0.10232102  0.10545843  1
  Zr  Zr9  1  0.51178211  0.89726683  0.90142954  1
  Zr  Zr10  1  0.68912972  0.49426353  0.10060420  1
  Zr  Zr11  1  0.49760478  0.68908251  0.09138512  1
  Zr  Zr12  1  0.69808921  0.09068439  0.29853446  1
  Zr  Zr13  1  0.30360864  0.30183254  0.30561608  1
  Zr  Zr14  1  0.50770173  0.30444940  0.70134768  1
  Zr  Zr15  1  0.30316602  0.09859781  0.11005032  1
  Zr  Zr16  1  0.30011621  0.10393575  0.69332124  1
  Zr  Zr17  1  0.88736130  0.69494328  0.28573072  1
  Zr  Zr18  1  0.68715342  0.69704830  0.29931048  1
  Zr  Zr19  1  0.50895759  0.30680332  0.10289285  1
  Zr  Zr20  1  0.49956535  0.70086235  0.29897975  1
  Zr  Zr21  1  0.29414163  0.70106140  0.50235390  1
  Zr  Zr22  1  0.30195103  0.69911171  0.10603574  1
  Zr  Zr23  1  0.90011854  0.30405091  0.50057507  1
  Zr  Zr24  1  0.89232291  0.89022247  0.09012306  1
  Zr  Zr25  1  0.09966799  0.70088728  0.49645285  1
  Zr  Zr26  1  0.89825420  0.50348876  0.11000124  1
  Zr  Zr27  1  0.30135590  0.30519977  0.49832222  1
  Zr  Zr28  1  0.89753689  0.09594811  0.69948442  1
  Zr  Zr29  1  0.50223636  0.69908465  0.69900363  1
  Zr  Zr30  1  0.09645287  0.69574843  0.90817338  1
  Zr  Zr31  1  0.89778614  0.10435116  0.29634957  1
  Zr  Zr32  1  0.70184717  0.30719969  0.69862897  1
  Zr  Zr33  1  0.50489851  0.51422921  0.90459408  1
  Zr  Zr34  1  0.70876682  0.89851309  0.90098840  1
  Zr  Zr35  1  0.10124087  0.10704217  0.10761538  1
  Zr  Zr36  1  0.70520341  0.30361124  0.90641631  1
  Zr  Zr37  1  0.09551263  0.50116930  0.50196607  1
  Zr  Zr38  1  0.10040916  0.89501962  0.30311321  1
  Zr  Zr39  1  0.10011034  0.10349943  0.89606162  1
  Zr  Zr40  1  0.48888341  0.89918209  0.09587128  1
  Zr  Zr41  1  0.29539597  0.70096152  0.30425827  1
  Zr  Zr42  1  0.10780676  0.70220003  0.30264882  1
  Zr  Zr43  1  0.09808790  0.09691171  0.29687986  1
  Zr  Zr44  1  0.30985537  0.10900138  0.49641778  1
  Zr  Zr45  1  0.89689234  0.70293325  0.70500850  1
  Zr  Zr46  1  0.10437449  0.49722444  0.90393242  1
  Zr  Zr47  1  0.29725298  0.50142163  0.49760616  1
  Zr  Zr48  1  0.30265497  0.90118412  0.69433939  1
  Zr  Zr49  1  0.09619763  0.29784487  0.29547038  1
  Sc  Sc50  1  0.89467601  0.08810640  0.50327331  1
  Sc  Sc51  1  0.10347386  0.89951346  0.90212414  1
  Sc  Sc52  1  0.89712421  0.69814001  0.09134520  1
  Sc  Sc53  1  0.09492309  0.90166770  0.69264047  1
  Sc  Sc54  1  0.88819231  0.89973457  0.69718784  1
  Sc  Sc55  1  0.09303260  0.50042173  0.29509036  1
  Sc  Sc56  1  0.89762272  0.90593497  0.29829296  1
  Sc  Sc57  1  0.10065907  0.29919136  0.09625835  1
  Sc  Sc58  1  0.69944489  0.90262362  0.09827459  1
  Sc  Sc59  1  0.29802285  0.30476225  0.69621566  1
  Sc  Sc60  1  0.89230834  0.29795534  0.10421054  1
  Sc  Sc61  1  0.90216448  0.30672766  0.29771591  1
  Sc  Sc62  1  0.09145783  0.89322088  0.49651280  1
  Sc  Sc63  1  0.50339443  0.89716924  0.30605394  1
  Sc  Sc64  1  0.09692522  0.30704537  0.89656945  1
  Sc  Sc65  1  0.30927560  0.90303356  0.90061773  1
  Sc  Sc66  1  0.88545712  0.69649721  0.90335635  1
  Sc  Sc67  1  0.69651380  0.89964842  0.69892052  1
  Sc  Sc68  1  0.09903299  0.69295494  0.69091470  1
  Sc  Sc69  1  0.89984523  0.70559273  0.50924449  1
  Sc  Sc70  1  0.30246121  0.29157295  0.10956624  1
  Sc  Sc71  1  0.50477769  0.50156742  0.29471295  1
  Sc  Sc72  1  0.51361907  0.30341993  0.89832750  1
  Sc  Sc73  1  0.70609452  0.69940816  0.10471876  1
  Sc  Sc74  1  0.70391697  0.09772346  0.49007956  1
  Sc  Sc75  1  0.29473307  0.30637525  0.89573164  1
  Sc  Sc76  1  0.89666405  0.50061983  0.89967613  1
  Sc  Sc77  1  0.09608651  0.50006787  0.70304653  1
  Sc  Sc78  1  0.70099994  0.09773819  0.90471172  1
  Sc  Sc79  1  0.90064459  0.89840399  0.50654701  1
  Sc  Sc80  1  0.69045965  0.69476202  0.50576492  1
  Sc  Sc81  1  0.09921632  0.89417806  0.10514422  1
  Sc  Sc82  1  0.89851058  0.48817975  0.50425027  1
  Sc  Sc83  1  0.70423240  0.29259017  0.29968644  1
  Sc  Sc84  1  0.10346261  0.68983897  0.10132254  1
  Sc  Sc85  1  0.70025365  0.10107790  0.09991293  1
  Sc  Sc86  1  0.89869554  0.49904741  0.70541009  1
  Sc  Sc87  1  0.30026857  0.89122239  0.28988294  1
  Sc  Sc88  1  0.49988925  0.30475425  0.29668377  1
  Sc  Sc89  1  0.10787723  0.30788770  0.50326323  1
  Sc  Sc90  1  0.30435680  0.50266614  0.30518865  1
  Sc  Sc91  1  0.90029108  0.30276473  0.70629462  1
  Sc  Sc92  1  0.70314062  0.69843066  0.70170837  1
  Sc  Sc93  1  0.50002293  0.30159297  0.49622632  1
  Sc  Sc94  1  0.50373541  0.50753895  0.50060922  1
  Sc  Sc95  1  0.09569221  0.30629965  0.70236450  1
  Sc  Sc96  1  0.29913269  0.09750228  0.89913382  1
  Sc  Sc97  1  0.89023848  0.09881596  0.10533098  1
  Sc  Sc98  1  0.29496070  0.50548408  0.89608803  1
  Sc  Sc99  1  0.51315604  0.09828701  0.90482234  1
  Nb  Nb100  1  0.49950813  0.09762453  0.30825720  1
  Nb  Nb101  1  0.49952637  0.90778034  0.50933595  1
  Nb  Nb102  1  0.70047616  0.49763640  0.69471321  1
  Nb  Nb103  1  0.30292349  0.10555037  0.29779403  1
  Nb  Nb104  1  0.30127854  0.89759218  0.09729484  1
  Nb  Nb105  1  0.50185906  0.09310213  0.49347431  1
  Nb  Nb106  1  0.29828488  0.70010497  0.70404817  1
  Nb  Nb107  1  0.30229408  0.69661119  0.89333885  1
  Nb  Nb108  1  0.70421790  0.50882140  0.89779117  1
  Nb  Nb109  1  0.70219648  0.49206871  0.50635351  1
  Nb  Nb110  1  0.89886533  0.50080158  0.30293228  1
  Nb  Nb111  1  0.10246257  0.09982161  0.50204746  1
  Nb  Nb112  1  0.69237559  0.89633836  0.49425310  1
  Nb  Nb113  1  0.50028041  0.90070374  0.69518713  1
  Nb  Nb114  1  0.30395288  0.90562103  0.50136050  1
  Nb  Nb115  1  0.90042141  0.89583517  0.90104467  1
  Nb  Nb116  1  0.09853814  0.09797161  0.69813772  1
  Nb  Nb117  1  0.70311898  0.30741258  0.50605762  1
  Nb  Nb118  1  0.70775295  0.09898013  0.69379101  1
  Nb  Nb119  1  0.50480595  0.69909518  0.89745825  1
  Nb  Nb120  1  0.49647404  0.49788568  0.09670936  1
  Nb  Nb121  1  0.69878797  0.50643409  0.30288597  1
  Nb  Nb122  1  0.69322700  0.69270175  0.89989361  1
  Nb  Nb123  1  0.30010338  0.50701391  0.09650966  1
  Nb  Nb124  1  0.11128400  0.50273289  0.09606179  1
  Nb  Nb125  1  -0.00082793  0.80262288  0.80564149  1
  Nb  Nb126  1  0.40263813  0.19657436  0.80079147  1
  Nb  Nb127  1  -0.00392389  -0.00317441  0.80344329  1
  Nb  Nb128  1  -0.00422364  0.19472649  -0.00309653  1
  Nb  Nb129  1  0.20018885  0.00499887  0.59048293  1
  Nb  Nb130  1  0.40115248  0.40644730  0.60158023  1
  Nb  Nb131  1  0.20213890  0.40732182  0.19388956  1
  Nb  Nb132  1  0.60708289  0.19799069  0.59430149  1
  Nb  Nb133  1  0.40169257  0.40350172  0.00450037  1
  Nb  Nb134  1  0.79793878  0.59560118  0.40163840  1
  Nb  Nb135  1  0.20125735  -0.00196271  0.00770162  1
  Nb  Nb136  1  0.20853456  0.80038413  -0.00138572  1
  Nb  Nb137  1  0.41022192  -0.00152306  0.79303127  1
  Nb  Nb138  1  0.20055359  0.19726181  0.79366110  1
  Nb  Nb139  1  0.00195268  0.19665529  0.40731842  1
  Nb  Nb140  1  0.00076564  0.00204010  -0.00242296  1
  Nb  Nb141  1  0.79231091  0.79363372  0.39824949  1
  Nb  Nb142  1  0.20648786  0.00387816  0.40195332  1
  Nb  Nb143  1  0.61137253  0.40360656  0.40417633  1
  Nb  Nb144  1  0.20287495  0.79614261  0.80076980  1
  Nb  Nb145  1  0.40363510  0.79873348  0.79782175  1
  Nb  Nb146  1  -0.00140733  0.79581025  0.20049131  1
  Nb  Nb147  1  -0.01138073  0.59917404  0.39576451  1
  Nb  Nb148  1  0.00297368  0.19428975  0.59818781  1
  Nb  Nb149  1  0.40395392  0.20515863  -0.00282753  1
  Pd  Pd150  1  -0.00163029  0.60413946  0.80494503  1
  Pd  Pd151  1  0.60241988  0.79723459  0.79521919  1
  Pd  Pd152  1  0.19987800  -0.00404301  0.79810575  1
  Pd  Pd153  1  0.41081038  0.20490582  0.39544453  1
  Pd  Pd154  1  0.79555334  0.40211683  0.39333360  1
  Pd  Pd155  1  -0.00608770  0.39700042  0.00659242  1
  Pd  Pd156  1  0.60845790  0.40942646  0.80805004  1
  Pd  Pd157  1  0.40534953  0.59893110  0.39911730  1
  Pd  Pd158  1  0.39901056  0.59877509  0.59802453  1
  Pd  Pd159  1  0.00400694  0.60431933  0.20094403  1
  Pd  Pd160  1  0.39977071  0.39563643  0.80371940  1
  Pd  Pd161  1  0.39305363  0.40447042  0.19542219  1
  Pd  Pd162  1  0.39616278  0.80728472  0.40124898  1
  Pd  Pd163  1  0.39893392  0.00978422  -0.00704857  1
  Pd  Pd164  1  0.00194280  0.00406263  0.40389808  1
  Pd  Pd165  1  0.80514225  0.59591508  0.59695637  1
  Pd  Pd166  1  0.21086529  0.39364575  0.00726148  1
  Pd  Pd167  1  0.60544882  0.19355970  0.79432291  1
  Pd  Pd168  1  -0.00748072  0.59294710  0.00088911  1
  Pd  Pd169  1  0.00567512  0.40025542  0.19056795  1
  Pd  Pd170  1  0.19445757  0.80658038  0.60063246  1
  Pd  Pd171  1  0.79021700  0.80274379  0.59343743  1
  Pd  Pd172  1  0.39669964  0.79239111  -0.00834750  1
  Pd  Pd173  1  0.60482002  0.00239659  0.79883791  1
  Pd  Pd174  1  0.80671802  0.20174388  0.40153899  1
  Pd  Pd175  1  0.60037933  0.20606559  0.40380556  1
  Pd  Pd176  1  0.20320345  0.20029868  -0.00717712  1
  Pd  Pd177  1  0.59874660  0.19750486  0.20834604  1
  Pd  Pd178  1  0.60659561  0.79612409  0.00747936  1
  Pd  Pd179  1  0.19448239  0.19757180  0.39643050  1
  Pd  Pd180  1  0.39974239  0.59823616  0.20568191  1
  Pd  Pd181  1  -0.01842136  0.79036596  0.39099769  1
  Pd  Pd182  1  0.20368049  0.40866399  0.60866829  1
  Pd  Pd183  1  0.20308971  -0.00514538  0.20261045  1
  Pd  Pd184  1  0.59431455  -0.00361810  0.19649312  1
  Pd  Pd185  1  0.39511663  -0.00692352  0.39174265  1
  Pd  Pd186  1  0.60070278  0.59924289  0.60303575  1
  Pd  Pd187  1  0.59109728  0.79992897  0.18810951  1
  Pd  Pd188  1  0.41182186  0.20946470  0.60197107  1
  Pd  Pd189  1  -0.00931808  0.59718195  0.59463731  1
  Pd  Pd190  1  0.79083073  0.20070892  0.79885647  1
  Pd  Pd191  1  0.80541262  0.40551035  0.00232097  1
  Pd  Pd192  1  0.61119512  0.00364576  0.59153300  1
  Pd  Pd193  1  0.40100264  0.79632243  0.60174631  1
  Pd  Pd194  1  0.19289940  0.40689424  0.38870232  1
  Pd  Pd195  1  0.79963715  -0.01172332  0.40196325  1
  Pd  Pd196  1  0.40416805  -0.00417710  0.21064573  1
  Pd  Pd197  1  0.79255664  0.39975591  0.20576931  1
  Pd  Pd198  1  0.80265190  0.20069476  0.59676168  1
  Pd  Pd199  1  -0.00731813  -0.00915820  0.19010402  1
  Rh  Rh200  1  0.20043918  0.59870373  0.60108902  1
  Rh  Rh201  1  0.80382444  0.80764406  0.20230099  1
  Rh  Rh202  1  0.60493954  0.59328021  0.40655271  1
  Rh  Rh203  1  0.18985078  0.59301711  0.39870179  1
  Rh  Rh204  1  0.00019279  0.40876828  0.80400643  1
  Rh  Rh205  1  0.79354926  0.59756212  0.79620170  1
  Rh  Rh206  1  0.79800143  -0.00424782  0.79720411  1
  Rh  Rh207  1  0.80241460  0.20174947  0.00113993  1
  Rh  Rh208  1  0.20371795  0.20855821  0.20929545  1
  Rh  Rh209  1  0.79376962  0.59565942  0.00464187  1
  Rh  Rh210  1  0.60802438  0.60199580  0.00512949  1
  Rh  Rh211  1  0.40578623  0.60740662  0.80253013  1
  Rh  Rh212  1  0.78931493  0.79204070  -0.00515347  1
  Rh  Rh213  1  0.00633385  0.19536157  0.79552610  1
  Rh  Rh214  1  0.60364247  -0.00143574  0.00619946  1
  Rh  Rh215  1  0.40675861  0.19920296  0.20297806  1
  Rh  Rh216  1  0.20909360  0.81141819  0.40908124  1
  Rh  Rh217  1  0.60816237  0.59845533  0.79449760  1
  Rh  Rh218  1  0.79192068  0.59190960  0.19840186  1
  Rh  Rh219  1  0.59887901  0.80409108  0.40510619  1
  Rh  Rh220  1  0.20392379  0.59125474  0.20665445  1
  Rh  Rh221  1  0.39846417  0.00293261  0.59933325  1
  Rh  Rh222  1  0.19657043  0.39762916  0.79676353  1
  Rh  Rh223  1  0.60667728  0.40109146  0.21225601  1
  Rh  Rh224  1  0.79128321  -0.00663858  0.59631013  1
  Rh  Rh225  1  0.80711895  0.40123908  0.61022512  1
  Rh  Rh226  1  0.00236130  0.00123028  0.60418343  1
  Rh  Rh227  1  0.39328514  0.59726331  -0.00718172  1
  Rh  Rh228  1  0.79651821  0.19944044  0.20256377  1
  Rh  Rh229  1  0.79771964  -0.00211944  0.19768720  1
  Rh  Rh230  1  0.00809902  0.80373817  0.00251335  1
  Rh  Rh231  1  0.18841043  0.60565726  0.79985065  1
  Rh  Rh232  1  0.19001425  0.19983300  0.60576596  1
  Rh  Rh233  1  -0.00671597  0.20493790  0.19785210  1
  Rh  Rh234  1  0.59610807  0.59815130  0.19314908  1
  Rh  Rh235  1  0.40595428  0.79770113  0.19922743  1
  Rh  Rh236  1  0.59648879  -0.00365255  0.40151559  1
  Rh  Rh237  1  0.19525857  0.79760010  0.19095297  1
  Rh  Rh238  1  0.59701106  0.40640394  -0.00802382  1
  Rh  Rh239  1  0.79962580  0.79636519  0.80451233  1
  Rh  Rh240  1  0.00379532  0.39968318  0.40214523  1
  Rh  Rh241  1  0.59883717  0.19858717  0.00288637  1
  Rh  Rh242  1  0.79622989  0.40632821  0.80040006  1
  Rh  Rh243  1  0.59979837  0.80301143  0.59967561  1
  Rh  Rh244  1  -0.00087265  0.80029947  0.61250972  1
  Rh  Rh245  1  0.41200469  0.40645314  0.40766638  1
  Rh  Rh246  1  0.59295000  0.39712944  0.59206121  1
  Rh  Rh247  1  -0.00297733  0.39277243  0.60458475  1
  Rh  Rh248  1  0.80166633  0.00048035  0.00201595  1
  Rh  Rh249  1  0.20881355  0.60689477  -0.00328079  1
