# generated using pymatgen
data_ZrScNbPdRh
_symmetry_space_group_name_H-M   'P 1'
_cell_length_a   16.55903228
_cell_length_b   16.55712744
_cell_length_c   16.55439065
_cell_angle_alpha   89.99999136
_cell_angle_beta   89.99338874
_cell_angle_gamma   89.99291705
_symmetry_Int_Tables_number   1
_chemical_formula_structural   ZrScNbPdRh
_chemical_formula_sum   'Zr50 Sc50 Nb50 Pd50 Rh50'
_cell_volume   4538.71734932
_cell_formula_units_Z   50
loop_
 _symmetry_equiv_pos_site_id
 _symmetry_equiv_pos_as_xyz
  1  'x, y, z'
loop_
 _atom_site_type_symbol
 _atom_site_label
 _atom_site_symmetry_multiplicity
 _atom_site_fract_x
 _atom_site_fract_y
 _atom_site_fract_z
 _atom_site_occupancy
  Zr  Zr0  1  0.50282831  0.30016562  0.90779851  1
  Zr  Zr1  1  0.29967962  0.10260263  0.70111839  1
  Zr  Zr2  1  0.09828142  0.69539282  0.09697946  1
  Zr  Zr3  1  0.90398508  0.68898885  0.70307995  1
  Zr  Zr4  1  0.29152141  0.70058106  0.90448535  1
  Zr  Zr5  1  0.29082066  0.29628257  0.90404948  1
  Zr  Zr6  1  0.89750228  0.70508815  0.29532815  1
  Zr  Zr7  1  0.50866834  0.09947900  0.90349492  1
  Zr  Zr8  1  0.70654568  0.30316852  0.69764126  1
  Zr  Zr9  1  0.89806194  0.49893852  0.49230158  1
  Zr  Zr10  1  0.50066014  0.70123070  0.29507297  1
  Zr  Zr11  1  0.69916846  0.10059636  0.89940556  1
  Zr  Zr12  1  0.50435150  0.69856820  0.10352412  1
  Zr  Zr13  1  0.29792107  0.69350454  0.49366007  1
  Zr  Zr14  1  0.70435342  0.90512779  0.90005014  1
  Zr  Zr15  1  0.09316187  0.69633790  0.49790267  1
  Zr  Zr16  1  0.09674614  0.90311628  0.50468269  1
  Zr  Zr17  1  0.50739028  0.89081406  0.69813901  1
  Zr  Zr18  1  0.70357467  0.10261145  0.10185158  1
  Zr  Zr19  1  0.10056946  0.29188461  0.29753194  1
  Zr  Zr20  1  0.69969339  0.89447359  0.09985602  1
  Zr  Zr21  1  0.90132217  0.90158953  0.90545387  1
  Zr  Zr22  1  0.30316621  0.50218035  0.68979177  1
  Zr  Zr23  1  0.90006798  0.30152636  0.90114095  1
  Zr  Zr24  1  0.69766968  0.70016546  0.90383171  1
  Zr  Zr25  1  0.49828230  0.29793261  0.69750996  1
  Zr  Zr26  1  0.90273349  0.30090336  0.70366831  1
  Zr  Zr27  1  0.69150135  0.69302422  0.50427810  1
  Zr  Zr28  1  0.30346440  0.70258321  0.29577770  1
  Zr  Zr29  1  0.09803666  0.89524442  0.29327367  1
  Zr  Zr30  1  0.30202885  0.10229671  0.29378836  1
  Zr  Zr31  1  0.09752645  0.90022134  0.69842047  1
  Zr  Zr32  1  0.09624325  0.29649122  0.70539829  1
  Zr  Zr33  1  0.29326465  0.89757637  0.69480842  1
  Zr  Zr34  1  0.69911924  0.50312909  0.29973213  1
  Zr  Zr35  1  0.09626556  0.50569263  0.69451760  1
  Zr  Zr36  1  0.50177344  0.09616460  0.11230671  1
  Zr  Zr37  1  0.89705965  0.09937417  0.90818799  1
  Zr  Zr38  1  0.89990101  0.89895001  0.09774950  1
  Zr  Zr39  1  0.30153282  0.50236044  0.50027484  1
  Zr  Zr40  1  0.29769367  0.69972958  0.69757565  1
  Zr  Zr41  1  0.09825148  0.89142587  0.89844133  1
  Zr  Zr42  1  0.90133047  0.10489545  0.28816107  1
  Zr  Zr43  1  0.69299954  0.29914201  0.29657857  1
  Zr  Zr44  1  0.29473006  0.10384362  0.90352173  1
  Zr  Zr45  1  0.69575380  0.09728802  0.29526851  1
  Zr  Zr46  1  0.50335517  0.90139814  0.10275507  1
  Zr  Zr47  1  0.30156920  0.29877455  0.69977326  1
  Zr  Zr48  1  0.89705857  0.89690120  0.29648798  1
  Zr  Zr49  1  0.30431361  0.30470016  0.10513408  1
  Sc  Sc50  1  0.70038029  0.90720140  0.50215930  1
  Sc  Sc51  1  0.50196595  0.10223070  0.30439543  1
  Sc  Sc52  1  0.90063347  0.29722513  0.09372238  1
  Sc  Sc53  1  0.70491429  0.49700023  0.90178007  1
  Sc  Sc54  1  0.90731289  0.70100493  0.49273835  1
  Sc  Sc55  1  0.69896106  0.49779366  0.50377709  1
  Sc  Sc56  1  0.90995363  0.49360562  0.10017495  1
  Sc  Sc57  1  0.51491625  0.89886382  0.90056777  1
  Sc  Sc58  1  0.90599559  0.70354273  0.90647017  1
  Sc  Sc59  1  0.29312639  0.09967904  0.10351457  1
  Sc  Sc60  1  0.90318319  0.10017566  0.69460426  1
  Sc  Sc61  1  0.70471348  0.50617894  0.69586158  1
  Sc  Sc62  1  0.09520398  0.69937900  0.30120435  1
  Sc  Sc63  1  0.69744048  0.90401992  0.70263683  1
  Sc  Sc64  1  0.10413610  0.49759930  0.10014604  1
  Sc  Sc65  1  0.70711099  0.30798085  0.49815940  1
  Sc  Sc66  1  0.10309751  0.50419485  0.49517580  1
  Sc  Sc67  1  0.09713476  0.50135183  0.28912602  1
  Sc  Sc68  1  0.09443106  0.70409545  0.70096256  1
  Sc  Sc69  1  0.29059903  0.90481645  0.11093703  1
  Sc  Sc70  1  0.70525005  0.09462536  0.70330936  1
  Sc  Sc71  1  0.89544174  0.30183069  0.50855028  1
  Sc  Sc72  1  0.09897309  0.10667103  0.90515715  1
  Sc  Sc73  1  0.69987883  0.09228076  0.49487666  1
  Sc  Sc74  1  0.49504233  0.50278770  0.28779395  1
  Sc  Sc75  1  0.09727796  0.10247940  0.10468849  1
  Sc  Sc76  1  0.89999059  0.49489196  0.70155524  1
  Sc  Sc77  1  0.30259087  0.09973192  0.49509860  1
  Sc  Sc78  1  0.90210739  0.91104255  0.70193448  1
  Sc  Sc79  1  0.30623715  0.50281012  0.91633320  1
  Sc  Sc80  1  0.30051722  0.50649256  0.29807816  1
  Sc  Sc81  1  0.50421153  0.68882530  0.89989782  1
  Sc  Sc82  1  0.51100327  0.69659192  0.70073891  1
  Sc  Sc83  1  0.89587147  0.90121114  0.49740152  1
  Sc  Sc84  1  0.30153148  0.89238346  0.49822471  1
  Sc  Sc85  1  0.30215319  0.30756854  0.49205649  1
  Sc  Sc86  1  0.10564400  0.29851192  0.49286101  1
  Sc  Sc87  1  0.10205765  0.10266608  0.50118561  1
  Sc  Sc88  1  0.29800155  0.50202464  0.10342376  1
  Sc  Sc89  1  0.49210915  0.29969694  0.49474746  1
  Sc  Sc90  1  0.70336158  0.30026822  0.90951556  1
  Sc  Sc91  1  0.09515729  0.09497969  0.69599174  1
  Sc  Sc92  1  0.49417777  0.90811796  0.29591499  1
  Sc  Sc93  1  0.90129833  0.50252039  0.29308791  1
  Sc  Sc94  1  0.49887966  0.70145076  0.50199639  1
  Sc  Sc95  1  0.09669844  0.29616140  0.90544798  1
  Sc  Sc96  1  0.09666043  0.70319269  0.90094280  1
  Sc  Sc97  1  0.09517789  0.90199311  0.09926225  1
  Sc  Sc98  1  0.90049963  0.49288930  0.90203487  1
  Sc  Sc99  1  0.50522006  0.10483739  0.70934086  1
  Nb  Nb100  1  0.50118034  0.49837761  0.51109353  1
  Nb  Nb101  1  0.30824675  0.29684784  0.30159773  1
  Nb  Nb102  1  0.69568823  0.30709390  0.10174400  1
  Nb  Nb103  1  0.70380583  0.69720460  0.10961944  1
  Nb  Nb104  1  0.89722937  0.30400791  0.30195687  1
  Nb  Nb105  1  0.49772396  0.49613755  0.70159522  1
  Nb  Nb106  1  0.29663311  0.89770502  0.90018995  1
  Nb  Nb107  1  0.10250470  0.31089323  0.10028833  1
  Nb  Nb108  1  0.50668605  0.09150676  0.49798676  1
  Nb  Nb109  1  0.89529325  0.09342872  0.09675833  1
  Nb  Nb110  1  0.10120326  0.10434568  0.30653050  1
  Nb  Nb111  1  0.49432961  0.48628914  0.09171876  1
  Nb  Nb112  1  0.70176268  0.89625476  0.30114339  1
  Nb  Nb113  1  0.10763088  0.50013266  0.90712135  1
  Nb  Nb114  1  0.30154219  0.69651136  0.10093097  1
  Nb  Nb115  1  0.70205741  0.70239342  0.70046270  1
  Nb  Nb116  1  0.50246531  0.30932320  0.10945257  1
  Nb  Nb117  1  0.50843164  0.90278029  0.49916512  1
  Nb  Nb118  1  0.49559831  0.30155818  0.29115513  1
  Nb  Nb119  1  0.69873284  0.70006942  0.29196447  1
  Nb  Nb120  1  0.49800673  0.49673095  0.89846443  1
  Nb  Nb121  1  0.70245931  0.49770267  0.10527150  1
  Nb  Nb122  1  0.89727650  0.09776956  0.49802654  1
  Nb  Nb123  1  0.89227766  0.70279947  0.10171125  1
  Nb  Nb124  1  0.29410022  0.90324356  0.29981546  1
  Nb  Nb125  1  -0.00344854  0.39481624  0.39238476  1
  Nb  Nb126  1  0.79675698  0.79441883  0.60720535  1
  Nb  Nb127  1  0.40942986  -0.00162849  0.59953020  1
  Nb  Nb128  1  0.39704362  0.80184878  0.80632606  1
  Nb  Nb129  1  0.19719935  -0.00068814  0.39195510  1
  Nb  Nb130  1  0.60357842  0.80170331  0.39469250  1
  Nb  Nb131  1  0.20247119  0.40809031  0.80147972  1
  Nb  Nb132  1  0.20039984  0.59345202  0.80185933  1
  Nb  Nb133  1  0.39790164  -0.00225616  -0.00394270  1
  Nb  Nb134  1  0.59342411  0.40287516  0.79936195  1
  Nb  Nb135  1  0.00144472  0.00726835  0.39369961  1
  Nb  Nb136  1  0.79605309  0.39692237  0.19854707  1
  Nb  Nb137  1  0.80408127  0.20038906  0.39471587  1
  Nb  Nb138  1  0.79406771  0.60569997  0.39194872  1
  Nb  Nb139  1  0.40464578  0.19941086  0.00748652  1
  Nb  Nb140  1  0.59939497  0.19835901  0.59462074  1
  Nb  Nb141  1  0.79782342  0.60222436  0.01261068  1
  Nb  Nb142  1  0.40058888  0.40455560  0.80224418  1
  Nb  Nb143  1  0.39764700  -0.00750903  0.80246742  1
  Nb  Nb144  1  0.39617298  0.80376779  -0.00080303  1
  Nb  Nb145  1  0.20263337  -0.00432016  0.80246529  1
  Nb  Nb146  1  0.59246712  0.40225589  0.39601445  1
  Nb  Nb147  1  0.20392002  0.20202585  0.60145378  1
  Nb  Nb148  1  0.80409461  0.20167927  0.80291770  1
  Nb  Nb149  1  0.79955911  0.79591599  0.79674680  1
  Pd  Pd150  1  0.40317116  0.20122724  0.81076346  1
  Pd  Pd151  1  0.20488565  0.39990850  0.20787517  1
  Pd  Pd152  1  0.40576913  0.41005339  0.39451583  1
  Pd  Pd153  1  0.59603177  0.59709418  0.40066627  1
  Pd  Pd154  1  0.40857245  0.60660509  0.60000403  1
  Pd  Pd155  1  0.00285468  0.20078046  0.00839138  1
  Pd  Pd156  1  0.59970460  0.00739442  0.60861339  1
  Pd  Pd157  1  0.19674737  0.79337834  0.19534774  1
  Pd  Pd158  1  0.41054288  0.59434720  0.40099436  1
  Pd  Pd159  1  0.79261153  0.19103087  0.59623605  1
  Pd  Pd160  1  0.00492992  0.59503311  0.81030715  1
  Pd  Pd161  1  -0.00919861  0.20244427  0.40802485  1
  Pd  Pd162  1  0.60473543  0.20749549  0.40769308  1
  Pd  Pd163  1  -0.00204223  0.60310241  0.19653175  1
  Pd  Pd164  1  0.80728365  0.60254282  0.59038200  1
  Pd  Pd165  1  0.79029355  0.79258208  0.41104150  1
  Pd  Pd166  1  0.59938334  0.39468697  0.59790056  1
  Pd  Pd167  1  0.40391375  0.60515290  0.00603670  1
  Pd  Pd168  1  0.80188137  0.60234317  0.81274436  1
  Pd  Pd169  1  0.19996904  0.20252627  0.19699988  1
  Pd  Pd170  1  0.59369180  0.59124711  0.19162916  1
  Pd  Pd171  1  0.00338367  0.00272037  0.20042653  1
  Pd  Pd172  1  0.19553615  0.79174619  0.59302737  1
  Pd  Pd173  1  0.00384458  0.40159351  0.58798306  1
  Pd  Pd174  1  0.00900365  0.40516600  0.80747032  1
  Pd  Pd175  1  0.19441833  0.59758987  0.38989293  1
  Pd  Pd176  1  -0.00599235  0.59588415  -0.00094220  1
  Pd  Pd177  1  0.60450743  0.58959222  0.00695546  1
  Pd  Pd178  1  0.59644226  0.79602714  -0.00033552  1
  Pd  Pd179  1  -0.00180844  0.20586780  0.19017664  1
  Pd  Pd180  1  0.19561608  0.80297764  0.40091937  1
  Pd  Pd181  1  0.80088586  0.20857314  0.19711565  1
  Pd  Pd182  1  0.39442180  0.60168135  0.80075624  1
  Pd  Pd183  1  0.80507457  0.00656527  0.39375618  1
  Pd  Pd184  1  -0.01364703  0.80335750  0.60232614  1
  Pd  Pd185  1  0.59764986  0.20123120  0.01328772  1
  Pd  Pd186  1  0.60532730  0.40643651  -0.00415757  1
  Pd  Pd187  1  0.40864715  0.80626452  0.39888387  1
  Pd  Pd188  1  0.00610844  0.20077098  0.59285975  1
  Pd  Pd189  1  0.39558680  0.80594442  0.19456575  1
  Pd  Pd190  1  0.19595134  -0.00163478  -0.00214904  1
  Pd  Pd191  1  0.40361293  0.79957638  0.60077816  1
  Pd  Pd192  1  0.40211849  0.19699335  0.40038556  1
  Pd  Pd193  1  0.60637240  0.59111763  0.79618949  1
  Pd  Pd194  1  0.20149976  0.80254678  0.01162112  1
  Pd  Pd195  1  0.19420938  0.40408718  0.38869184  1
  Pd  Pd196  1  0.19514315  0.39347957  0.60136667  1
  Pd  Pd197  1  0.00648049  0.00656536  0.80724049  1
  Pd  Pd198  1  0.40275847  0.19275207  0.58929109  1
  Pd  Pd199  1  0.39477896  -0.00472704  0.40311747  1
  Rh  Rh200  1  0.59660887  -0.00279601  0.79676018  1
  Rh  Rh201  1  0.39761702  0.39272507  -0.00196826  1
  Rh  Rh202  1  0.00074574  0.79846704  0.00622196  1
  Rh  Rh203  1  0.79459281  -0.00016760  0.00574587  1
  Rh  Rh204  1  0.80525074  0.40945044  0.60281566  1
  Rh  Rh205  1  0.59586036  0.59579282  0.60658989  1
  Rh  Rh206  1  0.79621146  -0.00662972  0.19688142  1
  Rh  Rh207  1  0.40097967  0.59739611  0.18999855  1
  Rh  Rh208  1  0.60089160  0.40440445  0.20295703  1
  Rh  Rh209  1  -0.00018694  0.79415789  0.19332719  1
  Rh  Rh210  1  0.40431420  0.20134546  0.19773028  1
  Rh  Rh211  1  -0.00359402  0.59683386  0.59494003  1
  Rh  Rh212  1  0.60622903  -0.00567704  0.20458816  1
  Rh  Rh213  1  0.59418797  0.20310837  0.19758023  1
  Rh  Rh214  1  0.19320083  0.00457814  0.20754683  1
  Rh  Rh215  1  0.60827721  0.80177346  0.59116349  1
  Rh  Rh216  1  0.60109134  0.80514914  0.20710526  1
  Rh  Rh217  1  -0.00546520  0.59129507  0.39429560  1
  Rh  Rh218  1  0.19942152  0.20684275  0.01486607  1
  Rh  Rh219  1  0.80165977  0.40629022  0.01042359  1
  Rh  Rh220  1  0.60355335  0.79653804  0.80504432  1
  Rh  Rh221  1  0.79813436  0.80499921  0.19727387  1
  Rh  Rh222  1  0.60222214  0.00283730  0.00577543  1
  Rh  Rh223  1  -0.00790060  0.19439778  0.80240487  1
  Rh  Rh224  1  0.19950120  0.39896765  -0.00094737  1
  Rh  Rh225  1  0.00270566  0.81036793  0.39967644  1
  Rh  Rh226  1  0.80388111  0.00246277  0.80049490  1
  Rh  Rh227  1  0.80508476  0.59277911  0.19866226  1
  Rh  Rh228  1  0.20298114  0.60622806  0.19939668  1
  Rh  Rh229  1  0.00682581  0.39924624  0.00000701  1
  Rh  Rh230  1  0.79808109  0.20106861  0.00125827  1
  Rh  Rh231  1  0.79876771  0.40223454  0.39260872  1
  Rh  Rh232  1  0.39327297  0.40339589  0.20592436  1
  Rh  Rh233  1  0.19409553  0.60727148  0.60223795  1
  Rh  Rh234  1  0.61566853  0.20991337  0.79100407  1
  Rh  Rh235  1  0.59942810  -0.00889096  0.39138888  1
  Rh  Rh236  1  0.19789828  0.60044080  0.00110215  1
  Rh  Rh237  1  0.39378620  -0.00084650  0.19637116  1
  Rh  Rh238  1  -0.00356059  0.39064435  0.20184928  1
  Rh  Rh239  1  0.21085279  0.00984478  0.59624014  1
  Rh  Rh240  1  0.79390584  0.39497606  0.79996591  1
  Rh  Rh241  1  0.19983678  0.79607693  0.79578790  1
  Rh  Rh242  1  0.00358344  0.00254089  0.00160292  1
  Rh  Rh243  1  0.18713116  0.19397402  0.79117804  1
  Rh  Rh244  1  -0.00736426  0.00208150  0.58825207  1
  Rh  Rh245  1  0.79860456  0.79239193  -0.00417596  1
  Rh  Rh246  1  0.80208779  -0.00592136  0.60104634  1
  Rh  Rh247  1  0.21062765  0.19617568  0.40421534  1
  Rh  Rh248  1  0.40067288  0.39987844  0.59895545  1
  Rh  Rh249  1  -0.00987158  0.80154610  0.79675441  1
