# generated using pymatgen
data_ZrScNbPdRh
_symmetry_space_group_name_H-M   'P 1'
_cell_length_a   16.56362726
_cell_length_b   16.56167980
_cell_length_c   16.55673206
_cell_angle_alpha   89.98433287
_cell_angle_beta   89.98822518
_cell_angle_gamma   89.97899525
_symmetry_Int_Tables_number   1
_chemical_formula_structural   ZrScNbPdRh
_chemical_formula_sum   'Zr50 Sc50 Nb50 Pd50 Rh50'
_cell_volume   4541.86685318
_cell_formula_units_Z   50
loop_
 _symmetry_equiv_pos_site_id
 _symmetry_equiv_pos_as_xyz
  1  'x, y, z'
loop_
 _atom_site_type_symbol
 _atom_site_label
 _atom_site_symmetry_multiplicity
 _atom_site_fract_x
 _atom_site_fract_y
 _atom_site_fract_z
 _atom_site_occupancy
  Zr  Zr0  1  0.09875572  0.30299711  0.29342596  1
  Zr  Zr1  1  0.30497694  0.29844618  0.89884132  1
  Zr  Zr2  1  0.30181637  0.09679107  0.50322936  1
  Zr  Zr3  1  0.08561107  0.90307190  0.50625841  1
  Zr  Zr4  1  0.50065417  0.10092061  0.70160339  1
  Zr  Zr5  1  0.29621576  0.10228179  0.70097011  1
  Zr  Zr6  1  0.30642726  0.90357485  0.09280798  1
  Zr  Zr7  1  0.90379281  0.49719115  0.70149670  1
  Zr  Zr8  1  0.08559382  0.49742658  0.30414689  1
  Zr  Zr9  1  0.50501933  0.30108530  0.71083739  1
  Zr  Zr10  1  0.70230980  0.50457656  0.09020070  1
  Zr  Zr11  1  0.30670835  0.89439186  0.29891500  1
  Zr  Zr12  1  0.69609259  0.49752787  0.49848039  1
  Zr  Zr13  1  0.69918180  0.89263180  0.89789101  1
  Zr  Zr14  1  0.89883760  0.31559655  0.29921629  1
  Zr  Zr15  1  0.10340572  0.10512362  0.50162555  1
  Zr  Zr16  1  0.70235559  0.10359624  0.09583640  1
  Zr  Zr17  1  0.69892554  0.10448357  0.70745057  1
  Zr  Zr18  1  0.90026911  0.08651516  0.50849493  1
  Zr  Zr19  1  0.09580057  0.10010168  0.90064449  1
  Zr  Zr20  1  0.09177494  0.10508923  0.09844316  1
  Zr  Zr21  1  0.69714284  0.49132155  0.69921600  1
  Zr  Zr22  1  0.29500208  0.10204068  0.89758184  1
  Zr  Zr23  1  0.89610232  0.09988813  0.70974885  1
  Zr  Zr24  1  0.09269737  0.69359201  0.70734830  1
  Zr  Zr25  1  0.89667293  0.91185372  0.90258671  1
  Zr  Zr26  1  0.91134575  0.70221270  0.90303649  1
  Zr  Zr27  1  0.70051937  0.10272483  0.50477560  1
  Zr  Zr28  1  0.10815429  0.30303500  0.70271934  1
  Zr  Zr29  1  0.30956394  0.49483406  0.09867091  1
  Zr  Zr30  1  0.90148279  0.10281144  0.90782618  1
  Zr  Zr31  1  0.09281654  0.49667044  0.10488094  1
  Zr  Zr32  1  0.29891541  0.90157597  0.70324178  1
  Zr  Zr33  1  0.89679608  0.70664678  0.10192180  1
  Zr  Zr34  1  0.90467252  0.90210523  0.68767447  1
  Zr  Zr35  1  0.10211596  0.89608207  0.90300043  1
  Zr  Zr36  1  0.50098930  0.91559429  0.29979070  1
  Zr  Zr37  1  0.49794546  0.09725141  0.48829063  1
  Zr  Zr38  1  0.69613927  0.69601922  0.69553861  1
  Zr  Zr39  1  0.69704954  0.30032152  0.69752398  1
  Zr  Zr40  1  0.69829595  0.30769135  0.30072211  1
  Zr  Zr41  1  0.51331101  0.70159810  0.88986089  1
  Zr  Zr42  1  0.31101901  0.69377715  0.50020634  1
  Zr  Zr43  1  0.90390453  0.29868093  0.09295074  1
  Zr  Zr44  1  0.71039558  0.89167723  0.09643337  1
  Zr  Zr45  1  0.70765759  0.30571336  0.50661181  1
  Zr  Zr46  1  0.50271891  0.89519579  0.89854726  1
  Zr  Zr47  1  0.70068023  0.69653324  0.50391204  1
  Zr  Zr48  1  0.08999709  0.70546339  0.09696822  1
  Zr  Zr49  1  0.90121861  0.09443160  0.29074554  1
  Sc  Sc50  1  0.09937175  0.50352284  0.50557422  1
  Sc  Sc51  1  0.71201141  0.90079703  0.50230953  1
  Sc  Sc52  1  0.88595908  0.29929927  0.70668342  1
  Sc  Sc53  1  0.90296367  0.48497280  0.90820430  1
  Sc  Sc54  1  0.70509512  0.70061339  0.08766771  1
  Sc  Sc55  1  0.30444931  0.70244520  0.09427694  1
  Sc  Sc56  1  0.10449659  0.50175394  0.70009596  1
  Sc  Sc57  1  0.49951222  0.10458013  0.89340554  1
  Sc  Sc58  1  0.30078624  0.10830166  0.09167173  1
  Sc  Sc59  1  0.29509331  0.69826674  0.69456353  1
  Sc  Sc60  1  0.50087439  0.70105267  0.08540981  1
  Sc  Sc61  1  0.10464433  0.09958665  0.70757951  1
  Sc  Sc62  1  0.70568333  0.90331942  0.30133509  1
  Sc  Sc63  1  0.68490884  0.09854432  0.29959846  1
  Sc  Sc64  1  0.49215871  0.48548941  0.30700616  1
  Sc  Sc65  1  0.09719953  0.29546474  0.89695021  1
  Sc  Sc66  1  0.49625500  0.30106773  0.89996705  1
  Sc  Sc67  1  0.31514583  0.10110479  0.30335019  1
  Sc  Sc68  1  0.49263195  0.29850545  0.09668510  1
  Sc  Sc69  1  0.30217353  0.30080294  0.29196065  1
  Sc  Sc70  1  0.70029326  0.90067621  0.70164639  1
  Sc  Sc71  1  0.30199427  0.90213247  0.89751551  1
  Sc  Sc72  1  0.49839214  0.89780039  0.70662986  1
  Sc  Sc73  1  0.50226329  0.10692721  0.11038951  1
  Sc  Sc74  1  0.89386245  0.69707085  0.50849818  1
  Sc  Sc75  1  0.49697143  0.29267512  0.29528413  1
  Sc  Sc76  1  0.49385897  0.90385569  0.50404828  1
  Sc  Sc77  1  0.50625533  0.50159238  0.70007701  1
  Sc  Sc78  1  0.09766760  0.70150910  0.50350466  1
  Sc  Sc79  1  0.28755391  0.50410098  0.70056042  1
  Sc  Sc80  1  0.29689754  0.89785462  0.50876267  1
  Sc  Sc81  1  0.09951841  0.49318767  0.88976049  1
  Sc  Sc82  1  0.69545546  0.30248092  0.90006619  1
  Sc  Sc83  1  0.89916513  0.50259372  0.49001152  1
  Sc  Sc84  1  0.50408781  0.49983521  0.90456928  1
  Sc  Sc85  1  0.71274755  0.70430948  0.29878234  1
  Sc  Sc86  1  0.71630262  0.49913886  0.29978525  1
  Sc  Sc87  1  0.28340551  0.29716651  0.49843792  1
  Sc  Sc88  1  0.51157301  0.30867593  0.49315921  1
  Sc  Sc89  1  0.69304466  0.29765065  0.09636865  1
  Sc  Sc90  1  0.08696730  0.88729150  0.30791552  1
  Sc  Sc91  1  0.30306276  0.49070145  0.30315470  1
  Sc  Sc92  1  0.90443887  0.69720393  0.30151896  1
  Sc  Sc93  1  0.49382308  0.50278014  0.50129446  1
  Sc  Sc94  1  0.48437288  0.70961198  0.30492907  1
  Sc  Sc95  1  0.29929532  0.70480475  0.89421972  1
  Sc  Sc96  1  0.30047308  0.49858350  0.89625235  1
  Sc  Sc97  1  0.09657685  0.10639802  0.29209915  1
  Sc  Sc98  1  0.10259973  0.30502177  0.49373912  1
  Sc  Sc99  1  0.50291316  0.70107084  0.69011121  1
  Nb  Nb100  1  0.29721632  0.50451494  0.50995275  1
  Nb  Nb101  1  0.70274469  0.08618120  0.89926502  1
  Nb  Nb102  1  0.69539957  0.51204781  0.89878310  1
  Nb  Nb103  1  0.10330020  0.89562941  0.69878288  1
  Nb  Nb104  1  0.89589920  0.89553917  0.29959125  1
  Nb  Nb105  1  0.90029243  0.90472832  0.49651956  1
  Nb  Nb106  1  0.29963997  0.30115620  0.70128897  1
  Nb  Nb107  1  0.11047690  0.29217445  0.10396538  1
  Nb  Nb108  1  0.90834556  0.29599455  0.89534989  1
  Nb  Nb109  1  0.70469347  0.69876441  0.89891926  1
  Nb  Nb110  1  0.89620443  0.49565039  0.11399287  1
  Nb  Nb111  1  0.50438310  0.69552634  0.49959569  1
  Nb  Nb112  1  0.89960734  0.49714049  0.29173964  1
  Nb  Nb113  1  0.10136884  0.69513816  0.90319481  1
  Nb  Nb114  1  0.29563995  0.70087484  0.29975682  1
  Nb  Nb115  1  0.10458683  0.69955436  0.29835643  1
  Nb  Nb116  1  0.89791412  0.29675655  0.50303757  1
  Nb  Nb117  1  0.90231804  0.90763617  0.10909367  1
  Nb  Nb118  1  0.30095969  0.29818852  0.09647451  1
  Nb  Nb119  1  0.89741432  0.69593532  0.70337287  1
  Nb  Nb120  1  0.90209809  0.09755409  0.09834382  1
  Nb  Nb121  1  0.10282439  0.89973441  0.10287186  1
  Nb  Nb122  1  0.50119476  0.09985946  0.30318024  1
  Nb  Nb123  1  0.50044488  0.50423861  0.10090007  1
  Nb  Nb124  1  0.50430747  0.89938247  0.09820249  1
  Nb  Nb125  1  0.40121171  0.59951828  0.20130441  1
  Nb  Nb126  1  0.59779080  0.41083286  0.19459145  1
  Nb  Nb127  1  -0.00366734  0.39298906  0.59927610  1
  Nb  Nb128  1  0.19947629  -0.00802784  0.20117279  1
  Nb  Nb129  1  0.59951581  0.00595856  0.60081176  1
  Nb  Nb130  1  0.20092925  0.39591382  0.00653169  1
  Nb  Nb131  1  0.39116222  0.39580583  0.60331678  1
  Nb  Nb132  1  0.39900583  0.20810774  0.60149700  1
  Nb  Nb133  1  0.80260329  0.19982144  0.20072123  1
  Nb  Nb134  1  0.19358158  0.59778280  0.00204692  1
  Nb  Nb135  1  -0.00857696  0.20288171  0.40263017  1
  Nb  Nb136  1  0.80508360  0.19968590  0.39776489  1
  Nb  Nb137  1  0.80599593  0.79120195  0.79738186  1
  Nb  Nb138  1  -0.00204566  0.20411565  0.60013936  1
  Nb  Nb139  1  0.59784567  0.79723844  0.39994735  1
  Nb  Nb140  1  0.20284780  0.60413967  0.39434480  1
  Nb  Nb141  1  0.59639272  0.60607427  0.39313290  1
  Nb  Nb142  1  0.19805923  -0.00380038  0.39482592  1
  Nb  Nb143  1  0.79934768  0.60085608  0.80475267  1
  Nb  Nb144  1  0.20146822  0.60457024  0.20160200  1
  Nb  Nb145  1  0.19891685  0.79956361  0.19988999  1
  Nb  Nb146  1  0.59665047  0.79844506  0.20156478  1
  Nb  Nb147  1  0.40317407  0.60301675  0.79692457  1
  Nb  Nb148  1  0.59339960  0.60188767  0.20451028  1
  Nb  Nb149  1  0.60167502  -0.00210204  -0.00014466  1
  Pd  Pd150  1  0.39851693  0.21223402  0.40725565  1
  Pd  Pd151  1  0.58998458  0.19979162  0.59548301  1
  Pd  Pd152  1  0.39945306  0.59452150  0.39364843  1
  Pd  Pd153  1  0.00892853  -0.00878327  0.20418562  1
  Pd  Pd154  1  0.39995145  0.00049962  0.80266775  1
  Pd  Pd155  1  0.59568899  0.40147994  0.00096392  1
  Pd  Pd156  1  0.79933175  0.20347350  -0.00289509  1
  Pd  Pd157  1  0.79574749  0.00609956  0.39509873  1
  Pd  Pd158  1  0.00104502  0.60539320  0.40385875  1
  Pd  Pd159  1  0.19905796  0.80191334  0.40246990  1
  Pd  Pd160  1  0.19653496  0.79401602  0.60001594  1
  Pd  Pd161  1  0.81419833  0.59550917  -0.00573918  1
  Pd  Pd162  1  -0.00153177  0.58861506  -0.00119045  1
  Pd  Pd163  1  0.19415931  -0.00197294  0.59818086  1
  Pd  Pd164  1  0.79413005  0.20284650  0.81378016  1
  Pd  Pd165  1  0.00549936  0.00563834  0.39156140  1
  Pd  Pd166  1  0.40347576  0.79517016  0.19152056  1
  Pd  Pd167  1  0.39915067  0.41217733  0.79346403  1
  Pd  Pd168  1  0.60610268  0.20469926  0.39861029  1
  Pd  Pd169  1  -0.00231596  0.80697874  0.79878716  1
  Pd  Pd170  1  -0.01022505  0.79074317  0.40640096  1
  Pd  Pd171  1  0.79730735  0.39651517  -0.00299425  1
  Pd  Pd172  1  0.19855422  0.19236272  0.38753561  1
  Pd  Pd173  1  -0.00448229  0.59113797  0.80611375  1
  Pd  Pd174  1  0.39026976  0.39087982  0.41339799  1
  Pd  Pd175  1  0.39536413  0.00905159  0.19180055  1
  Pd  Pd176  1  0.20000606  0.41035016  0.40127344  1
  Pd  Pd177  1  0.19933299  0.79707501  0.79843678  1
  Pd  Pd178  1  0.01014018  0.39265371  0.00301523  1
  Pd  Pd179  1  0.00646486  -0.00485511  0.79592717  1
  Pd  Pd180  1  0.80210717  0.79832027  0.40311824  1
  Pd  Pd181  1  0.21185296  0.18830324  0.20445630  1
  Pd  Pd182  1  0.59937120  0.81238006  0.59331974  1
  Pd  Pd183  1  -0.00072805  0.60474576  0.20152587  1
  Pd  Pd184  1  0.40163457  0.79686509  -0.00777862  1
  Pd  Pd185  1  0.19602315  0.00345707  0.00433666  1
  Pd  Pd186  1  0.79542499  0.40419912  0.81055866  1
  Pd  Pd187  1  0.40351956  0.80719076  0.40868327  1
  Pd  Pd188  1  0.79252376  0.00447559  0.20008191  1
  Pd  Pd189  1  0.40249979  0.79955719  0.60299549  1
  Pd  Pd190  1  0.80164958  0.59064265  0.60432123  1
  Pd  Pd191  1  0.60662227  -0.00592445  0.19099183  1
  Pd  Pd192  1  -0.00443765  0.79184609  0.59942925  1
  Pd  Pd193  1  0.20286229  0.79385941  0.00188000  1
  Pd  Pd194  1  0.41284151  0.01005547  -0.00012810  1
  Pd  Pd195  1  0.59462688  0.19222000  -0.00622211  1
  Pd  Pd196  1  -0.00562345  0.81256566  0.00376238  1
  Pd  Pd197  1  0.39656980  0.60244513  -0.00880202  1
  Pd  Pd198  1  0.20311329  0.40647571  0.19759564  1
  Pd  Pd199  1  0.79554093  0.60473985  0.19843645  1
  Rh  Rh200  1  0.79196067  -0.00180521  0.60747518  1
  Rh  Rh201  1  0.20002599  0.20232073  0.80482182  1
  Rh  Rh202  1  0.80566896  0.80265496  0.60332734  1
  Rh  Rh203  1  0.60065094  0.59960114  0.79675736  1
  Rh  Rh204  1  0.39901508  0.39712382  -0.00007778  1
  Rh  Rh205  1  0.00245931  0.20492525  -0.00045017  1
  Rh  Rh206  1  -0.00274144  0.80357562  0.20233726  1
  Rh  Rh207  1  0.80725330  0.19421678  0.59813508  1
  Rh  Rh208  1  0.40691412  0.39904091  0.19457386  1
  Rh  Rh209  1  0.80436144  0.40103076  0.40632978  1
  Rh  Rh210  1  0.58963951  0.40111238  0.60056334  1
  Rh  Rh211  1  0.80069720  -0.00742202  0.79492486  1
  Rh  Rh212  1  0.60340970  -0.00956066  0.40996499  1
  Rh  Rh213  1  0.40677953  0.00749997  0.60217909  1
  Rh  Rh214  1  0.80211707  0.79984621  0.20232898  1
  Rh  Rh215  1  0.19727763  0.20564270  -0.00477129  1
  Rh  Rh216  1  0.60270758  0.20864313  0.20347050  1
  Rh  Rh217  1  0.60604879  0.20022138  0.80930683  1
  Rh  Rh218  1  0.80761197  0.40647423  0.59637583  1
  Rh  Rh219  1  0.20439422  0.60520819  0.80812077  1
  Rh  Rh220  1  0.19595360  -0.00793926  0.80230439  1
  Rh  Rh221  1  0.20272565  0.39703164  0.80838824  1
  Rh  Rh222  1  0.60219688  0.40253830  0.80809015  1
  Rh  Rh223  1  -0.00071865  0.59377102  0.60196358  1
  Rh  Rh224  1  0.40252212  0.19756375  -0.00164194  1
  Rh  Rh225  1  0.19795491  0.40147436  0.59965356  1
  Rh  Rh226  1  -0.00002757  0.39277397  0.19201024  1
  Rh  Rh227  1  0.60074127  0.80182074  0.00537746  1
  Rh  Rh228  1  0.79873844  0.59940108  0.39608914  1
  Rh  Rh229  1  0.40182404  0.59093659  0.60919252  1
  Rh  Rh230  1  -0.00999050  0.20892798  0.20121931  1
  Rh  Rh231  1  0.60822625  0.79736193  0.79262217  1
  Rh  Rh232  1  0.81132546  0.80333220  -0.00692859  1
  Rh  Rh233  1  0.00282347  -0.00376813  0.00580349  1
  Rh  Rh234  1  0.39702660  0.19925409  0.79527862  1
  Rh  Rh235  1  0.19911390  0.20237623  0.60409544  1
  Rh  Rh236  1  0.19565330  0.60637274  0.59248816  1
  Rh  Rh237  1  0.60001782  -0.00034209  0.80080779  1
  Rh  Rh238  1  -0.00292017  0.39842677  0.40782503  1
  Rh  Rh239  1  0.39045711  -0.00544014  0.40314915  1
  Rh  Rh240  1  0.60469747  0.41073049  0.39155923  1
  Rh  Rh241  1  0.59692886  0.59334071  0.59226548  1
  Rh  Rh242  1  -0.00145583  0.39225087  0.79149460  1
  Rh  Rh243  1  0.60035788  0.60486594  0.00250755  1
  Rh  Rh244  1  0.39788355  0.79129741  0.79311029  1
  Rh  Rh245  1  0.39959404  0.19879545  0.19906126  1
  Rh  Rh246  1  -0.00208612  0.20393269  0.79299258  1
  Rh  Rh247  1  0.79150591  0.39393070  0.18609062  1
  Rh  Rh248  1  0.79776370  -0.00020954  0.00578279  1
  Rh  Rh249  1  0.00886611  0.00887206  0.61085416  1
