# generated using pymatgen
data_ZrScNbPdRh
_symmetry_space_group_name_H-M   'P 1'
_cell_length_a   16.55425618
_cell_length_b   16.55139436
_cell_length_c   16.55443323
_cell_angle_alpha   90.00587396
_cell_angle_beta   89.98693940
_cell_angle_gamma   89.98572301
_symmetry_Int_Tables_number   1
_chemical_formula_structural   ZrScNbPdRh
_chemical_formula_sum   'Zr50 Sc50 Nb50 Pd50 Rh50'
_cell_volume   4535.84857226
_cell_formula_units_Z   50
loop_
 _symmetry_equiv_pos_site_id
 _symmetry_equiv_pos_as_xyz
  1  'x, y, z'
loop_
 _atom_site_type_symbol
 _atom_site_label
 _atom_site_symmetry_multiplicity
 _atom_site_fract_x
 _atom_site_fract_y
 _atom_site_fract_z
 _atom_site_occupancy
  Zr  Zr0  1  0.50229139  0.50351580  0.09878018  1
  Zr  Zr1  1  0.49571259  0.09835412  0.30438875  1
  Zr  Zr2  1  0.30177577  0.09531043  0.50046824  1
  Zr  Zr3  1  0.49977920  0.70756988  0.30455770  1
  Zr  Zr4  1  0.09721114  0.49594211  0.50368768  1
  Zr  Zr5  1  0.89823648  0.69355079  0.70146487  1
  Zr  Zr6  1  0.30061251  0.30524310  0.69676535  1
  Zr  Zr7  1  0.69906549  0.51044795  0.90391536  1
  Zr  Zr8  1  0.70346667  0.09958861  0.50997667  1
  Zr  Zr9  1  0.88344268  0.49965931  0.29400262  1
  Zr  Zr10  1  0.08718521  0.09884864  0.70113701  1
  Zr  Zr11  1  0.30057061  0.70112518  0.50531354  1
  Zr  Zr12  1  0.08658443  0.29989497  0.50010588  1
  Zr  Zr13  1  0.70184638  0.50489380  0.49092579  1
  Zr  Zr14  1  0.70285080  0.29498644  0.88965797  1
  Zr  Zr15  1  0.29843728  0.29704911  0.10029024  1
  Zr  Zr16  1  0.90287802  0.49805777  0.70228139  1
  Zr  Zr17  1  0.49667312  0.29802753  0.69638119  1
  Zr  Zr18  1  0.10556906  0.49449529  0.89681852  1
  Zr  Zr19  1  0.70202723  0.70170921  0.70295349  1
  Zr  Zr20  1  0.91762480  0.09817321  0.89437799  1
  Zr  Zr21  1  0.70802137  0.50916517  0.70059946  1
  Zr  Zr22  1  0.10410271  0.70250127  0.49943774  1
  Zr  Zr23  1  0.28859787  0.31217847  0.90511612  1
  Zr  Zr24  1  0.10511395  0.69656193  0.29441241  1
  Zr  Zr25  1  0.70370971  0.89709310  0.30158932  1
  Zr  Zr26  1  0.49982872  0.10233671  0.50175368  1
  Zr  Zr27  1  0.49920729  0.10313445  0.09994682  1
  Zr  Zr28  1  0.08836145  0.09752870  0.51040297  1
  Zr  Zr29  1  0.50201288  0.89154362  0.10379238  1
  Zr  Zr30  1  0.08656405  0.29481416  0.90308154  1
  Zr  Zr31  1  0.69713952  0.70661391  0.30933230  1
  Zr  Zr32  1  0.71207364  0.09662501  0.29583786  1
  Zr  Zr33  1  0.30204693  0.10097103  0.89560785  1
  Zr  Zr34  1  0.50269476  0.29312026  0.90010377  1
  Zr  Zr35  1  0.29014629  0.89754875  0.50975630  1
  Zr  Zr36  1  0.50591545  0.70008171  0.69608816  1
  Zr  Zr37  1  0.30713134  0.50160445  0.30431776  1
  Zr  Zr38  1  0.50152947  0.29702588  0.50058580  1
  Zr  Zr39  1  0.10545824  0.89688282  0.10145508  1
  Zr  Zr40  1  0.49872194  0.50551419  0.50333076  1
  Zr  Zr41  1  0.71029536  0.89987278  0.89575059  1
  Zr  Zr42  1  0.90211715  0.90445407  0.08591185  1
  Zr  Zr43  1  0.50913610  0.09472338  0.69970619  1
  Zr  Zr44  1  0.50409638  0.29853247  0.30183094  1
  Zr  Zr45  1  0.70288046  0.89756493  0.49744968  1
  Zr  Zr46  1  0.69517699  0.90788522  0.69769456  1
  Zr  Zr47  1  0.28961050  0.69936591  0.08908269  1
  Zr  Zr48  1  0.70971320  0.49774559  0.10693196  1
  Zr  Zr49  1  0.09816060  0.30435894  0.30308755  1
  Sc  Sc50  1  0.90112489  0.69580221  0.29793552  1
  Sc  Sc51  1  0.09471616  0.50355046  0.69774924  1
  Sc  Sc52  1  0.89700991  0.29450106  0.30565108  1
  Sc  Sc53  1  0.10781898  0.50628824  0.10440270  1
  Sc  Sc54  1  0.50586922  0.50744785  0.30728917  1
  Sc  Sc55  1  0.30295779  0.88236562  0.88875303  1
  Sc  Sc56  1  0.50007978  0.50781581  0.69522212  1
  Sc  Sc57  1  0.50005649  0.89689621  0.70047290  1
  Sc  Sc58  1  0.30441652  0.09679435  0.69143002  1
  Sc  Sc59  1  0.30000277  0.70026504  0.30692783  1
  Sc  Sc60  1  0.49567746  0.51209705  0.90353889  1
  Sc  Sc61  1  0.10863503  0.49893356  0.30149976  1
  Sc  Sc62  1  0.89744651  0.69123334  0.09823656  1
  Sc  Sc63  1  0.49587777  0.89462291  0.50467561  1
  Sc  Sc64  1  0.08435010  0.89982067  0.90035645  1
  Sc  Sc65  1  0.30253871  0.29868840  0.51147392  1
  Sc  Sc66  1  0.89977493  0.10035054  0.30397612  1
  Sc  Sc67  1  0.09870629  0.89335355  0.69434726  1
  Sc  Sc68  1  0.29673756  0.89547750  0.10672291  1
  Sc  Sc69  1  0.30316824  0.50184805  0.08479627  1
  Sc  Sc70  1  0.69957303  0.70328643  0.50540064  1
  Sc  Sc71  1  0.09641010  0.69771923  0.69785556  1
  Sc  Sc72  1  0.69816282  0.69919552  0.08593019  1
  Sc  Sc73  1  0.49832597  0.70261846  0.09626567  1
  Sc  Sc74  1  0.70758577  0.31246675  0.29884113  1
  Sc  Sc75  1  0.10358293  0.89897518  0.30242708  1
  Sc  Sc76  1  0.49878045  0.89513516  0.89340151  1
  Sc  Sc77  1  0.90404244  0.29515019  0.10155188  1
  Sc  Sc78  1  0.09012436  0.30390898  0.69329610  1
  Sc  Sc79  1  0.50135529  0.69949161  0.89899591  1
  Sc  Sc80  1  0.89918580  0.90925662  0.30766766  1
  Sc  Sc81  1  0.70611415  0.90008632  0.09480905  1
  Sc  Sc82  1  0.30000789  0.09594059  0.29118830  1
  Sc  Sc83  1  0.50350520  0.10214949  0.88766524  1
  Sc  Sc84  1  0.10333893  0.30035284  0.09660679  1
  Sc  Sc85  1  0.30038973  0.89785375  0.29912815  1
  Sc  Sc86  1  0.90020903  0.09885958  0.10697138  1
  Sc  Sc87  1  0.29366415  0.29730332  0.29780895  1
  Sc  Sc88  1  0.89994995  0.70951787  0.50291422  1
  Sc  Sc89  1  0.89899993  0.70252254  0.89546184  1
  Sc  Sc90  1  0.89600728  0.89612164  0.70959671  1
  Sc  Sc91  1  0.70882689  0.10049460  0.09913287  1
  Sc  Sc92  1  0.90096273  0.90365675  0.49644840  1
  Sc  Sc93  1  0.89691716  0.49593472  0.50211639  1
  Sc  Sc94  1  0.09090217  0.09502861  0.29716106  1
  Sc  Sc95  1  0.09366654  0.89330353  0.50350054  1
  Sc  Sc96  1  0.10700241  0.70131693  0.89713960  1
  Sc  Sc97  1  0.90549767  0.49767681  0.89380075  1
  Sc  Sc98  1  0.29888137  0.50138992  0.51232054  1
  Sc  Sc99  1  0.09711982  0.09999394  0.09920966  1
  Nb  Nb100  1  0.50982227  0.89503012  0.29660359  1
  Nb  Nb101  1  0.10046625  0.09867921  0.89501261  1
  Nb  Nb102  1  0.29276988  0.70396629  0.71236608  1
  Nb  Nb103  1  0.29300053  0.89251706  0.70045630  1
  Nb  Nb104  1  0.90138008  0.50409503  0.10187919  1
  Nb  Nb105  1  0.88964829  0.30424920  0.71339013  1
  Nb  Nb106  1  0.69969535  0.09804819  0.70569932  1
  Nb  Nb107  1  0.09927655  0.69929404  0.10175691  1
  Nb  Nb108  1  0.69985268  0.50482642  0.30100219  1
  Nb  Nb109  1  0.90023394  0.10267636  0.69393413  1
  Nb  Nb110  1  0.50196538  0.69619789  0.49992351  1
  Nb  Nb111  1  0.29759676  0.50876460  0.89379370  1
  Nb  Nb112  1  0.29745907  0.50913770  0.71070016  1
  Nb  Nb113  1  0.70296938  0.30230771  0.50278324  1
  Nb  Nb114  1  0.90035939  0.90237293  0.90033005  1
  Nb  Nb115  1  0.70072159  0.69376523  0.89555419  1
  Nb  Nb116  1  0.50388507  0.30028816  0.09829620  1
  Nb  Nb117  1  0.68964252  0.10259650  0.89556809  1
  Nb  Nb118  1  0.70704163  0.30400836  0.70143814  1
  Nb  Nb119  1  0.89647553  0.29566922  0.50356484  1
  Nb  Nb120  1  0.29839379  0.09601483  0.09694114  1
  Nb  Nb121  1  0.89980194  0.30055742  0.89908344  1
  Nb  Nb122  1  0.30012085  0.68667942  0.88820997  1
  Nb  Nb123  1  0.90432484  0.10806299  0.49983805  1
  Nb  Nb124  1  0.69935439  0.29734164  0.09557376  1
  Nb  Nb125  1  0.59913446  -0.00193429  0.39631928  1
  Nb  Nb126  1  0.60485639  0.39554598  -0.00095228  1
  Nb  Nb127  1  -0.00428205  0.40802169  0.19998762  1
  Nb  Nb128  1  0.61070368  0.39740135  0.60212815  1
  Nb  Nb129  1  0.60551389  0.60140668  0.20449396  1
  Nb  Nb130  1  0.19655359  0.00053971  0.80016574  1
  Nb  Nb131  1  0.59970060  0.40145431  0.79811349  1
  Nb  Nb132  1  0.19781477  0.00493919  0.40780404  1
  Nb  Nb133  1  0.40570051  0.39901755  0.20022301  1
  Nb  Nb134  1  0.19366163  0.19450669  0.40602210  1
  Nb  Nb135  1  0.20386832  0.00053744  -0.00745142  1
  Nb  Nb136  1  0.39720884  0.40763058  0.80093680  1
  Nb  Nb137  1  -0.00085006  0.79759387  0.19370037  1
  Nb  Nb138  1  0.59759502  0.00271517  -0.00056687  1
  Nb  Nb139  1  0.39815058  0.00148731  0.00026987  1
  Nb  Nb140  1  0.00387705  0.59898814  0.00372445  1
  Nb  Nb141  1  0.39806961  0.19846005  0.00249200  1
  Nb  Nb142  1  0.80141568  0.39562077  -0.00047722  1
  Nb  Nb143  1  0.59894735  -0.00014248  0.20052300  1
  Nb  Nb144  1  0.00261801  0.59710439  0.39742511  1
  Nb  Nb145  1  0.80569410  0.80191130  0.19773994  1
  Nb  Nb146  1  0.80121965  0.20238130  -0.00999858  1
  Nb  Nb147  1  0.19423990  0.19732796  0.79899960  1
  Nb  Nb148  1  0.40219108  0.39951129  0.39965956  1
  Nb  Nb149  1  0.60308213  0.20165655  0.19788442  1
  Pd  Pd150  1  0.39486300  0.79891400  -0.00483921  1
  Pd  Pd151  1  -0.00197273  0.40682669  0.00888720  1
  Pd  Pd152  1  0.79589399  0.20106593  0.40137887  1
  Pd  Pd153  1  0.19937059  0.59614629  0.40663195  1
  Pd  Pd154  1  0.61461316  0.19506156  0.39322900  1
  Pd  Pd155  1  0.19757642  0.40470606  0.60487541  1
  Pd  Pd156  1  -0.00141345  0.79492371  0.39051739  1
  Pd  Pd157  1  -0.00283239  0.78869751  0.00223357  1
  Pd  Pd158  1  0.00069498  0.79804481  0.79845563  1
  Pd  Pd159  1  0.19914265  0.19388658  -0.00415323  1
  Pd  Pd160  1  0.39449813  -0.00785097  0.79868112  1
  Pd  Pd161  1  0.38643483  0.20743547  0.39971537  1
  Pd  Pd162  1  0.39309447  0.60535246  0.60799156  1
  Pd  Pd163  1  0.20017772  0.80567992  -0.01025468  1
  Pd  Pd164  1  0.19206491  0.19228059  0.20594250  1
  Pd  Pd165  1  0.39892554  0.79680222  0.60669184  1
  Pd  Pd166  1  0.80237962  0.80553753  0.60437202  1
  Pd  Pd167  1  0.40647239  0.39831109  -0.00333518  1
  Pd  Pd168  1  0.40255692  0.20518767  0.19737785  1
  Pd  Pd169  1  0.80840344  -0.00197679  0.60046525  1
  Pd  Pd170  1  0.59944692  0.40137508  0.40598463  1
  Pd  Pd171  1  0.21236882  0.59720220  0.19843922  1
  Pd  Pd172  1  0.80458227  0.79195433  -0.00176347  1
  Pd  Pd173  1  0.39052913  0.20810040  0.80175712  1
  Pd  Pd174  1  0.60652298  0.20464848  0.60606082  1
  Pd  Pd175  1  0.80810362  0.60855106  0.40708342  1
  Pd  Pd176  1  -0.00455870  0.60303938  0.58994279  1
  Pd  Pd177  1  0.00202513  0.20771086  0.20147814  1
  Pd  Pd178  1  0.59768430  0.40244862  0.19776301  1
  Pd  Pd179  1  -0.00233810  -0.00854205  0.20036650  1
  Pd  Pd180  1  0.20431842  0.40626046  0.19341989  1
  Pd  Pd181  1  0.60333915  0.80116500  0.80335623  1
  Pd  Pd182  1  0.39836777  0.80525314  0.40286919  1
  Pd  Pd183  1  0.19539888  0.39555796  0.79161158  1
  Pd  Pd184  1  0.40198198  -0.00697249  0.19614323  1
  Pd  Pd185  1  0.78975988  0.61526944  0.19920840  1
  Pd  Pd186  1  0.60331281  0.80557373  -0.00842905  1
  Pd  Pd187  1  -0.01042136  -0.01218653  0.60557520  1
  Pd  Pd188  1  0.80456390  0.18609334  0.80229828  1
  Pd  Pd189  1  0.80035708  0.40263721  0.59579253  1
  Pd  Pd190  1  0.39140284  0.79215477  0.20030656  1
  Pd  Pd191  1  0.80232835  0.20074452  0.60556456  1
  Pd  Pd192  1  0.79836332  0.01358096  -0.00970952  1
  Pd  Pd193  1  0.19777056  0.19764476  0.60332486  1
  Pd  Pd194  1  0.40362938  -0.00535882  0.60598745  1
  Pd  Pd195  1  0.21036850  0.39193733  0.40950365  1
  Pd  Pd196  1  0.80415608  0.00799841  0.80181151  1
  Pd  Pd197  1  0.39900400  -0.01115034  0.39898802  1
  Pd  Pd198  1  0.40266272  0.60167031  0.19645503  1
  Pd  Pd199  1  -0.01149824  0.40779648  0.39136642  1
  Rh  Rh200  1  0.80852901  0.39036588  0.19244958  1
  Rh  Rh201  1  0.80327449  0.60270033  0.59583569  1
  Rh  Rh202  1  0.40670893  0.60053014  0.79631372  1
  Rh  Rh203  1  0.20255695  0.80875477  0.40017986  1
  Rh  Rh204  1  0.60121155  -0.00571442  0.80678750  1
  Rh  Rh205  1  -0.00561724  0.79929741  0.60414052  1
  Rh  Rh206  1  0.00112066  0.39660777  0.79623915  1
  Rh  Rh207  1  0.80659828  0.60041528  0.80540525  1
  Rh  Rh208  1  0.19938873  0.79661263  0.20386440  1
  Rh  Rh209  1  0.80225610  -0.01059879  0.19684136  1
  Rh  Rh210  1  0.40317565  0.79082739  0.79308595  1
  Rh  Rh211  1  0.18918036  0.60169978  0.79575950  1
  Rh  Rh212  1  0.79603457  0.41016497  0.80809775  1
  Rh  Rh213  1  0.40203174  0.19334792  0.60216584  1
  Rh  Rh214  1  0.81093160  0.59561959  -0.00840058  1
  Rh  Rh215  1  0.60300572  0.19584424  0.00505823  1
  Rh  Rh216  1  0.19708031  0.79163383  0.60553593  1
  Rh  Rh217  1  0.19280574  0.80430576  0.80009756  1
  Rh  Rh218  1  0.60068148  0.80024040  0.59867580  1
  Rh  Rh219  1  0.79923323  0.00853951  0.41095795  1
  Rh  Rh220  1  0.60419973  0.20452479  0.78482699  1
  Rh  Rh221  1  0.19436000  0.59947356  -0.00581214  1
  Rh  Rh222  1  0.00086490  -0.00818295  0.79344838  1
  Rh  Rh223  1  0.39695809  0.61004091  -0.00207158  1
  Rh  Rh224  1  0.39776957  0.59812835  0.40823873  1
  Rh  Rh225  1  0.20125733  0.60232617  0.60654197  1
  Rh  Rh226  1  0.60672378  0.59892010  0.59617339  1
  Rh  Rh227  1  0.40497804  0.40839018  0.60451852  1
  Rh  Rh228  1  0.61231046  0.79629072  0.19328722  1
  Rh  Rh229  1  0.80046982  0.39596011  0.40473215  1
  Rh  Rh230  1  0.59901347  0.60750175  0.39877954  1
  Rh  Rh231  1  0.19889787  0.00177719  0.20020708  1
  Rh  Rh232  1  0.59291099  0.80354673  0.41259551  1
  Rh  Rh233  1  0.19505126  0.40670128  0.00437457  1
  Rh  Rh234  1  0.79857369  0.79763518  0.80212813  1
  Rh  Rh235  1  0.00374867  0.59880293  0.20044083  1
  Rh  Rh236  1  0.59754520  -0.00371762  0.59254594  1
  Rh  Rh237  1  0.59843507  0.59942625  0.00577713  1
  Rh  Rh238  1  0.79706597  0.20543029  0.19463654  1
  Rh  Rh239  1  0.00442781  0.00432933  0.40412648  1
  Rh  Rh240  1  -0.00555526  0.19406737  0.00533771  1
  Rh  Rh241  1  -0.01319493  0.39459347  0.60372697  1
  Rh  Rh242  1  -0.01643741  0.21102981  0.60952348  1
  Rh  Rh243  1  0.00707701  0.00398308  0.00201538  1
  Rh  Rh244  1  0.19642855  -0.00227568  0.60339747  1
  Rh  Rh245  1  -0.00128737  0.20770567  0.79177517  1
  Rh  Rh246  1  0.00371222  0.60121698  0.80946204  1
  Rh  Rh247  1  0.00147855  0.19735502  0.40019296  1
  Rh  Rh248  1  0.59647781  0.59887120  0.79885655  1
  Rh  Rh249  1  0.80866973  0.79828166  0.39452482  1
