# generated using pymatgen
data_ZrScNbPdRh
_symmetry_space_group_name_H-M   'P 1'
_cell_length_a   16.55809434
_cell_length_b   16.55736491
_cell_length_c   16.56079706
_cell_angle_alpha   89.99744381
_cell_angle_beta   90.01315222
_cell_angle_gamma   89.96595842
_symmetry_Int_Tables_number   1
_chemical_formula_structural   ZrScNbPdRh
_chemical_formula_sum   'Zr50 Sc50 Nb50 Pd50 Rh50'
_cell_volume   4540.28086809
_cell_formula_units_Z   50
loop_
 _symmetry_equiv_pos_site_id
 _symmetry_equiv_pos_as_xyz
  1  'x, y, z'
loop_
 _atom_site_type_symbol
 _atom_site_label
 _atom_site_symmetry_multiplicity
 _atom_site_fract_x
 _atom_site_fract_y
 _atom_site_fract_z
 _atom_site_occupancy
  Zr  Zr0  1  0.90338794  0.70019014  0.89248053  1
  Zr  Zr1  1  0.69748633  0.50392220  0.50361155  1
  Zr  Zr2  1  0.30765820  0.29303904  0.09327510  1
  Zr  Zr3  1  0.29636161  0.30199679  0.89580838  1
  Zr  Zr4  1  0.50318220  0.69710170  0.70615166  1
  Zr  Zr5  1  0.89478096  0.50116479  0.90097518  1
  Zr  Zr6  1  0.89056420  0.10549875  0.50598270  1
  Zr  Zr7  1  0.90416746  0.50564780  0.49141557  1
  Zr  Zr8  1  0.89532882  0.50055822  0.70627015  1
  Zr  Zr9  1  0.90377508  0.89584464  0.31962792  1
  Zr  Zr10  1  0.49751102  0.89835721  0.30698232  1
  Zr  Zr11  1  0.89962030  0.90796658  0.08683015  1
  Zr  Zr12  1  0.28576051  0.09927217  0.30133718  1
  Zr  Zr13  1  0.29844772  0.50104816  0.70068453  1
  Zr  Zr14  1  0.29886047  0.10060924  0.10111389  1
  Zr  Zr15  1  0.29361623  0.90346832  0.09598425  1
  Zr  Zr16  1  0.10514897  0.08760042  0.10954878  1
  Zr  Zr17  1  0.49604105  0.49598791  0.50955153  1
  Zr  Zr18  1  0.49938490  0.29940431  0.50393326  1
  Zr  Zr19  1  0.30882730  0.49762213  0.89542121  1
  Zr  Zr20  1  0.29137822  0.50072672  0.31530022  1
  Zr  Zr21  1  0.49981599  0.89039691  0.90162591  1
  Zr  Zr22  1  0.10124030  0.30322970  0.09769379  1
  Zr  Zr23  1  0.30711986  0.88880526  0.29692337  1
  Zr  Zr24  1  0.29537333  0.71359153  0.10866052  1
  Zr  Zr25  1  0.50769877  0.10601443  0.70415101  1
  Zr  Zr26  1  0.90133631  0.30613039  0.29598466  1
  Zr  Zr27  1  0.10576718  0.09639218  0.50527424  1
  Zr  Zr28  1  0.89565524  0.70748542  0.70385206  1
  Zr  Zr29  1  0.10124655  0.91338133  0.69876625  1
  Zr  Zr30  1  0.70054359  0.29203245  0.50080043  1
  Zr  Zr31  1  0.89972191  0.69902444  0.08670071  1
  Zr  Zr32  1  0.69756539  0.10534154  0.50338935  1
  Zr  Zr33  1  0.09857867  0.89652328  0.09079324  1
  Zr  Zr34  1  0.10086309  0.29831842  0.90007817  1
  Zr  Zr35  1  0.10358882  0.28989580  0.70256309  1
  Zr  Zr36  1  0.49896057  0.29531627  0.29847015  1
  Zr  Zr37  1  0.49495671  0.50355347  0.30706604  1
  Zr  Zr38  1  0.30304420  0.69659792  0.69739722  1
  Zr  Zr39  1  0.08941777  0.89927052  0.49809921  1
  Zr  Zr40  1  0.70605444  0.89200203  0.50400873  1
  Zr  Zr41  1  0.89952138  0.09434488  0.30216016  1
  Zr  Zr42  1  0.49161013  0.70582353  0.30092688  1
  Zr  Zr43  1  0.29979783  0.50325165  0.50475403  1
  Zr  Zr44  1  0.10691248  0.49810318  0.89961409  1
  Zr  Zr45  1  0.71123671  0.09953566  0.70411340  1
  Zr  Zr46  1  0.10311830  0.49259688  0.69393253  1
  Zr  Zr47  1  0.29852106  0.10665412  0.50270655  1
  Zr  Zr48  1  0.70985271  0.29796759  0.89397078  1
  Zr  Zr49  1  0.70816169  0.08772286  0.09724387  1
  Sc  Sc50  1  0.89943643  0.30694153  0.09749690  1
  Sc  Sc51  1  0.90405125  0.49267259  0.10254154  1
  Sc  Sc52  1  0.70346401  0.90771011  0.30004999  1
  Sc  Sc53  1  0.69888874  0.10079577  0.89129448  1
  Sc  Sc54  1  0.10150145  0.89651362  0.89270125  1
  Sc  Sc55  1  0.10002624  0.68591903  0.29139180  1
  Sc  Sc56  1  0.69316339  0.50158726  0.69870854  1
  Sc  Sc57  1  0.09507043  0.91126453  0.30337337  1
  Sc  Sc58  1  0.90696396  0.28830612  0.69366995  1
  Sc  Sc59  1  0.70247731  0.10102468  0.29894247  1
  Sc  Sc60  1  0.69954639  0.51094812  0.30242186  1
  Sc  Sc61  1  0.10025339  0.09949494  0.88160340  1
  Sc  Sc62  1  0.30037952  0.89995649  0.89846787  1
  Sc  Sc63  1  0.50110375  0.09742653  0.89539018  1
  Sc  Sc64  1  0.10553594  0.30972386  0.30118196  1
  Sc  Sc65  1  0.08946385  0.30579409  0.51263909  1
  Sc  Sc66  1  0.49095694  0.50473800  0.09512134  1
  Sc  Sc67  1  0.10542290  0.70084291  0.70996682  1
  Sc  Sc68  1  0.50049446  0.50275068  0.70505261  1
  Sc  Sc69  1  0.10299155  0.69959954  0.09760691  1
  Sc  Sc70  1  0.28813187  0.10205781  0.69647202  1
  Sc  Sc71  1  0.70428630  0.69525740  0.50595072  1
  Sc  Sc72  1  0.09160758  0.70232142  0.50067525  1
  Sc  Sc73  1  0.69208763  0.69429726  0.30587392  1
  Sc  Sc74  1  0.49587057  0.10781566  0.10194097  1
  Sc  Sc75  1  0.69926312  0.90471847  0.90011912  1
  Sc  Sc76  1  0.29583200  0.69910960  0.89895596  1
  Sc  Sc77  1  0.30850347  0.90551777  0.49239481  1
  Sc  Sc78  1  0.69658299  0.29968049  0.70354465  1
  Sc  Sc79  1  0.09553072  0.49959555  0.11115546  1
  Sc  Sc80  1  0.30530794  0.10412806  0.90052768  1
  Sc  Sc81  1  0.90629004  0.69407495  0.31338613  1
  Sc  Sc82  1  0.49909973  0.90097727  0.09271074  1
  Sc  Sc83  1  0.29884906  0.30005242  0.30970678  1
  Sc  Sc84  1  0.49831117  0.70164560  0.50363690  1
  Sc  Sc85  1  0.49849231  0.11323703  0.50407772  1
  Sc  Sc86  1  0.49903445  0.30346740  0.69585488  1
  Sc  Sc87  1  0.70975520  0.30004193  0.10278664  1
  Sc  Sc88  1  0.50324459  0.10589174  0.29537878  1
  Sc  Sc89  1  0.70312174  0.29116624  0.29860400  1
  Sc  Sc90  1  0.48737767  0.30042399  0.89392770  1
  Sc  Sc91  1  0.71088847  0.70126943  0.89756116  1
  Sc  Sc92  1  0.10261802  0.70774022  0.89630931  1
  Sc  Sc93  1  0.90476641  0.89835457  0.89259078  1
  Sc  Sc94  1  0.29646424  0.50201121  0.09072867  1
  Sc  Sc95  1  0.50070664  0.88659550  0.70971287  1
  Sc  Sc96  1  0.49624800  0.70646969  0.09405056  1
  Sc  Sc97  1  0.70775150  0.49645211  0.88790776  1
  Sc  Sc98  1  0.88980655  0.09498412  0.89409273  1
  Sc  Sc99  1  0.70185449  0.50665851  0.10011668  1
  Nb  Nb100  1  0.30041014  0.69919582  0.30429168  1
  Nb  Nb101  1  0.90584537  0.09418504  0.70251192  1
  Nb  Nb102  1  0.70058247  0.89772879  0.10016600  1
  Nb  Nb103  1  0.70364878  0.69931720  0.09938980  1
  Nb  Nb104  1  0.09628732  0.10242409  0.30637482  1
  Nb  Nb105  1  0.29921464  0.69646185  0.50018276  1
  Nb  Nb106  1  0.31357071  0.29970916  0.51160298  1
  Nb  Nb107  1  0.89662252  0.90243035  0.69728074  1
  Nb  Nb108  1  0.08826259  0.49798783  0.31013588  1
  Nb  Nb109  1  0.89814248  0.30053503  0.49842397  1
  Nb  Nb110  1  0.49773634  0.50342113  0.90272246  1
  Nb  Nb111  1  0.49775316  0.30110374  0.10054591  1
  Nb  Nb112  1  0.69842536  0.70837678  0.70041991  1
  Nb  Nb113  1  0.50150734  0.90457231  0.50007560  1
  Nb  Nb114  1  0.09260377  0.49726042  0.49856983  1
  Nb  Nb115  1  0.49906403  0.69668737  0.89766340  1
  Nb  Nb116  1  0.09529015  0.10319942  0.69279361  1
  Nb  Nb117  1  0.90170597  0.70773956  0.50153003  1
  Nb  Nb118  1  0.90079419  0.30584734  0.90257624  1
  Nb  Nb119  1  0.30023344  0.30294515  0.69996222  1
  Nb  Nb120  1  0.29912365  0.89846509  0.69471627  1
  Nb  Nb121  1  0.90348208  0.88227836  0.50291616  1
  Nb  Nb122  1  0.70423142  0.89119915  0.70141559  1
  Nb  Nb123  1  0.90574868  0.09849752  0.09553820  1
  Nb  Nb124  1  0.91295614  0.50403825  0.29724748  1
  Nb  Nb125  1  0.59801692  -0.00055306  0.41032331  1
  Nb  Nb126  1  0.00301515  0.19377076  0.19908037  1
  Nb  Nb127  1  0.40724014  -0.00161465  0.60366379  1
  Nb  Nb128  1  0.59930237  -0.00672279  0.60181947  1
  Nb  Nb129  1  0.80145586  0.40310011  0.40132812  1
  Nb  Nb130  1  0.80405680  0.39842584  0.59323783  1
  Nb  Nb131  1  -0.00023259  0.59686233  -0.00582185  1
  Nb  Nb132  1  0.80668762  0.60765770  0.19965303  1
  Nb  Nb133  1  0.39983697  0.40273264  0.20164100  1
  Nb  Nb134  1  -0.00971585  0.80158629  0.19717366  1
  Nb  Nb135  1  0.59840239  0.59920889  -0.00750602  1
  Nb  Nb136  1  0.20505308  0.80281311  0.59510998  1
  Nb  Nb137  1  0.59335448  0.40174250  0.19858590  1
  Nb  Nb138  1  0.60835432  0.80145732  0.19329564  1
  Nb  Nb139  1  0.59485344  0.40003737  0.00052428  1
  Nb  Nb140  1  0.39239124  0.60158937  0.20587915  1
  Nb  Nb141  1  -0.00381214  0.59935840  0.59938055  1
  Nb  Nb142  1  0.80018612  0.79809151  0.19652782  1
  Nb  Nb143  1  -0.00129636  0.39625274  0.80242931  1
  Nb  Nb144  1  0.20371525  0.79355114  0.40111566  1
  Nb  Nb145  1  -0.00331957  0.19427957  0.00327715  1
  Nb  Nb146  1  0.60071058  0.20861729  0.00098082  1
  Nb  Nb147  1  0.60188901  0.39805871  0.39876868  1
  Nb  Nb148  1  0.00073194  0.19875967  0.39773102  1
  Nb  Nb149  1  0.39473713  -0.00077620  0.20149742  1
  Pd  Pd150  1  0.60613562  0.79253949  -0.00239076  1
  Pd  Pd151  1  0.60612661  0.80334098  0.39709420  1
  Pd  Pd152  1  0.39565133  0.19899932  0.79398186  1
  Pd  Pd153  1  -0.01004553  0.00059360  0.59493318  1
  Pd  Pd154  1  0.79580696  -0.00094880  0.40887269  1
  Pd  Pd155  1  0.39234995  0.79501510  0.80492147  1
  Pd  Pd156  1  0.19029958  0.18819737  -0.00441066  1
  Pd  Pd157  1  0.79048978  0.40638809  0.00345930  1
  Pd  Pd158  1  0.19646523  0.20731495  0.20214466  1
  Pd  Pd159  1  0.00580760  0.00788475  -0.01686880  1
  Pd  Pd160  1  0.59211668  0.39660912  0.80717829  1
  Pd  Pd161  1  0.80930858  -0.00845923  0.20181539  1
  Pd  Pd162  1  0.18322141  0.80615624  0.21114557  1
  Pd  Pd163  1  -0.00611844  -0.00568916  0.20212922  1
  Pd  Pd164  1  0.79108677  0.41332960  0.20864372  1
  Pd  Pd165  1  0.18820870  0.60714214  0.59580537  1
  Pd  Pd166  1  0.18946487  0.60480250  0.40779891  1
  Pd  Pd167  1  0.80758398  0.19484429  0.19519164  1
  Pd  Pd168  1  0.20148426  -0.00991997  0.40152822  1
  Pd  Pd169  1  0.20157288  0.40272269  0.00325925  1
  Pd  Pd170  1  0.79718136  0.80709212  -0.00619741  1
  Pd  Pd171  1  0.20493454  0.58991632  0.20136282  1
  Pd  Pd172  1  0.20779718  0.40563016  0.19950540  1
  Pd  Pd173  1  0.79180704  0.78912865  0.39410112  1
  Pd  Pd174  1  0.59375235  0.60357736  0.18837660  1
  Pd  Pd175  1  0.19452832  0.00539729  -0.01436029  1
  Pd  Pd176  1  0.59737520  0.00856074  -0.00176002  1
  Pd  Pd177  1  -0.00946178  0.20010808  0.80819548  1
  Pd  Pd178  1  0.80360990  0.60006976  0.60500669  1
  Pd  Pd179  1  0.00946272  0.79390614  0.61349190  1
  Pd  Pd180  1  0.59172438  -0.00563300  0.20358845  1
  Pd  Pd181  1  0.60132572  -0.00902407  0.79392882  1
  Pd  Pd182  1  0.40491751  0.00383641  0.00293221  1
  Pd  Pd183  1  0.80105117  0.19552136  -0.00064250  1
  Pd  Pd184  1  0.19499315  0.60357697  -0.00137591  1
  Pd  Pd185  1  0.00805397  0.59378504  0.79893368  1
  Pd  Pd186  1  0.39908245  0.19590598  0.39545244  1
  Pd  Pd187  1  0.39632849  -0.00038726  0.79182923  1
  Pd  Pd188  1  0.60779287  0.60254676  0.80616613  1
  Pd  Pd189  1  0.18968538  0.21445931  0.41259772  1
  Pd  Pd190  1  0.59194232  0.59997208  0.40983849  1
  Pd  Pd191  1  0.20437671  0.39348561  0.59404142  1
  Pd  Pd192  1  0.59699054  0.79977966  0.59935542  1
  Pd  Pd193  1  0.19705862  0.39271799  0.41618557  1
  Pd  Pd194  1  0.40758342  0.01444162  0.39903233  1
  Pd  Pd195  1  0.39772275  0.80454262  0.59565732  1
  Pd  Pd196  1  0.60912655  0.20279202  0.18990059  1
  Pd  Pd197  1  0.39836008  0.61033906  0.00534097  1
  Pd  Pd198  1  0.20714455  0.00279730  0.80046112  1
  Pd  Pd199  1  0.79902945  -0.00605161  0.59981304  1
  Rh  Rh200  1  -0.00236486  -0.00048168  0.79560390  1
  Rh  Rh201  1  0.40210744  0.40322576  0.79387500  1
  Rh  Rh202  1  0.39756743  0.40314452  0.60850455  1
  Rh  Rh203  1  0.79027395  0.60641426  0.79126994  1
  Rh  Rh204  1  0.79871256  0.80617299  0.80219213  1
  Rh  Rh205  1  0.40276809  0.39739826  0.00254130  1
  Rh  Rh206  1  0.80853269  0.20177473  0.79521369  1
  Rh  Rh207  1  0.40072347  0.60525285  0.40298522  1
  Rh  Rh208  1  0.80850903  0.20464723  0.39105588  1
  Rh  Rh209  1  0.20291063  0.59839036  0.80207111  1
  Rh  Rh210  1  -0.00805559  0.60598284  0.18878046  1
  Rh  Rh211  1  0.19740782  0.39758278  0.79751665  1
  Rh  Rh212  1  0.39861917  0.60097028  0.80021923  1
  Rh  Rh213  1  0.60678832  0.79626820  0.80796122  1
  Rh  Rh214  1  0.59755543  0.60761712  0.60447377  1
  Rh  Rh215  1  0.00222953  0.80938481  0.79310206  1
  Rh  Rh216  1  0.39456754  0.79790370  -0.00499993  1
  Rh  Rh217  1  0.20439687  0.80456049  0.79076354  1
  Rh  Rh218  1  0.60051414  0.19710472  0.39643596  1
  Rh  Rh219  1  0.00005689  0.19102363  0.59217861  1
  Rh  Rh220  1  0.01399268  0.79037082  0.38862305  1
  Rh  Rh221  1  0.38806050  0.19935141  0.20639474  1
  Rh  Rh222  1  0.39572209  0.19481720  0.61056953  1
  Rh  Rh223  1  0.00596452  0.60547342  0.40747156  1
  Rh  Rh224  1  -0.01061540  0.40925307  0.60733530  1
  Rh  Rh225  1  0.20531727  0.19733684  0.79687050  1
  Rh  Rh226  1  0.80136972  -0.00740375  0.79690259  1
  Rh  Rh227  1  0.20173656  0.80048276  -0.00501651  1
  Rh  Rh228  1  0.20376225  -0.00881703  0.20854380  1
  Rh  Rh229  1  0.80060605  0.59254486  0.00330018  1
  Rh  Rh230  1  0.80086920  0.79639710  0.60213078  1
  Rh  Rh231  1  0.21055221  -0.00932786  0.59339613  1
  Rh  Rh232  1  -0.00278816  0.39175434  0.39785414  1
  Rh  Rh233  1  0.00533444  0.79310967  -0.00138375  1
  Rh  Rh234  1  0.59777027  0.20916597  0.80883700  1
  Rh  Rh235  1  0.41012114  0.80302514  0.19151710  1
  Rh  Rh236  1  0.79782878  -0.00056856  -0.00763585  1
  Rh  Rh237  1  0.00191070  0.40204778  -0.00654762  1
  Rh  Rh238  1  -0.00657442  0.00964674  0.41402638  1
  Rh  Rh239  1  0.00611856  0.39363192  0.20197502  1
  Rh  Rh240  1  0.60462798  0.19806689  0.61024297  1
  Rh  Rh241  1  0.80000772  0.20530772  0.61090223  1
  Rh  Rh242  1  0.40814352  0.19776558  -0.00642787  1
  Rh  Rh243  1  0.40422761  0.59967319  0.60255047  1
  Rh  Rh244  1  0.81040134  0.38698739  0.78598854  1
  Rh  Rh245  1  0.20223211  0.20890671  0.59743578  1
  Rh  Rh246  1  0.40352441  0.39567728  0.40094382  1
  Rh  Rh247  1  0.80427153  0.59881842  0.39392311  1
  Rh  Rh248  1  0.60807372  0.39617832  0.59454395  1
  Rh  Rh249  1  0.39501291  0.79208725  0.41286729  1
