# generated using pymatgen
data_ZrScNbPdRh
_symmetry_space_group_name_H-M   'P 1'
_cell_length_a   16.55922086
_cell_length_b   16.56331174
_cell_length_c   16.56031626
_cell_angle_alpha   90.02427637
_cell_angle_beta   89.97093547
_cell_angle_gamma   90.00457046
_symmetry_Int_Tables_number   1
_chemical_formula_structural   ZrScNbPdRh
_chemical_formula_sum   'Zr50 Sc50 Nb50 Pd50 Rh50'
_cell_volume   4542.08863441
_cell_formula_units_Z   50
loop_
 _symmetry_equiv_pos_site_id
 _symmetry_equiv_pos_as_xyz
  1  'x, y, z'
loop_
 _atom_site_type_symbol
 _atom_site_label
 _atom_site_symmetry_multiplicity
 _atom_site_fract_x
 _atom_site_fract_y
 _atom_site_fract_z
 _atom_site_occupancy
  Zr  Zr0  1  0.70499923  0.89963233  0.10423417  1
  Zr  Zr1  1  0.49979082  0.10132161  0.30617801  1
  Zr  Zr2  1  0.29960998  0.30373078  0.49977026  1
  Zr  Zr3  1  0.10665449  0.70396637  0.69607520  1
  Zr  Zr4  1  0.49305540  0.90773622  0.50460387  1
  Zr  Zr5  1  0.89613215  0.09972566  0.69910731  1
  Zr  Zr6  1  0.30165170  0.50541200  0.89354483  1
  Zr  Zr7  1  0.70361834  0.89675660  0.30421390  1
  Zr  Zr8  1  0.70606649  0.29660347  0.09902486  1
  Zr  Zr9  1  0.29602518  0.90365020  0.10161463  1
  Zr  Zr10  1  0.50059731  0.29295386  0.89291591  1
  Zr  Zr11  1  0.29889389  0.10018181  0.70818322  1
  Zr  Zr12  1  0.09977283  0.89063384  0.70238175  1
  Zr  Zr13  1  0.30874771  0.50958284  0.69573471  1
  Zr  Zr14  1  0.90170152  0.49566518  0.49928075  1
  Zr  Zr15  1  0.69500569  0.70043858  0.70783397  1
  Zr  Zr16  1  0.89726872  0.30097876  0.09837981  1
  Zr  Zr17  1  0.89535743  0.09761148  0.48957485  1
  Zr  Zr18  1  0.90044524  0.90369348  0.29327149  1
  Zr  Zr19  1  0.69665360  0.90260237  0.70272663  1
  Zr  Zr20  1  0.30623923  0.70694785  0.29909432  1
  Zr  Zr21  1  0.70227789  0.49459735  0.09913323  1
  Zr  Zr22  1  0.50331765  0.69733755  0.49034054  1
  Zr  Zr23  1  0.09791279  0.50041663  0.69828451  1
  Zr  Zr24  1  0.68842633  0.69614499  0.09841320  1
  Zr  Zr25  1  0.90800117  0.90322643  0.10438986  1
  Zr  Zr26  1  0.09992429  0.70952677  0.10209447  1
  Zr  Zr27  1  0.49575926  0.70119280  0.10219808  1
  Zr  Zr28  1  0.69751095  0.69456173  0.49890807  1
  Zr  Zr29  1  0.68950078  0.09730678  0.90376420  1
  Zr  Zr30  1  0.10202587  0.70857946  0.89658723  1
  Zr  Zr31  1  0.10135073  0.71403802  0.50385485  1
  Zr  Zr32  1  0.49558378  0.49583066  0.50640661  1
  Zr  Zr33  1  0.91289963  0.70283260  0.70233092  1
  Zr  Zr34  1  0.30307868  0.29992480  0.30678303  1
  Zr  Zr35  1  0.11272077  0.29251232  0.49940171  1
  Zr  Zr36  1  0.69323466  0.49841050  0.89357529  1
  Zr  Zr37  1  0.90293402  0.29844204  0.49406343  1
  Zr  Zr38  1  0.30460250  0.28871380  0.89811722  1
  Zr  Zr39  1  0.30777965  0.90509056  0.69727897  1
  Zr  Zr40  1  0.69535488  0.89614831  0.89157249  1
  Zr  Zr41  1  0.69771900  0.49580855  0.30543922  1
  Zr  Zr42  1  0.09450232  0.90973723  0.90672092  1
  Zr  Zr43  1  0.89427302  0.90186830  0.70578070  1
  Zr  Zr44  1  0.10296421  0.50686994  0.10861885  1
  Zr  Zr45  1  0.50609487  0.10066919  0.08817444  1
  Zr  Zr46  1  0.50026366  0.50560024  0.10268850  1
  Zr  Zr47  1  0.50291868  0.90774302  0.89807512  1
  Zr  Zr48  1  0.90188310  0.09656723  0.30472255  1
  Zr  Zr49  1  0.90309797  0.49411253  0.70379248  1
  Sc  Sc50  1  0.69217916  0.49648301  0.49835848  1
  Sc  Sc51  1  0.90650378  0.10106672  0.89047670  1
  Sc  Sc52  1  0.48984343  0.90495343  0.09782761  1
  Sc  Sc53  1  0.29574013  0.09532731  0.29994116  1
  Sc  Sc54  1  0.90193125  0.71345117  0.11178659  1
  Sc  Sc55  1  0.29720109  0.69837748  0.50733435  1
  Sc  Sc56  1  0.70660349  0.10828879  0.30341065  1
  Sc  Sc57  1  0.90341634  0.70715982  0.29818571  1
  Sc  Sc58  1  0.10225700  0.09817834  0.30095522  1
  Sc  Sc59  1  0.69407215  0.69702311  0.31153033  1
  Sc  Sc60  1  0.28954104  0.70137628  0.10165797  1
  Sc  Sc61  1  0.90273940  0.70280177  0.50120325  1
  Sc  Sc62  1  0.10758108  0.70038581  0.29403746  1
  Sc  Sc63  1  0.69758799  0.10781514  0.10030931  1
  Sc  Sc64  1  0.89549233  0.29461608  0.29720119  1
  Sc  Sc65  1  0.90484332  0.10318639  0.10957245  1
  Sc  Sc66  1  0.10560153  0.09958020  0.10368308  1
  Sc  Sc67  1  0.29742619  0.91560228  0.89727666  1
  Sc  Sc68  1  0.30015438  0.10756853  0.49884396  1
  Sc  Sc69  1  0.90061887  0.89824808  0.49256981  1
  Sc  Sc70  1  0.50621943  0.49235907  0.70275380  1
  Sc  Sc71  1  0.29410615  0.49836217  0.29495038  1
  Sc  Sc72  1  0.50064768  0.29023111  0.09659630  1
  Sc  Sc73  1  0.09893480  0.29293381  0.09780776  1
  Sc  Sc74  1  0.69354309  0.09939426  0.69666900  1
  Sc  Sc75  1  0.30265309  0.29156442  0.69712795  1
  Sc  Sc76  1  0.49795450  0.30003124  0.49841414  1
  Sc  Sc77  1  0.49683760  0.68957243  0.69248696  1
  Sc  Sc78  1  0.90146515  0.48840849  0.29750523  1
  Sc  Sc79  1  0.90135205  0.48418380  0.10031457  1
  Sc  Sc80  1  0.10644246  0.48965914  0.50067948  1
  Sc  Sc81  1  0.29977950  0.90001140  0.49718109  1
  Sc  Sc82  1  0.30174657  0.49516030  0.49615459  1
  Sc  Sc83  1  0.29564219  0.29337225  0.10523846  1
  Sc  Sc84  1  0.70608904  0.89799656  0.50007444  1
  Sc  Sc85  1  0.70432135  0.29682084  0.89292154  1
  Sc  Sc86  1  0.11048554  0.30017046  0.29873916  1
  Sc  Sc87  1  0.10294048  0.29623791  0.70086827  1
  Sc  Sc88  1  0.69697789  0.29412981  0.30189413  1
  Sc  Sc89  1  0.29656168  0.09944639  0.09350381  1
  Sc  Sc90  1  0.10692795  0.90610450  0.30572853  1
  Sc  Sc91  1  0.68596564  0.30223687  0.49552176  1
  Sc  Sc92  1  0.09478136  0.29293041  0.90391825  1
  Sc  Sc93  1  0.10117474  0.10586406  0.71203415  1
  Sc  Sc94  1  0.90107660  0.30508490  0.90516719  1
  Sc  Sc95  1  0.50190381  0.29413872  0.69372342  1
  Sc  Sc96  1  0.48851655  0.50402655  0.30412452  1
  Sc  Sc97  1  0.89750082  0.30196678  0.70917462  1
  Sc  Sc98  1  0.09273451  0.49956245  0.90419273  1
  Sc  Sc99  1  0.30103175  0.10162144  0.89875000  1
  Nb  Nb100  1  0.10868581  0.10345766  0.90047079  1
  Nb  Nb101  1  0.10059880  0.90189228  0.50527245  1
  Nb  Nb102  1  0.10056109  0.50656780  0.29898390  1
  Nb  Nb103  1  0.10100788  0.90473337  0.10161248  1
  Nb  Nb104  1  0.50201959  0.29929935  0.30065177  1
  Nb  Nb105  1  0.51319540  0.69902810  0.89973204  1
  Nb  Nb106  1  0.70471609  0.49281936  0.70211397  1
  Nb  Nb107  1  0.49639389  0.08794444  0.68733068  1
  Nb  Nb108  1  0.49862998  0.90376556  0.69597856  1
  Nb  Nb109  1  0.89945992  0.70012940  0.90108598  1
  Nb  Nb110  1  0.51202931  0.10082793  0.50906187  1
  Nb  Nb111  1  0.69846647  0.30893955  0.69797253  1
  Nb  Nb112  1  0.30124178  0.49954689  0.09419675  1
  Nb  Nb113  1  0.31557499  0.90717092  0.29785601  1
  Nb  Nb114  1  0.49381911  0.10258356  0.90274833  1
  Nb  Nb115  1  0.30324200  0.69819305  0.89335443  1
  Nb  Nb116  1  0.49927228  0.49650431  0.89876636  1
  Nb  Nb117  1  0.89717377  0.90139128  0.90011085  1
  Nb  Nb118  1  0.69573633  0.10315900  0.49907864  1
  Nb  Nb119  1  0.49142513  0.90015478  0.30586171  1
  Nb  Nb120  1  0.29713661  0.70152152  0.70646893  1
  Nb  Nb121  1  0.49734820  0.70860753  0.30095481  1
  Nb  Nb122  1  0.89775570  0.50009622  0.90446329  1
  Nb  Nb123  1  0.09684729  0.09538181  0.49830087  1
  Nb  Nb124  1  0.69394847  0.69943932  0.90112508  1
  Nb  Nb125  1  -0.00336104  0.19369309  0.59569031  1
  Nb  Nb126  1  0.80283745  0.60484030  -0.00267362  1
  Nb  Nb127  1  0.00379797  0.00163209  0.59724471  1
  Nb  Nb128  1  0.80391560  -0.00596238  -0.00418366  1
  Nb  Nb129  1  -0.00890909  0.60544981  0.00144571  1
  Nb  Nb130  1  0.39763827  0.79319879  -0.01162733  1
  Nb  Nb131  1  0.59674586  -0.00302591  0.20819963  1
  Nb  Nb132  1  0.59456145  0.39623923  0.19840497  1
  Nb  Nb133  1  0.40257930  0.79535461  0.80115786  1
  Nb  Nb134  1  0.59819001  0.00117675  0.40096362  1
  Nb  Nb135  1  0.79691918  0.20341893  0.59673183  1
  Nb  Nb136  1  0.59460493  0.40001077  -0.00091573  1
  Nb  Nb137  1  0.00745006  0.59645028  0.39717187  1
  Nb  Nb138  1  0.39941161  0.40401924  -0.00120271  1
  Nb  Nb139  1  0.79741710  0.59741030  0.19692698  1
  Nb  Nb140  1  0.59550657  0.80358040  0.59997577  1
  Nb  Nb141  1  0.19201575  0.00147420  0.59925076  1
  Nb  Nb142  1  0.40465190  0.19837856  0.20448451  1
  Nb  Nb143  1  0.20704138  0.40288660  -0.00181757  1
  Nb  Nb144  1  0.20401844  0.40194811  0.80373826  1
  Nb  Nb145  1  0.58995594  0.80474425  0.20967846  1
  Nb  Nb146  1  0.80004465  0.59456849  0.60927419  1
  Nb  Nb147  1  0.80228823  0.59990466  0.80373766  1
  Nb  Nb148  1  0.40126032  0.60212437  -0.00682068  1
  Nb  Nb149  1  0.79983977  0.79843858  -0.00612786  1
  Pd  Pd150  1  0.40462842  0.39039859  0.19421447  1
  Pd  Pd151  1  0.81395289  0.60070858  0.39707590  1
  Pd  Pd152  1  0.40090921  0.19742485  0.59889751  1
  Pd  Pd153  1  0.60554012  0.59669225  0.60310774  1
  Pd  Pd154  1  0.39453639  0.79910306  0.40790815  1
  Pd  Pd155  1  0.19647867  0.59943581  -0.00024643  1
  Pd  Pd156  1  0.00065009  0.59930107  0.58826951  1
  Pd  Pd157  1  0.39071538  0.60410447  0.19624608  1
  Pd  Pd158  1  0.79616705  0.39719830  0.59326699  1
  Pd  Pd159  1  0.00503877  0.79931962  0.39302540  1
  Pd  Pd160  1  0.19017711  0.59520688  0.80019768  1
  Pd  Pd161  1  0.00706963  0.39364934  0.80577912  1
  Pd  Pd162  1  0.20000703  0.59791852  0.59476293  1
  Pd  Pd163  1  -0.00537872  0.79856715  -0.00056669  1
  Pd  Pd164  1  -0.00357544  0.01194997  0.00278444  1
  Pd  Pd165  1  0.80482240  0.79433823  0.39949207  1
  Pd  Pd166  1  -0.01129077  0.60038624  0.20046966  1
  Pd  Pd167  1  0.79321041  0.01205463  0.19611742  1
  Pd  Pd168  1  0.59255341  0.00982927  0.79612488  1
  Pd  Pd169  1  0.20773924  0.80796424  -0.00814017  1
  Pd  Pd170  1  0.20730231  0.80537380  0.39616741  1
  Pd  Pd171  1  0.41309452  0.60511103  0.80143182  1
  Pd  Pd172  1  0.20598341  0.00042478  0.40482500  1
  Pd  Pd173  1  0.80699705  0.18812804  -0.00456161  1
  Pd  Pd174  1  0.79561592  0.19790638  0.79549309  1
  Pd  Pd175  1  0.20893475  0.81009021  0.80646323  1
  Pd  Pd176  1  0.80004042  0.00396521  0.59489286  1
  Pd  Pd177  1  0.00965373  0.39978940  0.39349959  1
  Pd  Pd178  1  0.80240265  0.79402128  0.80300874  1
  Pd  Pd179  1  0.20775953  0.39981673  0.61158058  1
  Pd  Pd180  1  0.00792578  0.39039996  0.20142355  1
  Pd  Pd181  1  0.40328162  0.01125912  0.19484340  1
  Pd  Pd182  1  0.40137726  0.79139173  0.60300431  1
  Pd  Pd183  1  0.59638601  0.19392012  0.78969184  1
  Pd  Pd184  1  0.00458424  0.00072595  0.79566505  1
  Pd  Pd185  1  0.79541784  0.39264040  0.40082830  1
  Pd  Pd186  1  0.19764955  0.60073275  0.40183401  1
  Pd  Pd187  1  0.00350719  0.38689905  0.60032622  1
  Pd  Pd188  1  0.40196669  0.19750234  0.40141826  1
  Pd  Pd189  1  0.00414182  0.20286924  0.20616996  1
  Pd  Pd190  1  0.79737306  0.79245497  0.60011583  1
  Pd  Pd191  1  0.60103736  0.60044118  0.21383987  1
  Pd  Pd192  1  0.00106269  0.59965348  0.80724270  1
  Pd  Pd193  1  -0.00267083  0.19148108  -0.00093937  1
  Pd  Pd194  1  0.20143656  0.81072996  0.20867321  1
  Pd  Pd195  1  0.59666929  0.81051994  0.00836227  1
  Pd  Pd196  1  0.39397905  0.59871595  0.40184212  1
  Pd  Pd197  1  0.19903263  0.39803277  0.19508193  1
  Pd  Pd198  1  0.00850020  0.20289672  0.39677972  1
  Pd  Pd199  1  0.39653094  0.39390008  0.79525216  1
  Rh  Rh200  1  0.59427316  0.81036519  0.40548876  1
  Rh  Rh201  1  0.20796270  0.19554509  0.20252957  1
  Rh  Rh202  1  0.60792744  -0.00553784  0.00728170  1
  Rh  Rh203  1  0.19895218  0.20246733  -0.00131417  1
  Rh  Rh204  1  0.20979204  0.80693201  0.60211556  1
  Rh  Rh205  1  0.60808513  -0.00901160  0.59269413  1
  Rh  Rh206  1  0.41161447  0.18791132  0.79025988  1
  Rh  Rh207  1  0.59522719  0.19978573  0.20374685  1
  Rh  Rh208  1  0.39684494  0.20029340  0.00686474  1
  Rh  Rh209  1  0.60651579  0.20551294  0.60428328  1
  Rh  Rh210  1  -0.00004072  0.20378576  0.79955273  1
  Rh  Rh211  1  0.19364171  0.18893494  0.60112947  1
  Rh  Rh212  1  0.58988942  0.59271681  0.39679206  1
  Rh  Rh213  1  0.19925789  0.19482328  0.39721339  1
  Rh  Rh214  1  0.19702128  0.20727393  0.80475280  1
  Rh  Rh215  1  -0.00818962  0.81068381  0.59901837  1
  Rh  Rh216  1  0.79326943  -0.00072393  0.39998038  1
  Rh  Rh217  1  0.59802545  0.39768578  0.60224846  1
  Rh  Rh218  1  0.59851912  0.39409530  0.80011393  1
  Rh  Rh219  1  0.39712765  0.60224968  0.59574368  1
  Rh  Rh220  1  0.00939736  0.40631651  0.00595275  1
  Rh  Rh221  1  0.20655147  0.60224347  0.20100912  1
  Rh  Rh222  1  0.79260967  0.20662014  0.40699785  1
  Rh  Rh223  1  0.40064505  0.40121139  0.40003226  1
  Rh  Rh224  1  0.39631671  -0.00051830  -0.00352107  1
  Rh  Rh225  1  0.59811012  0.19547399  0.40219248  1
  Rh  Rh226  1  0.20054940  0.40416040  0.39424395  1
  Rh  Rh227  1  0.40792280  0.00304427  0.80183567  1
  Rh  Rh228  1  0.78243367  0.78356803  0.20042341  1
  Rh  Rh229  1  0.79079978  0.39971742  0.20789325  1
  Rh  Rh230  1  0.39932600  0.39741264  0.60341267  1
  Rh  Rh231  1  0.39971551  0.80246507  0.19280876  1
  Rh  Rh232  1  0.60288528  0.20963957  -0.00756082  1
  Rh  Rh233  1  0.01346423  0.81088898  0.20696267  1
  Rh  Rh234  1  -0.00025134  -0.00693381  0.39978676  1
  Rh  Rh235  1  0.79478911  0.00695277  0.80877069  1
  Rh  Rh236  1  0.01017294  -0.00090977  0.20326126  1
  Rh  Rh237  1  0.19595874  0.00478108  0.00047826  1
  Rh  Rh238  1  0.58971822  0.40308702  0.39208546  1
  Rh  Rh239  1  -0.00134733  0.80415395  0.80624518  1
  Rh  Rh240  1  0.40188990  0.00843799  0.40882595  1
  Rh  Rh241  1  0.38717384  0.00995619  0.59337956  1
  Rh  Rh242  1  0.60023857  0.59509096  0.79575762  1
  Rh  Rh243  1  0.59666136  0.59101777  -0.00665879  1
  Rh  Rh244  1  0.79206703  0.40084719  -0.00895938  1
  Rh  Rh245  1  0.58602509  0.79720666  0.78728153  1
  Rh  Rh246  1  0.19309034  -0.00062207  0.79649505  1
  Rh  Rh247  1  0.80358239  0.19944575  0.20015234  1
  Rh  Rh248  1  0.20091017  -0.00333763  0.19990812  1
  Rh  Rh249  1  0.80139723  0.40163173  0.80507474  1
