# generated using pymatgen
data_ZrScNbPdRh
_symmetry_space_group_name_H-M   'P 1'
_cell_length_a   16.55930650
_cell_length_b   16.55379289
_cell_length_c   16.55850671
_cell_angle_alpha   90.02615216
_cell_angle_beta   90.00431040
_cell_angle_gamma   89.99516171
_symmetry_Int_Tables_number   1
_chemical_formula_structural   ZrScNbPdRh
_chemical_formula_sum   'Zr50 Sc50 Nb50 Pd50 Rh50'
_cell_volume   4539.00626840
_cell_formula_units_Z   50
loop_
 _symmetry_equiv_pos_site_id
 _symmetry_equiv_pos_as_xyz
  1  'x, y, z'
loop_
 _atom_site_type_symbol
 _atom_site_label
 _atom_site_symmetry_multiplicity
 _atom_site_fract_x
 _atom_site_fract_y
 _atom_site_fract_z
 _atom_site_occupancy
  Zr  Zr0  1  0.29715395  0.30272339  0.51072296  1
  Zr  Zr1  1  0.09567507  0.29923332  0.09065898  1
  Zr  Zr2  1  0.30207116  0.09871295  0.50572706  1
  Zr  Zr3  1  0.10216862  0.49781469  0.90090372  1
  Zr  Zr4  1  0.09614758  0.10671725  0.89717029  1
  Zr  Zr5  1  0.50871725  0.29775584  0.10171072  1
  Zr  Zr6  1  0.29789300  0.09383394  0.30158985  1
  Zr  Zr7  1  0.50181345  0.10537732  0.70104163  1
  Zr  Zr8  1  0.69953929  0.10136126  0.69609132  1
  Zr  Zr9  1  0.49751006  0.29950531  0.50276039  1
  Zr  Zr10  1  0.68985032  0.69600721  0.29858666  1
  Zr  Zr11  1  0.90226675  0.30430315  0.09501427  1
  Zr  Zr12  1  0.69940879  0.90384601  0.69021821  1
  Zr  Zr13  1  0.49473828  0.10243664  0.89870259  1
  Zr  Zr14  1  0.50005454  0.89712797  0.49654288  1
  Zr  Zr15  1  0.69959332  0.70741064  0.69226327  1
  Zr  Zr16  1  0.68914941  0.89698817  0.09169274  1
  Zr  Zr17  1  0.89850932  0.49351826  0.29941861  1
  Zr  Zr18  1  0.50563368  0.49588048  0.50171907  1
  Zr  Zr19  1  0.70256024  0.09851872  0.30242110  1
  Zr  Zr20  1  0.10676527  0.90639343  0.70660439  1
  Zr  Zr21  1  0.70458310  0.90415283  0.89756825  1
  Zr  Zr22  1  0.50040590  0.49174649  0.30090814  1
  Zr  Zr23  1  0.09967244  0.49563246  0.10137001  1
  Zr  Zr24  1  0.11054103  0.69657376  0.89786070  1
  Zr  Zr25  1  0.10147953  0.69525600  0.31048169  1
  Zr  Zr26  1  0.89643685  0.09232454  0.29876044  1
  Zr  Zr27  1  0.69776608  0.49888510  0.69090853  1
  Zr  Zr28  1  0.70121913  0.68860503  0.10134383  1
  Zr  Zr29  1  0.10341444  0.90368611  0.09509084  1
  Zr  Zr30  1  0.10140961  0.10165929  0.50902622  1
  Zr  Zr31  1  0.29404395  0.90600487  0.09719064  1
  Zr  Zr32  1  0.90141048  0.90966471  0.09637122  1
  Zr  Zr33  1  0.89728047  0.29397368  0.30222053  1
  Zr  Zr34  1  0.69912056  0.50113969  0.30295537  1
  Zr  Zr35  1  0.29755398  0.50445490  0.51026726  1
  Zr  Zr36  1  0.49704483  0.50428968  0.70178183  1
  Zr  Zr37  1  0.90840841  0.10505525  0.48807640  1
  Zr  Zr38  1  0.49926610  0.69832087  0.70106457  1
  Zr  Zr39  1  0.30174644  0.69420995  0.71122361  1
  Zr  Zr40  1  0.10159952  0.30136466  0.70047562  1
  Zr  Zr41  1  0.10327903  0.10278883  0.70402182  1
  Zr  Zr42  1  0.10037367  0.49918277  0.50601196  1
  Zr  Zr43  1  0.10946050  0.09992229  0.09900325  1
  Zr  Zr44  1  0.49937885  0.49516961  0.09802272  1
  Zr  Zr45  1  0.70621633  0.30698827  0.50495095  1
  Zr  Zr46  1  0.09510222  0.10568371  0.30067282  1
  Zr  Zr47  1  0.29956653  0.50343135  0.90256541  1
  Zr  Zr48  1  0.29792764  0.10277689  0.70429314  1
  Zr  Zr49  1  0.30094955  0.90296569  0.89835455  1
  Sc  Sc50  1  0.10953461  0.90436893  0.90093217  1
  Sc  Sc51  1  0.70790822  0.29026516  0.69795158  1
  Sc  Sc52  1  0.29912769  0.89967727  0.49078732  1
  Sc  Sc53  1  0.29689602  0.50486697  0.29228838  1
  Sc  Sc54  1  0.89643006  0.49043403  0.90162361  1
  Sc  Sc55  1  0.30100519  0.29740199  0.70021721  1
  Sc  Sc56  1  0.09533454  0.30106876  0.90017518  1
  Sc  Sc57  1  0.49425094  0.49363712  0.90174690  1
  Sc  Sc58  1  0.90122033  0.10388354  0.70268238  1
  Sc  Sc59  1  0.10809525  0.90082928  0.29945565  1
  Sc  Sc60  1  0.89774326  0.48479129  0.49825408  1
  Sc  Sc61  1  0.10218136  0.90125613  0.50476983  1
  Sc  Sc62  1  0.29900080  0.90221468  0.71513040  1
  Sc  Sc63  1  0.89953805  0.09783769  0.90153664  1
  Sc  Sc64  1  0.29873620  0.49848307  0.70142714  1
  Sc  Sc65  1  0.69756624  0.29661964  0.09107112  1
  Sc  Sc66  1  0.50018306  0.91115681  0.90170578  1
  Sc  Sc67  1  0.88684345  0.50003018  0.09880414  1
  Sc  Sc68  1  0.49816923  0.69976951  0.30223228  1
  Sc  Sc69  1  0.70400014  0.49650529  0.90390475  1
  Sc  Sc70  1  0.89295054  0.89877424  0.69968809  1
  Sc  Sc71  1  0.69937877  0.10575331  0.09243456  1
  Sc  Sc72  1  0.91304668  0.49589812  0.69468810  1
  Sc  Sc73  1  0.89811577  0.30155762  0.70286828  1
  Sc  Sc74  1  0.08876741  0.30495130  0.28594966  1
  Sc  Sc75  1  0.89231505  0.69229439  0.89947854  1
  Sc  Sc76  1  0.90503190  0.90647840  0.49955438  1
  Sc  Sc77  1  0.29577793  0.70225591  0.30522670  1
  Sc  Sc78  1  0.50831831  0.10202107  0.30625382  1
  Sc  Sc79  1  0.91511174  0.71075428  0.50016286  1
  Sc  Sc80  1  0.70311521  0.10442961  0.89990132  1
  Sc  Sc81  1  0.29099159  0.29666660  0.09348830  1
  Sc  Sc82  1  0.50539112  0.10075183  0.49905613  1
  Sc  Sc83  1  0.29942051  0.69564353  0.10369671  1
  Sc  Sc84  1  0.50914298  0.70490076  0.49525209  1
  Sc  Sc85  1  0.29956625  0.30932351  0.29436882  1
  Sc  Sc86  1  0.50505421  0.10463160  0.08440507  1
  Sc  Sc87  1  0.30124134  0.89707921  0.30595760  1
  Sc  Sc88  1  0.49763443  0.29733735  0.90760324  1
  Sc  Sc89  1  0.29579395  0.50271253  0.09756491  1
  Sc  Sc90  1  0.69976504  0.49473983  0.10161021  1
  Sc  Sc91  1  0.90457444  0.30092814  0.50287271  1
  Sc  Sc92  1  0.11321218  0.70038449  0.10093541  1
  Sc  Sc93  1  0.69793201  0.69825571  0.89912591  1
  Sc  Sc94  1  0.90352418  0.09921906  0.09080634  1
  Sc  Sc95  1  0.10638339  0.69430427  0.49921053  1
  Sc  Sc96  1  0.49383197  0.89248215  0.30621197  1
  Sc  Sc97  1  0.69491132  0.29192869  0.29331398  1
  Sc  Sc98  1  0.50353198  0.70497531  0.10892760  1
  Sc  Sc99  1  0.49247177  0.69460294  0.89192731  1
  Nb  Nb100  1  0.09362689  0.69272022  0.70271540  1
  Nb  Nb101  1  0.30447803  0.10618281  0.90872963  1
  Nb  Nb102  1  0.89367679  0.90011246  0.29501713  1
  Nb  Nb103  1  0.69894559  0.70534130  0.49560557  1
  Nb  Nb104  1  0.69940210  0.09628859  0.50122502  1
  Nb  Nb105  1  0.49791937  0.90395510  0.09547078  1
  Nb  Nb106  1  0.49419213  0.29631739  0.29785283  1
  Nb  Nb107  1  0.10274851  0.50732879  0.70192247  1
  Nb  Nb108  1  0.29932734  0.70566592  0.90182007  1
  Nb  Nb109  1  0.70949429  0.30312018  0.89843910  1
  Nb  Nb110  1  0.70359207  0.50369369  0.49659688  1
  Nb  Nb111  1  0.29477755  0.29684484  0.90108731  1
  Nb  Nb112  1  0.90178254  0.89731895  0.90421359  1
  Nb  Nb113  1  0.30204252  0.10106125  0.09758381  1
  Nb  Nb114  1  0.10155631  0.29875042  0.50195868  1
  Nb  Nb115  1  0.09822463  0.50436883  0.30181863  1
  Nb  Nb116  1  0.90192250  0.69908701  0.69926735  1
  Nb  Nb117  1  0.69575403  0.89363082  0.49848756  1
  Nb  Nb118  1  0.89866229  0.70179829  0.30009237  1
  Nb  Nb119  1  0.50590048  0.29490052  0.69843339  1
  Nb  Nb120  1  0.89560101  0.29505284  0.90108195  1
  Nb  Nb121  1  0.70529913  0.90433447  0.29754270  1
  Nb  Nb122  1  0.30110286  0.69608562  0.50569180  1
  Nb  Nb123  1  0.89632157  0.69663077  0.10212685  1
  Nb  Nb124  1  0.49741055  0.90085563  0.70335525  1
  Nb  Nb125  1  0.80111435  0.80137611  0.20073040  1
  Nb  Nb126  1  0.59945279  0.80586526  0.79490895  1
  Nb  Nb127  1  0.80453817  0.79932122  0.00457768  1
  Nb  Nb128  1  0.59659459  -0.00381898  0.19755163  1
  Nb  Nb129  1  0.19834613  0.20902300  0.40190675  1
  Nb  Nb130  1  0.39535040  0.20582883  0.39632029  1
  Nb  Nb131  1  -0.00174363  0.60440229  0.00621318  1
  Nb  Nb132  1  0.80142517  0.60582984  0.59360068  1
  Nb  Nb133  1  0.79851331  0.60761724  0.40572189  1
  Nb  Nb134  1  0.59678583  0.59765682  0.00239494  1
  Nb  Nb135  1  -0.00258227  0.60325447  0.20130487  1
  Nb  Nb136  1  -0.00303521  0.79497854  0.80271565  1
  Nb  Nb137  1  0.39835362  0.80297189  -0.00008184  1
  Nb  Nb138  1  0.40152754  0.19629235  0.20073434  1
  Nb  Nb139  1  0.79738919  0.80234178  0.39535352  1
  Nb  Nb140  1  0.80104284  0.60081474  0.78585003  1
  Nb  Nb141  1  0.40252772  -0.00564536  0.60478408  1
  Nb  Nb142  1  0.39691409  0.80124532  0.60448068  1
  Nb  Nb143  1  0.20498159  0.79362143  0.60767432  1
  Nb  Nb144  1  0.19316786  0.40091688  0.40117696  1
  Nb  Nb145  1  -0.00337900  0.79494132  -0.00056034  1
  Nb  Nb146  1  -0.00606902  0.79659460  0.19857171  1
  Nb  Nb147  1  0.39960031  0.59571349  0.40679933  1
  Nb  Nb148  1  0.40446933  0.00426913  0.19379339  1
  Nb  Nb149  1  0.60047123  0.39256007  0.79714407  1
  Pd  Pd150  1  0.79640931  0.40564801  0.79132116  1
  Pd  Pd151  1  0.20167354  0.39866346  0.80013944  1
  Pd  Pd152  1  0.60617531  0.59446381  0.80923162  1
  Pd  Pd153  1  0.39411236  0.39349868  0.18838035  1
  Pd  Pd154  1  0.00766954  -0.00775274  0.39560230  1
  Pd  Pd155  1  0.01138572  0.80548420  0.61014396  1
  Pd  Pd156  1  0.60582653  0.39813361  0.20162080  1
  Pd  Pd157  1  0.00616810  0.39454099  0.39953174  1
  Pd  Pd158  1  0.00575538  -0.00220558  0.20183312  1
  Pd  Pd159  1  0.60097531  0.39380681  0.60569527  1
  Pd  Pd160  1  0.19893663  0.79902567  0.20335512  1
  Pd  Pd161  1  -0.00520509  -0.00066112  0.60781784  1
  Pd  Pd162  1  0.38833350  0.40285759  0.40031439  1
  Pd  Pd163  1  0.40126924  0.39981605  0.61048989  1
  Pd  Pd164  1  0.39798206  0.20816023  0.80186014  1
  Pd  Pd165  1  -0.00764002  0.19417617  0.19270681  1
  Pd  Pd166  1  -0.00783321  0.59948103  0.80988445  1
  Pd  Pd167  1  0.60147989  -0.00055919  0.80123279  1
  Pd  Pd168  1  -0.00615969  0.59712389  0.59087197  1
  Pd  Pd169  1  -0.00399039  0.20400555  0.60579406  1
  Pd  Pd170  1  -0.00559648  -0.00696465  0.80197045  1
  Pd  Pd171  1  0.59444652  -0.00060516  0.59624701  1
  Pd  Pd172  1  0.39196505  0.39205292  0.00467421  1
  Pd  Pd173  1  0.78995574  0.00229685  0.18637375  1
  Pd  Pd174  1  0.80528533  0.00576988  0.79950647  1
  Pd  Pd175  1  0.80689569  0.19393477  0.59350338  1
  Pd  Pd176  1  0.79972628  0.79528110  0.80583501  1
  Pd  Pd177  1  0.60161018  0.60487012  0.59115428  1
  Pd  Pd178  1  0.20534644  0.20400999  0.20617618  1
  Pd  Pd179  1  0.60092703  0.20701060  0.40529076  1
  Pd  Pd180  1  0.19263349  0.00396893  0.40311329  1
  Pd  Pd181  1  -0.00016983  0.39765446  0.80145025  1
  Pd  Pd182  1  0.80746839  0.79919509  0.58745733  1
  Pd  Pd183  1  0.60646418  0.20677706  0.80615681  1
  Pd  Pd184  1  0.59912244  -0.00628277  0.39456752  1
  Pd  Pd185  1  0.79284199  0.39166971  0.19914675  1
  Pd  Pd186  1  0.40297814  0.60123136  0.20692788  1
  Pd  Pd187  1  0.79755463  -0.00540510  0.41042261  1
  Pd  Pd188  1  0.40512301  0.39172001  0.79743196  1
  Pd  Pd189  1  0.59989690  0.80745751  0.20589117  1
  Pd  Pd190  1  0.80247378  0.19662333  0.19153467  1
  Pd  Pd191  1  0.80590334  0.00562423  0.59123761  1
  Pd  Pd192  1  0.40457568  0.60980955  0.00355347  1
  Pd  Pd193  1  0.39533688  0.80715813  0.19485266  1
  Pd  Pd194  1  0.19793479  0.39997483  0.20163502  1
  Pd  Pd195  1  0.60561340  0.39104543  0.39740857  1
  Pd  Pd196  1  0.00145250  0.81062139  0.39333077  1
  Pd  Pd197  1  0.59173003  0.79016338  -0.01220275  1
  Pd  Pd198  1  -0.01070130  0.59452975  0.40399086  1
  Pd  Pd199  1  0.79521593  0.20361813  0.40491058  1
  Rh  Rh200  1  0.79875479  0.39619284  0.00263107  1
  Rh  Rh201  1  0.21260239  -0.01256079  0.60221847  1
  Rh  Rh202  1  0.39525790  0.78636911  0.40824935  1
  Rh  Rh203  1  0.40485417  0.00905357  0.40096970  1
  Rh  Rh204  1  0.59334622  0.19026602  0.19870503  1
  Rh  Rh205  1  0.19986826  0.01039008  -0.00715414  1
  Rh  Rh206  1  0.20231052  0.20245301  0.80517612  1
  Rh  Rh207  1  0.20593850  0.79815639  0.00039154  1
  Rh  Rh208  1  0.60291981  0.00709012  -0.00136644  1
  Rh  Rh209  1  -0.00534440  0.40618705  -0.00035843  1
  Rh  Rh210  1  0.20509744  -0.00026996  0.20283890  1
  Rh  Rh211  1  0.59059341  0.80436232  0.60531487  1
  Rh  Rh212  1  0.60347658  0.40402029  -0.01161569  1
  Rh  Rh213  1  0.21034611  0.59198221  0.39913880  1
  Rh  Rh214  1  -0.00472182  0.40762543  0.19515804  1
  Rh  Rh215  1  0.60545688  0.20012436  0.59430201  1
  Rh  Rh216  1  0.00637539  0.39699403  0.60492270  1
  Rh  Rh217  1  0.80359376  0.59979401  0.21381210  1
  Rh  Rh218  1  0.00908924  -0.00143624  -0.00668491  1
  Rh  Rh219  1  0.39758382  0.20693386  0.00607987  1
  Rh  Rh220  1  0.39723796  -0.00221042  0.00288453  1
  Rh  Rh221  1  0.19890940  0.59956845  0.00135491  1
  Rh  Rh222  1  0.40897555  0.80421692  0.80632255  1
  Rh  Rh223  1  0.19840126  0.79804492  0.41047866  1
  Rh  Rh224  1  0.19852449  0.19918987  -0.00683222  1
  Rh  Rh225  1  0.79606045  -0.00200957  -0.00171781  1
  Rh  Rh226  1  0.80274533  0.19723322  0.80251734  1
  Rh  Rh227  1  0.39469959  0.59365606  0.80533166  1
  Rh  Rh228  1  0.19605504  0.60548848  0.61055854  1
  Rh  Rh229  1  0.58923170  0.59044850  0.19472750  1
  Rh  Rh230  1  0.59597753  0.59626010  0.40205679  1
  Rh  Rh231  1  0.60629412  0.80709563  0.39175616  1
  Rh  Rh232  1  0.40875419  0.60651783  0.59365907  1
  Rh  Rh233  1  0.19721582  0.20223109  0.60181586  1
  Rh  Rh234  1  -0.00607916  0.20640350  0.80211697  1
  Rh  Rh235  1  0.00638353  0.20643158  0.39768764  1
  Rh  Rh236  1  0.80277730  0.20184916  -0.00268211  1
  Rh  Rh237  1  0.20437969  0.59521862  0.80041149  1
  Rh  Rh238  1  0.20603396  0.01484387  0.80981481  1
  Rh  Rh239  1  0.19060497  0.79356171  0.79405547  1
  Rh  Rh240  1  0.19311190  0.60076299  0.20348817  1
  Rh  Rh241  1  0.79603030  0.60064478  -0.00896113  1
  Rh  Rh242  1  0.60541884  0.20378003  -0.01092290  1
  Rh  Rh243  1  0.80260966  0.40473638  0.60303786  1
  Rh  Rh244  1  0.39815017  0.00735722  0.79754028  1
  Rh  Rh245  1  -0.00251234  0.19930882  -0.00241244  1
  Rh  Rh246  1  0.40551164  0.19362730  0.59717170  1
  Rh  Rh247  1  0.19375025  0.40332447  0.60494633  1
  Rh  Rh248  1  0.79507846  0.39580746  0.39544992  1
  Rh  Rh249  1  0.20147202  0.39843798  -0.00520424  1
