# generated using pymatgen
data_ZrScNbPdRh
_symmetry_space_group_name_H-M   'P 1'
_cell_length_a   16.56136692
_cell_length_b   16.56439356
_cell_length_c   16.55977315
_cell_angle_alpha   89.99950050
_cell_angle_beta   89.98392279
_cell_angle_gamma   90.04931916
_symmetry_Int_Tables_number   1
_chemical_formula_structural   ZrScNbPdRh
_chemical_formula_sum   'Zr50 Sc50 Nb50 Pd50 Rh50'
_cell_volume   4542.82413936
_cell_formula_units_Z   50
loop_
 _symmetry_equiv_pos_site_id
 _symmetry_equiv_pos_as_xyz
  1  'x, y, z'
loop_
 _atom_site_type_symbol
 _atom_site_label
 _atom_site_symmetry_multiplicity
 _atom_site_fract_x
 _atom_site_fract_y
 _atom_site_fract_z
 _atom_site_occupancy
  Zr  Zr0  1  0.51139157  0.50307464  0.90242046  1
  Zr  Zr1  1  0.30329942  0.10283222  0.69899531  1
  Zr  Zr2  1  0.49304736  0.69255157  0.90383305  1
  Zr  Zr3  1  0.69624483  0.49557817  0.10374181  1
  Zr  Zr4  1  0.10084743  0.50359118  0.49040318  1
  Zr  Zr5  1  0.49671586  0.89660177  0.49325496  1
  Zr  Zr6  1  0.89780718  0.09677277  0.69695155  1
  Zr  Zr7  1  0.29811085  0.90413500  0.30098988  1
  Zr  Zr8  1  0.30170384  0.69713127  0.50056710  1
  Zr  Zr9  1  0.29364740  0.30455448  0.90783269  1
  Zr  Zr10  1  0.10010662  0.89865496  0.70304327  1
  Zr  Zr11  1  0.49790585  0.09768358  0.89956881  1
  Zr  Zr12  1  0.09564911  0.09248535  0.49333422  1
  Zr  Zr13  1  0.28564576  0.49691066  0.30229294  1
  Zr  Zr14  1  0.49948073  0.89606445  0.09823793  1
  Zr  Zr15  1  0.29312176  0.89238369  0.49205933  1
  Zr  Zr16  1  0.91023075  0.88470722  0.89747756  1
  Zr  Zr17  1  0.70438764  0.10594719  0.31002269  1
  Zr  Zr18  1  0.51046655  0.69491151  0.29486015  1
  Zr  Zr19  1  0.49317371  0.29447984  0.30122597  1
  Zr  Zr20  1  0.30041538  0.90219082  0.10618081  1
  Zr  Zr21  1  0.30258962  0.09843704  0.49702807  1
  Zr  Zr22  1  0.09522380  0.10820694  0.29540601  1
  Zr  Zr23  1  0.70244173  0.68840632  0.89121601  1
  Zr  Zr24  1  0.69943568  0.70261075  0.11006120  1
  Zr  Zr25  1  0.89783277  0.90035526  0.69418766  1
  Zr  Zr26  1  0.51009070  0.49811955  0.30533611  1
  Zr  Zr27  1  0.31625666  0.10590645  0.29566837  1
  Zr  Zr28  1  0.90254614  0.30603914  0.90275237  1
  Zr  Zr29  1  0.29639159  0.30487216  0.10586149  1
  Zr  Zr30  1  0.10075032  0.70145876  0.49563995  1
  Zr  Zr31  1  0.50113455  0.09843791  0.70216405  1
  Zr  Zr32  1  0.71240188  0.10227355  0.10516048  1
  Zr  Zr33  1  0.89830541  0.90196964  0.30641913  1
  Zr  Zr34  1  0.69630371  0.89304435  0.70149785  1
  Zr  Zr35  1  0.70279479  0.90415863  0.09641313  1
  Zr  Zr36  1  0.09280336  0.68936948  0.70037515  1
  Zr  Zr37  1  0.90340734  0.49975614  0.49028184  1
  Zr  Zr38  1  0.10775963  0.10109728  0.90922017  1
  Zr  Zr39  1  0.89336458  0.29026114  0.70661778  1
  Zr  Zr40  1  0.50062584  0.70019972  0.09717667  1
  Zr  Zr41  1  0.29612472  0.50839501  0.89955706  1
  Zr  Zr42  1  0.89683028  0.89998330  0.10440873  1
  Zr  Zr43  1  0.49128228  0.50105888  0.69379431  1
  Zr  Zr44  1  0.89584137  0.70395266  0.70331533  1
  Zr  Zr45  1  0.10520199  0.50191270  0.89885875  1
  Zr  Zr46  1  0.69349808  0.49888611  0.71209336  1
  Zr  Zr47  1  0.89244747  0.09594431  0.50279312  1
  Zr  Zr48  1  0.10203845  0.90430098  0.31202436  1
  Zr  Zr49  1  0.10229866  0.90392296  0.10591837  1
  Sc  Sc50  1  0.09645907  0.49618670  0.29898299  1
  Sc  Sc51  1  0.70285183  0.30587105  0.89008367  1
  Sc  Sc52  1  0.29959091  0.29197222  0.49876462  1
  Sc  Sc53  1  0.49800802  0.29623827  0.69318575  1
  Sc  Sc54  1  0.49583194  0.31532296  0.10052953  1
  Sc  Sc55  1  0.70044985  0.09003927  0.90578017  1
  Sc  Sc56  1  0.49186797  0.90427305  0.29970227  1
  Sc  Sc57  1  0.29292623  0.10244371  0.09909300  1
  Sc  Sc58  1  0.09167395  0.70253927  0.90280910  1
  Sc  Sc59  1  0.10001189  0.30147353  0.90933456  1
  Sc  Sc60  1  0.69484003  0.48426593  0.48462994  1
  Sc  Sc61  1  0.69920031  0.29308035  0.69668279  1
  Sc  Sc62  1  0.89983594  0.30303578  0.10484128  1
  Sc  Sc63  1  0.70557733  0.49876774  0.29481894  1
  Sc  Sc64  1  0.29182590  0.29799104  0.29833252  1
  Sc  Sc65  1  0.50933668  0.90549772  0.89760652  1
  Sc  Sc66  1  0.71091813  0.89740960  0.49856298  1
  Sc  Sc67  1  0.50509257  0.30046363  0.50517884  1
  Sc  Sc68  1  0.48581669  0.09960862  0.10102282  1
  Sc  Sc69  1  0.30116455  0.69679781  0.09699601  1
  Sc  Sc70  1  0.09960497  0.10056646  0.70509527  1
  Sc  Sc71  1  0.10055738  0.29834346  0.48295788  1
  Sc  Sc72  1  0.49965962  0.70320223  0.70356620  1
  Sc  Sc73  1  0.89652060  0.49633349  0.29755419  1
  Sc  Sc74  1  0.90270208  0.69496292  0.09547986  1
  Sc  Sc75  1  0.29425395  0.69828689  0.29751546  1
  Sc  Sc76  1  0.70862222  0.89519380  0.29821529  1
  Sc  Sc77  1  0.30624650  0.70208666  0.70747941  1
  Sc  Sc78  1  0.70638567  0.10277659  0.69617756  1
  Sc  Sc79  1  0.29851185  0.10507523  0.90352411  1
  Sc  Sc80  1  0.10028138  0.49579618  0.10209740  1
  Sc  Sc81  1  0.89721405  0.10393811  0.10936364  1
  Sc  Sc82  1  0.29860043  0.69615579  0.90116742  1
  Sc  Sc83  1  0.09986063  0.69124020  0.10149375  1
  Sc  Sc84  1  0.09866317  0.30246759  0.10092476  1
  Sc  Sc85  1  0.50131136  0.10615965  0.48870922  1
  Sc  Sc86  1  0.90432774  0.49843324  0.10464532  1
  Sc  Sc87  1  0.69972560  0.70991100  0.49634670  1
  Sc  Sc88  1  0.10170078  0.68870657  0.30280484  1
  Sc  Sc89  1  0.69974466  0.29319949  0.49918659  1
  Sc  Sc90  1  0.49606025  0.69504474  0.49120674  1
  Sc  Sc91  1  0.29560888  0.90251576  0.89373342  1
  Sc  Sc92  1  0.89962399  0.69799593  0.49311718  1
  Sc  Sc93  1  0.70708845  0.69961910  0.29914423  1
  Sc  Sc94  1  0.49729405  0.30664937  0.90734852  1
  Sc  Sc95  1  0.29777740  0.29055313  0.69765073  1
  Sc  Sc96  1  0.91034720  0.51617877  0.70146716  1
  Sc  Sc97  1  0.69919247  0.70578143  0.69846592  1
  Sc  Sc98  1  0.90108904  0.11026186  0.89795050  1
  Sc  Sc99  1  0.10062929  0.89996240  0.89795648  1
  Nb  Nb100  1  0.91050955  0.90482855  0.50302555  1
  Nb  Nb101  1  0.89480777  0.70091765  0.29539156  1
  Nb  Nb102  1  0.09581036  0.30341696  0.29782436  1
  Nb  Nb103  1  0.30207577  0.89693466  0.69333990  1
  Nb  Nb104  1  0.89832477  0.10866854  0.30085126  1
  Nb  Nb105  1  0.90344665  0.30425929  0.49963577  1
  Nb  Nb106  1  0.29683369  0.50086866  0.10033572  1
  Nb  Nb107  1  0.50325499  0.10127306  0.29668216  1
  Nb  Nb108  1  0.90479488  0.29919278  0.30666882  1
  Nb  Nb109  1  0.09691429  0.30410625  0.69450509  1
  Nb  Nb110  1  0.49410249  0.49987247  0.50207729  1
  Nb  Nb111  1  0.70187309  0.49844826  0.90006113  1
  Nb  Nb112  1  0.10274092  0.50055058  0.69910928  1
  Nb  Nb113  1  0.29711709  0.50280114  0.70118903  1
  Nb  Nb114  1  0.50066968  0.90542996  0.69962363  1
  Nb  Nb115  1  0.09825512  0.90217407  0.49660790  1
  Nb  Nb116  1  0.30541129  0.50160233  0.50610653  1
  Nb  Nb117  1  0.89860716  0.69499062  0.89682756  1
  Nb  Nb118  1  0.49920600  0.50314965  0.10030375  1
  Nb  Nb119  1  0.70254292  0.30091829  0.10154280  1
  Nb  Nb120  1  0.10249671  0.09807216  0.09816988  1
  Nb  Nb121  1  0.70672467  0.30793141  0.29677619  1
  Nb  Nb122  1  0.89475165  0.50868395  0.90071880  1
  Nb  Nb123  1  0.70378869  0.89944999  0.89942585  1
  Nb  Nb124  1  0.69683277  0.09889087  0.50834293  1
  Nb  Nb125  1  0.80820299  0.40388830  0.60049425  1
  Nb  Nb126  1  0.39323124  0.40580142  0.79770606  1
  Nb  Nb127  1  0.40288985  0.59017541  0.19681645  1
  Nb  Nb128  1  0.00161731  0.39821182  0.60259966  1
  Nb  Nb129  1  0.20382946  -0.00796353  0.59834637  1
  Nb  Nb130  1  0.60340436  0.20322897  0.00625890  1
  Nb  Nb131  1  0.00292375  0.00314774  0.00578481  1
  Nb  Nb132  1  0.59650003  -0.00304709  0.59788086  1
  Nb  Nb133  1  0.00153030  0.80565230  0.59367839  1
  Nb  Nb134  1  -0.00234979  0.79935309  0.20617898  1
  Nb  Nb135  1  0.79220633  0.59240121  0.59636421  1
  Nb  Nb136  1  0.79591428  0.40666416  -0.00315761  1
  Nb  Nb137  1  0.79951153  0.79504929  -0.00687899  1
  Nb  Nb138  1  0.39921764  0.40680008  0.40632047  1
  Nb  Nb139  1  0.20339419  0.59456878  0.60228076  1
  Nb  Nb140  1  0.60381912  0.20119221  0.19821016  1
  Nb  Nb141  1  0.80097641  -0.00880128  0.80107970  1
  Nb  Nb142  1  0.59698340  0.19457445  0.80731125  1
  Nb  Nb143  1  0.19757997  0.40465257  0.60095457  1
  Nb  Nb144  1  0.00359125  0.40371626  0.79613110  1
  Nb  Nb145  1  -0.00210787  0.20582955  0.59648287  1
  Nb  Nb146  1  0.19785380  0.80350601  0.00496592  1
  Nb  Nb147  1  0.40039038  -0.00804716  0.60037322  1
  Nb  Nb148  1  0.59952041  0.59374672  0.59460278  1
  Nb  Nb149  1  0.60057782  0.00894654  0.20352837  1
  Pd  Pd150  1  0.20288603  0.01105226  0.20818175  1
  Pd  Pd151  1  0.60892265  0.40229456  0.59932102  1
  Pd  Pd152  1  0.79720026  0.59838731  0.00869774  1
  Pd  Pd153  1  0.00050531  0.20610585  0.19428374  1
  Pd  Pd154  1  -0.00295832  0.60196231  0.20497576  1
  Pd  Pd155  1  0.60240795  0.80470648  0.39271997  1
  Pd  Pd156  1  0.39299958  -0.00471651  -0.00333229  1
  Pd  Pd157  1  0.39339694  -0.00443767  0.79892468  1
  Pd  Pd158  1  0.40473158  0.80661581  0.80788367  1
  Pd  Pd159  1  0.19136832  0.79179328  0.19971876  1
  Pd  Pd160  1  0.20071620  0.39237261  0.79510104  1
  Pd  Pd161  1  0.80216022  0.20569155  0.40615282  1
  Pd  Pd162  1  0.39925720  0.78975962  0.20455447  1
  Pd  Pd163  1  0.19703031  0.79206569  0.80599402  1
  Pd  Pd164  1  0.01007814  0.20575496  0.79976039  1
  Pd  Pd165  1  0.60719957  0.60234433  0.00487057  1
  Pd  Pd166  1  0.00345729  0.59518494  -0.00050267  1
  Pd  Pd167  1  0.40312261  0.20483974  0.00557731  1
  Pd  Pd168  1  -0.00284014  0.79371190  0.39757778  1
  Pd  Pd169  1  0.39623185  0.40647301  0.21125618  1
  Pd  Pd170  1  0.60168829  0.20705041  0.39689376  1
  Pd  Pd171  1  0.81151528  0.41019315  0.79596293  1
  Pd  Pd172  1  0.40392453  0.21248625  0.80548905  1
  Pd  Pd173  1  0.60776930  0.79477464  -0.00902706  1
  Pd  Pd174  1  0.59954567  0.81245451  0.20809988  1
  Pd  Pd175  1  -0.00512514  0.00365579  0.81112433  1
  Pd  Pd176  1  0.59373288  0.79539393  0.80799882  1
  Pd  Pd177  1  0.59746294  0.00993964  0.01209512  1
  Pd  Pd178  1  0.39629124  0.41020737  -0.00623328  1
  Pd  Pd179  1  0.79517898  0.21012253  -0.00636967  1
  Pd  Pd180  1  0.58853493  0.38907440  0.79756079  1
  Pd  Pd181  1  0.39141876  0.80713559  -0.00848551  1
  Pd  Pd182  1  0.81590843  -0.00580336  -0.01118443  1
  Pd  Pd183  1  0.38976811  0.38983678  0.60068361  1
  Pd  Pd184  1  -0.00108355  0.19600895  0.00967864  1
  Pd  Pd185  1  0.19432828  0.20612995  0.80205443  1
  Pd  Pd186  1  0.18837615  0.19750862  0.59554477  1
  Pd  Pd187  1  0.61035893  0.60072758  0.40675491  1
  Pd  Pd188  1  0.59188564  0.79651503  0.59466025  1
  Pd  Pd189  1  0.39520258  0.59543166  0.38784399  1
  Pd  Pd190  1  0.40732604  0.79801369  0.60085762  1
  Pd  Pd191  1  0.39963079  0.79152538  0.38844562  1
  Pd  Pd192  1  0.20083123  0.19607513  0.39240637  1
  Pd  Pd193  1  0.79954471  -0.00021290  0.40138345  1
  Pd  Pd194  1  0.19361328  0.79533097  0.60277018  1
  Pd  Pd195  1  0.20518863  0.00238955  0.79458677  1
  Pd  Pd196  1  0.59901981  0.39467105  0.20342706  1
  Pd  Pd197  1  0.79369170  0.60024283  0.40216951  1
  Pd  Pd198  1  0.60386159  -0.00479986  0.39966655  1
  Pd  Pd199  1  -0.00396456  -0.00118561  0.20313968  1
  Rh  Rh200  1  0.00192584  0.59637084  0.81099931  1
  Rh  Rh201  1  0.40145216  0.20797750  0.40304066  1
  Rh  Rh202  1  0.59434823  0.60342223  0.79317478  1
  Rh  Rh203  1  0.80775991  0.80137641  0.40368295  1
  Rh  Rh204  1  0.00158549  0.80536214  0.01348722  1
  Rh  Rh205  1  0.20493650  0.60098923  0.40627540  1
  Rh  Rh206  1  0.80530332  0.20808497  0.59178908  1
  Rh  Rh207  1  0.19210794  0.39791017  0.19827930  1
  Rh  Rh208  1  0.40348658  0.20549017  0.19298178  1
  Rh  Rh209  1  0.20454409  0.59588364  0.19592574  1
  Rh  Rh210  1  0.19779899  -0.00672940  -0.00071353  1
  Rh  Rh211  1  0.80244550  0.39271084  0.39933166  1
  Rh  Rh212  1  0.00427099  0.79402706  0.79128809  1
  Rh  Rh213  1  -0.00910195  0.40981188  -0.00800690  1
  Rh  Rh214  1  0.59239228  0.39115617  0.39958116  1
  Rh  Rh215  1  0.59939992  0.59584380  0.19762780  1
  Rh  Rh216  1  0.78621613  0.18677641  0.80902755  1
  Rh  Rh217  1  0.20512262  0.00910861  0.39697204  1
  Rh  Rh218  1  0.00046758  0.60248375  0.58920930  1
  Rh  Rh219  1  0.20606126  0.39612628  0.40664084  1
  Rh  Rh220  1  0.39753524  0.59336587  0.00746184  1
  Rh  Rh221  1  0.19933803  0.60878631  0.79567032  1
  Rh  Rh222  1  0.79681522  0.00565269  0.21331530  1
  Rh  Rh223  1  0.80280470  0.59873541  0.19722838  1
  Rh  Rh224  1  0.80613551  0.39658117  0.19682385  1
  Rh  Rh225  1  0.60947366  0.39597546  0.00089102  1
  Rh  Rh226  1  0.19679668  0.60550417  0.00204160  1
  Rh  Rh227  1  0.01360628  0.00079533  0.60146346  1
  Rh  Rh228  1  0.19535898  0.20164285  0.19980735  1
  Rh  Rh229  1  0.40055208  0.60961362  0.60334760  1
  Rh  Rh230  1  0.19823057  0.79498527  0.39363858  1
  Rh  Rh231  1  0.40096522  0.00239551  0.40175060  1
  Rh  Rh232  1  0.00136467  0.40008038  0.39561746  1
  Rh  Rh233  1  0.40413857  -0.00020268  0.19794036  1
  Rh  Rh234  1  0.80792659  0.79450644  0.19291592  1
  Rh  Rh235  1  0.40274265  0.59482936  0.80057002  1
  Rh  Rh236  1  0.80048068  0.20896975  0.21022635  1
  Rh  Rh237  1  0.79788393  0.80195148  0.80724123  1
  Rh  Rh238  1  0.20011909  0.20483013  0.00816047  1
  Rh  Rh239  1  0.40580180  0.19300583  0.59363745  1
  Rh  Rh240  1  0.81156512  0.79312422  0.59054061  1
  Rh  Rh241  1  -0.00608151  0.19603871  0.40367106  1
  Rh  Rh242  1  0.59888793  0.19073756  0.60517141  1
  Rh  Rh243  1  0.79916893  0.59688328  0.79029661  1
  Rh  Rh244  1  -0.00184287  0.39551929  0.20592961  1
  Rh  Rh245  1  0.19936308  0.40341716  0.00706275  1
  Rh  Rh246  1  -0.00757456  0.00960148  0.39251973  1
  Rh  Rh247  1  0.61314960  0.00455574  0.79155079  1
  Rh  Rh248  1  0.78793268  -0.00733547  0.60400806  1
  Rh  Rh249  1  -0.00547048  0.60047958  0.38991020  1
