# generated using pymatgen
data_ZrScNbPdRh
_symmetry_space_group_name_H-M   'P 1'
_cell_length_a   16.54884354
_cell_length_b   16.55002834
_cell_length_c   16.55195848
_cell_angle_alpha   89.99712356
_cell_angle_beta   90.00593330
_cell_angle_gamma   89.99196276
_symmetry_Int_Tables_number   1
_chemical_formula_structural   ZrScNbPdRh
_chemical_formula_sum   'Zr50 Sc50 Nb50 Pd50 Rh50'
_cell_volume   4533.31369846
_cell_formula_units_Z   50
loop_
 _symmetry_equiv_pos_site_id
 _symmetry_equiv_pos_as_xyz
  1  'x, y, z'
loop_
 _atom_site_type_symbol
 _atom_site_label
 _atom_site_symmetry_multiplicity
 _atom_site_fract_x
 _atom_site_fract_y
 _atom_site_fract_z
 _atom_site_occupancy
  Zr  Zr0  1  0.09477780  0.50560081  0.31560946  1
  Zr  Zr1  1  0.49801160  0.50145276  0.89832054  1
  Zr  Zr2  1  0.29696763  0.29675576  0.29160257  1
  Zr  Zr3  1  0.29693958  0.10093024  0.71669994  1
  Zr  Zr4  1  0.28894710  0.89595047  0.50149102  1
  Zr  Zr5  1  0.50610500  0.68996850  0.49755072  1
  Zr  Zr6  1  0.29481114  0.28336828  0.90321698  1
  Zr  Zr7  1  0.29826074  0.50304823  0.09467774  1
  Zr  Zr8  1  0.09850401  0.70180063  0.49341585  1
  Zr  Zr9  1  0.70069886  0.71063680  0.89437756  1
  Zr  Zr10  1  0.50118469  0.48577603  0.50465787  1
  Zr  Zr11  1  0.90257361  0.49078112  0.30896084  1
  Zr  Zr12  1  0.90171564  0.90502634  0.89817869  1
  Zr  Zr13  1  0.50445197  0.10558119  0.69891488  1
  Zr  Zr14  1  0.50156142  0.70372077  0.10348018  1
  Zr  Zr15  1  0.70086976  0.10573725  0.90017124  1
  Zr  Zr16  1  0.70236308  0.89628628  0.69656312  1
  Zr  Zr17  1  0.10591064  0.09753913  0.89143879  1
  Zr  Zr18  1  0.10211305  0.89346998  0.91174406  1
  Zr  Zr19  1  0.50628805  0.89344163  0.89391915  1
  Zr  Zr20  1  0.09625041  0.30794450  0.29357189  1
  Zr  Zr21  1  0.89930411  0.10099525  0.09702695  1
  Zr  Zr22  1  0.50477264  0.30145202  0.68749016  1
  Zr  Zr23  1  0.29725409  0.50057050  0.70437152  1
  Zr  Zr24  1  0.29576047  0.29910257  0.50270105  1
  Zr  Zr25  1  0.29482172  0.70716011  0.50173171  1
  Zr  Zr26  1  0.89484914  0.69596708  0.70019880  1
  Zr  Zr27  1  0.30271789  0.88880390  0.70037330  1
  Zr  Zr28  1  0.91142409  0.29025055  0.10797176  1
  Zr  Zr29  1  0.09223037  0.90490299  0.49746157  1
  Zr  Zr30  1  0.70499584  0.09596280  0.70314757  1
  Zr  Zr31  1  0.50427043  0.70692567  0.29710146  1
  Zr  Zr32  1  0.30710626  0.10115693  0.09226780  1
  Zr  Zr33  1  0.29231290  0.09951293  0.49875067  1
  Zr  Zr34  1  0.50973304  0.50159438  0.31126253  1
  Zr  Zr35  1  0.49515415  0.49798858  0.69773494  1
  Zr  Zr36  1  0.89208489  0.11708319  0.29454916  1
  Zr  Zr37  1  0.09196914  0.49469077  0.69740427  1
  Zr  Zr38  1  0.89905839  0.70498097  0.30179256  1
  Zr  Zr39  1  0.29870684  0.29655551  0.10433912  1
  Zr  Zr40  1  0.70318495  0.89974932  0.31047920  1
  Zr  Zr41  1  0.90207475  0.50504764  0.69917038  1
  Zr  Zr42  1  0.90567380  0.90571204  0.09720361  1
  Zr  Zr43  1  0.10249063  0.50968582  0.89937382  1
  Zr  Zr44  1  0.29287071  0.70462990  0.69706881  1
  Zr  Zr45  1  0.29602875  0.70075980  0.11531781  1
  Zr  Zr46  1  0.49941841  0.09478114  0.89856364  1
  Zr  Zr47  1  0.28932539  0.89761001  0.09588313  1
  Zr  Zr48  1  0.09540184  0.10600344  0.50506766  1
  Zr  Zr49  1  0.50924298  0.70215008  0.90578631  1
  Sc  Sc50  1  0.51278197  0.29648710  0.89617590  1
  Sc  Sc51  1  0.09549011  0.29898840  0.68878027  1
  Sc  Sc52  1  0.69816017  0.70853458  0.50556938  1
  Sc  Sc53  1  0.89970939  0.70227563  0.09022829  1
  Sc  Sc54  1  0.70456586  0.09053338  0.49960523  1
  Sc  Sc55  1  0.50380742  0.90368168  0.10107444  1
  Sc  Sc56  1  0.29137000  0.69878890  0.89175385  1
  Sc  Sc57  1  0.69596120  0.29781003  0.50498387  1
  Sc  Sc58  1  0.29674066  0.49917423  0.29442896  1
  Sc  Sc59  1  0.51142194  0.49331222  0.10439538  1
  Sc  Sc60  1  0.49803692  0.08862906  0.29083045  1
  Sc  Sc61  1  0.69796616  0.69985264  0.08682627  1
  Sc  Sc62  1  0.90118299  0.69483305  0.89499228  1
  Sc  Sc63  1  0.29343251  0.49860152  0.89321741  1
  Sc  Sc64  1  0.49059353  0.70835360  0.69811724  1
  Sc  Sc65  1  0.09205746  0.89499924  0.70712085  1
  Sc  Sc66  1  0.69863324  0.91042676  0.89020648  1
  Sc  Sc67  1  0.29570827  0.09811293  0.29375931  1
  Sc  Sc68  1  0.89686137  0.90066544  0.30633140  1
  Sc  Sc69  1  0.69728429  0.90871791  0.09547253  1
  Sc  Sc70  1  0.10062472  0.90593199  0.30015979  1
  Sc  Sc71  1  0.29778271  0.49444026  0.50382147  1
  Sc  Sc72  1  0.30020527  0.30465897  0.70208007  1
  Sc  Sc73  1  0.90086877  0.70457813  0.50391596  1
  Sc  Sc74  1  0.50084992  0.09666141  0.09659067  1
  Sc  Sc75  1  0.90648731  0.50660035  0.08800099  1
  Sc  Sc76  1  0.89827377  0.90352717  0.69899871  1
  Sc  Sc77  1  0.10180590  0.50223243  0.08864719  1
  Sc  Sc78  1  0.52214622  0.89732187  0.50089679  1
  Sc  Sc79  1  0.09130293  0.09133748  0.10336096  1
  Sc  Sc80  1  0.09916696  0.29843416  0.90975234  1
  Sc  Sc81  1  0.90815180  0.30398662  0.70711779  1
  Sc  Sc82  1  0.51041107  0.89800390  0.29186947  1
  Sc  Sc83  1  0.68969934  0.29721781  0.09768932  1
  Sc  Sc84  1  0.90244269  0.28939938  0.90299686  1
  Sc  Sc85  1  0.29420234  0.90332684  0.89718520  1
  Sc  Sc86  1  0.90318291  0.50259698  0.89328887  1
  Sc  Sc87  1  0.89314161  0.30462270  0.48959464  1
  Sc  Sc88  1  0.72268031  0.29094753  0.31127610  1
  Sc  Sc89  1  0.69672431  0.50331846  0.90433292  1
  Sc  Sc90  1  0.09945292  0.70113475  0.89952790  1
  Sc  Sc91  1  0.09987208  0.09512625  0.30096547  1
  Sc  Sc92  1  0.69428005  0.29688350  0.70950129  1
  Sc  Sc93  1  0.49047124  0.30865000  0.29825062  1
  Sc  Sc94  1  0.90895844  0.50383301  0.50064253  1
  Sc  Sc95  1  0.69589566  0.10069814  0.09336705  1
  Sc  Sc96  1  0.70300738  0.50233394  0.70199367  1
  Sc  Sc97  1  0.29376314  0.89980929  0.29583148  1
  Sc  Sc98  1  0.68797875  0.49876271  0.49581851  1
  Sc  Sc99  1  0.90287565  0.09215458  0.50545651  1
  Nb  Nb100  1  0.70089970  0.10139516  0.29849237  1
  Nb  Nb101  1  0.71642511  0.90338655  0.50277423  1
  Nb  Nb102  1  0.10770720  0.69939418  0.29880331  1
  Nb  Nb103  1  0.89764067  0.09710659  0.89615488  1
  Nb  Nb104  1  0.10287506  0.70480233  0.09658655  1
  Nb  Nb105  1  0.50007779  0.90441828  0.70442326  1
  Nb  Nb106  1  0.49673204  0.29628044  0.10547147  1
  Nb  Nb107  1  0.70442882  0.49880931  0.30026269  1
  Nb  Nb108  1  0.10038585  0.30397329  0.50289965  1
  Nb  Nb109  1  0.90300455  0.30213424  0.29864127  1
  Nb  Nb110  1  0.70450313  0.49661455  0.10312389  1
  Nb  Nb111  1  0.09659832  0.49582609  0.50568474  1
  Nb  Nb112  1  0.08782306  0.09595117  0.69188278  1
  Nb  Nb113  1  0.88716983  0.90277945  0.49904035  1
  Nb  Nb114  1  0.50013272  0.29298842  0.50246615  1
  Nb  Nb115  1  0.70321009  0.70214524  0.30083220  1
  Nb  Nb116  1  0.09863582  0.89180135  0.09876815  1
  Nb  Nb117  1  0.70857145  0.69939488  0.70616761  1
  Nb  Nb118  1  0.29736488  0.09856908  0.90291164  1
  Nb  Nb119  1  0.70225959  0.29868992  0.90316480  1
  Nb  Nb120  1  0.30106933  0.70150945  0.30114920  1
  Nb  Nb121  1  0.09602406  0.29729457  0.09993978  1
  Nb  Nb122  1  0.09615019  0.69726511  0.69862847  1
  Nb  Nb123  1  0.91299634  0.10130952  0.70273478  1
  Nb  Nb124  1  0.49732424  0.10380999  0.50440845  1
  Nb  Nb125  1  0.40297575  -0.00258284  0.40883845  1
  Nb  Nb126  1  0.59208611  0.19428275  0.39974865  1
  Nb  Nb127  1  0.40151413  0.80032563  0.39784743  1
  Nb  Nb128  1  0.40391000  0.19531052  0.40316389  1
  Nb  Nb129  1  0.80624928  0.20036875  0.60656235  1
  Nb  Nb130  1  0.19082380  0.59949696  0.60003968  1
  Nb  Nb131  1  0.59963396  0.60704285  0.79730567  1
  Nb  Nb132  1  0.80085303  0.39886693  0.60279620  1
  Nb  Nb133  1  0.39861246  0.60546709  0.39813364  1
  Nb  Nb134  1  0.00219657  0.60795772  0.20210699  1
  Nb  Nb135  1  0.00711912  0.79667981  0.19676748  1
  Nb  Nb136  1  0.40028450  -0.00029336  0.60046639  1
  Nb  Nb137  1  0.39776981  0.79417268  0.00179416  1
  Nb  Nb138  1  0.79801138  0.39522021  0.00277810  1
  Nb  Nb139  1  0.40140876  0.39585348  0.00171784  1
  Nb  Nb140  1  0.59911902  0.20154519  0.20812293  1
  Nb  Nb141  1  0.80306249  0.40204764  0.19520565  1
  Nb  Nb142  1  0.80087996  0.59731828  0.20164306  1
  Nb  Nb143  1  0.80170682  0.80909633  -0.00674167  1
  Nb  Nb144  1  0.79449958  0.60118077  0.39421123  1
  Nb  Nb145  1  0.19818703  0.00155271  0.60768679  1
  Nb  Nb146  1  0.79856239  0.00532053  0.20218701  1
  Nb  Nb147  1  0.61300469  0.59793766  0.20465480  1
  Nb  Nb148  1  0.00084839  0.20752936  0.39885101  1
  Nb  Nb149  1  0.40019723  0.60055318  0.00315717  1
  Pd  Pd150  1  -0.00906979  0.00952947  0.39409679  1
  Pd  Pd151  1  0.18944319  0.19092891  0.01112700  1
  Pd  Pd152  1  0.18708562  0.20756777  0.79092655  1
  Pd  Pd153  1  0.59681181  0.00416704  0.40046760  1
  Pd  Pd154  1  0.60008413  0.39773516  -0.00075222  1
  Pd  Pd155  1  0.60506961  0.40777411  0.79832598  1
  Pd  Pd156  1  0.39619409  -0.00706793  0.20137844  1
  Pd  Pd157  1  0.79942898  0.20554272  0.00532406  1
  Pd  Pd158  1  0.80498405  0.20182209  0.79474562  1
  Pd  Pd159  1  0.20525393  0.39598770  -0.00222496  1
  Pd  Pd160  1  0.19174284  0.19151535  0.19325687  1
  Pd  Pd161  1  0.40380460  0.60995895  0.80453745  1
  Pd  Pd162  1  0.19226655  0.39062879  0.80203712  1
  Pd  Pd163  1  0.79870996  0.59964016  -0.00334238  1
  Pd  Pd164  1  0.40133517  0.40908960  0.19532788  1
  Pd  Pd165  1  0.40786153  0.20718651  0.80202254  1
  Pd  Pd166  1  0.41011691  0.20475988  -0.00372875  1
  Pd  Pd167  1  0.39125411  0.59731955  0.59346704  1
  Pd  Pd168  1  0.41310376  0.81015856  0.58800160  1
  Pd  Pd169  1  0.61126721  0.39039658  0.21224885  1
  Pd  Pd170  1  0.80100499  0.80296849  0.18709245  1
  Pd  Pd171  1  -0.00081021  0.41454008  0.19062922  1
  Pd  Pd172  1  0.00513398  0.39567713  0.80926920  1
  Pd  Pd173  1  -0.00405956  0.79580312  0.80193215  1
  Pd  Pd174  1  0.39258854  0.39852214  0.40175169  1
  Pd  Pd175  1  0.60056203  0.79674430  0.60557826  1
  Pd  Pd176  1  0.19026771  0.59262361  0.19982025  1
  Pd  Pd177  1  -0.00718478  0.39941113  -0.00463935  1
  Pd  Pd178  1  0.59969219  0.00155009  0.60111508  1
  Pd  Pd179  1  0.40083388  -0.01191929  -0.00377121  1
  Pd  Pd180  1  0.39929562  0.38768307  0.80866605  1
  Pd  Pd181  1  0.60465662  0.60249402  0.61136278  1
  Pd  Pd182  1  0.00128673  0.80271376  0.39442288  1
  Pd  Pd183  1  0.60848990  0.38169152  0.39234120  1
  Pd  Pd184  1  0.61583500  0.79908954  0.19194827  1
  Pd  Pd185  1  0.19557415  0.20271899  0.39185102  1
  Pd  Pd186  1  0.41150790  0.59072877  0.20323048  1
  Pd  Pd187  1  -0.00564039  0.80381164  0.60018759  1
  Pd  Pd188  1  0.20176070  0.19633865  0.61154644  1
  Pd  Pd189  1  0.39922538  -0.00462116  0.79981016  1
  Pd  Pd190  1  0.19915662  0.00318600  0.19283022  1
  Pd  Pd191  1  0.79823016  0.40028964  0.80439636  1
  Pd  Pd192  1  0.00556262  0.00672289  -0.00669455  1
  Pd  Pd193  1  0.38993924  0.19659042  0.60151631  1
  Pd  Pd194  1  0.19364112  -0.00839492  0.79469433  1
  Pd  Pd195  1  0.79318910  0.59298218  0.58715300  1
  Pd  Pd196  1  0.00713951  0.20249691  0.80409867  1
  Pd  Pd197  1  0.20233587  0.40072063  0.39969462  1
  Pd  Pd198  1  0.20826935  0.59602447  0.40804476  1
  Pd  Pd199  1  0.18933740  0.40973708  0.19501126  1
  Rh  Rh200  1  0.39931497  0.79968750  0.80882807  1
  Rh  Rh201  1  0.00144844  0.00043462  0.80421100  1
  Rh  Rh202  1  0.60350675  0.81326269  0.00304356  1
  Rh  Rh203  1  0.78893904  0.20394295  0.18870107  1
  Rh  Rh204  1  -0.01027706  0.20967059  0.58933127  1
  Rh  Rh205  1  0.60091013  0.00291452  0.79627814  1
  Rh  Rh206  1  0.18104696  0.80070862  0.60499283  1
  Rh  Rh207  1  0.19333117  0.80323128  0.20660329  1
  Rh  Rh208  1  0.00495949  0.19078512  -0.00408115  1
  Rh  Rh209  1  0.60058246  0.79588711  0.78604327  1
  Rh  Rh210  1  -0.00563128  0.79580042  0.00199738  1
  Rh  Rh211  1  0.20142138  -0.00189997  0.40469083  1
  Rh  Rh212  1  0.00524361  0.39178143  0.40903908  1
  Rh  Rh213  1  0.80786620  0.00637510  0.60815797  1
  Rh  Rh214  1  0.79735537  0.79380601  0.40964299  1
  Rh  Rh215  1  0.19204563  0.60048274  0.78986510  1
  Rh  Rh216  1  0.79227855  0.59644089  0.80606770  1
  Rh  Rh217  1  0.59570285  0.59205670  0.00304155  1
  Rh  Rh218  1  0.61038908  0.00671919  0.19872461  1
  Rh  Rh219  1  0.19984381  0.40538254  0.60234115  1
  Rh  Rh220  1  0.80607914  0.00294702  0.79623985  1
  Rh  Rh221  1  0.80575671  0.80604782  0.80219377  1
  Rh  Rh222  1  0.60030218  0.19716936  0.80276158  1
  Rh  Rh223  1  0.60429453  0.60679934  0.39520189  1
  Rh  Rh224  1  0.59860482  0.00172442  -0.00629379  1
  Rh  Rh225  1  0.20718893  0.79246872  -0.00184327  1
  Rh  Rh226  1  0.80416303  0.00688228  0.39307671  1
  Rh  Rh227  1  -0.00090572  -0.00986700  0.60146419  1
  Rh  Rh228  1  0.01068440  0.19661549  0.20749566  1
  Rh  Rh229  1  0.80367282  0.79930849  0.60198369  1
  Rh  Rh230  1  0.39408842  0.81090549  0.19994269  1
  Rh  Rh231  1  0.80249830  0.19092897  0.41550099  1
  Rh  Rh232  1  -0.00850810  -0.00859878  0.20681027  1
  Rh  Rh233  1  0.00211000  0.60232450  0.79992612  1
  Rh  Rh234  1  0.60873391  0.39886180  0.60384774  1
  Rh  Rh235  1  0.60460202  0.80167344  0.40280719  1
  Rh  Rh236  1  0.40834961  0.19625103  0.20807536  1
  Rh  Rh237  1  -0.01168702  0.39405534  0.59323298  1
  Rh  Rh238  1  0.19406361  0.80087379  0.80003603  1
  Rh  Rh239  1  0.59432187  0.19983432  0.00417195  1
  Rh  Rh240  1  0.00502425  0.60416023  0.59754217  1
  Rh  Rh241  1  0.00563021  0.60619719  -0.00026776  1
  Rh  Rh242  1  -0.00586305  0.60816490  0.39922544  1
  Rh  Rh243  1  0.80003776  -0.00043780  0.00117564  1
  Rh  Rh244  1  0.20625165  0.60746868  -0.00082887  1
  Rh  Rh245  1  0.79502303  0.40894336  0.40799227  1
  Rh  Rh246  1  0.19993584  0.80473906  0.39059397  1
  Rh  Rh247  1  0.39576597  0.39573184  0.60000736  1
  Rh  Rh248  1  0.19662277  0.00559571  0.00257740  1
  Rh  Rh249  1  0.61376879  0.19338348  0.59428561  1
