# generated using pymatgen
data_ZrScNbPdRh
_symmetry_space_group_name_H-M   'P 1'
_cell_length_a   16.56267710
_cell_length_b   16.55974780
_cell_length_c   16.56703325
_cell_angle_alpha   90.01381399
_cell_angle_beta   89.97360237
_cell_angle_gamma   90.02752416
_symmetry_Int_Tables_number   1
_chemical_formula_structural   ZrScNbPdRh
_chemical_formula_sum   'Zr50 Sc50 Nb50 Pd50 Rh50'
_cell_volume   4543.90129059
_cell_formula_units_Z   50
loop_
 _symmetry_equiv_pos_site_id
 _symmetry_equiv_pos_as_xyz
  1  'x, y, z'
loop_
 _atom_site_type_symbol
 _atom_site_label
 _atom_site_symmetry_multiplicity
 _atom_site_fract_x
 _atom_site_fract_y
 _atom_site_fract_z
 _atom_site_occupancy
  Zr  Zr0  1  0.90365258  0.10114098  0.10326877  1
  Zr  Zr1  1  0.29584605  0.89937077  0.10107660  1
  Zr  Zr2  1  0.89849196  0.90545063  0.29554482  1
  Zr  Zr3  1  0.29619494  0.09557963  0.68907310  1
  Zr  Zr4  1  0.11663278  0.89516364  0.29988616  1
  Zr  Zr5  1  0.69393734  0.09941749  0.90135430  1
  Zr  Zr6  1  0.69191627  0.09819756  0.30787631  1
  Zr  Zr7  1  0.88940477  0.50152187  0.49916284  1
  Zr  Zr8  1  0.89449596  0.29588215  0.10164811  1
  Zr  Zr9  1  0.89538281  0.29655509  0.49696314  1
  Zr  Zr10  1  0.09470523  0.49404016  0.89880122  1
  Zr  Zr11  1  0.29406642  0.10002686  0.08793378  1
  Zr  Zr12  1  0.69896240  0.30235200  0.49997813  1
  Zr  Zr13  1  0.49598627  0.90214681  0.90020776  1
  Zr  Zr14  1  0.69467354  0.89718379  0.89211426  1
  Zr  Zr15  1  0.31478232  0.70064905  0.50688929  1
  Zr  Zr16  1  0.69509381  0.49578253  0.49517075  1
  Zr  Zr17  1  0.10269952  0.10560563  0.49711662  1
  Zr  Zr18  1  0.10077957  0.50833356  0.49404898  1
  Zr  Zr19  1  0.30479813  0.90426839  0.50947960  1
  Zr  Zr20  1  0.30051798  0.30067722  0.49556778  1
  Zr  Zr21  1  0.69858973  0.90765600  0.69920220  1
  Zr  Zr22  1  0.29958708  0.70169700  0.29463213  1
  Zr  Zr23  1  0.69249890  0.49612838  0.70647968  1
  Zr  Zr24  1  0.10035751  0.69658403  0.31107902  1
  Zr  Zr25  1  0.90231366  0.29938930  0.29972686  1
  Zr  Zr26  1  0.49958336  0.70025512  0.49816202  1
  Zr  Zr27  1  0.70052834  0.30238426  0.10007476  1
  Zr  Zr28  1  0.69763512  0.10051248  0.50555572  1
  Zr  Zr29  1  0.49728976  0.49991669  0.89847630  1
  Zr  Zr30  1  0.49600615  0.69115177  0.70422413  1
  Zr  Zr31  1  0.30126418  0.30356666  0.69202357  1
  Zr  Zr32  1  0.09580046  0.29542551  0.09820951  1
  Zr  Zr33  1  0.90198657  0.10698014  0.50614877  1
  Zr  Zr34  1  0.89926376  0.69902011  0.90336157  1
  Zr  Zr35  1  0.30001757  0.49506278  0.29769485  1
  Zr  Zr36  1  0.09982285  0.90250825  0.09668391  1
  Zr  Zr37  1  0.89444954  0.69605137  0.10259751  1
  Zr  Zr38  1  0.10144538  0.89726547  0.89881325  1
  Zr  Zr39  1  0.30504798  0.50040325  0.09857608  1
  Zr  Zr40  1  0.09713404  0.70670116  0.89694214  1
  Zr  Zr41  1  0.70221944  0.50083023  0.10405450  1
  Zr  Zr42  1  0.09989363  0.10108027  0.69322912  1
  Zr  Zr43  1  0.10370087  0.10072620  0.91086357  1
  Zr  Zr44  1  0.10703789  0.90140528  0.69490965  1
  Zr  Zr45  1  0.31024844  0.69420755  0.09977572  1
  Zr  Zr46  1  0.49968664  0.29647188  0.70534390  1
  Zr  Zr47  1  0.30473288  0.90296487  0.30393123  1
  Zr  Zr48  1  0.10284265  0.29757673  0.49242577  1
  Zr  Zr49  1  0.50353063  0.29032918  0.29748170  1
  Sc  Sc50  1  0.69673201  0.90006658  0.30157952  1
  Sc  Sc51  1  0.90309105  0.89885302  0.50513994  1
  Sc  Sc52  1  0.69465184  0.30162493  0.30031499  1
  Sc  Sc53  1  0.70562721  0.69403196  0.49498911  1
  Sc  Sc54  1  0.10672577  0.49833411  0.29621088  1
  Sc  Sc55  1  0.50306450  0.29896120  0.89991206  1
  Sc  Sc56  1  0.89560419  0.49542033  0.09962271  1
  Sc  Sc57  1  0.90309105  0.89557939  0.91030934  1
  Sc  Sc58  1  0.89697377  0.31233724  0.90326082  1
  Sc  Sc59  1  0.10724775  0.69887385  0.09872691  1
  Sc  Sc60  1  0.49351665  0.49463521  0.70724584  1
  Sc  Sc61  1  0.29695852  0.30252140  0.09270324  1
  Sc  Sc62  1  0.50012291  0.09585138  0.50332316  1
  Sc  Sc63  1  0.49740620  0.90341370  0.49181533  1
  Sc  Sc64  1  0.89559856  0.50009374  0.70672075  1
  Sc  Sc65  1  0.89501057  0.90300074  0.69111134  1
  Sc  Sc66  1  0.70320729  0.88661255  0.11100092  1
  Sc  Sc67  1  0.69869881  0.49645959  0.30547370  1
  Sc  Sc68  1  0.69936642  0.90648694  0.49916293  1
  Sc  Sc69  1  0.70807916  0.69989402  0.09817096  1
  Sc  Sc70  1  0.10894186  0.30138861  0.70103905  1
  Sc  Sc71  1  0.70329811  0.69878425  0.89594380  1
  Sc  Sc72  1  0.50761559  0.90757930  0.70198204  1
  Sc  Sc73  1  0.89298899  0.09114012  0.91539189  1
  Sc  Sc74  1  0.50474026  0.49427611  0.30676154  1
  Sc  Sc75  1  0.30908009  0.49284804  0.49389784  1
  Sc  Sc76  1  0.89392683  0.10575480  0.30263934  1
  Sc  Sc77  1  0.10992462  0.48906871  0.09847415  1
  Sc  Sc78  1  0.90039685  0.70281577  0.69716094  1
  Sc  Sc79  1  0.30246090  0.49370331  0.90954898  1
  Sc  Sc80  1  0.69914542  0.29931413  0.89952987  1
  Sc  Sc81  1  0.69832040  0.70688088  0.28848557  1
  Sc  Sc82  1  0.49606753  0.11529097  0.09707885  1
  Sc  Sc83  1  0.48761582  0.89106681  0.10351887  1
  Sc  Sc84  1  0.70931975  0.11056643  0.09495402  1
  Sc  Sc85  1  0.88938553  0.29867533  0.69340330  1
  Sc  Sc86  1  0.70016050  0.70383981  0.70957060  1
  Sc  Sc87  1  0.09969767  0.30446909  0.90072446  1
  Sc  Sc88  1  0.09623182  0.70969315  0.69929101  1
  Sc  Sc89  1  0.10034786  0.49544806  0.70354230  1
  Sc  Sc90  1  0.89838566  0.89771378  0.09628113  1
  Sc  Sc91  1  0.91086370  0.69703359  0.50361531  1
  Sc  Sc92  1  0.49751082  0.29974702  0.50102023  1
  Sc  Sc93  1  0.30541349  0.10097713  0.50012672  1
  Sc  Sc94  1  0.89827337  0.50752971  0.29191362  1
  Sc  Sc95  1  0.71023642  0.49819997  0.89759367  1
  Sc  Sc96  1  0.50052682  0.10379346  0.90605628  1
  Sc  Sc97  1  0.69268346  0.29919078  0.70325310  1
  Sc  Sc98  1  0.49516542  0.71239216  0.29933152  1
  Sc  Sc99  1  0.11025176  0.29551173  0.29715043  1
  Nb  Nb100  1  0.10042157  0.09965904  0.10323763  1
  Nb  Nb101  1  0.49651486  0.09814911  0.30109509  1
  Nb  Nb102  1  0.49544535  0.69584421  0.10219445  1
  Nb  Nb103  1  0.30091645  0.50596979  0.69625317  1
  Nb  Nb104  1  0.29638440  0.70514348  0.89746194  1
  Nb  Nb105  1  0.29580337  0.29124951  0.89855791  1
  Nb  Nb106  1  0.30610810  0.30218986  0.30524507  1
  Nb  Nb107  1  0.29827582  0.90503529  0.90109873  1
  Nb  Nb108  1  0.90309715  0.49851433  0.90237223  1
  Nb  Nb109  1  0.89649922  0.09975672  0.69627235  1
  Nb  Nb110  1  0.69554204  0.09289259  0.70289313  1
  Nb  Nb111  1  0.50003309  0.70015834  0.89762512  1
  Nb  Nb112  1  0.10007111  0.70318648  0.50259299  1
  Nb  Nb113  1  0.50427727  0.50509636  0.49622853  1
  Nb  Nb114  1  0.90340887  0.70265773  0.29424234  1
  Nb  Nb115  1  0.50176595  0.90633709  0.29887082  1
  Nb  Nb116  1  0.30139609  0.09821057  0.90189444  1
  Nb  Nb117  1  0.30328387  0.70036684  0.69906165  1
  Nb  Nb118  1  0.29703215  0.89960056  0.70408502  1
  Nb  Nb119  1  0.50472163  0.30780687  0.10310437  1
  Nb  Nb120  1  0.11219831  0.09712137  0.29912075  1
  Nb  Nb121  1  0.49035832  0.50204048  0.09638588  1
  Nb  Nb122  1  0.10063949  0.89286136  0.49698938  1
  Nb  Nb123  1  0.50240564  0.10041954  0.70214543  1
  Nb  Nb124  1  0.29991806  0.10349143  0.29840465  1
  Nb  Nb125  1  -0.00050503  0.00690972  0.79785329  1
  Nb  Nb126  1  0.80133719  0.18871266  0.79708702  1
  Nb  Nb127  1  -0.00861567  0.19183240  0.79876045  1
  Nb  Nb128  1  0.01185929  0.00187791  0.20486814  1
  Nb  Nb129  1  0.40375293  0.39575151  0.19878466  1
  Nb  Nb130  1  0.00274645  0.80101953  0.20526985  1
  Nb  Nb131  1  0.59570314  0.40728147  0.00690682  1
  Nb  Nb132  1  -0.00163385  0.40128350  0.59095921  1
  Nb  Nb133  1  -0.00141602  0.59573023  -0.00457217  1
  Nb  Nb134  1  0.59734180  -0.00786079  0.00920051  1
  Nb  Nb135  1  0.20683093  0.60416257  0.79588395  1
  Nb  Nb136  1  0.59288578  0.79401182  0.00004276  1
  Nb  Nb137  1  0.39257499  0.19319507  0.79828789  1
  Nb  Nb138  1  -0.00197735  0.40018089  0.40211672  1
  Nb  Nb139  1  0.00947899  0.00093098  0.39643000  1
  Nb  Nb140  1  0.59587581  0.59872085  0.59853743  1
  Nb  Nb141  1  0.59915942  0.79487359  0.59997480  1
  Nb  Nb142  1  0.40031342  0.00836212  0.20351105  1
  Nb  Nb143  1  0.59136229  0.60012746  0.19175590  1
  Nb  Nb144  1  0.39185256  0.00178738  0.80124932  1
  Nb  Nb145  1  0.59126147  0.00202248  0.19748222  1
  Nb  Nb146  1  0.59260080  0.60180035  0.00183033  1
  Nb  Nb147  1  0.80837004  0.79826776  0.39472177  1
  Nb  Nb148  1  0.20576295  0.60401637  0.60323773  1
  Nb  Nb149  1  0.39130007  0.80266049  0.80052635  1
  Pd  Pd150  1  0.80219488  0.60876790  0.39066878  1
  Pd  Pd151  1  0.19512532  0.40966200  0.59387674  1
  Pd  Pd152  1  0.00330980  -0.00440652  0.59625379  1
  Pd  Pd153  1  0.79214330  0.79650295  0.59095073  1
  Pd  Pd154  1  0.80886344  0.80662165  0.80055624  1
  Pd  Pd155  1  0.19884136  0.19741546  0.80024366  1
  Pd  Pd156  1  0.60914282  0.80121881  0.40433833  1
  Pd  Pd157  1  0.00409181  0.19265875  0.20902835  1
  Pd  Pd158  1  0.21143112  0.79395218  0.41070710  1
  Pd  Pd159  1  0.00911565  0.60081060  0.19009280  1
  Pd  Pd160  1  0.81025540  -0.00090393  0.80277011  1
  Pd  Pd161  1  0.20259899  0.79895597  0.00345890  1
  Pd  Pd162  1  -0.00986642  0.81282602  0.79218375  1
  Pd  Pd163  1  0.19714315  0.00509178  0.80360232  1
  Pd  Pd164  1  -0.00748028  0.38733747  0.78793709  1
  Pd  Pd165  1  0.80160219  0.60016877  0.79856570  1
  Pd  Pd166  1  0.20854240  0.20424476  0.19615812  1
  Pd  Pd167  1  0.41231957  0.81162374  0.61073390  1
  Pd  Pd168  1  0.39081194  0.60100908  0.80884209  1
  Pd  Pd169  1  0.59927044  0.19961542  0.60119676  1
  Pd  Pd170  1  0.20113693  0.79489038  0.59713227  1
  Pd  Pd171  1  0.00548845  0.60102458  0.79881655  1
  Pd  Pd172  1  0.79161637  0.20226147  0.39700174  1
  Pd  Pd173  1  0.19702773  0.60022759  0.19719750  1
  Pd  Pd174  1  0.19578316  0.59860502  -0.00967178  1
  Pd  Pd175  1  0.39951999  0.79559559  -0.00586823  1
  Pd  Pd176  1  0.79207597  0.00462489  0.19503228  1
  Pd  Pd177  1  0.78945371  0.60316897  0.60778981  1
  Pd  Pd178  1  -0.00593767  0.59407954  0.39705027  1
  Pd  Pd179  1  0.40379638  0.19552889  0.40599115  1
  Pd  Pd180  1  0.40213896  0.20892871  -0.00535478  1
  Pd  Pd181  1  0.78670853  -0.01109889  0.00859712  1
  Pd  Pd182  1  0.59059821  0.40487249  0.60069106  1
  Pd  Pd183  1  0.39117376  0.39157213  0.80532061  1
  Pd  Pd184  1  0.80786049  -0.00393885  0.40803624  1
  Pd  Pd185  1  0.00718620  0.59479537  0.60909576  1
  Pd  Pd186  1  0.79859302  0.40012220  0.20809032  1
  Pd  Pd187  1  0.21223986  0.60371136  0.40959316  1
  Pd  Pd188  1  0.20921570  0.40694326  0.80410315  1
  Pd  Pd189  1  0.39006136  0.20293095  0.19565309  1
  Pd  Pd190  1  0.00237086  0.40302482  0.20417682  1
  Pd  Pd191  1  0.60136923  0.60912101  0.39126065  1
  Pd  Pd192  1  0.40205498  0.59899286  0.39170871  1
  Pd  Pd193  1  0.00280288  0.21286632  0.60895090  1
  Pd  Pd194  1  0.40778756  0.40468024  0.59617099  1
  Pd  Pd195  1  -0.00705046  0.20397432  -0.00962325  1
  Pd  Pd196  1  0.20371423  0.00273730  0.40887363  1
  Pd  Pd197  1  -0.00498142  0.80614924  0.39739951  1
  Pd  Pd198  1  0.79911619  0.40331313  0.60558486  1
  Pd  Pd199  1  0.60606357  0.19136943  0.19518279  1
  Rh  Rh200  1  0.40900387  0.39583858  0.39461162  1
  Rh  Rh201  1  0.19508912  0.39882867  0.39607073  1
  Rh  Rh202  1  0.19924990  0.79064944  0.19585874  1
  Rh  Rh203  1  0.19591663  -0.00290196  0.59017709  1
  Rh  Rh204  1  0.40564104  -0.00156103  0.60753734  1
  Rh  Rh205  1  0.59576870  0.39108032  0.40292380  1
  Rh  Rh206  1  0.39835797  0.80557648  0.20503655  1
  Rh  Rh207  1  0.60072263  0.19482162  0.80021298  1
  Rh  Rh208  1  0.59751891  -0.00538944  0.59622636  1
  Rh  Rh209  1  0.40160834  0.19930656  0.60506394  1
  Rh  Rh210  1  0.19519997  0.20470655  -0.00021404  1
  Rh  Rh211  1  0.20040777  0.39303769  -0.00424029  1
  Rh  Rh212  1  0.19708044  -0.00310295  -0.00156844  1
  Rh  Rh213  1  0.79789905  0.00433422  0.59514839  1
  Rh  Rh214  1  0.00221868  0.80193588  0.60079049  1
  Rh  Rh215  1  0.39966985  0.60682427  -0.00923434  1
  Rh  Rh216  1  -0.00144406  0.40437486  0.00901844  1
  Rh  Rh217  1  0.20316374  0.20247773  0.59367445  1
  Rh  Rh218  1  0.60229865  0.20692630  0.00309971  1
  Rh  Rh219  1  0.80007780  0.39169604  0.79924509  1
  Rh  Rh220  1  0.59000531  0.00881632  0.80958888  1
  Rh  Rh221  1  0.59263761  0.79554702  0.79750700  1
  Rh  Rh222  1  0.20621667  0.00799030  0.19566237  1
  Rh  Rh223  1  0.80890347  0.79977645  0.20588825  1
  Rh  Rh224  1  0.00422151  0.00182518  0.00330427  1
  Rh  Rh225  1  0.60191575  0.40123811  0.81156468  1
  Rh  Rh226  1  0.60222305  0.59656802  0.80218887  1
  Rh  Rh227  1  0.39819904  0.00499575  0.39553543  1
  Rh  Rh228  1  0.39834344  0.80512484  0.39756171  1
  Rh  Rh229  1  0.79426858  0.40142069  -0.00014579  1
  Rh  Rh230  1  0.80446411  0.20749983  -0.00949019  1
  Rh  Rh231  1  0.00593033  0.19798694  0.38999594  1
  Rh  Rh232  1  0.40659233  0.59044157  0.21080967  1
  Rh  Rh233  1  0.78924580  0.60010427  0.20576680  1
  Rh  Rh234  1  0.20556266  0.79714351  0.79815512  1
  Rh  Rh235  1  0.59125647  0.79971636  0.19230048  1
  Rh  Rh236  1  0.79478939  0.20105509  0.20647311  1
  Rh  Rh237  1  0.79036031  0.80151162  -0.00650429  1
  Rh  Rh238  1  0.80433450  0.59589658  -0.00490815  1
  Rh  Rh239  1  0.59577559  0.19971450  0.40549333  1
  Rh  Rh240  1  -0.00196122  0.78813473  0.01248048  1
  Rh  Rh241  1  0.21095368  0.39190674  0.20145466  1
  Rh  Rh242  1  0.59309106  0.41037479  0.19680191  1
  Rh  Rh243  1  0.80609840  0.39958615  0.39219009  1
  Rh  Rh244  1  0.59505811  0.00084433  0.39793834  1
  Rh  Rh245  1  0.78585368  0.19530873  0.60932393  1
  Rh  Rh246  1  0.20913500  0.19906873  0.39771510  1
  Rh  Rh247  1  0.40380640  0.00224502  0.00304889  1
  Rh  Rh248  1  0.40300839  0.38907176  0.00093567  1
  Rh  Rh249  1  0.40379218  0.58861912  0.59772123  1
