# generated using pymatgen
data_ZrScNbPdRh
_symmetry_space_group_name_H-M   'P 1'
_cell_length_a   16.55270326
_cell_length_b   16.55162183
_cell_length_c   16.55219942
_cell_angle_alpha   89.98213985
_cell_angle_beta   90.00093612
_cell_angle_gamma   89.98356638
_symmetry_Int_Tables_number   1
_chemical_formula_structural   ZrScNbPdRh
_chemical_formula_sum   'Zr50 Sc50 Nb50 Pd50 Rh50'
_cell_volume   4534.87327654
_cell_formula_units_Z   50
loop_
 _symmetry_equiv_pos_site_id
 _symmetry_equiv_pos_as_xyz
  1  'x, y, z'
loop_
 _atom_site_type_symbol
 _atom_site_label
 _atom_site_symmetry_multiplicity
 _atom_site_fract_x
 _atom_site_fract_y
 _atom_site_fract_z
 _atom_site_occupancy
  Zr  Zr0  1  0.89454055  0.49438748  0.50501068  1
  Zr  Zr1  1  0.29934377  0.70909098  0.89529855  1
  Zr  Zr2  1  0.69888011  0.29344384  0.70279800  1
  Zr  Zr3  1  0.49737306  0.89490473  0.49831586  1
  Zr  Zr4  1  0.10113908  0.30122993  0.30203766  1
  Zr  Zr5  1  0.70242612  0.90610990  0.69144507  1
  Zr  Zr6  1  0.49746033  0.70074286  0.29225027  1
  Zr  Zr7  1  0.90460960  0.68963996  0.70188500  1
  Zr  Zr8  1  0.29703356  0.69903009  0.69703928  1
  Zr  Zr9  1  0.49757591  0.50392321  0.10668459  1
  Zr  Zr10  1  0.30530527  0.30390552  0.69864760  1
  Zr  Zr11  1  0.70269822  0.09934110  0.50371643  1
  Zr  Zr12  1  0.49174667  0.89688730  0.30248013  1
  Zr  Zr13  1  0.90732835  0.89574803  0.69219802  1
  Zr  Zr14  1  0.10685334  0.69739342  0.30648397  1
  Zr  Zr15  1  0.29824925  0.09083710  0.30180879  1
  Zr  Zr16  1  0.70729752  0.50840230  0.30462584  1
  Zr  Zr17  1  0.28723718  0.69986978  0.50354032  1
  Zr  Zr18  1  0.69119392  0.10292717  0.10254056  1
  Zr  Zr19  1  0.10262418  0.29661656  0.10194610  1
  Zr  Zr20  1  0.69599054  0.30514117  0.89720635  1
  Zr  Zr21  1  0.30364484  0.89403210  0.70177673  1
  Zr  Zr22  1  0.29903664  0.31300286  0.90587156  1
  Zr  Zr23  1  0.30329954  0.89814959  0.49955881  1
  Zr  Zr24  1  0.10085423  0.29994389  0.69747318  1
  Zr  Zr25  1  0.90393142  0.29851438  0.10316526  1
  Zr  Zr26  1  0.69553067  0.90128216  0.90306884  1
  Zr  Zr27  1  0.90036942  0.30185037  0.90378975  1
  Zr  Zr28  1  0.89772289  0.30143715  0.49178953  1
  Zr  Zr29  1  0.70643137  0.90220049  0.49923948  1
  Zr  Zr30  1  0.69776358  0.90061108  0.30218248  1
  Zr  Zr31  1  0.09320209  0.09757091  0.90118747  1
  Zr  Zr32  1  0.70490121  0.49116431  0.89943114  1
  Zr  Zr33  1  0.90405383  0.70359577  0.90668629  1
  Zr  Zr34  1  0.90262138  0.50770875  0.10558709  1
  Zr  Zr35  1  0.49983795  0.50175388  0.88600494  1
  Zr  Zr36  1  0.48872188  0.10348604  0.10277938  1
  Zr  Zr37  1  0.69154112  0.49932828  0.70567981  1
  Zr  Zr38  1  0.49550382  0.29577224  0.70377226  1
  Zr  Zr39  1  0.30399554  0.48828705  0.10402997  1
  Zr  Zr40  1  0.90793437  0.10555150  0.70353998  1
  Zr  Zr41  1  0.50974647  0.29399205  0.30815301  1
  Zr  Zr42  1  0.70255031  0.30258216  0.09379914  1
  Zr  Zr43  1  0.29823997  0.29282870  0.09961918  1
  Zr  Zr44  1  0.90457797  0.89632516  0.09679058  1
  Zr  Zr45  1  0.69399868  0.69371073  0.49241160  1
  Zr  Zr46  1  0.91258065  0.10749345  0.10002108  1
  Zr  Zr47  1  0.69565343  0.10696799  0.69578066  1
  Zr  Zr48  1  0.49941803  0.10300036  0.49905161  1
  Zr  Zr49  1  0.30486073  0.89323096  0.29651570  1
  Sc  Sc50  1  0.69068273  0.89804508  0.09590327  1
  Sc  Sc51  1  0.90822021  0.91850281  0.30454666  1
  Sc  Sc52  1  0.29019449  0.30453179  0.30050682  1
  Sc  Sc53  1  0.30132700  0.29544721  0.49469886  1
  Sc  Sc54  1  0.09358529  0.49950537  0.71023062  1
  Sc  Sc55  1  0.69765269  0.70082522  0.10372556  1
  Sc  Sc56  1  0.10194000  0.09976920  0.69216626  1
  Sc  Sc57  1  0.29837579  0.71009912  0.10023863  1
  Sc  Sc58  1  0.70268050  0.49764197  0.09672182  1
  Sc  Sc59  1  0.69994430  0.69024576  0.69650128  1
  Sc  Sc60  1  0.70235240  0.29552974  0.30874388  1
  Sc  Sc61  1  0.29629534  0.90052122  0.10011252  1
  Sc  Sc62  1  0.69432247  0.49692867  0.49707036  1
  Sc  Sc63  1  0.90850178  0.90089740  0.90497307  1
  Sc  Sc64  1  0.30268081  0.10081251  0.91590524  1
  Sc  Sc65  1  0.90325551  0.69345370  0.51147199  1
  Sc  Sc66  1  0.90216254  0.90642992  0.50319848  1
  Sc  Sc67  1  0.11113119  0.69626790  0.90896709  1
  Sc  Sc68  1  0.10043224  0.09889263  0.29631428  1
  Sc  Sc69  1  0.90835670  0.49035239  0.30981065  1
  Sc  Sc70  1  0.10360273  0.90181429  0.69593160  1
  Sc  Sc71  1  0.49659845  0.89619872  0.09951687  1
  Sc  Sc72  1  0.09903614  0.50072058  0.09657203  1
  Sc  Sc73  1  0.49760605  0.69939911  0.49364907  1
  Sc  Sc74  1  0.69389692  0.10592929  0.30035270  1
  Sc  Sc75  1  0.89126181  0.67526065  0.29592272  1
  Sc  Sc76  1  0.69126537  0.69405017  0.30015294  1
  Sc  Sc77  1  0.49120477  0.30390798  0.89637750  1
  Sc  Sc78  1  0.11335815  0.09960656  0.50340558  1
  Sc  Sc79  1  0.90526277  0.30474605  0.69026177  1
  Sc  Sc80  1  0.50077683  0.50278633  0.30070059  1
  Sc  Sc81  1  0.10629658  0.29336495  0.49953166  1
  Sc  Sc82  1  0.48674205  0.89803590  0.90460467  1
  Sc  Sc83  1  0.69535849  0.70228237  0.90209938  1
  Sc  Sc84  1  0.49336649  0.49612315  0.69473871  1
  Sc  Sc85  1  0.70260076  0.30178870  0.49993315  1
  Sc  Sc86  1  0.10441603  0.70020229  0.69050672  1
  Sc  Sc87  1  0.48727522  0.30322490  0.10119223  1
  Sc  Sc88  1  0.69549207  0.11148395  0.89317109  1
  Sc  Sc89  1  0.10549588  0.90582100  0.29232419  1
  Sc  Sc90  1  0.49687251  0.30573392  0.49767382  1
  Sc  Sc91  1  0.49528226  0.68455968  0.70226867  1
  Sc  Sc92  1  0.30237871  0.10482891  0.69901811  1
  Sc  Sc93  1  0.50127488  0.49712937  0.49948533  1
  Sc  Sc94  1  0.90284000  0.09856802  0.49171456  1
  Sc  Sc95  1  0.10520028  0.50895226  0.49035150  1
  Sc  Sc96  1  0.10345210  0.89329627  0.90716303  1
  Sc  Sc97  1  0.09902938  0.90376446  0.51028276  1
  Sc  Sc98  1  0.49767872  0.09920223  0.29628859  1
  Sc  Sc99  1  0.49140816  0.09661694  0.89934349  1
  Nb  Nb100  1  0.30095921  0.50702107  0.69415451  1
  Nb  Nb101  1  0.29245894  0.50570266  0.89874280  1
  Nb  Nb102  1  0.11147082  0.49682111  0.30023248  1
  Nb  Nb103  1  0.29403295  0.10460061  0.10572479  1
  Nb  Nb104  1  0.29887126  0.49843590  0.50078260  1
  Nb  Nb105  1  0.09995166  0.89563708  0.10443865  1
  Nb  Nb106  1  0.29774260  0.89749931  0.89285038  1
  Nb  Nb107  1  0.10522529  0.48798274  0.90170212  1
  Nb  Nb108  1  0.11145171  0.09338291  0.10389892  1
  Nb  Nb109  1  0.90656539  0.50138878  0.89194758  1
  Nb  Nb110  1  0.49871060  0.69835413  0.09380209  1
  Nb  Nb111  1  0.10261005  0.31425988  0.89614167  1
  Nb  Nb112  1  0.90136667  0.10400807  0.29361024  1
  Nb  Nb113  1  0.50162218  0.09816935  0.70012273  1
  Nb  Nb114  1  0.90089651  0.09836915  0.89996895  1
  Nb  Nb115  1  0.29666300  0.70404934  0.30051675  1
  Nb  Nb116  1  0.90562088  0.29103609  0.29876809  1
  Nb  Nb117  1  0.29795263  0.09492675  0.50094001  1
  Nb  Nb118  1  0.90374543  0.69975705  0.10097421  1
  Nb  Nb119  1  0.49816061  0.69767821  0.90159568  1
  Nb  Nb120  1  0.09891449  0.70410715  0.49999534  1
  Nb  Nb121  1  0.89996839  0.50417290  0.70838009  1
  Nb  Nb122  1  0.49784971  0.90377640  0.69826887  1
  Nb  Nb123  1  0.28924649  0.49938735  0.30353952  1
  Nb  Nb124  1  0.09762787  0.70355876  0.10290171  1
  Nb  Nb125  1  0.59546878  0.59878871  -0.00153150  1
  Nb  Nb126  1  0.80493402  0.59937423  -0.00229336  1
  Nb  Nb127  1  -0.00385970  0.79350730  0.20343811  1
  Nb  Nb128  1  0.60604216  0.39853362  0.20228076  1
  Nb  Nb129  1  0.59425224  0.20355820  0.00142470  1
  Nb  Nb130  1  0.80253042  0.00290257  0.19426164  1
  Nb  Nb131  1  0.80230128  0.00094777  0.80310703  1
  Nb  Nb132  1  -0.00261697  0.79506678  0.39716363  1
  Nb  Nb133  1  0.59672945  0.80131843  0.60452709  1
  Nb  Nb134  1  0.80240495  0.00871647  -0.00145586  1
  Nb  Nb135  1  0.19735361  0.20300056  0.80662794  1
  Nb  Nb136  1  0.39969472  0.60215091  -0.00373873  1
  Nb  Nb137  1  0.80357035  0.39444582  0.20357674  1
  Nb  Nb138  1  -0.00166651  0.79499925  0.79855004  1
  Nb  Nb139  1  0.38491612  0.59925261  0.39461052  1
  Nb  Nb140  1  0.80878706  0.79804935  0.39402782  1
  Nb  Nb141  1  0.59751380  -0.00164215  0.79318665  1
  Nb  Nb142  1  0.59760333  0.80426127  0.79421470  1
  Nb  Nb143  1  0.20676864  0.40797798  0.60025222  1
  Nb  Nb144  1  0.20597612  0.00156276  0.80530730  1
  Nb  Nb145  1  0.40282588  0.00163750  0.60126740  1
  Nb  Nb146  1  0.59841355  -0.00208051  0.40447488  1
  Nb  Nb147  1  0.80127326  0.80404353  0.79737078  1
  Nb  Nb148  1  0.80834710  0.80272927  0.20413182  1
  Nb  Nb149  1  0.20197771  0.60043363  0.20482783  1
  Pd  Pd150  1  0.39375799  0.20419644  0.21240120  1
  Pd  Pd151  1  0.39312785  -0.00525452  0.00680526  1
  Pd  Pd152  1  0.19249332  0.20246727  -0.00679101  1
  Pd  Pd153  1  0.40915768  0.79487252  0.79480683  1
  Pd  Pd154  1  0.00514039  0.20812082  0.80339612  1
  Pd  Pd155  1  0.79968161  0.19509318  0.39893158  1
  Pd  Pd156  1  0.79416932  0.60559165  0.80827035  1
  Pd  Pd157  1  0.39187789  0.19375659  0.80807887  1
  Pd  Pd158  1  0.00869722  0.58942616  0.59837638  1
  Pd  Pd159  1  0.00520890  -0.01005478  0.79804144  1
  Pd  Pd160  1  0.19528901  -0.00642537  0.39971205  1
  Pd  Pd161  1  0.00898016  0.39908804  0.40717829  1
  Pd  Pd162  1  0.81294760  0.01131382  0.60531128  1
  Pd  Pd163  1  0.79440642  0.40300899  0.60766394  1
  Pd  Pd164  1  0.20571608  0.40223618  0.79034231  1
  Pd  Pd165  1  -0.00135166  0.40378369  0.00162272  1
  Pd  Pd166  1  0.39385119  0.19857796  0.39480782  1
  Pd  Pd167  1  0.59872747  0.00989796  -0.00862320  1
  Pd  Pd168  1  -0.00016245  0.19666867  0.58834749  1
  Pd  Pd169  1  0.80799793  0.39485144  0.79141633  1
  Pd  Pd170  1  0.79440616  0.19439890  -0.00356699  1
  Pd  Pd171  1  0.19143520  0.81188433  0.40305231  1
  Pd  Pd172  1  0.80714306  0.20146407  0.79985652  1
  Pd  Pd173  1  0.20269874  -0.00583987  -0.00190452  1
  Pd  Pd174  1  0.01406529  0.60651112  0.80933877  1
  Pd  Pd175  1  0.00238860  -0.00092526  0.00530466  1
  Pd  Pd176  1  0.59742068  -0.00224147  0.20618503  1
  Pd  Pd177  1  0.01158357  0.60039010  0.20659228  1
  Pd  Pd178  1  0.39683017  0.19659907  0.59464740  1
  Pd  Pd179  1  -0.00403756  0.60133146  0.40310841  1
  Pd  Pd180  1  0.38789276  0.60673757  0.19925766  1
  Pd  Pd181  1  0.00038359  0.40133163  0.20265380  1
  Pd  Pd182  1  0.00833862  0.19216148  0.40134694  1
  Pd  Pd183  1  0.39824483  0.40541202  0.39542580  1
  Pd  Pd184  1  0.01155258  0.00047269  0.40404454  1
  Pd  Pd185  1  0.59581962  0.21096748  0.59320202  1
  Pd  Pd186  1  0.79368282  0.79875473  0.00323533  1
  Pd  Pd187  1  0.00183105  0.59667805  -0.00684338  1
  Pd  Pd188  1  0.01203979  0.40856642  0.59385138  1
  Pd  Pd189  1  0.59750199  0.39577230  0.60307994  1
  Pd  Pd190  1  0.58579559  0.40044086  0.00431649  1
  Pd  Pd191  1  0.60040779  0.80008044  0.19670996  1
  Pd  Pd192  1  0.79627798  0.20041786  0.20306347  1
  Pd  Pd193  1  0.01031971  0.20394504  -0.00335888  1
  Pd  Pd194  1  0.40350842  0.60164830  0.58811778  1
  Pd  Pd195  1  0.79562393  0.78985943  0.59672138  1
  Pd  Pd196  1  0.19500555  0.60127577  0.79688061  1
  Pd  Pd197  1  0.40505895  0.39320797  0.21634647  1
  Pd  Pd198  1  0.79262175  0.59139607  0.59849717  1
  Pd  Pd199  1  0.20792073  0.59834313  0.01127570  1
  Rh  Rh200  1  0.59592262  0.21219528  0.19092083  1
  Rh  Rh201  1  0.80177245  0.39668479  0.39264229  1
  Rh  Rh202  1  0.80910065  0.20055599  0.59479303  1
  Rh  Rh203  1  0.01077105  0.79647410  0.00171715  1
  Rh  Rh204  1  0.79228387  0.59918583  0.18955312  1
  Rh  Rh205  1  0.58504266  0.59640895  0.39969501  1
  Rh  Rh206  1  0.19262213  0.59294207  0.60223782  1
  Rh  Rh207  1  0.40238682  0.20206545  -0.00018768  1
  Rh  Rh208  1  0.39485441  -0.00197759  0.19426154  1
  Rh  Rh209  1  0.60774079  0.80500872  0.40629457  1
  Rh  Rh210  1  0.60397832  0.40259558  0.39389214  1
  Rh  Rh211  1  0.39294725  0.41104864  0.79843776  1
  Rh  Rh212  1  0.00298391  0.79754076  0.59731159  1
  Rh  Rh213  1  0.39557635  0.00438101  0.79470644  1
  Rh  Rh214  1  0.19875370  0.19693183  0.20506106  1
  Rh  Rh215  1  0.19980410  0.40264681  0.00740896  1
  Rh  Rh216  1  0.19797991  0.39553537  0.41033696  1
  Rh  Rh217  1  0.19041334  0.80605253  0.79805569  1
  Rh  Rh218  1  0.80639179  0.60114010  0.41128670  1
  Rh  Rh219  1  0.01138552  0.19669036  0.20244030  1
  Rh  Rh220  1  0.58669744  0.19743946  0.80909215  1
  Rh  Rh221  1  0.59568102  0.60280341  0.59685604  1
  Rh  Rh222  1  0.20084271  0.80462022  0.00321146  1
  Rh  Rh223  1  0.59230563  0.79280664  -0.00499697  1
  Rh  Rh224  1  0.21302700  0.00018038  0.60854426  1
  Rh  Rh225  1  0.40479962  0.00523819  0.40602102  1
  Rh  Rh226  1  0.20740474  0.20699915  0.60485198  1
  Rh  Rh227  1  0.40516840  0.79746300  0.60333553  1
  Rh  Rh228  1  0.20563683  -0.00153353  0.19745732  1
  Rh  Rh229  1  0.39419199  0.78689500  0.40136696  1
  Rh  Rh230  1  0.39653531  0.79868629  -0.00011725  1
  Rh  Rh231  1  0.39493974  0.40070288  0.59814476  1
  Rh  Rh232  1  0.81679263  0.41021022  0.00486229  1
  Rh  Rh233  1  0.19358601  0.40323640  0.19373423  1
  Rh  Rh234  1  0.00034416  0.00039732  0.19371338  1
  Rh  Rh235  1  0.79388535  0.00319285  0.38885575  1
  Rh  Rh236  1  0.00024868  0.00766513  0.59756927  1
  Rh  Rh237  1  0.58874615  -0.00316801  0.59609219  1
  Rh  Rh238  1  0.19654686  0.80394231  0.59994683  1
  Rh  Rh239  1  0.40121209  0.79805513  0.19429550  1
  Rh  Rh240  1  0.20374196  0.19515391  0.39747474  1
  Rh  Rh241  1  0.60544537  0.59486895  0.19307393  1
  Rh  Rh242  1  0.20394682  0.60128696  0.39859532  1
  Rh  Rh243  1  0.38935833  0.59859808  0.80477554  1
  Rh  Rh244  1  0.60574377  0.60567486  0.80573724  1
  Rh  Rh245  1  0.60224554  0.19397075  0.40850446  1
  Rh  Rh246  1  0.19316734  0.79682931  0.19800889  1
  Rh  Rh247  1  0.59564814  0.39389784  0.79244248  1
  Rh  Rh248  1  -0.00612146  0.39818204  0.79920845  1
  Rh  Rh249  1  0.40096252  0.41267577  -0.00872607  1
