# generated using pymatgen
data_ZrScNbPdRh
_symmetry_space_group_name_H-M   'P 1'
_cell_length_a   16.55747011
_cell_length_b   16.55768569
_cell_length_c   16.56005012
_cell_angle_alpha   90.02632380
_cell_angle_beta   89.97269924
_cell_angle_gamma   89.98760005
_symmetry_Int_Tables_number   1
_chemical_formula_structural   ZrScNbPdRh
_chemical_formula_sum   'Zr50 Sc50 Nb50 Pd50 Rh50'
_cell_volume   4539.99271318
_cell_formula_units_Z   50
loop_
 _symmetry_equiv_pos_site_id
 _symmetry_equiv_pos_as_xyz
  1  'x, y, z'
loop_
 _atom_site_type_symbol
 _atom_site_label
 _atom_site_symmetry_multiplicity
 _atom_site_fract_x
 _atom_site_fract_y
 _atom_site_fract_z
 _atom_site_occupancy
  Zr  Zr0  1  0.10168979  0.10078732  0.70280484  1
  Zr  Zr1  1  0.31226530  0.09645543  0.10629125  1
  Zr  Zr2  1  0.49964282  0.51132062  0.89498820  1
  Zr  Zr3  1  0.49527616  0.09579005  0.29717157  1
  Zr  Zr4  1  0.89750947  0.29726570  0.89992268  1
  Zr  Zr5  1  0.89856319  0.49512740  0.50833761  1
  Zr  Zr6  1  0.49627915  0.70356055  0.10392882  1
  Zr  Zr7  1  0.10006968  0.52048996  0.50070981  1
  Zr  Zr8  1  0.48750863  0.89819279  0.49977565  1
  Zr  Zr9  1  0.70326675  0.29474990  0.89743290  1
  Zr  Zr10  1  0.49729328  0.50740219  0.10305438  1
  Zr  Zr11  1  0.90068616  0.49982632  0.90255827  1
  Zr  Zr12  1  0.70358704  0.50539939  0.10510242  1
  Zr  Zr13  1  0.90158496  0.90103538  0.68965275  1
  Zr  Zr14  1  0.49804765  0.08423627  0.90021996  1
  Zr  Zr15  1  0.11271628  0.09547059  0.10369860  1
  Zr  Zr16  1  0.49609282  0.30689049  0.69461041  1
  Zr  Zr17  1  0.29588549  0.70490095  0.49641219  1
  Zr  Zr18  1  0.30611528  0.89816217  0.88824656  1
  Zr  Zr19  1  0.70132472  0.10115907  0.89616361  1
  Zr  Zr20  1  0.49345072  0.29662257  0.30882537  1
  Zr  Zr21  1  0.30617780  0.70473389  0.89553754  1
  Zr  Zr22  1  0.49629388  0.68571469  0.70384522  1
  Zr  Zr23  1  0.69961372  0.69980397  0.89740345  1
  Zr  Zr24  1  0.90059771  0.30325980  0.68545268  1
  Zr  Zr25  1  0.09415810  0.89446840  0.29218392  1
  Zr  Zr26  1  0.89516005  0.10675423  0.50467796  1
  Zr  Zr27  1  0.30963456  0.29529334  0.09487858  1
  Zr  Zr28  1  0.70491004  0.29774361  0.50197431  1
  Zr  Zr29  1  0.30371145  0.08946505  0.49596212  1
  Zr  Zr30  1  0.10162191  0.10114490  0.49476003  1
  Zr  Zr31  1  0.89181202  0.09830058  0.90047729  1
  Zr  Zr32  1  0.09852658  0.89579887  0.49298064  1
  Zr  Zr33  1  0.09654423  0.29826790  0.11105904  1
  Zr  Zr34  1  0.10824561  0.29745051  0.70497133  1
  Zr  Zr35  1  0.29744616  0.30662439  0.69572934  1
  Zr  Zr36  1  0.09765269  0.50368663  0.10504424  1
  Zr  Zr37  1  0.49357918  0.30602929  0.89936183  1
  Zr  Zr38  1  0.68782754  0.50843382  0.70061546  1
  Zr  Zr39  1  0.51232685  0.89772919  0.29261807  1
  Zr  Zr40  1  0.10277139  0.29635056  0.30362443  1
  Zr  Zr41  1  0.69751561  0.90899182  0.90593736  1
  Zr  Zr42  1  0.29870013  0.50613382  0.10828047  1
  Zr  Zr43  1  0.90114969  0.29795634  0.09865278  1
  Zr  Zr44  1  0.91317587  0.70684172  0.50376769  1
  Zr  Zr45  1  0.70287881  0.49295806  0.49262811  1
  Zr  Zr46  1  0.69827284  0.50640313  0.29860422  1
  Zr  Zr47  1  0.10182109  0.49536775  0.29495533  1
  Zr  Zr48  1  0.69458637  0.90020285  0.10325630  1
  Zr  Zr49  1  0.50022822  0.10686462  0.69310471  1
  Sc  Sc50  1  0.30392548  0.70256263  0.10930748  1
  Sc  Sc51  1  0.69691603  0.69267230  0.10081922  1
  Sc  Sc52  1  0.30206847  0.09987374  0.30054776  1
  Sc  Sc53  1  0.69888383  0.70273230  0.48945081  1
  Sc  Sc54  1  0.50606937  0.70103324  0.29644860  1
  Sc  Sc55  1  0.10334021  0.89901371  0.71348683  1
  Sc  Sc56  1  0.90984511  0.69975715  0.09497454  1
  Sc  Sc57  1  0.30367233  0.70084585  0.69777226  1
  Sc  Sc58  1  0.89823303  0.70093645  0.30286014  1
  Sc  Sc59  1  0.90138007  0.09818383  0.09769368  1
  Sc  Sc60  1  0.69592367  0.70085882  0.29875112  1
  Sc  Sc61  1  0.50121524  0.49356297  0.50595186  1
  Sc  Sc62  1  0.10708530  0.29490874  0.49996761  1
  Sc  Sc63  1  0.29945030  0.49068369  0.90450597  1
  Sc  Sc64  1  0.70086308  0.10242714  0.50152686  1
  Sc  Sc65  1  0.70880924  0.29915133  0.09460480  1
  Sc  Sc66  1  0.10112157  0.70035527  0.29989669  1
  Sc  Sc67  1  0.29737364  0.10007774  0.68949167  1
  Sc  Sc68  1  0.10087272  0.48874776  0.90142919  1
  Sc  Sc69  1  0.50119973  0.29804377  0.50055709  1
  Sc  Sc70  1  0.09364984  0.71067261  0.89552113  1
  Sc  Sc71  1  0.09818268  0.70463976  0.69448118  1
  Sc  Sc72  1  0.49712960  0.10546533  0.49690474  1
  Sc  Sc73  1  0.70841330  0.10166418  0.70045691  1
  Sc  Sc74  1  0.11602512  0.29956695  0.89603287  1
  Sc  Sc75  1  0.49822890  0.49539171  0.30403719  1
  Sc  Sc76  1  0.90067090  0.49930188  0.10079119  1
  Sc  Sc77  1  0.29828873  0.70563411  0.29275850  1
  Sc  Sc78  1  0.89702874  0.89120032  0.90099029  1
  Sc  Sc79  1  0.90957003  0.29438353  0.29543911  1
  Sc  Sc80  1  0.71313215  0.89977127  0.70020884  1
  Sc  Sc81  1  0.89721962  0.89882748  0.49095150  1
  Sc  Sc82  1  0.69963959  0.51089862  0.90595181  1
  Sc  Sc83  1  0.91050289  0.10021229  0.30747297  1
  Sc  Sc84  1  0.69592345  0.30001756  0.31201378  1
  Sc  Sc85  1  0.29407297  0.49872660  0.50330586  1
  Sc  Sc86  1  0.48447778  0.90531144  0.70580132  1
  Sc  Sc87  1  0.69915671  0.08826538  0.08774183  1
  Sc  Sc88  1  0.69115287  0.09063192  0.31244132  1
  Sc  Sc89  1  0.10390229  0.49284941  0.69365583  1
  Sc  Sc90  1  0.69277549  0.29424091  0.69915097  1
  Sc  Sc91  1  0.70757258  0.90199852  0.49078443  1
  Sc  Sc92  1  0.29166162  0.09829086  0.90954733  1
  Sc  Sc93  1  0.89381767  0.50353168  0.29251822  1
  Sc  Sc94  1  0.10144930  0.10697327  0.29995406  1
  Sc  Sc95  1  0.89367882  0.69968349  0.90407683  1
  Sc  Sc96  1  0.49840203  0.70383022  0.50092683  1
  Sc  Sc97  1  0.29817640  0.49500992  0.29972640  1
  Sc  Sc98  1  0.89375268  0.71120438  0.70440459  1
  Sc  Sc99  1  0.30135713  0.90056650  0.11222351  1
  Nb  Nb100  1  0.10163275  0.70306541  0.49952195  1
  Nb  Nb101  1  0.49560318  0.89604113  0.90007306  1
  Nb  Nb102  1  0.31014189  0.29830484  0.49428754  1
  Nb  Nb103  1  0.09353484  0.89131384  0.10135720  1
  Nb  Nb104  1  0.49517027  0.70620691  0.90084581  1
  Nb  Nb105  1  0.29941146  0.29743074  0.89502167  1
  Nb  Nb106  1  0.69596776  0.70398923  0.69991567  1
  Nb  Nb107  1  0.30109823  0.50526304  0.69660542  1
  Nb  Nb108  1  0.09888689  0.09355393  0.89930817  1
  Nb  Nb109  1  0.90097475  0.10071511  0.69831634  1
  Nb  Nb110  1  0.30186246  0.30171895  0.31608712  1
  Nb  Nb111  1  0.49655735  0.09681807  0.10587490  1
  Nb  Nb112  1  0.29917374  0.89656031  0.68938188  1
  Nb  Nb113  1  0.10661272  0.90364529  0.90119499  1
  Nb  Nb114  1  0.49897645  0.29508777  0.10156893  1
  Nb  Nb115  1  0.89798421  0.89949089  0.29909337  1
  Nb  Nb116  1  0.49250546  0.50016485  0.70061370  1
  Nb  Nb117  1  0.89916438  0.49620372  0.69854136  1
  Nb  Nb118  1  0.70488891  0.89611784  0.30148294  1
  Nb  Nb119  1  0.30077700  0.89840614  0.49883758  1
  Nb  Nb120  1  0.89724403  0.30382143  0.49822294  1
  Nb  Nb121  1  0.90696286  0.89755576  0.10311308  1
  Nb  Nb122  1  0.49967186  0.91066393  0.10135395  1
  Nb  Nb123  1  0.10387559  0.70796418  0.10166443  1
  Nb  Nb124  1  0.30241419  0.89661533  0.31130401  1
  Nb  Nb125  1  0.59156937  0.20004175  0.00362671  1
  Nb  Nb126  1  0.19571770  0.60927608  0.00001816  1
  Nb  Nb127  1  0.59563773  0.80057676  0.80045956  1
  Nb  Nb128  1  -0.00123643  0.40211631  0.40578460  1
  Nb  Nb129  1  0.00871530  -0.00570105  -0.00142165  1
  Nb  Nb130  1  0.79876013  0.60046423  0.60303293  1
  Nb  Nb131  1  0.80269715  -0.00471428  0.20555957  1
  Nb  Nb132  1  0.39452620  0.20418485  0.80216811  1
  Nb  Nb133  1  0.79280210  0.19061681  0.20181763  1
  Nb  Nb134  1  -0.00048822  0.00357341  0.60171741  1
  Nb  Nb135  1  0.59917376  0.19886265  0.19415349  1
  Nb  Nb136  1  -0.00098061  0.19538787  0.80104463  1
  Nb  Nb137  1  0.00938356  0.19216736  -0.00664570  1
  Nb  Nb138  1  0.19787685  0.59900985  0.80166006  1
  Nb  Nb139  1  0.39659535  0.60088480  0.40081083  1
  Nb  Nb140  1  0.80328636  0.80760804  0.19998747  1
  Nb  Nb141  1  0.59760319  0.39207453  0.19437058  1
  Nb  Nb142  1  0.20227921  0.80381707  0.59327419  1
  Nb  Nb143  1  0.19684277  0.80339808  0.00151868  1
  Nb  Nb144  1  0.59899459  0.80353581  0.60788598  1
  Nb  Nb145  1  0.58908080  0.80300396  -0.00403559  1
  Nb  Nb146  1  -0.00051851  0.59398360  0.79681255  1
  Nb  Nb147  1  0.59510050  0.39777676  0.00505962  1
  Nb  Nb148  1  0.80117233  0.40585092  0.79467686  1
  Nb  Nb149  1  0.59899590  -0.00672564  0.60137691  1
  Pd  Pd150  1  0.79423522  0.38748180  0.20796349  1
  Pd  Pd151  1  0.20053011  0.40142731  0.00916254  1
  Pd  Pd152  1  0.19072809  -0.00952405  0.60040755  1
  Pd  Pd153  1  -0.00747355  -0.00050228  0.80111344  1
  Pd  Pd154  1  0.20499152  -0.01102134  0.00529642  1
  Pd  Pd155  1  0.21355879  0.20526205  0.20659704  1
  Pd  Pd156  1  0.38863421  0.01171884  0.79307297  1
  Pd  Pd157  1  0.19819337  0.40009059  0.59127719  1
  Pd  Pd158  1  0.60219776  0.39839964  0.59832547  1
  Pd  Pd159  1  0.39548452  0.80852674  0.01034223  1
  Pd  Pd160  1  0.00762259  0.39016655  -0.00028845  1
  Pd  Pd161  1  -0.00177931  0.39662105  0.80030392  1
  Pd  Pd162  1  0.39718605  0.59742152  0.58945033  1
  Pd  Pd163  1  0.80260392  0.19734948  0.39145330  1
  Pd  Pd164  1  0.00348077  0.19901363  0.59960835  1
  Pd  Pd165  1  -0.00494428  0.79849211  0.80152069  1
  Pd  Pd166  1  0.21048576  0.00400757  0.79640000  1
  Pd  Pd167  1  0.39293585  0.40333725  0.79803010  1
  Pd  Pd168  1  0.58848661  0.19799834  0.80573219  1
  Pd  Pd169  1  0.40227971  0.40582780  0.00308523  1
  Pd  Pd170  1  0.40084701  0.39613614  0.20366994  1
  Pd  Pd171  1  0.19787142  -0.00134736  0.38925651  1
  Pd  Pd172  1  0.20269759  -0.00630538  0.20891516  1
  Pd  Pd173  1  0.79222253  0.79476709  0.58980182  1
  Pd  Pd174  1  0.01441700  0.39797281  0.59088238  1
  Pd  Pd175  1  0.20824505  0.19972433  0.59155312  1
  Pd  Pd176  1  0.79279865  0.79752044  0.00971185  1
  Pd  Pd177  1  -0.00545865  0.59519826  0.39268857  1
  Pd  Pd178  1  0.00819928  0.60341460  -0.00904178  1
  Pd  Pd179  1  -0.00194651  0.00683718  0.19663469  1
  Pd  Pd180  1  0.59529114  -0.00525629  0.41133693  1
  Pd  Pd181  1  -0.00177648  0.00004820  0.40500786  1
  Pd  Pd182  1  0.58893119  0.59871498  0.40365028  1
  Pd  Pd183  1  0.80613937  0.59858757  0.79334251  1
  Pd  Pd184  1  0.40448558  0.19220197  -0.00922961  1
  Pd  Pd185  1  0.21001126  0.38983253  0.19806063  1
  Pd  Pd186  1  0.60654909  0.40599082  0.80744559  1
  Pd  Pd187  1  0.80952069  0.39631727  0.38764954  1
  Pd  Pd188  1  0.19330300  0.40352213  0.40903380  1
  Pd  Pd189  1  0.39103812  0.60112556  -0.00063408  1
  Pd  Pd190  1  0.60441889  0.60729268  0.58832571  1
  Pd  Pd191  1  -0.00578727  0.60573141  0.61251944  1
  Pd  Pd192  1  0.79256945  0.40628120  -0.00554297  1
  Pd  Pd193  1  0.19767527  0.20139616  0.00182232  1
  Pd  Pd194  1  0.40521144  0.79230345  0.39046719  1
  Pd  Pd195  1  0.80499896  -0.00635783  0.79951489  1
  Pd  Pd196  1  -0.00188239  0.60630327  0.20322549  1
  Pd  Pd197  1  0.20708437  0.60382790  0.38910444  1
  Pd  Pd198  1  0.60218010  -0.00834173  0.78702441  1
  Pd  Pd199  1  0.80675536  0.60569884  0.40744592  1
  Rh  Rh200  1  0.59682077  0.59524443  0.20389275  1
  Rh  Rh201  1  0.40229325  -0.00332323  0.39486983  1
  Rh  Rh202  1  0.80128341  0.00311481  0.59518449  1
  Rh  Rh203  1  0.60793319  0.00721755  0.19997199  1
  Rh  Rh204  1  0.59194025  -0.00038789  0.00200855  1
  Rh  Rh205  1  0.20374662  0.79546376  0.79649366  1
  Rh  Rh206  1  0.60487237  0.79811756  0.19240527  1
  Rh  Rh207  1  0.20764917  0.19588078  0.40146436  1
  Rh  Rh208  1  0.20114318  0.61041929  0.60929340  1
  Rh  Rh209  1  0.19732775  0.60417256  0.19769154  1
  Rh  Rh210  1  0.80474703  0.60052559  0.00711390  1
  Rh  Rh211  1  0.60023484  0.80532138  0.40636604  1
  Rh  Rh212  1  0.59794294  0.39874012  0.39772783  1
  Rh  Rh213  1  0.39941916  0.79814824  0.60450335  1
  Rh  Rh214  1  0.39546968  -0.00626594  0.00284760  1
  Rh  Rh215  1  0.59751004  0.60608924  0.80368703  1
  Rh  Rh216  1  0.39843302  0.40915125  0.40831364  1
  Rh  Rh217  1  0.80468211  0.00509112  0.39553589  1
  Rh  Rh218  1  0.20383999  0.19257445  0.80269480  1
  Rh  Rh219  1  0.80090033  0.79550848  0.39439985  1
  Rh  Rh220  1  0.39784859  0.20538695  0.20822988  1
  Rh  Rh221  1  0.01053422  0.81034173  0.60191475  1
  Rh  Rh222  1  0.39704531  0.19448510  0.40113507  1
  Rh  Rh223  1  0.40481444  0.80692356  0.20475969  1
  Rh  Rh224  1  0.79838751  0.19131535  0.01011418  1
  Rh  Rh225  1  0.19667629  0.80027190  0.39912084  1
  Rh  Rh226  1  -0.00531888  0.19200115  0.19019233  1
  Rh  Rh227  1  0.40380704  0.00179660  0.59886056  1
  Rh  Rh228  1  0.80516529  0.61435549  0.19462331  1
  Rh  Rh229  1  0.40440803  0.79675927  0.78860406  1
  Rh  Rh230  1  0.39787921  -0.00939959  0.20984445  1
  Rh  Rh231  1  0.60293703  0.19281110  0.59610047  1
  Rh  Rh232  1  0.20088322  0.80453802  0.20029395  1
  Rh  Rh233  1  0.80960655  0.21171341  0.78706502  1
  Rh  Rh234  1  -0.00147301  0.21048106  0.40828987  1
  Rh  Rh235  1  0.40130760  0.59999379  0.21353858  1
  Rh  Rh236  1  0.39572976  0.20389411  0.60104663  1
  Rh  Rh237  1  0.78559786  0.40583517  0.60914583  1
  Rh  Rh238  1  0.38885448  0.59329265  0.80328260  1
  Rh  Rh239  1  0.39682282  0.40386134  0.59629288  1
  Rh  Rh240  1  -0.00413395  0.40361602  0.20812210  1
  Rh  Rh241  1  0.00067919  0.79678415  0.39314571  1
  Rh  Rh242  1  0.20754236  0.41021372  0.79650527  1
  Rh  Rh243  1  0.79593052  0.20179834  0.60246653  1
  Rh  Rh244  1  0.79356231  0.80304610  0.80411957  1
  Rh  Rh245  1  0.59694363  0.20018492  0.39835959  1
  Rh  Rh246  1  0.00537321  0.80508128  -0.00607230  1
  Rh  Rh247  1  0.59402105  0.60493615  -0.00038680  1
  Rh  Rh248  1  -0.00695067  0.79106941  0.20496101  1
  Rh  Rh249  1  0.81354566  -0.00602305  0.00649270  1
