# generated using pymatgen
data_ZrScNbPdRh
_symmetry_space_group_name_H-M   'P 1'
_cell_length_a   16.55515047
_cell_length_b   16.56096087
_cell_length_c   16.55881817
_cell_angle_alpha   89.98511118
_cell_angle_beta   90.02191303
_cell_angle_gamma   90.00914547
_symmetry_Int_Tables_number   1
_chemical_formula_structural   ZrScNbPdRh
_chemical_formula_sum   'Zr50 Sc50 Nb50 Pd50 Rh50'
_cell_volume   4539.91737278
_cell_formula_units_Z   50
loop_
 _symmetry_equiv_pos_site_id
 _symmetry_equiv_pos_as_xyz
  1  'x, y, z'
loop_
 _atom_site_type_symbol
 _atom_site_label
 _atom_site_symmetry_multiplicity
 _atom_site_fract_x
 _atom_site_fract_y
 _atom_site_fract_z
 _atom_site_occupancy
  Zr  Zr0  1  0.89828426  0.29168737  0.69377446  1
  Zr  Zr1  1  0.50828208  0.70018065  0.29255414  1
  Zr  Zr2  1  0.90778457  0.50414818  0.90107098  1
  Zr  Zr3  1  0.09645236  0.49584937  0.30081103  1
  Zr  Zr4  1  0.10564714  0.30039177  0.69871623  1
  Zr  Zr5  1  0.31038301  0.30194268  0.70306049  1
  Zr  Zr6  1  0.89879553  0.10440684  0.69802208  1
  Zr  Zr7  1  0.69390961  0.69643685  0.70887414  1
  Zr  Zr8  1  0.89589889  0.49632049  0.49298628  1
  Zr  Zr9  1  0.89439160  0.30388378  0.10107803  1
  Zr  Zr10  1  0.10001206  0.70405566  0.49828168  1
  Zr  Zr11  1  0.11699816  0.90093543  0.49437742  1
  Zr  Zr12  1  0.89656592  0.49744523  0.29370451  1
  Zr  Zr13  1  0.90426055  0.09802572  0.10935082  1
  Zr  Zr14  1  0.89938774  0.50989802  0.70495769  1
  Zr  Zr15  1  0.29445236  0.30734909  0.90822876  1
  Zr  Zr16  1  0.89374607  0.11158283  0.49610012  1
  Zr  Zr17  1  0.49807237  0.50535650  0.30534913  1
  Zr  Zr18  1  0.10574417  0.10120666  0.50233660  1
  Zr  Zr19  1  0.89839439  0.70037294  0.70419829  1
  Zr  Zr20  1  0.69395305  0.09612986  0.48928002  1
  Zr  Zr21  1  0.09746438  0.69978387  0.70200720  1
  Zr  Zr22  1  0.10226184  0.90007532  0.90505548  1
  Zr  Zr23  1  0.69671468  0.89996987  0.50174854  1
  Zr  Zr24  1  0.89486433  0.89887760  0.70250632  1
  Zr  Zr25  1  0.69173617  0.90252995  0.29463864  1
  Zr  Zr26  1  0.29873444  0.49891060  0.70239566  1
  Zr  Zr27  1  0.50202978  0.29150868  0.51809199  1
  Zr  Zr28  1  0.31594818  0.69914524  0.29674465  1
  Zr  Zr29  1  0.68867775  0.29811443  0.70109567  1
  Zr  Zr30  1  0.89911179  0.69960739  0.50803744  1
  Zr  Zr31  1  0.49241946  0.11138940  0.70096443  1
  Zr  Zr32  1  0.90495286  0.29939279  0.30407297  1
  Zr  Zr33  1  0.30606889  0.89595537  0.31050974  1
  Zr  Zr34  1  0.69609562  0.29504092  0.10008866  1
  Zr  Zr35  1  0.50913130  0.89901600  0.10352301  1
  Zr  Zr36  1  0.69364603  0.90075737  0.90054840  1
  Zr  Zr37  1  0.29690644  0.29954076  0.10050545  1
  Zr  Zr38  1  0.30210242  0.29884339  0.29578771  1
  Zr  Zr39  1  0.89673638  0.90107893  0.90562612  1
  Zr  Zr40  1  0.49558038  0.30467144  0.89167770  1
  Zr  Zr41  1  0.50770751  0.30547996  0.09589459  1
  Zr  Zr42  1  0.30262291  0.89592031  0.10028387  1
  Zr  Zr43  1  0.89321233  0.90308736  0.50411789  1
  Zr  Zr44  1  0.10311628  0.10019617  0.90140828  1
  Zr  Zr45  1  0.30571453  0.89354132  0.69757922  1
  Zr  Zr46  1  0.70476218  0.90013459  0.09725063  1
  Zr  Zr47  1  0.30159993  0.72051828  0.49670420  1
  Zr  Zr48  1  0.70340922  0.29314977  0.49725850  1
  Zr  Zr49  1  0.09953224  0.10507731  0.69984098  1
  Sc  Sc50  1  0.09891018  0.89803265  0.29184516  1
  Sc  Sc51  1  0.10870377  0.89847060  0.70330417  1
  Sc  Sc52  1  0.30373391  0.49156167  0.49519957  1
  Sc  Sc53  1  0.69568377  0.90229470  0.69983507  1
  Sc  Sc54  1  0.50061020  0.08761479  0.89564588  1
  Sc  Sc55  1  0.29247859  0.09889410  0.70173163  1
  Sc  Sc56  1  0.29892557  0.50114744  0.90210742  1
  Sc  Sc57  1  0.69698220  0.48759247  0.10198324  1
  Sc  Sc58  1  0.09706452  0.89840155  0.09527614  1
  Sc  Sc59  1  0.09523789  0.50252261  0.09344302  1
  Sc  Sc60  1  0.50591308  0.09026528  0.30057459  1
  Sc  Sc61  1  0.09913950  0.30343561  0.49590858  1
  Sc  Sc62  1  0.09264123  0.70353661  0.28901294  1
  Sc  Sc63  1  0.89908296  0.70546066  0.89705887  1
  Sc  Sc64  1  0.09536438  0.10755494  0.28954742  1
  Sc  Sc65  1  0.10228940  0.09667629  0.10188102  1
  Sc  Sc66  1  0.70200981  0.09575300  0.71280048  1
  Sc  Sc67  1  0.30925148  0.49092029  0.30165722  1
  Sc  Sc68  1  0.49548321  0.50169243  0.90465364  1
  Sc  Sc69  1  0.69051403  0.50900074  0.70137078  1
  Sc  Sc70  1  0.89654813  0.10576050  0.89382572  1
  Sc  Sc71  1  0.09831576  0.30016607  0.29426800  1
  Sc  Sc72  1  0.50371834  0.50347079  0.09767876  1
  Sc  Sc73  1  0.30514364  0.49985063  0.09201329  1
  Sc  Sc74  1  0.70128550  0.30504310  0.29499249  1
  Sc  Sc75  1  0.49603843  0.30408696  0.29552324  1
  Sc  Sc76  1  0.89887373  0.90972993  0.28568241  1
  Sc  Sc77  1  0.29361555  0.10447667  0.10207659  1
  Sc  Sc78  1  0.70315167  0.50328898  0.30205278  1
  Sc  Sc79  1  0.10437838  0.69583612  0.90509047  1
  Sc  Sc80  1  0.29928422  0.90168038  0.89619392  1
  Sc  Sc81  1  0.30084645  0.09096154  0.89736713  1
  Sc  Sc82  1  0.09677376  0.69806212  0.09388803  1
  Sc  Sc83  1  0.69375589  0.69457598  0.50179378  1
  Sc  Sc84  1  0.30634954  0.09079229  0.29388041  1
  Sc  Sc85  1  0.90734260  0.89856779  0.09811305  1
  Sc  Sc86  1  0.69509787  0.29907516  0.90875984  1
  Sc  Sc87  1  0.90262601  0.50030148  0.10002712  1
  Sc  Sc88  1  0.09835254  0.50186502  0.70939414  1
  Sc  Sc89  1  0.50561166  0.70226301  0.49951952  1
  Sc  Sc90  1  0.49960087  0.89827079  0.70019298  1
  Sc  Sc91  1  0.30119321  0.30573207  0.50779242  1
  Sc  Sc92  1  0.50747884  0.09815652  0.09969652  1
  Sc  Sc93  1  0.90139469  0.30818350  0.90228995  1
  Sc  Sc94  1  0.68482465  0.70185868  0.09869949  1
  Sc  Sc95  1  0.89895953  0.29531276  0.49238247  1
  Sc  Sc96  1  0.70460837  0.09819863  0.29480655  1
  Sc  Sc97  1  0.30099670  0.69182504  0.89891462  1
  Sc  Sc98  1  0.50884525  0.90065300  0.50089863  1
  Sc  Sc99  1  0.69073771  0.50970885  0.89941455  1
  Nb  Nb100  1  0.70231484  0.10251500  0.09413780  1
  Nb  Nb101  1  0.69922267  0.09098234  0.90298557  1
  Nb  Nb102  1  0.49100048  0.69959730  0.70452118  1
  Nb  Nb103  1  0.10231152  0.30669618  0.90891901  1
  Nb  Nb104  1  0.69839134  0.69975217  0.90436476  1
  Nb  Nb105  1  0.50025192  0.90099496  0.29255558  1
  Nb  Nb106  1  0.30178172  0.69627284  0.09731741  1
  Nb  Nb107  1  0.30733151  0.69744658  0.69724936  1
  Nb  Nb108  1  0.89918380  0.69453203  0.29441274  1
  Nb  Nb109  1  0.49013623  0.69623067  0.10194390  1
  Nb  Nb110  1  0.49684577  0.09952532  0.49850315  1
  Nb  Nb111  1  0.69667907  0.49670074  0.49807577  1
  Nb  Nb112  1  0.49731312  0.49929456  0.70328304  1
  Nb  Nb113  1  0.90754865  0.10484908  0.29991164  1
  Nb  Nb114  1  0.49634471  0.30281840  0.70436457  1
  Nb  Nb115  1  0.29968648  0.08943669  0.49471096  1
  Nb  Nb116  1  0.10898866  0.29300455  0.09314659  1
  Nb  Nb117  1  0.30216188  0.90852330  0.49803489  1
  Nb  Nb118  1  0.10230088  0.50082802  0.50004410  1
  Nb  Nb119  1  0.49684397  0.90104392  0.90207737  1
  Nb  Nb120  1  0.90158921  0.69601258  0.10555999  1
  Nb  Nb121  1  0.09485442  0.49701742  0.90581928  1
  Nb  Nb122  1  0.50339575  0.50072943  0.50052033  1
  Nb  Nb123  1  0.50338407  0.69182587  0.90634898  1
  Nb  Nb124  1  0.70239087  0.69995087  0.30105736  1
  Nb  Nb125  1  0.39967059  0.60228206  0.60303928  1
  Nb  Nb126  1  -0.00284786  0.00085831  0.40253371  1
  Nb  Nb127  1  0.00124765  0.00181089  0.59875844  1
  Nb  Nb128  1  0.80176865  0.79634323  0.39122342  1
  Nb  Nb129  1  0.19869269  0.60272579  0.39838233  1
  Nb  Nb130  1  0.40650089  0.79585194  0.00031859  1
  Nb  Nb131  1  0.21010335  0.79299265  0.19573580  1
  Nb  Nb132  1  0.59685258  0.40321065  0.40941775  1
  Nb  Nb133  1  0.79770198  0.60905196  0.00186477  1
  Nb  Nb134  1  -0.00026992  0.00028268  0.79707281  1
  Nb  Nb135  1  -0.01010400  0.80149154  0.39704384  1
  Nb  Nb136  1  0.39694813  0.00280473  0.59226027  1
  Nb  Nb137  1  0.80028525  0.79005224  0.20161201  1
  Nb  Nb138  1  0.00573377  0.20541825  0.00161056  1
  Nb  Nb139  1  0.39878858  0.19300986  0.40696413  1
  Nb  Nb140  1  0.20943163  0.19688052  0.39843485  1
  Nb  Nb141  1  -0.00428968  0.40342274  0.59945841  1
  Nb  Nb142  1  0.59023097  0.79286903  0.80978228  1
  Nb  Nb143  1  0.20570125  0.60295847  0.59593781  1
  Nb  Nb144  1  0.79747085  0.40301083  0.79440193  1
  Nb  Nb145  1  0.40026360  0.20290572  -0.00060347  1
  Nb  Nb146  1  0.20557716  0.60186612  0.20180169  1
  Nb  Nb147  1  0.79660336  0.00614080  0.00142127  1
  Nb  Nb148  1  0.79788316  0.40210376  0.60278138  1
  Nb  Nb149  1  -0.00093138  0.60227307  0.39897805  1
  Pd  Pd150  1  0.20393729  0.00002665  0.00399442  1
  Pd  Pd151  1  0.80406002  -0.00431846  0.39099620  1
  Pd  Pd152  1  0.00471951  0.39588790  0.19089117  1
  Pd  Pd153  1  0.79428457  0.41256112  -0.00929772  1
  Pd  Pd154  1  0.60228163  0.80093607  0.39699696  1
  Pd  Pd155  1  0.60504266  0.59424694  0.19717647  1
  Pd  Pd156  1  0.58967931  0.19330930  -0.00992747  1
  Pd  Pd157  1  0.59144327  0.60253181  0.60085770  1
  Pd  Pd158  1  0.59304680  0.79783379  -0.00153870  1
  Pd  Pd159  1  -0.00145803  0.79314615  -0.00009783  1
  Pd  Pd160  1  0.39108047  0.19750785  0.81052249  1
  Pd  Pd161  1  0.78789118  0.79358590  0.59911430  1
  Pd  Pd162  1  0.00362277  0.80357442  0.80478307  1
  Pd  Pd163  1  -0.00387945  0.39322260  0.79367321  1
  Pd  Pd164  1  0.60859079  0.18604571  0.60509868  1
  Pd  Pd165  1  0.20604670  0.79429918  0.80526195  1
  Pd  Pd166  1  0.78965811  0.60088195  0.18749688  1
  Pd  Pd167  1  0.40500928  0.40624883  0.19056439  1
  Pd  Pd168  1  0.19814252  0.40328104  0.80401844  1
  Pd  Pd169  1  0.20603298  0.20434636  0.80665228  1
  Pd  Pd170  1  0.19892333  -0.00803367  0.20096635  1
  Pd  Pd171  1  0.19736376  0.59985497  0.80026944  1
  Pd  Pd172  1  0.40687574  0.19330951  0.19765329  1
  Pd  Pd173  1  0.00317599  0.20415862  0.80985515  1
  Pd  Pd174  1  0.59816727  0.19699159  0.20642896  1
  Pd  Pd175  1  0.20142747  0.39590418  0.39896250  1
  Pd  Pd176  1  0.78953308  0.80233698  0.80071882  1
  Pd  Pd177  1  0.40194631  0.79814618  0.81220656  1
  Pd  Pd178  1  0.60190571  0.40655662  0.80381968  1
  Pd  Pd179  1  0.40334091  0.40827967  0.59997932  1
  Pd  Pd180  1  0.20826166  0.20402279  0.59331046  1
  Pd  Pd181  1  0.19839270  0.40813233  0.19201937  1
  Pd  Pd182  1  0.00659400  0.59290304  0.59749959  1
  Pd  Pd183  1  0.41791899  0.80638385  0.40366219  1
  Pd  Pd184  1  0.60113117  0.19497888  0.80891195  1
  Pd  Pd185  1  0.80086754  0.60488533  0.40215528  1
  Pd  Pd186  1  0.60328410  0.40321005  0.60017541  1
  Pd  Pd187  1  0.20090131  0.79791002  0.60587505  1
  Pd  Pd188  1  0.00596274  0.81249844  0.59688822  1
  Pd  Pd189  1  0.40298153  0.00185717  0.19450148  1
  Pd  Pd190  1  0.59289950  0.00812784  0.60695837  1
  Pd  Pd191  1  0.19116403  0.00827552  0.38271319  1
  Pd  Pd192  1  0.79661082  0.00959007  0.60209078  1
  Pd  Pd193  1  0.59196437  0.20639041  0.38968704  1
  Pd  Pd194  1  0.79240855  0.20972189  0.80867198  1
  Pd  Pd195  1  0.39934361  0.00116252  0.00633724  1
  Pd  Pd196  1  0.39557834  0.60275898  0.41196225  1
  Pd  Pd197  1  0.80676895  0.19635517  -0.00389747  1
  Pd  Pd198  1  0.79974377  0.20127169  0.20558567  1
  Pd  Pd199  1  0.79235394  0.59629191  0.59990376  1
  Rh  Rh200  1  0.40376091  0.59445258  0.79935594  1
  Rh  Rh201  1  0.79704713  0.20044518  0.38772732  1
  Rh  Rh202  1  0.80093750  0.59596973  0.81243761  1
  Rh  Rh203  1  0.19210183  0.79484295  0.38287528  1
  Rh  Rh204  1  0.59769811  0.40574143  0.21259116  1
  Rh  Rh205  1  0.19536867  -0.00340907  0.79882235  1
  Rh  Rh206  1  0.01070990  0.19350781  0.40149188  1
  Rh  Rh207  1  0.39666370  0.59057159  0.19723205  1
  Rh  Rh208  1  0.41368979  0.38312955  0.41122943  1
  Rh  Rh209  1  0.00596552  -0.00105186  0.20408121  1
  Rh  Rh210  1  0.19101432  0.40758221  0.60358382  1
  Rh  Rh211  1  0.60507707  0.00645807  0.19610549  1
  Rh  Rh212  1  0.00147365  0.40389382  0.40507783  1
  Rh  Rh213  1  0.39892808  0.40667761  0.80212258  1
  Rh  Rh214  1  0.20207069  0.19421374  -0.00369542  1
  Rh  Rh215  1  0.00486947  0.60868598  0.80788585  1
  Rh  Rh216  1  0.20171053  0.20082982  0.20708853  1
  Rh  Rh217  1  0.60337277  0.00323495  0.00259770  1
  Rh  Rh218  1  0.40132705  -0.00198263  0.78793544  1
  Rh  Rh219  1  -0.00270194  0.80075287  0.19737656  1
  Rh  Rh220  1  0.59327004  -0.00681389  0.79742102  1
  Rh  Rh221  1  0.20910204  0.79726036  0.00346130  1
  Rh  Rh222  1  0.00364396  0.20457374  0.59025110  1
  Rh  Rh223  1  0.80505218  -0.00450402  0.80717701  1
  Rh  Rh224  1  0.59888786  0.79401298  0.61250925  1
  Rh  Rh225  1  0.79861802  -0.00077805  0.19247013  1
  Rh  Rh226  1  0.60264966  0.59525586  0.39861672  1
  Rh  Rh227  1  0.39011175  0.19147155  0.59688912  1
  Rh  Rh228  1  0.00707918  0.59481978  0.20287554  1
  Rh  Rh229  1  0.19874162  0.59561773  0.00309374  1
  Rh  Rh230  1  0.19654889  0.41094676  0.00323153  1
  Rh  Rh231  1  0.39947918  0.60301298  -0.00087719  1
  Rh  Rh232  1  -0.00911427  0.01393213  -0.00915063  1
  Rh  Rh233  1  0.60262354  0.59717858  0.00671062  1
  Rh  Rh234  1  0.78882293  0.19818454  0.60172581  1
  Rh  Rh235  1  0.59640908  -0.00339186  0.39686151  1
  Rh  Rh236  1  0.80417536  0.79551620  0.01086368  1
  Rh  Rh237  1  0.79064964  0.39615176  0.40165003  1
  Rh  Rh238  1  0.41141314  -0.00273046  0.40293739  1
  Rh  Rh239  1  0.79912765  0.39874308  0.20049714  1
  Rh  Rh240  1  0.59945058  0.40242333  -0.00549654  1
  Rh  Rh241  1  0.00089668  0.20868553  0.18981486  1
  Rh  Rh242  1  0.40581136  0.80427624  0.59401986  1
  Rh  Rh243  1  0.00379154  0.39300569  0.00683122  1
  Rh  Rh244  1  0.20514333  -0.00466371  0.60816057  1
  Rh  Rh245  1  -0.00727186  0.60530101  -0.00199098  1
  Rh  Rh246  1  0.40119279  0.80208655  0.19408688  1
  Rh  Rh247  1  0.60149980  0.79733371  0.19995874  1
  Rh  Rh248  1  0.40363894  0.39530255  0.00153462  1
  Rh  Rh249  1  0.58913493  0.60315360  0.80159473  1
