# generated using pymatgen
data_ZrScNbPdRh
_symmetry_space_group_name_H-M   'P 1'
_cell_length_a   16.55753967
_cell_length_b   16.56617008
_cell_length_c   16.56051767
_cell_angle_alpha   90.04375472
_cell_angle_beta   90.03704913
_cell_angle_gamma   90.01996682
_symmetry_Int_Tables_number   1
_chemical_formula_structural   ZrScNbPdRh
_chemical_formula_sum   'Zr50 Sc50 Nb50 Pd50 Rh50'
_cell_volume   4542.46494728
_cell_formula_units_Z   50
loop_
 _symmetry_equiv_pos_site_id
 _symmetry_equiv_pos_as_xyz
  1  'x, y, z'
loop_
 _atom_site_type_symbol
 _atom_site_label
 _atom_site_symmetry_multiplicity
 _atom_site_fract_x
 _atom_site_fract_y
 _atom_site_fract_z
 _atom_site_occupancy
  Zr  Zr0  1  0.10154350  0.89665946  0.29992098  1
  Zr  Zr1  1  0.50677585  0.50149189  0.89765170  1
  Zr  Zr2  1  0.49785457  0.50497907  0.49691296  1
  Zr  Zr3  1  0.70280566  0.10273766  0.69697867  1
  Zr  Zr4  1  0.30078656  0.50500709  0.10469129  1
  Zr  Zr5  1  0.50901194  0.50249381  0.70184389  1
  Zr  Zr6  1  0.30043904  0.29132388  0.89418042  1
  Zr  Zr7  1  0.49985457  0.89726699  0.50051488  1
  Zr  Zr8  1  0.10153123  0.30452301  0.49954214  1
  Zr  Zr9  1  0.69526403  0.70445831  0.89517334  1
  Zr  Zr10  1  0.90350494  0.29636011  0.70703719  1
  Zr  Zr11  1  0.10614458  0.68680894  0.50371061  1
  Zr  Zr12  1  0.70491406  0.49432188  0.89587719  1
  Zr  Zr13  1  0.50360552  0.91134444  0.10356158  1
  Zr  Zr14  1  0.70765990  0.09526472  0.49957201  1
  Zr  Zr15  1  0.89437859  0.70340549  0.69558468  1
  Zr  Zr16  1  0.10038530  0.49677613  0.10140419  1
  Zr  Zr17  1  0.31310715  0.29722212  0.30221663  1
  Zr  Zr18  1  0.30293159  0.90324520  0.09961541  1
  Zr  Zr19  1  0.70585377  0.88980477  0.70171242  1
  Zr  Zr20  1  0.50008408  0.88937401  0.89761609  1
  Zr  Zr21  1  0.10004235  0.09737418  0.89687297  1
  Zr  Zr22  1  0.90178699  0.50614541  0.30448219  1
  Zr  Zr23  1  0.29753060  0.29478526  0.69875677  1
  Zr  Zr24  1  0.09830216  0.89605426  0.09441863  1
  Zr  Zr25  1  0.90337673  0.89490072  0.30388272  1
  Zr  Zr26  1  0.50425063  0.29718914  0.89635912  1
  Zr  Zr27  1  0.30280800  0.70631970  0.89873038  1
  Zr  Zr28  1  0.10351449  0.71129431  0.89884398  1
  Zr  Zr29  1  0.29763590  0.90143906  0.89305798  1
  Zr  Zr30  1  0.70279786  0.68727457  0.10377960  1
  Zr  Zr31  1  0.90299094  0.90720165  0.49902478  1
  Zr  Zr32  1  0.50030911  0.70406619  0.09707360  1
  Zr  Zr33  1  0.50527357  0.50787517  0.10950072  1
  Zr  Zr34  1  0.50431823  0.90007505  0.30652533  1
  Zr  Zr35  1  0.09781597  0.29850182  0.09666949  1
  Zr  Zr36  1  0.90578602  0.30409510  0.50310866  1
  Zr  Zr37  1  0.29966268  0.50616434  0.29839133  1
  Zr  Zr38  1  0.29924281  0.50476567  0.90254195  1
  Zr  Zr39  1  0.10221816  0.30074487  0.70351579  1
  Zr  Zr40  1  0.09346942  0.70195122  0.29147609  1
  Zr  Zr41  1  0.89848257  0.69861619  0.10331625  1
  Zr  Zr42  1  0.08872679  0.49440728  0.49833579  1
  Zr  Zr43  1  0.49866541  0.70228136  0.49936744  1
  Zr  Zr44  1  0.49398328  0.69778796  0.30616060  1
  Zr  Zr45  1  0.10573272  0.09450615  0.50464346  1
  Zr  Zr46  1  0.29538073  0.29958804  0.49752260  1
  Zr  Zr47  1  0.49407922  0.30199930  0.70261929  1
  Zr  Zr48  1  0.29452066  0.09693123  0.70308628  1
  Zr  Zr49  1  0.09179357  0.29332074  0.90214341  1
  Sc  Sc50  1  0.28785334  0.50177189  0.49540053  1
  Sc  Sc51  1  0.10175790  0.49777398  0.30181713  1
  Sc  Sc52  1  0.69417781  0.10983434  0.91130893  1
  Sc  Sc53  1  0.89373557  0.90202909  0.08663635  1
  Sc  Sc54  1  0.90456469  0.29477841  0.09588698  1
  Sc  Sc55  1  0.10094133  0.30220129  0.29549201  1
  Sc  Sc56  1  0.49112777  0.31152602  0.49118330  1
  Sc  Sc57  1  0.70037924  0.91409932  0.09870838  1
  Sc  Sc58  1  0.90026990  0.29434344  0.29396270  1
  Sc  Sc59  1  0.09455064  0.69127255  0.70561557  1
  Sc  Sc60  1  0.10540430  0.10496895  0.09448755  1
  Sc  Sc61  1  0.49585571  0.49634189  0.30227165  1
  Sc  Sc62  1  0.29765088  0.29014716  0.10606008  1
  Sc  Sc63  1  0.90862599  0.09857934  0.90409827  1
  Sc  Sc64  1  0.90438408  0.90200763  0.90032964  1
  Sc  Sc65  1  0.70649401  0.30102903  0.49924232  1
  Sc  Sc66  1  0.70853139  0.89567423  0.90786160  1
  Sc  Sc67  1  0.09485553  0.90343623  0.89681552  1
  Sc  Sc68  1  0.29997690  0.09757318  0.89659311  1
  Sc  Sc69  1  0.88964979  0.10103130  0.09705263  1
  Sc  Sc70  1  0.29656392  0.69536530  0.10086593  1
  Sc  Sc71  1  0.29400318  0.89599433  0.29894409  1
  Sc  Sc72  1  0.89553852  0.10308732  0.29477679  1
  Sc  Sc73  1  0.09509743  0.49920634  0.88835146  1
  Sc  Sc74  1  0.29899025  0.69893964  0.49392579  1
  Sc  Sc75  1  0.49778735  0.09833135  0.29526912  1
  Sc  Sc76  1  0.29147818  0.49433384  0.70059579  1
  Sc  Sc77  1  0.70798574  0.28948268  0.09248868  1
  Sc  Sc78  1  0.50730142  0.08917100  0.50273227  1
  Sc  Sc79  1  0.30677635  0.90141158  0.70573839  1
  Sc  Sc80  1  0.69919131  0.51878552  0.50673489  1
  Sc  Sc81  1  0.90436479  0.90016831  0.70412834  1
  Sc  Sc82  1  0.68557017  0.50702351  0.29250564  1
  Sc  Sc83  1  0.29472682  0.70051753  0.30288199  1
  Sc  Sc84  1  0.29695538  0.10683014  0.29736224  1
  Sc  Sc85  1  0.09622935  0.09571702  0.70135913  1
  Sc  Sc86  1  0.49449186  0.29494131  0.10612688  1
  Sc  Sc87  1  0.70725490  0.09387169  0.29731365  1
  Sc  Sc88  1  0.30642746  0.10233265  0.10073387  1
  Sc  Sc89  1  0.49400026  0.09207839  0.70143602  1
  Sc  Sc90  1  0.29264208  0.70321155  0.70266424  1
  Sc  Sc91  1  0.29681990  0.89491019  0.49864326  1
  Sc  Sc92  1  0.89481656  0.49954711  0.09589647  1
  Sc  Sc93  1  0.49944631  0.10036148  0.90544859  1
  Sc  Sc94  1  0.10638934  0.09683912  0.30135995  1
  Sc  Sc95  1  0.89595585  0.71298450  0.90211982  1
  Sc  Sc96  1  0.70491583  0.30090620  0.71842303  1
  Sc  Sc97  1  0.50843400  0.70799161  0.70509918  1
  Sc  Sc98  1  0.89827866  0.30127628  0.90261789  1
  Sc  Sc99  1  0.09987688  0.90627793  0.48898107  1
  Nb  Nb100  1  0.50716520  0.29944031  0.30240209  1
  Nb  Nb101  1  0.09530284  0.89730480  0.70088441  1
  Nb  Nb102  1  0.70419352  0.70424742  0.50591670  1
  Nb  Nb103  1  0.69339488  0.09894566  0.09802710  1
  Nb  Nb104  1  0.70099580  0.30223619  0.30048421  1
  Nb  Nb105  1  0.50110495  0.70165721  0.89817215  1
  Nb  Nb106  1  0.90223065  0.49582750  0.89584992  1
  Nb  Nb107  1  0.90165495  0.49854699  0.50196124  1
  Nb  Nb108  1  0.70071187  0.50542523  0.70095216  1
  Nb  Nb109  1  0.89285864  0.68944329  0.49566979  1
  Nb  Nb110  1  0.29560948  0.10094978  0.49822125  1
  Nb  Nb111  1  0.70245510  0.69398734  0.69289771  1
  Nb  Nb112  1  0.90578352  0.50093943  0.70271293  1
  Nb  Nb113  1  0.69877389  0.89926486  0.30896789  1
  Nb  Nb114  1  0.69383209  0.90280955  0.48768576  1
  Nb  Nb115  1  0.08831912  0.50497137  0.69267525  1
  Nb  Nb116  1  0.09419114  0.69770945  0.09514807  1
  Nb  Nb117  1  0.69769229  0.30051911  0.90316895  1
  Nb  Nb118  1  0.70246578  0.70532746  0.30507948  1
  Nb  Nb119  1  0.89307354  0.69982525  0.29851839  1
  Nb  Nb120  1  0.70026451  0.49953352  0.10064834  1
  Nb  Nb121  1  0.50229235  0.89997174  0.69969446  1
  Nb  Nb122  1  0.90438098  0.10431436  0.51203102  1
  Nb  Nb123  1  0.51652491  0.09664142  0.10160577  1
  Nb  Nb124  1  0.89933547  0.09756885  0.69375956  1
  Nb  Nb125  1  -0.00147873  0.19619809  0.40835675  1
  Nb  Nb126  1  0.40470923  0.60370595  0.80067590  1
  Nb  Nb127  1  0.39593118  0.00160504  0.40323282  1
  Nb  Nb128  1  0.00112325  0.60242873  -0.00257042  1
  Nb  Nb129  1  0.60479771  0.20027559  0.20325779  1
  Nb  Nb130  1  0.79729968  0.00656430  0.79832484  1
  Nb  Nb131  1  0.60187710  0.20360049  0.39747578  1
  Nb  Nb132  1  0.40060513  0.60022634  0.60637900  1
  Nb  Nb133  1  0.60880790  0.80104582  0.59486651  1
  Nb  Nb134  1  0.60756655  0.80153079  0.20767848  1
  Nb  Nb135  1  0.39803817  0.19655718  0.59401900  1
  Nb  Nb136  1  0.60700267  0.40022635  0.60412926  1
  Nb  Nb137  1  0.00098930  -0.00435429  0.19718809  1
  Nb  Nb138  1  0.40019103  0.40150393  0.00021896  1
  Nb  Nb139  1  0.20389931  0.39797196  -0.00192264  1
  Nb  Nb140  1  0.79220575  0.40107355  0.20206892  1
  Nb  Nb141  1  0.60222407  0.39964604  0.00252111  1
  Nb  Nb142  1  0.60434049  -0.00683889  0.79940208  1
  Nb  Nb143  1  0.59614937  0.20795304  0.59702937  1
  Nb  Nb144  1  0.79965036  0.40616698  0.39944477  1
  Nb  Nb145  1  0.79495388  0.79942794  0.20898881  1
  Nb  Nb146  1  0.80177901  0.40926492  0.60421029  1
  Nb  Nb147  1  0.00086639  0.79627158  0.59347246  1
  Nb  Nb148  1  0.79982614  0.59751013  0.79458002  1
  Nb  Nb149  1  0.18874589  0.80156641  0.60325358  1
  Pd  Pd150  1  0.20208923  0.59914694  0.79614755  1
  Pd  Pd151  1  0.19541809  0.40622655  0.60025631  1
  Pd  Pd152  1  0.19383091  0.40151799  0.80386868  1
  Pd  Pd153  1  0.39245558  0.00242779  0.59411212  1
  Pd  Pd154  1  0.18907367  0.59572072  -0.00248178  1
  Pd  Pd155  1  0.20445895  0.80251028  0.00300095  1
  Pd  Pd156  1  0.19606130  0.00296079  0.19602401  1
  Pd  Pd157  1  -0.00905058  0.80739421  0.19123771  1
  Pd  Pd158  1  0.39592927  0.00451873  0.20718035  1
  Pd  Pd159  1  0.20192984  -0.01071867  0.60364971  1
  Pd  Pd160  1  0.60422627  0.60524252  0.39954160  1
  Pd  Pd161  1  0.39702896  0.40719028  0.80376508  1
  Pd  Pd162  1  0.01019025  0.19930499  0.60146464  1
  Pd  Pd163  1  -0.01018084  0.60904233  0.80967204  1
  Pd  Pd164  1  0.60698617  0.80468732  0.01210776  1
  Pd  Pd165  1  0.80931998  0.00551747  0.39942736  1
  Pd  Pd166  1  0.79891482  0.39687716  0.00506692  1
  Pd  Pd167  1  0.61017614  0.40039825  0.41054301  1
  Pd  Pd168  1  0.40042885  0.40465732  0.59721157  1
  Pd  Pd169  1  0.80048333  -0.00866174  0.60280329  1
  Pd  Pd170  1  0.60584849  0.38805910  0.18911189  1
  Pd  Pd171  1  0.40281531  0.79819292  0.20233126  1
  Pd  Pd172  1  0.39733506  0.80252314  0.00325696  1
  Pd  Pd173  1  0.40463180  0.60025376  -0.00320317  1
  Pd  Pd174  1  0.59521466  0.18976541  0.79493587  1
  Pd  Pd175  1  0.00212524  0.78784883  0.40855081  1
  Pd  Pd176  1  0.39648111  0.79319291  0.60662061  1
  Pd  Pd177  1  0.40038301  0.39874115  0.19768054  1
  Pd  Pd178  1  0.80357091  0.20343028  0.39990072  1
  Pd  Pd179  1  0.19155071  0.20364235  0.39550572  1
  Pd  Pd180  1  0.80726623  0.59997841  -0.01234843  1
  Pd  Pd181  1  0.80326210  0.80806071  0.58969341  1
  Pd  Pd182  1  -0.00533795  0.01257912  0.39173220  1
  Pd  Pd183  1  0.00246833  0.60541264  0.39919712  1
  Pd  Pd184  1  0.80522143  -0.00803558  0.19934106  1
  Pd  Pd185  1  0.20178643  0.00310342  -0.00020241  1
  Pd  Pd186  1  0.40287275  0.00250992  -0.00442099  1
  Pd  Pd187  1  0.20187956  0.79400416  0.19334517  1
  Pd  Pd188  1  0.79402191  0.21143410  0.60318740  1
  Pd  Pd189  1  0.79166477  0.59425838  0.39594303  1
  Pd  Pd190  1  0.40402339  0.19948401  0.00359136  1
  Pd  Pd191  1  0.41148454  0.18937099  0.40697866  1
  Pd  Pd192  1  -0.00127366  0.59394090  0.19486047  1
  Pd  Pd193  1  0.80234792  0.80032828  0.40426404  1
  Pd  Pd194  1  0.20535067  0.39447410  0.19876467  1
  Pd  Pd195  1  0.00536006  0.18817422  0.20205655  1
  Pd  Pd196  1  0.80654403  0.19117153  0.81220070  1
  Pd  Pd197  1  0.60517271  -0.00386885  0.60622334  1
  Pd  Pd198  1  0.60332671  0.59595184  -0.00318858  1
  Pd  Pd199  1  -0.01125016  0.40191883  0.20088096  1
  Rh  Rh200  1  0.19322846  0.59957918  0.39158502  1
  Rh  Rh201  1  -0.00791477  0.60452334  0.59558647  1
  Rh  Rh202  1  -0.00053023  0.80002733  0.79439829  1
  Rh  Rh203  1  0.19329903  0.79721291  0.40513896  1
  Rh  Rh204  1  0.59243302  0.60549128  0.59977652  1
  Rh  Rh205  1  0.60338657  0.60818892  0.80059924  1
  Rh  Rh206  1  0.79691772  0.00893669  -0.01154912  1
  Rh  Rh207  1  0.00153324  -0.00600252  0.60300700  1
  Rh  Rh208  1  0.20371831  0.20286469  -0.00267817  1
  Rh  Rh209  1  -0.00079974  0.79633575  -0.00017770  1
  Rh  Rh210  1  0.19467786  0.60563572  0.20174174  1
  Rh  Rh211  1  -0.00340875  0.39891735  0.60944288  1
  Rh  Rh212  1  0.59435317  0.61123333  0.20706840  1
  Rh  Rh213  1  -0.00750718  0.39048673  0.39104873  1
  Rh  Rh214  1  0.41023097  -0.00209105  0.80659042  1
  Rh  Rh215  1  -0.00346340  0.19475612  0.79820309  1
  Rh  Rh216  1  -0.00678517  0.00277052  0.79442447  1
  Rh  Rh217  1  0.80546888  0.40537633  0.79694568  1
  Rh  Rh218  1  0.19922375  0.20086258  0.20066229  1
  Rh  Rh219  1  0.20648213  0.60148698  0.60679064  1
  Rh  Rh220  1  0.40156580  0.79470451  0.79523572  1
  Rh  Rh221  1  0.40168248  0.60639027  0.20321974  1
  Rh  Rh222  1  0.59910146  -0.00500760  -0.01154256  1
  Rh  Rh223  1  0.19511983  0.19458967  0.79993442  1
  Rh  Rh224  1  0.60675683  0.00077652  0.20834227  1
  Rh  Rh225  1  0.39328708  0.59633875  0.40607537  1
  Rh  Rh226  1  0.39373574  0.40673909  0.39517365  1
  Rh  Rh227  1  0.00520008  0.40843112  -0.00414660  1
  Rh  Rh228  1  0.79325505  0.79660298  0.01229540  1
  Rh  Rh229  1  0.60392426  0.80259181  0.79492424  1
  Rh  Rh230  1  0.59639527  0.01101508  0.39352342  1
  Rh  Rh231  1  0.60561343  0.39550332  0.80050879  1
  Rh  Rh232  1  0.59425843  0.20928682  0.00903428  1
  Rh  Rh233  1  0.20221393  0.19761892  0.60262372  1
  Rh  Rh234  1  0.40088336  0.19134086  0.79235907  1
  Rh  Rh235  1  0.19591283  0.80640857  0.79280838  1
  Rh  Rh236  1  0.60332912  0.79244926  0.40417567  1
  Rh  Rh237  1  0.80921651  0.59368559  0.60415697  1
  Rh  Rh238  1  0.39350791  0.80854147  0.39576401  1
  Rh  Rh239  1  0.20374933  0.39750143  0.39237002  1
  Rh  Rh240  1  0.21124866  -0.00060742  0.39734337  1
  Rh  Rh241  1  -0.00223569  0.19612659  0.00207260  1
  Rh  Rh242  1  0.00180629  0.39640438  0.79798498  1
  Rh  Rh243  1  0.80275258  0.19748567  -0.00339036  1
  Rh  Rh244  1  0.19348376  -0.00525795  0.79729607  1
  Rh  Rh245  1  0.79835986  0.59642010  0.20878209  1
  Rh  Rh246  1  0.41078279  0.19412673  0.20031854  1
  Rh  Rh247  1  0.00210779  0.00093837  0.00875764  1
  Rh  Rh248  1  0.79284513  0.20357311  0.19663085  1
  Rh  Rh249  1  0.80093894  0.79945200  0.80208330  1
