# generated using pymatgen
data_ZrScNbPdRh
_symmetry_space_group_name_H-M   'P 1'
_cell_length_a   16.56417470
_cell_length_b   16.56596276
_cell_length_c   16.56264123
_cell_angle_alpha   90.04331751
_cell_angle_beta   89.97334834
_cell_angle_gamma   89.98358040
_symmetry_Int_Tables_number   1
_chemical_formula_structural   ZrScNbPdRh
_chemical_formula_sum   'Zr50 Sc50 Nb50 Pd50 Rh50'
_cell_volume   4544.81164036
_cell_formula_units_Z   50
loop_
 _symmetry_equiv_pos_site_id
 _symmetry_equiv_pos_as_xyz
  1  'x, y, z'
loop_
 _atom_site_type_symbol
 _atom_site_label
 _atom_site_symmetry_multiplicity
 _atom_site_fract_x
 _atom_site_fract_y
 _atom_site_fract_z
 _atom_site_occupancy
  Zr  Zr0  1  0.70561540  0.29744154  0.10050114  1
  Zr  Zr1  1  0.10305822  0.50080256  0.69531907  1
  Zr  Zr2  1  0.89853782  0.30263827  0.49590959  1
  Zr  Zr3  1  0.10712617  0.09324429  0.70389192  1
  Zr  Zr4  1  0.09462454  0.69972774  0.10002558  1
  Zr  Zr5  1  0.69588419  0.50245129  0.50109473  1
  Zr  Zr6  1  0.49489279  0.89537779  0.10622327  1
  Zr  Zr7  1  0.70629004  0.10382010  0.90079364  1
  Zr  Zr8  1  0.70344724  0.69744136  0.49528689  1
  Zr  Zr9  1  0.09526780  0.70431751  0.29892667  1
  Zr  Zr10  1  0.89374045  0.49616012  0.49308650  1
  Zr  Zr11  1  0.28469949  0.90742802  0.70432643  1
  Zr  Zr12  1  0.90048956  0.10423427  0.50000030  1
  Zr  Zr13  1  0.50535345  0.90611546  0.68714766  1
  Zr  Zr14  1  0.89876467  0.49645998  0.90461799  1
  Zr  Zr15  1  0.90138184  0.30196028  0.29027048  1
  Zr  Zr16  1  0.90644331  0.49489268  0.10266268  1
  Zr  Zr17  1  0.69852011  0.70214154  0.68957091  1
  Zr  Zr18  1  0.09665517  0.09823598  0.51024263  1
  Zr  Zr19  1  0.69011183  0.89307864  0.09892726  1
  Zr  Zr20  1  0.10151996  0.70175159  0.90853433  1
  Zr  Zr21  1  0.90060488  0.70101581  0.10681966  1
  Zr  Zr22  1  0.69995854  0.49278234  0.10321749  1
  Zr  Zr23  1  0.49213262  0.68922548  0.89544561  1
  Zr  Zr24  1  0.49822308  0.49615176  0.30695043  1
  Zr  Zr25  1  0.30659220  0.70156836  0.08526805  1
  Zr  Zr26  1  0.90782048  0.09522991  0.69692494  1
  Zr  Zr27  1  0.50404143  0.69729520  0.29743562  1
  Zr  Zr28  1  0.90550412  0.70662507  0.69543458  1
  Zr  Zr29  1  0.70687364  0.90242864  0.69672299  1
  Zr  Zr30  1  0.89868287  0.49561745  0.29752588  1
  Zr  Zr31  1  0.70004462  0.89498273  0.50882704  1
  Zr  Zr32  1  0.49921465  0.70524714  0.50529990  1
  Zr  Zr33  1  0.90541099  0.10445443  0.09643827  1
  Zr  Zr34  1  0.30742662  0.30531408  0.10341700  1
  Zr  Zr35  1  0.30575565  0.49291317  0.70757400  1
  Zr  Zr36  1  0.70426801  0.30083496  0.89522929  1
  Zr  Zr37  1  0.29681777  0.50709476  0.49958513  1
  Zr  Zr38  1  0.31547450  0.50832547  0.90378058  1
  Zr  Zr39  1  0.10700163  0.29652292  0.90057870  1
  Zr  Zr40  1  0.50533897  0.08934275  0.10490891  1
  Zr  Zr41  1  0.70070888  0.70083642  0.29438692  1
  Zr  Zr42  1  0.71062336  0.90154796  0.29978123  1
  Zr  Zr43  1  0.70184894  0.09884233  0.49840190  1
  Zr  Zr44  1  0.10614181  0.69646178  0.49990185  1
  Zr  Zr45  1  0.70058559  0.09554419  0.10712237  1
  Zr  Zr46  1  0.29779538  0.70511701  0.89617039  1
  Zr  Zr47  1  0.30658462  0.49981267  0.30007341  1
  Zr  Zr48  1  0.89173961  0.29892052  0.90568529  1
  Zr  Zr49  1  0.70538969  0.10090638  0.69804509  1
  Sc  Sc50  1  0.89591683  0.70447710  0.29856025  1
  Sc  Sc51  1  0.30741072  0.29705304  0.70605573  1
  Sc  Sc52  1  0.09868871  0.71021835  0.68666574  1
  Sc  Sc53  1  0.30303802  0.90265876  0.49496141  1
  Sc  Sc54  1  0.69500574  0.10011267  0.29849866  1
  Sc  Sc55  1  0.29788392  0.70236144  0.50259447  1
  Sc  Sc56  1  0.69885382  0.48903664  0.89578481  1
  Sc  Sc57  1  0.09042243  0.50587069  0.49986375  1
  Sc  Sc58  1  0.09336408  0.50592406  0.30377481  1
  Sc  Sc59  1  0.89892177  0.09528096  0.90529261  1
  Sc  Sc60  1  0.10398901  0.90726336  0.89593726  1
  Sc  Sc61  1  0.28723639  0.09559498  0.09927180  1
  Sc  Sc62  1  0.89798979  0.70731967  0.89822371  1
  Sc  Sc63  1  0.88840754  0.29898691  0.70041208  1
  Sc  Sc64  1  0.70105542  0.71166023  0.90177550  1
  Sc  Sc65  1  0.10294640  0.09194573  0.28196089  1
  Sc  Sc66  1  0.70058403  0.50726111  0.30745506  1
  Sc  Sc67  1  0.09826920  0.91125802  0.09606260  1
  Sc  Sc68  1  0.50066478  0.69177192  0.69855260  1
  Sc  Sc69  1  0.29360456  0.70238054  0.69018213  1
  Sc  Sc70  1  0.69045350  0.49466442  0.69692162  1
  Sc  Sc71  1  0.31628556  0.29517988  0.49474189  1
  Sc  Sc72  1  0.50173512  0.29798183  0.49429124  1
  Sc  Sc73  1  0.89923889  0.49620161  0.68797682  1
  Sc  Sc74  1  0.49428880  0.91260973  0.91037129  1
  Sc  Sc75  1  0.89227891  0.08770184  0.29988370  1
  Sc  Sc76  1  0.30086043  0.09819132  0.50080447  1
  Sc  Sc77  1  0.49138404  0.49708247  0.10282946  1
  Sc  Sc78  1  0.90073168  0.90254905  0.49419742  1
  Sc  Sc79  1  0.50447657  0.49505218  0.50865863  1
  Sc  Sc80  1  0.11687920  0.29574002  0.70546819  1
  Sc  Sc81  1  0.90431635  0.89534768  0.29884244  1
  Sc  Sc82  1  0.29946652  0.09106920  0.29778478  1
  Sc  Sc83  1  0.48620890  0.90224543  0.29260465  1
  Sc  Sc84  1  0.30016174  0.10185582  0.70155065  1
  Sc  Sc85  1  0.50389066  0.09997092  0.30139744  1
  Sc  Sc86  1  0.30122296  0.30420001  0.89161443  1
  Sc  Sc87  1  0.49366422  0.10028454  0.50396498  1
  Sc  Sc88  1  0.50864286  0.30899958  0.10661205  1
  Sc  Sc89  1  0.09415923  0.29653836  0.28773309  1
  Sc  Sc90  1  0.09819684  0.50104563  0.90891764  1
  Sc  Sc91  1  0.69586792  0.30052213  0.49899118  1
  Sc  Sc92  1  0.10213667  0.89886490  0.49692631  1
  Sc  Sc93  1  0.68779695  0.29081518  0.29747764  1
  Sc  Sc94  1  0.09681104  0.29810536  0.50546628  1
  Sc  Sc95  1  0.89452157  0.90414737  0.10425508  1
  Sc  Sc96  1  0.09250185  0.28508588  0.09984550  1
  Sc  Sc97  1  0.30233019  0.69724175  0.31145580  1
  Sc  Sc98  1  0.29810211  0.09360760  0.89562116  1
  Sc  Sc99  1  0.89886845  0.70282154  0.50171186  1
  Nb  Nb100  1  0.10696534  0.89553169  0.29442067  1
  Nb  Nb101  1  0.50066071  0.49666736  0.71100750  1
  Nb  Nb102  1  0.09908871  0.50535615  0.10240248  1
  Nb  Nb103  1  0.30275256  0.29889442  0.30247252  1
  Nb  Nb104  1  0.49874097  0.10490132  0.89771301  1
  Nb  Nb105  1  0.91528516  0.89715181  0.70651336  1
  Nb  Nb106  1  0.09528443  0.09772436  0.08415673  1
  Nb  Nb107  1  0.29605862  0.89482508  0.90480276  1
  Nb  Nb108  1  0.50440192  0.29894492  0.70767653  1
  Nb  Nb109  1  0.29120800  0.90424063  0.28880125  1
  Nb  Nb110  1  0.50392421  0.90112490  0.50104114  1
  Nb  Nb111  1  0.09981594  0.10326731  0.91557366  1
  Nb  Nb112  1  0.48953809  0.29317151  0.30526258  1
  Nb  Nb113  1  0.09358968  0.90611818  0.69400255  1
  Nb  Nb114  1  0.89666689  0.89684538  0.89537916  1
  Nb  Nb115  1  0.89877164  0.30153136  0.10404205  1
  Nb  Nb116  1  0.70237990  0.90261326  0.89617484  1
  Nb  Nb117  1  0.30205423  0.49849446  0.10222810  1
  Nb  Nb118  1  0.51233924  0.70457341  0.10218433  1
  Nb  Nb119  1  0.50054862  0.10463284  0.71012644  1
  Nb  Nb120  1  0.49992955  0.50299616  0.89066447  1
  Nb  Nb121  1  0.30103780  0.89679384  0.09649551  1
  Nb  Nb122  1  0.69268951  0.29923545  0.71224997  1
  Nb  Nb123  1  0.50486593  0.29387500  0.89184255  1
  Nb  Nb124  1  0.69306540  0.70068723  0.10096365  1
  Nb  Nb125  1  0.59813030  -0.00917020  0.40679245  1
  Nb  Nb126  1  0.39998123  0.80839730  0.79878960  1
  Nb  Nb127  1  0.00240742  0.19549338  0.39645895  1
  Nb  Nb128  1  0.59753123  0.20188558  0.61233165  1
  Nb  Nb129  1  -0.00425143  0.80733670  -0.00326604  1
  Nb  Nb130  1  0.79337495  0.60253879  0.00214065  1
  Nb  Nb131  1  0.00127915  0.39759072  0.80107677  1
  Nb  Nb132  1  0.20347236  0.40566104  0.00987339  1
  Nb  Nb133  1  0.40898535  0.19888169  0.00025575  1
  Nb  Nb134  1  0.19579428  0.20180893  0.39617501  1
  Nb  Nb135  1  0.59611909  0.81041645  0.80054308  1
  Nb  Nb136  1  0.60115080  0.00201450  0.80159370  1
  Nb  Nb137  1  0.20198180  0.39421939  0.39753221  1
  Nb  Nb138  1  0.19622362  0.60108378  0.80042258  1
  Nb  Nb139  1  0.20268815  0.59938327  0.19413437  1
  Nb  Nb140  1  0.20280698  0.80125801  0.19696263  1
  Nb  Nb141  1  -0.00000970  0.59874429  0.79847946  1
  Nb  Nb142  1  0.20032383  0.40518117  0.19788807  1
  Nb  Nb143  1  0.59693022  0.80572923  0.40119239  1
  Nb  Nb144  1  0.80262403  0.60015297  0.79984309  1
  Nb  Nb145  1  0.20768738  0.40088846  0.59333888  1
  Nb  Nb146  1  0.00323373  0.20036903  0.80492646  1
  Nb  Nb147  1  0.40111854  0.20150367  0.19876388  1
  Nb  Nb148  1  0.60095106  0.60091083  0.00271314  1
  Nb  Nb149  1  0.59647158  0.19931111  -0.00342175  1
  Pd  Pd150  1  0.60099013  0.39582756  0.39747979  1
  Pd  Pd151  1  0.40633707  0.20177570  0.60533119  1
  Pd  Pd152  1  -0.00971380  0.60760301  0.39927815  1
  Pd  Pd153  1  0.39301809  0.80723758  0.60682409  1
  Pd  Pd154  1  0.80272943  0.00183725  0.79896415  1
  Pd  Pd155  1  0.40254340  0.59624644  0.60369900  1
  Pd  Pd156  1  0.79511291  0.79607761  0.79293322  1
  Pd  Pd157  1  0.78838153  0.39538861  0.60315015  1
  Pd  Pd158  1  0.60019385  0.40161555  0.21212090  1
  Pd  Pd159  1  0.80152031  0.59672459  0.60330662  1
  Pd  Pd160  1  0.19422252  0.00743217  0.40153617  1
  Pd  Pd161  1  0.40440596  0.39327246  -0.00854325  1
  Pd  Pd162  1  0.20439691  0.20248458  0.20146085  1
  Pd  Pd163  1  0.00822007  0.00466834  0.39494931  1
  Pd  Pd164  1  0.59659154  0.59012942  0.19582649  1
  Pd  Pd165  1  0.41035267  0.80031500  -0.00713625  1
  Pd  Pd166  1  0.80092455  -0.00570431  0.00396388  1
  Pd  Pd167  1  0.01049045  0.39127594  0.39649185  1
  Pd  Pd168  1  0.59059643  0.79816365  -0.01131297  1
  Pd  Pd169  1  0.40006818  0.80626059  0.39681407  1
  Pd  Pd170  1  0.39073450  0.00731013  0.00471991  1
  Pd  Pd171  1  0.80341397  0.19538133  0.20490227  1
  Pd  Pd172  1  0.21472568  0.20727004  -0.00131757  1
  Pd  Pd173  1  0.00065732  0.20927559  0.60912105  1
  Pd  Pd174  1  0.40208149  0.39616783  0.59996622  1
  Pd  Pd175  1  0.39759522  0.60970743  0.19471020  1
  Pd  Pd176  1  0.59277056  0.40015710  -0.00692801  1
  Pd  Pd177  1  0.79181700  0.20904380  0.60090473  1
  Pd  Pd178  1  0.81352246  -0.00687369  0.59966712  1
  Pd  Pd179  1  0.40728186  0.59945077  0.40988470  1
  Pd  Pd180  1  0.40401998  0.00107129  0.39695658  1
  Pd  Pd181  1  0.21123530  0.20802235  0.59172128  1
  Pd  Pd182  1  0.19459333  0.79739330  0.79402141  1
  Pd  Pd183  1  0.00497763  0.00727085  0.81124504  1
  Pd  Pd184  1  -0.00025082  0.79994523  0.40297290  1
  Pd  Pd185  1  0.01154050  0.79718022  0.80477673  1
  Pd  Pd186  1  0.00757123  0.39025082  0.60901666  1
  Pd  Pd187  1  0.80340526  0.20295894  0.39138755  1
  Pd  Pd188  1  0.79979987  0.59751041  0.19672676  1
  Pd  Pd189  1  0.00913599  0.39044877  0.00305519  1
  Pd  Pd190  1  0.39028748  0.79120825  0.20376391  1
  Pd  Pd191  1  0.61391995  0.60603700  0.80652219  1
  Pd  Pd192  1  0.60477513  0.00417249  -0.00614384  1
  Pd  Pd193  1  0.20607044  0.80198362  0.39657147  1
  Pd  Pd194  1  0.20387106  0.59323121  -0.00059515  1
  Pd  Pd195  1  0.40249106  -0.00536020  0.79767748  1
  Pd  Pd196  1  0.39446949  0.00215233  0.60400691  1
  Pd  Pd197  1  0.78734083  0.39203964  0.39097929  1
  Pd  Pd198  1  0.80369993  0.79970561  0.00569289  1
  Pd  Pd199  1  -0.00131415  -0.00156341  0.19810147  1
  Rh  Rh200  1  0.39468169  0.20059201  0.80536756  1
  Rh  Rh201  1  -0.00827562  -0.00794589  -0.00653203  1
  Rh  Rh202  1  0.19639488  0.59611656  0.39444425  1
  Rh  Rh203  1  0.40107631  0.39472131  0.20923996  1
  Rh  Rh204  1  0.00902956  0.40046909  0.19401229  1
  Rh  Rh205  1  0.00027641  0.59785009  0.20826842  1
  Rh  Rh206  1  0.19872317  0.18857005  0.80590684  1
  Rh  Rh207  1  0.59462809  0.60698798  0.40548962  1
  Rh  Rh208  1  0.40908086  0.39517059  0.80495024  1
  Rh  Rh209  1  0.38941334  0.61021349  0.78655577  1
  Rh  Rh210  1  0.19869110  0.81066613  0.59449393  1
  Rh  Rh211  1  0.79886101  -0.00106185  0.19594427  1
  Rh  Rh212  1  0.81172507  0.19381592  0.79755525  1
  Rh  Rh213  1  0.59780799  0.79467545  0.60023503  1
  Rh  Rh214  1  0.81391660  0.80864829  0.60412977  1
  Rh  Rh215  1  0.60416511  0.19307002  0.80202541  1
  Rh  Rh216  1  0.39918615  0.40331211  0.40460380  1
  Rh  Rh217  1  0.79729793  0.19955813  0.00556830  1
  Rh  Rh218  1  0.39400195  0.18797117  0.39019235  1
  Rh  Rh219  1  0.59464404  0.19003104  0.40976518  1
  Rh  Rh220  1  0.80496787  0.60118147  0.39881680  1
  Rh  Rh221  1  0.59478140  0.59558680  0.59982299  1
  Rh  Rh222  1  0.80056225  0.40258435  0.00835311  1
  Rh  Rh223  1  0.20436883  -0.00460249  -0.00212882  1
  Rh  Rh224  1  0.19020456  0.81112232  0.00836387  1
  Rh  Rh225  1  0.59033739  0.20158131  0.19390924  1
  Rh  Rh226  1  0.59555575  0.40104420  0.80317696  1
  Rh  Rh227  1  0.19876082  -0.00516751  0.18912751  1
  Rh  Rh228  1  0.19404401  0.41393565  0.80536767  1
  Rh  Rh229  1  0.79738953  0.79928458  0.39961006  1
  Rh  Rh230  1  0.59563650  0.01692712  0.59934930  1
  Rh  Rh231  1  0.60094667  -0.01019774  0.21375936  1
  Rh  Rh232  1  0.00690631  0.81012336  0.19382392  1
  Rh  Rh233  1  0.39341779  0.00679110  0.19389113  1
  Rh  Rh234  1  -0.00731200  0.20449104  -0.00462965  1
  Rh  Rh235  1  0.79678046  0.80178804  0.19548409  1
  Rh  Rh236  1  0.20214914  -0.00234968  0.59440902  1
  Rh  Rh237  1  0.19617520  0.00291855  0.80699882  1
  Rh  Rh238  1  -0.00340913  0.60317397  0.59808007  1
  Rh  Rh239  1  -0.00515239  0.18894570  0.20265851  1
  Rh  Rh240  1  -0.00268537  -0.00750306  0.59520700  1
  Rh  Rh241  1  0.00047112  0.80761531  0.59104736  1
  Rh  Rh242  1  0.59659465  0.39146640  0.60633253  1
  Rh  Rh243  1  0.79391574  0.39834824  0.20565976  1
  Rh  Rh244  1  0.20085534  0.59449083  0.60342871  1
  Rh  Rh245  1  0.79375516  -0.00185768  0.40270849  1
  Rh  Rh246  1  0.60024099  0.80687050  0.21112633  1
  Rh  Rh247  1  0.41411433  0.59944379  0.00949410  1
  Rh  Rh248  1  0.80512423  0.40959274  0.78977701  1
  Rh  Rh249  1  -0.01387558  0.61112815  -0.00532024  1
