# generated using pymatgen
data_ZrScNbPdRh
_symmetry_space_group_name_H-M   'P 1'
_cell_length_a   16.56767584
_cell_length_b   16.55467566
_cell_length_c   16.56483314
_cell_angle_alpha   89.97371806
_cell_angle_beta   90.02089003
_cell_angle_gamma   89.96516422
_symmetry_Int_Tables_number   1
_chemical_formula_structural   ZrScNbPdRh
_chemical_formula_sum   'Zr50 Sc50 Nb50 Pd50 Rh50'
_cell_volume   4543.27657785
_cell_formula_units_Z   50
loop_
 _symmetry_equiv_pos_site_id
 _symmetry_equiv_pos_as_xyz
  1  'x, y, z'
loop_
 _atom_site_type_symbol
 _atom_site_label
 _atom_site_symmetry_multiplicity
 _atom_site_fract_x
 _atom_site_fract_y
 _atom_site_fract_z
 _atom_site_occupancy
  Zr  Zr0  1  0.70215703  0.89206838  0.09303351  1
  Zr  Zr1  1  0.90334578  0.10087892  0.30201654  1
  Zr  Zr2  1  0.69501052  0.50126766  0.09899052  1
  Zr  Zr3  1  0.49559677  0.70011647  0.50606421  1
  Zr  Zr4  1  0.30212074  0.09584173  0.09664375  1
  Zr  Zr5  1  0.29675554  0.30628303  0.09653181  1
  Zr  Zr6  1  0.30399671  0.89490183  0.29736206  1
  Zr  Zr7  1  0.89841287  0.30511849  0.09848497  1
  Zr  Zr8  1  0.69896412  0.69246945  0.49219990  1
  Zr  Zr9  1  0.50244570  0.69641293  0.89668339  1
  Zr  Zr10  1  0.30049592  0.10373958  0.70150115  1
  Zr  Zr11  1  0.29378261  0.50250939  0.29508018  1
  Zr  Zr12  1  0.70260179  0.30625323  0.09618975  1
  Zr  Zr13  1  0.30306005  0.10377236  0.50426921  1
  Zr  Zr14  1  0.90001408  0.09226522  0.89874005  1
  Zr  Zr15  1  0.89898787  0.09623957  0.50002173  1
  Zr  Zr16  1  0.30455305  0.10569301  0.29926911  1
  Zr  Zr17  1  0.09800651  0.90868194  0.30240352  1
  Zr  Zr18  1  0.90295989  0.49502048  0.31245662  1
  Zr  Zr19  1  0.29632880  0.30170014  0.29913675  1
  Zr  Zr20  1  0.50043194  0.29484667  0.49990420  1
  Zr  Zr21  1  0.11427135  0.30728305  0.90014670  1
  Zr  Zr22  1  0.29542694  0.50408973  0.49935041  1
  Zr  Zr23  1  0.10040957  0.89648416  0.50227422  1
  Zr  Zr24  1  0.48966827  0.50087446  0.29196774  1
  Zr  Zr25  1  0.90472302  0.10473373  0.70315717  1
  Zr  Zr26  1  0.68937064  0.89993347  0.30451066  1
  Zr  Zr27  1  0.09930403  0.30450037  0.09553262  1
  Zr  Zr28  1  0.90433976  0.29377549  0.30047402  1
  Zr  Zr29  1  0.69933975  0.70074803  0.29760669  1
  Zr  Zr30  1  0.89808549  0.69743564  0.10012969  1
  Zr  Zr31  1  0.10175946  0.69852701  0.28464684  1
  Zr  Zr32  1  0.50041569  0.30131469  0.89571056  1
  Zr  Zr33  1  0.30054464  0.70285343  0.89863769  1
  Zr  Zr34  1  0.89554450  0.89339819  0.90134118  1
  Zr  Zr35  1  0.70168638  0.69934408  0.09832497  1
  Zr  Zr36  1  0.09961439  0.49475707  0.49995916  1
  Zr  Zr37  1  0.10416762  0.70726074  0.70399967  1
  Zr  Zr38  1  0.50258532  0.70541081  0.08972927  1
  Zr  Zr39  1  0.70453561  0.30878545  0.89341907  1
  Zr  Zr40  1  0.49945576  0.89820964  0.30235765  1
  Zr  Zr41  1  0.70279015  0.49638705  0.49823886  1
  Zr  Zr42  1  0.90305470  0.29965240  0.49702021  1
  Zr  Zr43  1  0.29912889  0.10366706  0.89273720  1
  Zr  Zr44  1  0.10375137  0.49723881  0.30471127  1
  Zr  Zr45  1  0.50169227  0.10114388  0.30062471  1
  Zr  Zr46  1  0.10107312  0.69757431  0.89424804  1
  Zr  Zr47  1  0.69949345  0.09722817  0.09295919  1
  Zr  Zr48  1  0.10389879  0.90052992  0.10647104  1
  Zr  Zr49  1  0.10077135  0.09841221  0.70027983  1
  Sc  Sc50  1  0.30616118  0.90141502  0.09960470  1
  Sc  Sc51  1  0.10710223  0.09082635  0.90142075  1
  Sc  Sc52  1  0.51256610  0.89824089  0.69034445  1
  Sc  Sc53  1  0.69885704  0.09165664  0.69539674  1
  Sc  Sc54  1  0.68976122  0.30322214  0.50252324  1
  Sc  Sc55  1  0.70033718  0.90551638  0.50084393  1
  Sc  Sc56  1  0.29617721  0.90731193  0.91154361  1
  Sc  Sc57  1  0.49508098  0.09880024  0.09924573  1
  Sc  Sc58  1  0.10167137  0.50176458  0.10391780  1
  Sc  Sc59  1  0.10611413  0.09982209  0.49449547  1
  Sc  Sc60  1  0.70206440  0.90203516  0.70205395  1
  Sc  Sc61  1  0.10533893  0.89966593  0.89412075  1
  Sc  Sc62  1  0.89689635  0.90200105  0.09713869  1
  Sc  Sc63  1  0.29829980  0.71250284  0.10987693  1
  Sc  Sc64  1  0.71110006  0.30708585  0.30171970  1
  Sc  Sc65  1  0.09682158  0.50035723  0.90615371  1
  Sc  Sc66  1  0.08959554  0.69569334  0.50824582  1
  Sc  Sc67  1  0.89695446  0.89873099  0.71007051  1
  Sc  Sc68  1  0.30800041  0.69594443  0.30177435  1
  Sc  Sc69  1  0.49222774  0.29280280  0.29820034  1
  Sc  Sc70  1  0.49624732  0.50646708  0.69846593  1
  Sc  Sc71  1  0.89889702  0.69588578  0.30519659  1
  Sc  Sc72  1  0.29985356  0.90204716  0.50281001  1
  Sc  Sc73  1  0.69869452  0.09133399  0.89954442  1
  Sc  Sc74  1  0.50625449  0.89616095  0.49736560  1
  Sc  Sc75  1  0.69791890  0.50196311  0.89885115  1
  Sc  Sc76  1  0.69573940  0.49356132  0.70932826  1
  Sc  Sc77  1  0.29279282  0.30059646  0.50606743  1
  Sc  Sc78  1  0.69753202  0.70193135  0.90662572  1
  Sc  Sc79  1  0.91052024  0.50725614  0.49663178  1
  Sc  Sc80  1  0.28788710  0.49366648  0.89375812  1
  Sc  Sc81  1  0.10450031  0.29654938  0.49748712  1
  Sc  Sc82  1  0.29547301  0.49924955  0.69292318  1
  Sc  Sc83  1  0.70174163  0.50234883  0.30666151  1
  Sc  Sc84  1  0.29838065  0.69443278  0.69370235  1
  Sc  Sc85  1  0.70333237  0.90093491  0.89855373  1
  Sc  Sc86  1  0.50064443  0.10497317  0.68905857  1
  Sc  Sc87  1  0.50661202  0.30647500  0.69002617  1
  Sc  Sc88  1  0.90488901  0.09676734  0.10610190  1
  Sc  Sc89  1  0.10475022  0.50762915  0.70034300  1
  Sc  Sc90  1  0.91390960  0.69465282  0.71307015  1
  Sc  Sc91  1  0.90343351  0.89966107  0.31148537  1
  Sc  Sc92  1  0.49334591  0.90058956  0.09616465  1
  Sc  Sc93  1  0.90112578  0.50054743  0.08657699  1
  Sc  Sc94  1  0.28940956  0.90381005  0.68903983  1
  Sc  Sc95  1  0.50187341  0.09945476  0.89862924  1
  Sc  Sc96  1  0.50452254  0.49751400  0.50799661  1
  Sc  Sc97  1  0.69355996  0.09878084  0.49816244  1
  Sc  Sc98  1  0.69032716  0.70138847  0.70586953  1
  Sc  Sc99  1  0.49855243  0.31058223  0.09983086  1
  Nb  Nb100  1  0.89949744  0.29600214  0.70808121  1
  Nb  Nb101  1  0.49362096  0.49980042  0.09832121  1
  Nb  Nb102  1  0.10218030  0.29905839  0.29983301  1
  Nb  Nb103  1  0.49308770  0.70157782  0.70107654  1
  Nb  Nb104  1  0.49222048  0.89744327  0.90036869  1
  Nb  Nb105  1  0.10255346  0.89828760  0.69585733  1
  Nb  Nb106  1  0.30100485  0.70547725  0.49553664  1
  Nb  Nb107  1  0.49968783  0.70787688  0.30539500  1
  Nb  Nb108  1  0.49552649  0.49938296  0.90004491  1
  Nb  Nb109  1  0.90314077  0.50265957  0.89342780  1
  Nb  Nb110  1  0.30433880  0.49982185  0.10706747  1
  Nb  Nb111  1  0.89992218  0.69945873  0.50438780  1
  Nb  Nb112  1  0.09430509  0.09720030  0.10751453  1
  Nb  Nb113  1  0.09593087  0.29733555  0.69859441  1
  Nb  Nb114  1  0.70321723  0.30207082  0.70275264  1
  Nb  Nb115  1  0.29780212  0.29647521  0.89271570  1
  Nb  Nb116  1  0.50053236  0.10674135  0.49825568  1
  Nb  Nb117  1  0.90894872  0.69229316  0.90209839  1
  Nb  Nb118  1  0.09717365  0.69922740  0.09890813  1
  Nb  Nb119  1  0.89982838  0.49923799  0.70351030  1
  Nb  Nb120  1  0.90505573  0.89509660  0.50151273  1
  Nb  Nb121  1  0.28993768  0.29861281  0.71410581  1
  Nb  Nb122  1  0.69888340  0.09668121  0.29758263  1
  Nb  Nb123  1  0.90110394  0.30272427  0.89983525  1
  Nb  Nb124  1  0.09674571  0.10107171  0.29295455  1
  Nb  Nb125  1  -0.00431751  0.39610278  0.79801818  1
  Nb  Nb126  1  -0.00003448  -0.00631419  0.59937276  1
  Nb  Nb127  1  -0.00059345  0.20084721  -0.00192739  1
  Nb  Nb128  1  0.40218618  -0.00690199  0.79642091  1
  Nb  Nb129  1  0.39594002  0.59290389  0.00188488  1
  Nb  Nb130  1  0.20513848  0.60398709  0.00747244  1
  Nb  Nb131  1  0.40337390  0.80432624  0.79498926  1
  Nb  Nb132  1  0.00082597  0.39594670  0.20542917  1
  Nb  Nb133  1  0.19937506  0.79665733  0.40073074  1
  Nb  Nb134  1  0.80513456  0.60029046  0.60382516  1
  Nb  Nb135  1  0.60517323  0.20512022  0.79524034  1
  Nb  Nb136  1  0.39599748  0.40122212  0.40171180  1
  Nb  Nb137  1  0.59186042  0.60205894  0.19761689  1
  Nb  Nb138  1  0.80130547  0.20786060  0.60618975  1
  Nb  Nb139  1  0.19237751  0.19677909  0.19938553  1
  Nb  Nb140  1  0.80717646  0.79221908  0.59631845  1
  Nb  Nb141  1  0.79196114  0.00025968  0.20607214  1
  Nb  Nb142  1  0.00198650  0.79262951  -0.00012991  1
  Nb  Nb143  1  0.39415113  0.20636661  -0.00773490  1
  Nb  Nb144  1  0.80603255  0.20249580  -0.00501318  1
  Nb  Nb145  1  0.39556843  0.39395976  0.79909332  1
  Nb  Nb146  1  0.40450507  0.00712802  0.40321733  1
  Nb  Nb147  1  -0.00356345  0.39464218  0.60980027  1
  Nb  Nb148  1  0.80727648  0.39940464  0.60857914  1
  Nb  Nb149  1  0.60721100  0.19864831  0.19866336  1
  Pd  Pd150  1  0.39594732  0.80498209  0.60526084  1
  Pd  Pd151  1  0.21220846  0.80784323  0.79685310  1
  Pd  Pd152  1  0.00840240  0.19604726  0.40385773  1
  Pd  Pd153  1  -0.00664625  0.58789610  0.19886533  1
  Pd  Pd154  1  0.79492795  0.19261939  0.19327273  1
  Pd  Pd155  1  0.20661447  0.00274163  0.19865858  1
  Pd  Pd156  1  0.80804192  0.41151291  0.20135138  1
  Pd  Pd157  1  0.59391849  0.79686223  0.19667828  1
  Pd  Pd158  1  0.58864084  0.59767664  0.39283414  1
  Pd  Pd159  1  0.78937421  0.20180135  0.40945937  1
  Pd  Pd160  1  0.59296266  0.00419570  0.79614446  1
  Pd  Pd161  1  0.20816900  -0.00261739  0.40066172  1
  Pd  Pd162  1  0.61192788  0.79771385  0.59573712  1
  Pd  Pd163  1  0.00810323  0.79013987  0.39690099  1
  Pd  Pd164  1  0.00381319  -0.00874279  0.79583641  1
  Pd  Pd165  1  0.19682888  0.19114112  0.00498569  1
  Pd  Pd166  1  0.00457367  -0.00426898  0.00143844  1
  Pd  Pd167  1  0.40664877  0.59420196  0.40763026  1
  Pd  Pd168  1  0.79749513  0.80225891  0.40534129  1
  Pd  Pd169  1  -0.00935434  0.80591008  0.19633196  1
  Pd  Pd170  1  0.79547347  0.60574358  0.79745082  1
  Pd  Pd171  1  0.39158197  0.40169424  -0.01117345  1
  Pd  Pd172  1  0.40438060  0.61339668  0.19268918  1
  Pd  Pd173  1  0.59330176  -0.00697875  -0.00141462  1
  Pd  Pd174  1  0.80757264  0.80969671  0.20715862  1
  Pd  Pd175  1  0.79924843  0.59787118  -0.00776461  1
  Pd  Pd176  1  0.39253647  0.59494825  0.80149298  1
  Pd  Pd177  1  0.60789440  0.20589980  0.39072033  1
  Pd  Pd178  1  0.01119362  0.20344916  0.81353109  1
  Pd  Pd179  1  0.59894857  0.20330196  -0.00166679  1
  Pd  Pd180  1  0.79754577  -0.00360243  0.39738241  1
  Pd  Pd181  1  0.58893358  0.39816152  0.39093157  1
  Pd  Pd182  1  0.79121661  0.18996785  0.80193320  1
  Pd  Pd183  1  0.60618257  0.59776401  0.60777708  1
  Pd  Pd184  1  0.59971806  0.00189888  0.19179206  1
  Pd  Pd185  1  0.80707135  -0.00477643  0.60304885  1
  Pd  Pd186  1  0.59804114  0.39897868  0.20672406  1
  Pd  Pd187  1  -0.00724945  0.80353783  0.61173504  1
  Pd  Pd188  1  0.40967979  -0.00506672  0.59885722  1
  Pd  Pd189  1  0.19814911  0.60625638  0.59588852  1
  Pd  Pd190  1  0.19528803  0.79826737  0.00464939  1
  Pd  Pd191  1  0.39296079  0.39629028  0.60242420  1
  Pd  Pd192  1  0.59926124  0.59695746  0.79828221  1
  Pd  Pd193  1  0.59591852  0.80446037  0.80384997  1
  Pd  Pd194  1  0.59940231  0.40493255  -0.00439798  1
  Pd  Pd195  1  0.19252940  0.61202207  0.40248643  1
  Pd  Pd196  1  0.79929045  0.59105281  0.20347920  1
  Pd  Pd197  1  0.39709191  0.21113050  0.60597380  1
  Pd  Pd198  1  0.19840466  0.20195993  0.60294447  1
  Pd  Pd199  1  0.80043989  0.78813208  0.79648507  1
  Rh  Rh200  1  0.19911359  0.19813661  0.39221189  1
  Rh  Rh201  1  0.59202589  0.59173699  0.00348017  1
  Rh  Rh202  1  0.60034816  0.80830592  -0.00778120  1
  Rh  Rh203  1  0.20525152  0.39728791  0.40343448  1
  Rh  Rh204  1  0.00719118  0.20800230  0.19321363  1
  Rh  Rh205  1  -0.00131276  0.39935736  -0.00387228  1
  Rh  Rh206  1  0.20908722  -0.00303556  0.79418235  1
  Rh  Rh207  1  0.60991190  0.19678420  0.60556036  1
  Rh  Rh208  1  0.59255385  0.00466155  0.40632121  1
  Rh  Rh209  1  0.80749420  0.79026699  -0.00633248  1
  Rh  Rh210  1  -0.01052406  -0.00614530  0.20474059  1
  Rh  Rh211  1  0.20596766  0.41501314  0.00631655  1
  Rh  Rh212  1  0.80686579  0.59886421  0.40497990  1
  Rh  Rh213  1  0.00232129  0.00513509  0.40627422  1
  Rh  Rh214  1  0.39907683  0.79422317  -0.00742915  1
  Rh  Rh215  1  0.00640287  0.60301243  -0.00025143  1
  Rh  Rh216  1  0.00886708  0.59087250  0.79946994  1
  Rh  Rh217  1  0.20491923  0.60241663  0.19276052  1
  Rh  Rh218  1  0.19066915  0.00368229  0.59951521  1
  Rh  Rh219  1  0.00621035  0.39284476  0.40099072  1
  Rh  Rh220  1  0.80021691  0.40391354  -0.00877553  1
  Rh  Rh221  1  0.80293269  0.00448908  0.00580489  1
  Rh  Rh222  1  0.40221048  -0.00325007  0.20723659  1
  Rh  Rh223  1  0.58746517  0.40008215  0.79750754  1
  Rh  Rh224  1  0.39483750  0.80554970  0.40469780  1
  Rh  Rh225  1  0.20110198  0.79293366  0.59183960  1
  Rh  Rh226  1  0.39752666  0.60311145  0.59640820  1
  Rh  Rh227  1  0.80656548  0.40726018  0.80205161  1
  Rh  Rh228  1  -0.00327683  0.59343821  0.60620119  1
  Rh  Rh229  1  0.39853867  0.39449805  0.20623010  1
  Rh  Rh230  1  0.40135768  0.00962308  -0.00949831  1
  Rh  Rh231  1  0.40111417  0.20608609  0.18243571  1
  Rh  Rh232  1  0.41161484  0.20222653  0.79761567  1
  Rh  Rh233  1  0.60136697  0.79588586  0.40665021  1
  Rh  Rh234  1  0.79774969  0.00107005  0.79957061  1
  Rh  Rh235  1  0.39502887  0.20341786  0.41007454  1
  Rh  Rh236  1  0.60747186  0.40630320  0.60356246  1
  Rh  Rh237  1  0.19195768  0.39532698  0.60578462  1
  Rh  Rh238  1  0.59727593  0.00156090  0.59471877  1
  Rh  Rh239  1  0.19307014  0.39689152  0.19682998  1
  Rh  Rh240  1  0.20099624  0.80231573  0.20621684  1
  Rh  Rh241  1  0.18888965  0.19576245  0.79919442  1
  Rh  Rh242  1  0.80165551  0.39914722  0.40931857  1
  Rh  Rh243  1  0.19487140  -0.00067749  0.00666216  1
  Rh  Rh244  1  0.00554709  0.60834817  0.39681411  1
  Rh  Rh245  1  0.00185549  0.80592628  0.80728264  1
  Rh  Rh246  1  0.19963550  0.59770592  0.80392317  1
  Rh  Rh247  1  0.40578302  0.79938993  0.19975536  1
  Rh  Rh248  1  -0.00491102  0.19780079  0.59586959  1
  Rh  Rh249  1  0.19543045  0.40468081  0.79132808  1
