# generated using pymatgen
data_ZrScNbPdRh
_symmetry_space_group_name_H-M   'P 1'
_cell_length_a   16.56109989
_cell_length_b   16.56090044
_cell_length_c   16.56341025
_cell_angle_alpha   90.00343996
_cell_angle_beta   90.00102318
_cell_angle_gamma   89.97543871
_symmetry_Int_Tables_number   1
_chemical_formula_structural   ZrScNbPdRh
_chemical_formula_sum   'Zr50 Sc50 Nb50 Pd50 Rh50'
_cell_volume   4542.79188278
_cell_formula_units_Z   50
loop_
 _symmetry_equiv_pos_site_id
 _symmetry_equiv_pos_as_xyz
  1  'x, y, z'
loop_
 _atom_site_type_symbol
 _atom_site_label
 _atom_site_symmetry_multiplicity
 _atom_site_fract_x
 _atom_site_fract_y
 _atom_site_fract_z
 _atom_site_occupancy
  Zr  Zr0  1  0.90088065  0.48640941  0.70085096  1
  Zr  Zr1  1  0.30259067  0.69929150  0.89805624  1
  Zr  Zr2  1  0.70083780  0.89297856  0.90761034  1
  Zr  Zr3  1  0.69916815  0.10254519  0.30272932  1
  Zr  Zr4  1  0.30014316  0.89904125  0.70553781  1
  Zr  Zr5  1  0.90321370  0.69914926  0.11300469  1
  Zr  Zr6  1  0.09630794  0.50429011  0.70499474  1
  Zr  Zr7  1  0.50534861  0.30271678  0.89664944  1
  Zr  Zr8  1  0.70475749  0.49159296  0.09929510  1
  Zr  Zr9  1  0.69695084  0.30785279  0.28873897  1
  Zr  Zr10  1  0.30545676  0.50385759  0.88923068  1
  Zr  Zr11  1  0.50359506  0.70339059  0.70521822  1
  Zr  Zr12  1  0.30008942  0.50200857  0.30243226  1
  Zr  Zr13  1  0.89667135  0.30442505  0.50669076  1
  Zr  Zr14  1  0.09910291  0.50243420  0.49528073  1
  Zr  Zr15  1  0.09603235  0.90539878  0.89141076  1
  Zr  Zr16  1  0.09604483  0.69520865  0.09845115  1
  Zr  Zr17  1  0.09134808  0.90005349  0.49951409  1
  Zr  Zr18  1  0.70874873  0.89813238  0.49737104  1
  Zr  Zr19  1  0.89995015  0.50393487  0.50539857  1
  Zr  Zr20  1  0.30142032  0.49665788  0.69676648  1
  Zr  Zr21  1  0.70193458  0.10490084  0.89643172  1
  Zr  Zr22  1  0.09911421  0.10104454  0.90403292  1
  Zr  Zr23  1  0.50277768  0.69938736  0.30007191  1
  Zr  Zr24  1  0.49571436  0.89646860  0.70008801  1
  Zr  Zr25  1  0.50062774  0.49882871  0.29103915  1
  Zr  Zr26  1  0.49835307  0.29895348  0.50211785  1
  Zr  Zr27  1  0.90554526  0.09838754  0.90182484  1
  Zr  Zr28  1  0.50265816  0.29908423  0.30347204  1
  Zr  Zr29  1  0.09197304  0.10900401  0.10574401  1
  Zr  Zr30  1  0.09389851  0.49351569  0.90326295  1
  Zr  Zr31  1  0.29022624  0.10450099  0.29292104  1
  Zr  Zr32  1  0.70220910  0.30122552  0.89994296  1
  Zr  Zr33  1  0.30502277  0.49998331  0.09753406  1
  Zr  Zr34  1  0.49895092  0.89899115  0.09046253  1
  Zr  Zr35  1  0.29814972  0.30735322  0.50372615  1
  Zr  Zr36  1  0.29732681  0.70147581  0.70510891  1
  Zr  Zr37  1  0.09704861  0.28430781  0.29316793  1
  Zr  Zr38  1  0.10404447  0.89981687  0.69924577  1
  Zr  Zr39  1  0.50451787  0.50402479  0.09316924  1
  Zr  Zr40  1  0.90152400  0.69756533  0.49052494  1
  Zr  Zr41  1  0.89785293  0.08989715  0.49645853  1
  Zr  Zr42  1  0.09911582  0.70736061  0.70443102  1
  Zr  Zr43  1  0.50501291  0.89969253  0.30201494  1
  Zr  Zr44  1  0.28688141  0.90342145  0.29539023  1
  Zr  Zr45  1  0.09620475  0.29388123  0.91017341  1
  Zr  Zr46  1  0.49774037  0.09782777  0.69929928  1
  Zr  Zr47  1  0.50447568  0.10460088  0.90298403  1
  Zr  Zr48  1  0.70143797  0.10184536  0.09006587  1
  Zr  Zr49  1  0.49772595  0.50027384  0.70980014  1
  Sc  Sc50  1  0.89949644  0.49505886  0.89726048  1
  Sc  Sc51  1  0.90189591  0.70018542  0.89352564  1
  Sc  Sc52  1  0.29622455  0.70534208  0.08939683  1
  Sc  Sc53  1  0.90066568  0.30393944  0.89549006  1
  Sc  Sc54  1  0.09976746  0.50378178  0.30452544  1
  Sc  Sc55  1  0.89982719  0.90474617  0.89572488  1
  Sc  Sc56  1  0.89752638  0.90056058  0.50255624  1
  Sc  Sc57  1  0.90214053  0.90038397  0.30728103  1
  Sc  Sc58  1  0.49696517  0.89098749  0.90025922  1
  Sc  Sc59  1  0.30033437  0.29332611  0.29699722  1
  Sc  Sc60  1  0.50919494  0.49499691  0.50892990  1
  Sc  Sc61  1  0.50171173  0.89949633  0.50505734  1
  Sc  Sc62  1  0.10439007  0.69470021  0.89259338  1
  Sc  Sc63  1  0.29431478  0.10425721  0.50551429  1
  Sc  Sc64  1  0.29696299  0.68949818  0.30496833  1
  Sc  Sc65  1  0.50177178  0.11027484  0.30276619  1
  Sc  Sc66  1  0.70369959  0.89194975  0.30474176  1
  Sc  Sc67  1  0.69180073  0.30627438  0.50552722  1
  Sc  Sc68  1  0.89291744  0.30244105  0.09573355  1
  Sc  Sc69  1  0.49900682  0.29758075  0.10350910  1
  Sc  Sc70  1  0.10673950  0.29217686  0.49696667  1
  Sc  Sc71  1  0.30203628  0.30668888  0.69738406  1
  Sc  Sc72  1  0.69760353  0.69572565  0.70813995  1
  Sc  Sc73  1  0.50273141  0.70003958  0.09104861  1
  Sc  Sc74  1  0.30090727  0.10150546  0.90468260  1
  Sc  Sc75  1  0.50033503  0.10533976  0.49917991  1
  Sc  Sc76  1  0.29901240  0.08691219  0.69676595  1
  Sc  Sc77  1  0.90144016  0.69591146  0.70406871  1
  Sc  Sc78  1  0.30567762  0.89594294  0.90473371  1
  Sc  Sc79  1  0.50538420  0.70348480  0.50545727  1
  Sc  Sc80  1  0.09729649  0.90093603  0.30438616  1
  Sc  Sc81  1  0.70055139  0.30316893  0.09606422  1
  Sc  Sc82  1  0.29170609  0.90471031  0.50941807  1
  Sc  Sc83  1  0.70589632  0.30110644  0.70288588  1
  Sc  Sc84  1  0.70108608  0.50129631  0.69804620  1
  Sc  Sc85  1  0.70760693  0.88788629  0.70469122  1
  Sc  Sc86  1  0.10054151  0.30100398  0.70720455  1
  Sc  Sc87  1  0.29070038  0.29657234  0.90195570  1
  Sc  Sc88  1  0.70119545  0.09826250  0.49733483  1
  Sc  Sc89  1  0.69260581  0.49714527  0.90112743  1
  Sc  Sc90  1  0.50481184  0.69323053  0.90085739  1
  Sc  Sc91  1  0.70764833  0.11061617  0.70463022  1
  Sc  Sc92  1  0.08890281  0.70440770  0.30177454  1
  Sc  Sc93  1  0.10403032  0.09164959  0.71002690  1
  Sc  Sc94  1  0.49443039  0.10594515  0.08937041  1
  Sc  Sc95  1  0.50338739  0.30760022  0.69277496  1
  Sc  Sc96  1  0.09404203  0.09816200  0.30254297  1
  Sc  Sc97  1  0.89700409  0.51437062  0.29436076  1
  Sc  Sc98  1  0.89851676  0.89643232  0.10294442  1
  Sc  Sc99  1  0.10479547  0.89511370  0.11480335  1
  Nb  Nb100  1  0.89963946  0.09833090  0.10343590  1
  Nb  Nb101  1  0.89568915  0.70489970  0.29864298  1
  Nb  Nb102  1  0.89670243  0.29726472  0.69919697  1
  Nb  Nb103  1  0.29853604  0.69149695  0.49457237  1
  Nb  Nb104  1  0.70719266  0.50459394  0.49835664  1
  Nb  Nb105  1  0.30411563  0.10251343  0.09822160  1
  Nb  Nb106  1  0.70910510  0.69462373  0.49501899  1
  Nb  Nb107  1  0.69814254  0.69844100  0.90662675  1
  Nb  Nb108  1  0.89726182  0.10281084  0.70194723  1
  Nb  Nb109  1  0.71118094  0.69917440  0.29920824  1
  Nb  Nb110  1  0.89917701  0.30284681  0.29802617  1
  Nb  Nb111  1  0.09839138  0.70003445  0.49875380  1
  Nb  Nb112  1  0.10001489  0.30456038  0.09477191  1
  Nb  Nb113  1  0.49834676  0.50029191  0.90260762  1
  Nb  Nb114  1  0.90672937  0.50186704  0.09596806  1
  Nb  Nb115  1  0.30063665  0.90413412  0.10115720  1
  Nb  Nb116  1  0.70557826  0.71143901  0.09970723  1
  Nb  Nb117  1  0.09612158  0.09961332  0.50267266  1
  Nb  Nb118  1  0.69950068  0.49903619  0.29837708  1
  Nb  Nb119  1  0.29797334  0.29019526  0.09649680  1
  Nb  Nb120  1  0.90160835  0.10709178  0.29561149  1
  Nb  Nb121  1  0.29458911  0.50462880  0.49338043  1
  Nb  Nb122  1  0.70015025  0.89530349  0.10227158  1
  Nb  Nb123  1  0.90604800  0.90215938  0.70160078  1
  Nb  Nb124  1  0.09196999  0.49894121  0.09711244  1
  Nb  Nb125  1  0.61360208  0.59955765  0.39691963  1
  Nb  Nb126  1  0.39528188  -0.00360015  0.39354075  1
  Nb  Nb127  1  0.60266464  -0.00285568  0.19344760  1
  Nb  Nb128  1  0.79791855  0.60478973  0.00493074  1
  Nb  Nb129  1  0.60408305  -0.00295112  0.60857579  1
  Nb  Nb130  1  0.00159696  0.40127758  0.19685017  1
  Nb  Nb131  1  0.40015772  0.40013228  -0.00319670  1
  Nb  Nb132  1  0.40116345  -0.00115380  0.19930159  1
  Nb  Nb133  1  0.39401939  0.80303954  0.39838139  1
  Nb  Nb134  1  0.60154979  -0.00285074  0.79779303  1
  Nb  Nb135  1  0.61425356  0.60601280  0.20097530  1
  Nb  Nb136  1  0.39811693  0.40443376  0.40208314  1
  Nb  Nb137  1  0.00353506  0.79833728  0.00064060  1
  Nb  Nb138  1  0.19509151  0.39876605  0.19085263  1
  Nb  Nb139  1  -0.00738270  0.39556912  0.39391158  1
  Nb  Nb140  1  0.20061535  0.60333468  0.59372857  1
  Nb  Nb141  1  0.40315869  0.20124515  0.79898121  1
  Nb  Nb142  1  0.79954371  0.40435782  0.39624432  1
  Nb  Nb143  1  0.80435346  0.20899631  0.39421096  1
  Nb  Nb144  1  0.39680274  0.80605838  0.20265241  1
  Nb  Nb145  1  0.20089728  0.00077126  0.00936833  1
  Nb  Nb146  1  0.39308552  0.59938970  0.59758400  1
  Nb  Nb147  1  0.19520256  0.59210697  0.19439378  1
  Nb  Nb148  1  -0.00577733  0.19395695  0.60564293  1
  Nb  Nb149  1  0.79653898  0.00437053  0.19783428  1
  Pd  Pd150  1  0.00202069  0.00519889  0.60658824  1
  Pd  Pd151  1  0.60640511  0.40339450  0.79470794  1
  Pd  Pd152  1  0.59971334  0.40477454  0.40250284  1
  Pd  Pd153  1  0.19827869  0.00695675  0.40750225  1
  Pd  Pd154  1  0.80081818  0.19872991  0.19897477  1
  Pd  Pd155  1  0.19125125  0.80984864  -0.00597487  1
  Pd  Pd156  1  0.80481287  0.79749080  0.80185570  1
  Pd  Pd157  1  0.79874915  0.19829169  0.59200118  1
  Pd  Pd158  1  -0.00798068  0.60604429  -0.00964395  1
  Pd  Pd159  1  0.20080344  0.79619514  0.40121005  1
  Pd  Pd160  1  0.80389177  0.79037610  0.60345661  1
  Pd  Pd161  1  0.59424260  0.00217716  0.40504460  1
  Pd  Pd162  1  0.20387238  0.78492959  0.20432780  1
  Pd  Pd163  1  0.60048116  -0.00273104  -0.00401986  1
  Pd  Pd164  1  0.40233688  0.00427810  0.81069045  1
  Pd  Pd165  1  0.60524615  0.19479679  0.60186146  1
  Pd  Pd166  1  0.81310931  0.79541557  -0.00202167  1
  Pd  Pd167  1  0.59592162  0.19313514  0.19130291  1
  Pd  Pd168  1  0.20687893  0.40444449  0.00052770  1
  Pd  Pd169  1  -0.00681294  -0.00468050  0.20316304  1
  Pd  Pd170  1  0.19174958  0.40562543  0.59970734  1
  Pd  Pd171  1  0.59806694  0.79924888  0.19726392  1
  Pd  Pd172  1  0.00367340  0.60647281  0.60346842  1
  Pd  Pd173  1  0.21029949  0.19568331  0.79296597  1
  Pd  Pd174  1  0.01184509  0.38882550  0.59615835  1
  Pd  Pd175  1  0.80488410  -0.00443242  0.00454623  1
  Pd  Pd176  1  0.79654442  0.59703374  0.19328240  1
  Pd  Pd177  1  0.61241498  0.80178181  0.59820304  1
  Pd  Pd178  1  0.00722271  -0.01080220  0.01180023  1
  Pd  Pd179  1  0.20230884  0.79509437  0.59340221  1
  Pd  Pd180  1  0.39132242  0.19944765  0.40168581  1
  Pd  Pd181  1  0.39364553  0.39033031  0.19771071  1
  Pd  Pd182  1  -0.00593864  0.20084407  0.40984769  1
  Pd  Pd183  1  -0.00185667  0.20071641  0.79539656  1
  Pd  Pd184  1  0.79269183  -0.00149408  0.61080144  1
  Pd  Pd185  1  0.41721459  0.59678632  0.41091960  1
  Pd  Pd186  1  0.39411503  0.19881077  0.60782992  1
  Pd  Pd187  1  0.80615153  0.20313402  -0.00551975  1
  Pd  Pd188  1  0.19777395  0.39062532  0.38803205  1
  Pd  Pd189  1  0.39225341  0.79478268  0.59159994  1
  Pd  Pd190  1  0.39617281  0.61451060  0.18947956  1
  Pd  Pd191  1  -0.00906991  0.79706920  0.59996522  1
  Pd  Pd192  1  0.59879604  0.60024946  0.59733799  1
  Pd  Pd193  1  0.19996818  0.59383908  -0.00117260  1
  Pd  Pd194  1  0.19244443  0.19562848  0.61018876  1
  Pd  Pd195  1  0.19678510  0.39694465  0.80434410  1
  Pd  Pd196  1  0.79733535  0.59308640  0.80794319  1
  Pd  Pd197  1  0.79515564  -0.00098404  0.79606088  1
  Pd  Pd198  1  0.80210629  0.60441631  0.60799878  1
  Pd  Pd199  1  0.60177890  0.79311004  0.40638987  1
  Rh  Rh200  1  -0.00377520  0.80374480  0.80283435  1
  Rh  Rh201  1  0.80458522  0.00735173  0.38787321  1
  Rh  Rh202  1  0.80848660  0.20371057  0.80648084  1
  Rh  Rh203  1  0.18681667  0.60770475  0.39689770  1
  Rh  Rh204  1  -0.00793581  0.39484194  0.00272779  1
  Rh  Rh205  1  0.40203704  0.79468589  0.80450044  1
  Rh  Rh206  1  0.00128196  0.39374127  0.80081233  1
  Rh  Rh207  1  0.39904109  0.40903339  0.59002027  1
  Rh  Rh208  1  0.20948706  -0.00294440  0.81256597  1
  Rh  Rh209  1  0.60179043  0.59826055  0.80503515  1
  Rh  Rh210  1  -0.00098808  0.00130131  0.39739911  1
  Rh  Rh211  1  0.39889430  0.59764628  -0.00363214  1
  Rh  Rh212  1  0.79396134  0.40230865  0.59938829  1
  Rh  Rh213  1  0.61179645  0.60341984  0.00615864  1
  Rh  Rh214  1  -0.00355134  0.80070809  0.40231148  1
  Rh  Rh215  1  0.19881999  0.20152001  0.19214724  1
  Rh  Rh216  1  0.79724649  0.40016486  0.79886549  1
  Rh  Rh217  1  0.40341374  0.19470053  0.19986341  1
  Rh  Rh218  1  0.60217066  0.80142911  0.80854464  1
  Rh  Rh219  1  -0.00902410  0.20407817  0.00470403  1
  Rh  Rh220  1  0.20215089  0.80591014  0.80726608  1
  Rh  Rh221  1  -0.00187708  0.59577301  0.80203164  1
  Rh  Rh222  1  0.39834624  0.38967667  0.80911411  1
  Rh  Rh223  1  0.59304825  0.39562204  0.00257160  1
  Rh  Rh224  1  0.19969609  0.01175280  0.19167848  1
  Rh  Rh225  1  0.61127223  0.20667362  0.40308547  1
  Rh  Rh226  1  0.80517768  0.79983496  0.39957865  1
  Rh  Rh227  1  0.40735487  0.00211949  0.58611078  1
  Rh  Rh228  1  0.40685290  0.60627470  0.79620656  1
  Rh  Rh229  1  0.39349649  0.00046185  0.00150221  1
  Rh  Rh230  1  0.00645765  0.59607757  0.20719856  1
  Rh  Rh231  1  0.59359009  0.19763393  0.79387786  1
  Rh  Rh232  1  0.59608402  0.40408828  0.19318600  1
  Rh  Rh233  1  0.20051086  0.19553373  0.40363118  1
  Rh  Rh234  1  0.80323082  0.40779060  -0.00431740  1
  Rh  Rh235  1  0.60289503  0.20789515  0.00336514  1
  Rh  Rh236  1  0.80044993  0.59637550  0.39715738  1
  Rh  Rh237  1  0.40032177  0.79442899  0.00300833  1
  Rh  Rh238  1  -0.00217947  0.59974600  0.39472533  1
  Rh  Rh239  1  0.60651459  0.40477183  0.60505041  1
  Rh  Rh240  1  -0.00961252  0.20951057  0.18859467  1
  Rh  Rh241  1  -0.00312374  0.80410092  0.20105873  1
  Rh  Rh242  1  0.81002681  0.40570989  0.20179676  1
  Rh  Rh243  1  -0.00494934  0.00294285  0.79266484  1
  Rh  Rh244  1  0.39890564  0.21121069  -0.00870499  1
  Rh  Rh245  1  0.80374309  0.81000377  0.20645217  1
  Rh  Rh246  1  0.19752156  0.19025496  0.00606570  1
  Rh  Rh247  1  0.59957658  0.79597036  -0.00254128  1
  Rh  Rh248  1  0.19107129  0.00048950  0.59845631  1
  Rh  Rh249  1  0.19656102  0.59700615  0.79582004  1
