# generated using pymatgen
data_ZrScNbPdRh
_symmetry_space_group_name_H-M   'P 1'
_cell_length_a   16.56309359
_cell_length_b   16.56402514
_cell_length_c   16.55831094
_cell_angle_alpha   90.03570411
_cell_angle_beta   90.02333153
_cell_angle_gamma   90.01979391
_symmetry_Int_Tables_number   1
_chemical_formula_structural   ZrScNbPdRh
_chemical_formula_sum   'Zr50 Sc50 Nb50 Pd50 Rh50'
_cell_volume   4542.79588973
_cell_formula_units_Z   50
loop_
 _symmetry_equiv_pos_site_id
 _symmetry_equiv_pos_as_xyz
  1  'x, y, z'
loop_
 _atom_site_type_symbol
 _atom_site_label
 _atom_site_symmetry_multiplicity
 _atom_site_fract_x
 _atom_site_fract_y
 _atom_site_fract_z
 _atom_site_occupancy
  Zr  Zr0  1  0.49816260  0.89769469  0.90383289  1
  Zr  Zr1  1  0.90748435  0.89718494  0.08994010  1
  Zr  Zr2  1  0.30466746  0.30391567  0.29913277  1
  Zr  Zr3  1  0.89367605  0.29909839  0.69558542  1
  Zr  Zr4  1  0.70082614  0.70209816  0.30013876  1
  Zr  Zr5  1  0.50641098  0.10152991  0.50508521  1
  Zr  Zr6  1  0.70105584  0.89782323  0.70025450  1
  Zr  Zr7  1  0.70016866  0.51060323  0.10335736  1
  Zr  Zr8  1  0.29596569  0.10000016  0.29616053  1
  Zr  Zr9  1  0.69993025  0.69833715  0.89842993  1
  Zr  Zr10  1  0.89995573  0.09643875  0.29800015  1
  Zr  Zr11  1  0.50128864  0.29994710  0.70145256  1
  Zr  Zr12  1  0.29446846  0.50506366  0.89752145  1
  Zr  Zr13  1  0.30403932  0.30880828  0.50559008  1
  Zr  Zr14  1  0.09852013  0.89153502  0.09464251  1
  Zr  Zr15  1  0.70143996  0.29902341  0.50631507  1
  Zr  Zr16  1  0.30385241  0.69895265  0.69658030  1
  Zr  Zr17  1  0.10704562  0.49546796  0.29977173  1
  Zr  Zr18  1  0.30188206  0.30248288  0.90051503  1
  Zr  Zr19  1  0.89342674  0.89716499  0.29741862  1
  Zr  Zr20  1  0.50425746  0.70384981  0.89812469  1
  Zr  Zr21  1  0.10578828  0.69833418  0.90390056  1
  Zr  Zr22  1  0.29752969  0.90370058  0.89962533  1
  Zr  Zr23  1  0.09588198  0.89766209  0.90546227  1
  Zr  Zr24  1  0.89456820  0.50140092  0.89373690  1
  Zr  Zr25  1  0.48609360  0.29969840  0.09530508  1
  Zr  Zr26  1  0.50414721  0.89785385  0.30158214  1
  Zr  Zr27  1  0.70273154  0.08934690  0.29686621  1
  Zr  Zr28  1  0.29969447  0.09249825  0.90205912  1
  Zr  Zr29  1  0.30224502  0.90282293  0.69986227  1
  Zr  Zr30  1  0.70319985  0.10642692  0.70042883  1
  Zr  Zr31  1  0.09497071  0.69206473  0.69895686  1
  Zr  Zr32  1  0.30734908  0.90601409  0.30157317  1
  Zr  Zr33  1  0.09912219  0.10058625  0.69107234  1
  Zr  Zr34  1  0.29629287  0.30063661  0.70138776  1
  Zr  Zr35  1  0.10410380  0.30461058  0.10583725  1
  Zr  Zr36  1  0.29781674  0.49875029  0.68624369  1
  Zr  Zr37  1  0.69161912  0.89634575  0.10676568  1
  Zr  Zr38  1  0.89710313  0.69917849  0.10264696  1
  Zr  Zr39  1  0.89721527  0.30599736  0.88581112  1
  Zr  Zr40  1  0.30618027  0.09917540  0.09931072  1
  Zr  Zr41  1  0.69863426  0.69640931  0.10292015  1
  Zr  Zr42  1  0.69413705  0.30411384  0.31067114  1
  Zr  Zr43  1  0.50680775  0.70091229  0.30390113  1
  Zr  Zr44  1  0.89329322  0.50347513  0.50028190  1
  Zr  Zr45  1  0.49568921  0.50161353  0.90222858  1
  Zr  Zr46  1  0.50288024  0.29397775  0.49525108  1
  Zr  Zr47  1  0.90553695  0.30098979  0.29769816  1
  Zr  Zr48  1  0.10352291  0.70174267  0.30888124  1
  Zr  Zr49  1  0.71123749  0.69867744  0.50073944  1
  Sc  Sc50  1  0.68699397  0.30148384  0.09483672  1
  Sc  Sc51  1  0.69545441  0.09992137  0.89473873  1
  Sc  Sc52  1  0.70036517  0.69672757  0.70236156  1
  Sc  Sc53  1  0.10841244  0.49790447  0.10447491  1
  Sc  Sc54  1  0.69657297  0.09077885  0.09187992  1
  Sc  Sc55  1  0.10196773  0.30462963  0.69421385  1
  Sc  Sc56  1  0.89645469  0.30225246  0.50741964  1
  Sc  Sc57  1  0.29297018  0.90447037  0.09804248  1
  Sc  Sc58  1  0.10766043  0.09308862  0.89132302  1
  Sc  Sc59  1  0.10482743  0.70948203  0.10443372  1
  Sc  Sc60  1  0.50782500  0.30320750  0.90284456  1
  Sc  Sc61  1  0.90269928  0.90261079  0.89527717  1
  Sc  Sc62  1  0.51213137  0.10042946  0.70138203  1
  Sc  Sc63  1  0.10485643  0.29875704  0.29016315  1
  Sc  Sc64  1  0.90074677  0.08905893  0.09392698  1
  Sc  Sc65  1  0.50230426  0.51284585  0.49889703  1
  Sc  Sc66  1  0.10224796  0.09439992  0.10117864  1
  Sc  Sc67  1  0.89792430  0.49748147  0.69838826  1
  Sc  Sc68  1  0.09250413  0.10317242  0.29821060  1
  Sc  Sc69  1  0.10767485  0.31010007  0.88614775  1
  Sc  Sc70  1  0.30356455  0.50207975  0.10446005  1
  Sc  Sc71  1  0.29494625  0.69654973  0.30073411  1
  Sc  Sc72  1  0.30194580  0.69550908  0.90721536  1
  Sc  Sc73  1  0.48768221  0.09402414  0.30375100  1
  Sc  Sc74  1  0.10134266  0.89329829  0.29523028  1
  Sc  Sc75  1  0.69786756  0.50337599  0.89043940  1
  Sc  Sc76  1  0.29978411  0.69896031  0.49792034  1
  Sc  Sc77  1  0.08720899  0.90855686  0.70264028  1
  Sc  Sc78  1  0.89934987  0.69862775  0.89168482  1
  Sc  Sc79  1  0.50641272  0.69395282  0.09681615  1
  Sc  Sc80  1  0.49120826  0.90039369  0.49990003  1
  Sc  Sc81  1  0.30673673  0.09812021  0.51453757  1
  Sc  Sc82  1  0.30656332  0.89892149  0.50505352  1
  Sc  Sc83  1  0.49976093  0.50838953  0.70235711  1
  Sc  Sc84  1  0.10552339  0.50379642  0.50443485  1
  Sc  Sc85  1  0.49874027  0.89379776  0.70221054  1
  Sc  Sc86  1  0.90669296  0.30399239  0.10579320  1
  Sc  Sc87  1  0.09168882  0.90119863  0.50303611  1
  Sc  Sc88  1  0.69790152  0.89918182  0.89711662  1
  Sc  Sc89  1  0.89859398  0.89025570  0.50156293  1
  Sc  Sc90  1  0.70516060  0.29485321  0.70856335  1
  Sc  Sc91  1  0.89307500  0.08692720  0.89939952  1
  Sc  Sc92  1  0.49299638  0.50851792  0.30296293  1
  Sc  Sc93  1  0.70423216  0.50216857  0.49350167  1
  Sc  Sc94  1  0.89492045  0.50385640  0.10631360  1
  Sc  Sc95  1  0.10050188  0.49990319  0.69890199  1
  Sc  Sc96  1  0.10516792  0.50404071  0.89091164  1
  Sc  Sc97  1  0.50289891  0.69770748  0.69628246  1
  Sc  Sc98  1  0.89435461  0.70057368  0.69117104  1
  Sc  Sc99  1  0.91219637  0.10153908  0.50132711  1
  Nb  Nb100  1  0.69886875  0.89562872  0.30582629  1
  Nb  Nb101  1  0.70509016  0.29928241  0.89705829  1
  Nb  Nb102  1  0.49624837  0.09610627  0.09095443  1
  Nb  Nb103  1  0.89807141  0.49799039  0.30558173  1
  Nb  Nb104  1  0.69951755  0.10132598  0.50477908  1
  Nb  Nb105  1  0.10141258  0.10246887  0.49987240  1
  Nb  Nb106  1  0.50136263  0.29744120  0.29845187  1
  Nb  Nb107  1  0.50559317  0.49748893  0.10552807  1
  Nb  Nb108  1  0.29075931  0.10013246  0.71392843  1
  Nb  Nb109  1  0.09569398  0.29198835  0.50303365  1
  Nb  Nb110  1  0.89941666  0.09720354  0.70194422  1
  Nb  Nb111  1  0.50079433  0.89758638  0.10175053  1
  Nb  Nb112  1  0.70401177  0.50165977  0.30250279  1
  Nb  Nb113  1  0.09117889  0.70300556  0.50373413  1
  Nb  Nb114  1  0.29474880  0.50247261  0.31690970  1
  Nb  Nb115  1  0.29803084  0.49772916  0.48750080  1
  Nb  Nb116  1  0.29496856  0.29652710  0.10286493  1
  Nb  Nb117  1  0.29530143  0.70435729  0.10111987  1
  Nb  Nb118  1  0.51200234  0.70525953  0.49864942  1
  Nb  Nb119  1  0.69689798  0.50622398  0.69200817  1
  Nb  Nb120  1  0.49214611  0.10296064  0.91000532  1
  Nb  Nb121  1  0.70697573  0.89622016  0.49583758  1
  Nb  Nb122  1  0.89572023  0.91233514  0.69961502  1
  Nb  Nb123  1  0.90276975  0.69566999  0.30392096  1
  Nb  Nb124  1  0.90713622  0.69582303  0.49683247  1
  Nb  Nb125  1  0.39809965  0.19403487  0.80390634  1
  Nb  Nb126  1  0.00190822  0.39897828  0.40102001  1
  Nb  Nb127  1  0.79185431  0.39908710  0.20251285  1
  Nb  Nb128  1  0.60532368  0.80043024  0.59182023  1
  Nb  Nb129  1  -0.00278900  0.19693531  0.79721015  1
  Nb  Nb130  1  0.19780531  0.00696909  0.40552858  1
  Nb  Nb131  1  0.60166465  0.40218761  0.60055704  1
  Nb  Nb132  1  -0.00261585  0.40246240  -0.00320061  1
  Nb  Nb133  1  0.59411681  0.40031411  0.20455840  1
  Nb  Nb134  1  0.79907148  0.00094829  0.59950853  1
  Nb  Nb135  1  0.80301791  0.20967957  -0.00103500  1
  Nb  Nb136  1  0.40135490  0.79900563  0.19536164  1
  Nb  Nb137  1  0.60965934  -0.00525641  0.40455734  1
  Nb  Nb138  1  0.79198249  0.20305693  0.19795914  1
  Nb  Nb139  1  0.20011797  0.20518692  0.00169291  1
  Nb  Nb140  1  0.79844254  0.19566252  0.39775371  1
  Nb  Nb141  1  0.19857823  0.79926856  0.79435714  1
  Nb  Nb142  1  0.00066643  0.59691305  0.00441664  1
  Nb  Nb143  1  0.59234902  0.20015095  0.19958160  1
  Nb  Nb144  1  0.19263856  0.79665257  0.60361012  1
  Nb  Nb145  1  0.79809221  0.79798603  0.00222266  1
  Nb  Nb146  1  0.79866505  0.39750944  0.00052275  1
  Nb  Nb147  1  0.00212532  0.20636814  -0.00951315  1
  Nb  Nb148  1  -0.00188888  0.60202951  0.20605770  1
  Nb  Nb149  1  0.19864515  0.19800953  0.40749902  1
  Pd  Pd150  1  -0.00092720  0.79965071  0.79524369  1
  Pd  Pd151  1  0.80099324  -0.00234596  0.18958940  1
  Pd  Pd152  1  0.59513453  0.00096379  0.80492025  1
  Pd  Pd153  1  0.40073701  0.59852945  0.00799168  1
  Pd  Pd154  1  0.39498323  0.40606322  0.00181347  1
  Pd  Pd155  1  0.80415672  0.80139467  0.80321474  1
  Pd  Pd156  1  0.40459540  0.19617140  0.20006398  1
  Pd  Pd157  1  0.39600565  0.80207723  0.00811000  1
  Pd  Pd158  1  0.20119370  0.81000251  0.41162206  1
  Pd  Pd159  1  0.39563674  0.79486677  0.80151393  1
  Pd  Pd160  1  0.20384812  0.20196815  0.59705919  1
  Pd  Pd161  1  0.19718186  0.40107157  0.00027749  1
  Pd  Pd162  1  0.41107679  0.00694195  0.79463672  1
  Pd  Pd163  1  -0.00189116  0.80204207  0.60691129  1
  Pd  Pd164  1  -0.00519764  0.19125084  0.18703045  1
  Pd  Pd165  1  0.60549473  0.40347513  0.79289742  1
  Pd  Pd166  1  0.60503796  -0.01134956  0.59405335  1
  Pd  Pd167  1  0.80209856  0.00406852  0.41069406  1
  Pd  Pd168  1  0.39916562  0.60693183  0.19724700  1
  Pd  Pd169  1  0.39952067  0.60930985  0.40530657  1
  Pd  Pd170  1  0.40026797  0.19224443  0.61424573  1
  Pd  Pd171  1  0.59074351  0.41090585  0.40328648  1
  Pd  Pd172  1  0.39155108  0.19588627  0.40331401  1
  Pd  Pd173  1  0.40124378  0.60261528  0.59014912  1
  Pd  Pd174  1  -0.00280538  0.59793580  0.79992589  1
  Pd  Pd175  1  0.00663938  0.59068000  0.39973079  1
  Pd  Pd176  1  0.00406590  -0.00661079  0.39946995  1
  Pd  Pd177  1  0.39908721  0.39903868  0.79985067  1
  Pd  Pd178  1  0.39625179  0.79314061  0.39657928  1
  Pd  Pd179  1  0.60010132  0.59573575  -0.00563944  1
  Pd  Pd180  1  0.59062746  0.00674340  0.20497596  1
  Pd  Pd181  1  0.39979743  0.40804772  0.20541791  1
  Pd  Pd182  1  0.41021887  0.40319817  0.40059931  1
  Pd  Pd183  1  0.41207906  0.40976556  0.59446384  1
  Pd  Pd184  1  0.60290249  0.18640849  0.39207886  1
  Pd  Pd185  1  0.00291127  0.40400858  0.59477205  1
  Pd  Pd186  1  0.19259165  -0.00261744  0.20461534  1
  Pd  Pd187  1  0.19795164  0.60053939  0.19977529  1
  Pd  Pd188  1  0.80111008  0.80180255  0.19723205  1
  Pd  Pd189  1  0.18988329  0.38794324  0.40533522  1
  Pd  Pd190  1  0.60462854  0.19668220  0.00059168  1
  Pd  Pd191  1  0.00388509  -0.00670216  0.19966650  1
  Pd  Pd192  1  -0.00376148  0.80612449  0.39660182  1
  Pd  Pd193  1  0.39808538  0.60218923  0.79996859  1
  Pd  Pd194  1  0.19769022  -0.00817570  0.59656076  1
  Pd  Pd195  1  0.59975274  -0.00309199  -0.00651638  1
  Pd  Pd196  1  0.60533526  0.40792978  0.00145765  1
  Pd  Pd197  1  -0.00030839  0.20639357  0.39976542  1
  Pd  Pd198  1  0.40474328  0.00583141  0.61180355  1
  Pd  Pd199  1  0.20001304  0.60514395  0.59270158  1
  Rh  Rh200  1  0.19923504  0.20096371  0.80534445  1
  Rh  Rh201  1  0.40236318  -0.01050519  0.00590148  1
  Rh  Rh202  1  0.60308472  0.21099750  0.60559518  1
  Rh  Rh203  1  0.19731434  0.40069893  0.59374083  1
  Rh  Rh204  1  0.59669487  0.60183989  0.80001491  1
  Rh  Rh205  1  0.80550278  0.60293079  -0.00916742  1
  Rh  Rh206  1  0.60762426  0.59922684  0.39904307  1
  Rh  Rh207  1  0.19705716  0.60370284  0.40760006  1
  Rh  Rh208  1  0.59709230  0.59348939  0.20897788  1
  Rh  Rh209  1  0.79817894  0.59793590  0.79039466  1
  Rh  Rh210  1  -0.00711176  0.41453295  0.20287341  1
  Rh  Rh211  1  -0.01004959  0.78675829  -0.00565925  1
  Rh  Rh212  1  0.59824306  0.79770429  0.79121766  1
  Rh  Rh213  1  0.00119945  0.00735507  0.80191317  1
  Rh  Rh214  1  0.80969580  0.39235019  0.39686423  1
  Rh  Rh215  1  0.20542425  0.40875532  0.79078050  1
  Rh  Rh216  1  0.80283801  0.59937627  0.60008613  1
  Rh  Rh217  1  0.21167481  0.80225523  0.20235939  1
  Rh  Rh218  1  0.60305722  0.80619143  0.40701151  1
  Rh  Rh219  1  0.60443217  0.60311899  0.59546626  1
  Rh  Rh220  1  0.80547401  0.59613424  0.21407517  1
  Rh  Rh221  1  0.80001067  0.60715655  0.39719863  1
  Rh  Rh222  1  0.21693080  0.40505704  0.20422884  1
  Rh  Rh223  1  0.78902936  0.40538135  0.60532640  1
  Rh  Rh224  1  -0.00366151  0.19894965  0.60775871  1
  Rh  Rh225  1  0.39211298  0.20289997  -0.00559074  1
  Rh  Rh226  1  0.78948474  0.40840135  0.79470184  1
  Rh  Rh227  1  0.00395219  0.39711299  0.79563256  1
  Rh  Rh228  1  0.39781698  0.00586775  0.40912492  1
  Rh  Rh229  1  -0.00824722  0.00102185  0.59571052  1
  Rh  Rh230  1  0.00656746  0.00798529  -0.00493633  1
  Rh  Rh231  1  0.19476285  0.60133785  0.00986160  1
  Rh  Rh232  1  0.19328651  -0.01183651  0.79524275  1
  Rh  Rh233  1  0.20154869  0.19880192  0.19912641  1
  Rh  Rh234  1  0.59400359  0.79595166  0.19842721  1
  Rh  Rh235  1  0.60591650  0.80015955  0.00049023  1
  Rh  Rh236  1  -0.00533291  0.59703865  0.59752021  1
  Rh  Rh237  1  0.79355097  -0.01051947  -0.00037177  1
  Rh  Rh238  1  0.79390803  -0.00011597  0.79492055  1
  Rh  Rh239  1  0.79943621  0.80470615  0.60208950  1
  Rh  Rh240  1  0.59080343  0.19864325  0.80893179  1
  Rh  Rh241  1  0.19512071  0.00499345  0.00303450  1
  Rh  Rh242  1  0.20698864  0.79889693  -0.00648782  1
  Rh  Rh243  1  0.40588689  0.79405366  0.59618190  1
  Rh  Rh244  1  0.20715443  0.60347031  0.79377230  1
  Rh  Rh245  1  0.80673365  0.18988218  0.80952861  1
  Rh  Rh246  1  0.80718208  0.79332252  0.39732338  1
  Rh  Rh247  1  0.40521138  -0.00770077  0.19069976  1
  Rh  Rh248  1  -0.00165774  0.79293110  0.20765758  1
  Rh  Rh249  1  0.80721406  0.19014992  0.59158343  1
