# generated using pymatgen
data_ZrScNbPdRh
_symmetry_space_group_name_H-M   'P 1'
_cell_length_a   16.56085121
_cell_length_b   16.55836238
_cell_length_c   16.56046447
_cell_angle_alpha   89.99193097
_cell_angle_beta   89.99535325
_cell_angle_gamma   89.96609839
_symmetry_Int_Tables_number   1
_chemical_formula_structural   ZrScNbPdRh
_chemical_formula_sum   'Zr50 Sc50 Nb50 Pd50 Rh50'
_cell_volume   4541.21924478
_cell_formula_units_Z   50
loop_
 _symmetry_equiv_pos_site_id
 _symmetry_equiv_pos_as_xyz
  1  'x, y, z'
loop_
 _atom_site_type_symbol
 _atom_site_label
 _atom_site_symmetry_multiplicity
 _atom_site_fract_x
 _atom_site_fract_y
 _atom_site_fract_z
 _atom_site_occupancy
  Zr  Zr0  1  0.29627954  0.90145690  0.90876942  1
  Zr  Zr1  1  0.50104812  0.90438562  0.69824940  1
  Zr  Zr2  1  0.69674598  0.89661159  0.10736341  1
  Zr  Zr3  1  0.69384198  0.90610997  0.90676464  1
  Zr  Zr4  1  0.90018820  0.09240401  0.29332574  1
  Zr  Zr5  1  0.49579068  0.50557123  0.29762149  1
  Zr  Zr6  1  0.90302648  0.30247371  0.49822327  1
  Zr  Zr7  1  0.50368987  0.10172882  0.90592834  1
  Zr  Zr8  1  0.89438911  0.50670170  0.09332069  1
  Zr  Zr9  1  0.50248697  0.69825767  0.70076879  1
  Zr  Zr10  1  0.89927850  0.50015718  0.70034402  1
  Zr  Zr11  1  0.69829664  0.30073698  0.09796878  1
  Zr  Zr12  1  0.90621296  0.89584187  0.10155830  1
  Zr  Zr13  1  0.29959898  0.11065167  0.70114852  1
  Zr  Zr14  1  0.69743441  0.09397243  0.09781008  1
  Zr  Zr15  1  0.89861614  0.30068351  0.69780567  1
  Zr  Zr16  1  0.29807704  0.50120447  0.28966362  1
  Zr  Zr17  1  0.29753074  0.31094673  0.10901427  1
  Zr  Zr18  1  0.50240832  0.10347791  0.10225534  1
  Zr  Zr19  1  0.10729765  0.10029099  0.50093941  1
  Zr  Zr20  1  0.30073679  0.89714081  0.30214831  1
  Zr  Zr21  1  0.90399232  0.90491781  0.70446739  1
  Zr  Zr22  1  0.49402495  0.29649829  0.29828624  1
  Zr  Zr23  1  0.49330890  0.50235521  0.70177342  1
  Zr  Zr24  1  0.70127114  0.29857563  0.49856281  1
  Zr  Zr25  1  0.50097069  0.10380062  0.30216785  1
  Zr  Zr26  1  0.30424128  0.69541149  0.29510597  1
  Zr  Zr27  1  0.69863380  0.69458919  0.11135914  1
  Zr  Zr28  1  0.09955940  0.68813115  0.50220284  1
  Zr  Zr29  1  0.50312154  0.89673331  0.09270288  1
  Zr  Zr30  1  0.49905019  0.31228571  0.89915681  1
  Zr  Zr31  1  0.30170156  0.50374292  0.89826431  1
  Zr  Zr32  1  0.49853879  0.89135906  0.89634235  1
  Zr  Zr33  1  0.29750865  0.10692623  0.31425926  1
  Zr  Zr34  1  0.10554860  0.69464085  0.29469192  1
  Zr  Zr35  1  0.09652570  0.30232337  0.10428328  1
  Zr  Zr36  1  0.70054849  0.10644813  0.69805553  1
  Zr  Zr37  1  0.70392281  0.08730282  0.30000858  1
  Zr  Zr38  1  0.69280230  0.09921235  0.49676452  1
  Zr  Zr39  1  0.50122409  0.89060958  0.31393852  1
  Zr  Zr40  1  0.90046054  0.30812348  0.09729606  1
  Zr  Zr41  1  0.50004029  0.30397422  0.69953691  1
  Zr  Zr42  1  0.30688333  0.10460400  0.50494509  1
  Zr  Zr43  1  0.89740404  0.69570478  0.69939771  1
  Zr  Zr44  1  0.70366942  0.30033205  0.89033240  1
  Zr  Zr45  1  0.31079181  0.90871265  0.49542289  1
  Zr  Zr46  1  0.91394405  0.49998160  0.50105039  1
  Zr  Zr47  1  0.89831695  0.69146016  0.90697673  1
  Zr  Zr48  1  0.49467862  0.69610591  0.89854483  1
  Zr  Zr49  1  0.50129962  0.70144972  0.49396733  1
  Sc  Sc50  1  0.50166932  0.10135988  0.68737238  1
  Sc  Sc51  1  0.90519946  0.49938428  0.30423141  1
  Sc  Sc52  1  0.70855421  0.69391111  0.69800712  1
  Sc  Sc53  1  0.89956630  0.10685719  0.50727618  1
  Sc  Sc54  1  0.30139014  0.09838636  0.08776157  1
  Sc  Sc55  1  0.90242837  0.89462734  0.90930054  1
  Sc  Sc56  1  0.29666878  0.70086855  0.89487512  1
  Sc  Sc57  1  0.69394157  0.29622798  0.30800975  1
  Sc  Sc58  1  0.11702692  0.69699623  0.70418841  1
  Sc  Sc59  1  0.29761070  0.10569798  0.90009771  1
  Sc  Sc60  1  0.09051318  0.89153409  0.29068900  1
  Sc  Sc61  1  0.89787105  0.69889658  0.50504759  1
  Sc  Sc62  1  0.89896831  0.09656980  0.10811519  1
  Sc  Sc63  1  0.50142302  0.69741562  0.30064941  1
  Sc  Sc64  1  0.50549791  0.29222933  0.50135482  1
  Sc  Sc65  1  0.89325234  0.89300422  0.49038009  1
  Sc  Sc66  1  0.30148835  0.69237463  0.70375225  1
  Sc  Sc67  1  0.70013173  0.29803771  0.70011222  1
  Sc  Sc68  1  0.10082033  0.09330187  0.90064866  1
  Sc  Sc69  1  0.30376732  0.50721488  0.09982296  1
  Sc  Sc70  1  0.89873490  0.70755047  0.29799639  1
  Sc  Sc71  1  0.70380200  0.69839160  0.89584104  1
  Sc  Sc72  1  0.30158686  0.30567757  0.69261479  1
  Sc  Sc73  1  0.50570109  0.50474808  0.50743759  1
  Sc  Sc74  1  0.29845607  0.30048009  0.88322610  1
  Sc  Sc75  1  0.10821610  0.90204301  0.50576589  1
  Sc  Sc76  1  0.29880785  0.50242843  0.51428992  1
  Sc  Sc77  1  0.90598894  0.08869883  0.89921093  1
  Sc  Sc78  1  0.69645446  0.89688155  0.70293477  1
  Sc  Sc79  1  0.69088166  0.50164994  0.29651936  1
  Sc  Sc80  1  0.29585955  0.88609979  0.70270070  1
  Sc  Sc81  1  0.09445966  0.90053620  0.90561120  1
  Sc  Sc82  1  0.70389828  0.50093065  0.89791085  1
  Sc  Sc83  1  0.10064744  0.89568811  0.09614940  1
  Sc  Sc84  1  0.09323783  0.09809985  0.69668044  1
  Sc  Sc85  1  0.49769038  0.30025460  0.09517970  1
  Sc  Sc86  1  0.89357192  0.89861013  0.29862327  1
  Sc  Sc87  1  0.10555486  0.49499065  0.68923672  1
  Sc  Sc88  1  0.69876891  0.50661613  0.69746620  1
  Sc  Sc89  1  0.90007261  0.69581282  0.09950555  1
  Sc  Sc90  1  0.89944106  0.29961732  0.30076119  1
  Sc  Sc91  1  0.30141066  0.69622607  0.50576236  1
  Sc  Sc92  1  0.90569069  0.10364637  0.69589220  1
  Sc  Sc93  1  0.10805604  0.69515375  0.90617021  1
  Sc  Sc94  1  0.49869413  0.50359210  0.09091139  1
  Sc  Sc95  1  0.09737352  0.30595217  0.50925957  1
  Sc  Sc96  1  0.10553313  0.29949146  0.28839311  1
  Sc  Sc97  1  0.10856022  0.30541975  0.70478050  1
  Sc  Sc98  1  0.69437338  0.50863826  0.10166417  1
  Sc  Sc99  1  0.09529430  0.50424573  0.11022307  1
  Nb  Nb100  1  0.50114223  0.70346502  0.10200562  1
  Nb  Nb101  1  0.90232763  0.31648679  0.89853764  1
  Nb  Nb102  1  0.09807340  0.49802825  0.49462196  1
  Nb  Nb103  1  0.50305850  0.90411609  0.50182631  1
  Nb  Nb104  1  0.90375080  0.49234571  0.89762990  1
  Nb  Nb105  1  0.70210096  0.69821881  0.50188713  1
  Nb  Nb106  1  0.70304901  0.10161219  0.89980016  1
  Nb  Nb107  1  0.09811203  0.30708126  0.89879544  1
  Nb  Nb108  1  0.30235110  0.30403428  0.30390637  1
  Nb  Nb109  1  0.09802990  0.89864310  0.70502793  1
  Nb  Nb110  1  0.70238639  0.89441863  0.30929918  1
  Nb  Nb111  1  0.09833927  0.10556402  0.10764447  1
  Nb  Nb112  1  0.69721045  0.90132844  0.48794862  1
  Nb  Nb113  1  0.30074489  0.29632358  0.49240013  1
  Nb  Nb114  1  0.10193678  0.50051854  0.31302973  1
  Nb  Nb115  1  0.49822388  0.08883122  0.50373990  1
  Nb  Nb116  1  0.49138326  0.49916819  0.89939669  1
  Nb  Nb117  1  0.69857780  0.70133765  0.29863630  1
  Nb  Nb118  1  0.09647968  0.49115127  0.89344724  1
  Nb  Nb119  1  0.29809510  0.49988823  0.70204338  1
  Nb  Nb120  1  0.09716190  0.10121058  0.29265682  1
  Nb  Nb121  1  0.29767639  0.90196345  0.10175871  1
  Nb  Nb122  1  0.10218459  0.70460498  0.10696557  1
  Nb  Nb123  1  0.28727235  0.70432507  0.10553470  1
  Nb  Nb124  1  0.70182301  0.50286381  0.49980774  1
  Nb  Nb125  1  0.00480772  0.79986061  0.60839929  1
  Nb  Nb126  1  -0.00214554  0.20664470  -0.00314487  1
  Nb  Nb127  1  0.79683731  0.40220030  0.19892875  1
  Nb  Nb128  1  0.79649893  0.00261124  0.79942931  1
  Nb  Nb129  1  0.00253944  0.59508659  0.80332208  1
  Nb  Nb130  1  0.20288017  0.40185449  0.40004351  1
  Nb  Nb131  1  0.39648006  -0.00049907  0.80078142  1
  Nb  Nb132  1  0.39771081  0.80140450  0.19097884  1
  Nb  Nb133  1  0.00656758  0.19347024  0.39491364  1
  Nb  Nb134  1  0.20107229  0.00309203  0.19859496  1
  Nb  Nb135  1  0.00169948  0.79216521  0.79801641  1
  Nb  Nb136  1  0.80511308  0.20194543  -0.00843774  1
  Nb  Nb137  1  0.40872974  0.80275414  0.59673585  1
  Nb  Nb138  1  0.60260841  0.80235882  0.58954059  1
  Nb  Nb139  1  0.79310869  0.60181077  0.40215055  1
  Nb  Nb140  1  0.20167622  0.79542706  0.39870041  1
  Nb  Nb141  1  0.20192382  -0.00340785  0.79859996  1
  Nb  Nb142  1  0.39312353  0.39703961  0.40028589  1
  Nb  Nb143  1  0.19015822  0.20906386  -0.00090104  1
  Nb  Nb144  1  0.00283423  0.00599597  0.39703180  1
  Nb  Nb145  1  0.79413326  -0.00273608  0.59973364  1
  Nb  Nb146  1  0.19473318  0.39997720  -0.00384648  1
  Nb  Nb147  1  0.80037511  0.40363651  0.59194165  1
  Nb  Nb148  1  -0.00019739  0.21040639  0.81083217  1
  Nb  Nb149  1  0.39624691  -0.00485263  0.19978552  1
  Pd  Pd150  1  0.40981855  0.19631873  0.79776886  1
  Pd  Pd151  1  0.58934461  0.40230342  0.40221240  1
  Pd  Pd152  1  0.60691970  0.40101972  0.60094267  1
  Pd  Pd153  1  0.39922937  0.39704002  0.59225801  1
  Pd  Pd154  1  0.60329601  0.40609036  -0.00290761  1
  Pd  Pd155  1  0.40922716  0.40369147  0.19803495  1
  Pd  Pd156  1  -0.00490869  0.60172127  0.20581435  1
  Pd  Pd157  1  0.21215774  0.19327889  0.19470413  1
  Pd  Pd158  1  0.60059529  0.59630503  0.80374688  1
  Pd  Pd159  1  -0.01012960  0.60996751  0.39521979  1
  Pd  Pd160  1  0.60790300  0.78803585  -0.00172357  1
  Pd  Pd161  1  0.39192025  0.78994913  0.00352102  1
  Pd  Pd162  1  0.38933942  0.19231718  0.19591004  1
  Pd  Pd163  1  0.80406647  0.00380986  -0.00064869  1
  Pd  Pd164  1  0.60386856  0.40948358  0.79715020  1
  Pd  Pd165  1  0.79789619  0.20631795  0.19678585  1
  Pd  Pd166  1  0.18744894  -0.01049574  0.38856729  1
  Pd  Pd167  1  0.78976280  0.40381125  0.00291881  1
  Pd  Pd168  1  0.59231740  -0.00996175  0.20761450  1
  Pd  Pd169  1  0.80739056  0.19327928  0.39873236  1
  Pd  Pd170  1  0.00992357  0.59774406  -0.00290330  1
  Pd  Pd171  1  0.39488076  0.61049734  0.00463434  1
  Pd  Pd172  1  0.80244880  0.80055806  0.19910636  1
  Pd  Pd173  1  0.00383273  0.00677219  0.00987191  1
  Pd  Pd174  1  0.60579283  0.20449561  -0.00386467  1
  Pd  Pd175  1  0.80413695  0.80721528  0.80523802  1
  Pd  Pd176  1  0.79834618  0.80858317  0.59839140  1
  Pd  Pd177  1  0.19576216  0.20731113  0.60302998  1
  Pd  Pd178  1  0.60141751  0.60328462  -0.00594523  1
  Pd  Pd179  1  0.60523816  0.60146446  0.39863659  1
  Pd  Pd180  1  0.39438066  0.58975908  0.40838036  1
  Pd  Pd181  1  0.19592164  0.79925666  -0.00066609  1
  Pd  Pd182  1  0.18838852  0.21174032  0.40030444  1
  Pd  Pd183  1  0.59852181  0.39988000  0.19759109  1
  Pd  Pd184  1  0.60692115  0.20302937  0.20312069  1
  Pd  Pd185  1  0.20884594  -0.00253948  0.61162188  1
  Pd  Pd186  1  0.21028372  0.59753224  0.40394292  1
  Pd  Pd187  1  0.60668008  0.79279333  0.79435052  1
  Pd  Pd188  1  0.59826098  0.00852483  0.79972072  1
  Pd  Pd189  1  0.81408447  0.19288753  0.80628198  1
  Pd  Pd190  1  0.19396002  0.59188356  0.00476014  1
  Pd  Pd191  1  0.20359898  0.79841597  0.59369497  1
  Pd  Pd192  1  0.79638927  0.41046617  0.39502282  1
  Pd  Pd193  1  0.38942687  0.21313014  -0.00305911  1
  Pd  Pd194  1  0.40405718  0.00024328  -0.00167223  1
  Pd  Pd195  1  0.59178333  0.19750391  0.79837492  1
  Pd  Pd196  1  0.00941713  0.80385443  0.40952987  1
  Pd  Pd197  1  -0.00480733  0.40585421  0.20615520  1
  Pd  Pd198  1  -0.00795457  -0.00979344  0.58707757  1
  Pd  Pd199  1  0.79436542  0.79443142  0.00522414  1
  Rh  Rh200  1  -0.00955757  0.20182280  0.20066668  1
  Rh  Rh201  1  0.79461486  0.40573144  0.78906048  1
  Rh  Rh202  1  0.00249169  0.40186578  0.78828250  1
  Rh  Rh203  1  0.00473888  0.78981679  -0.00108185  1
  Rh  Rh204  1  0.59613960  0.19357297  0.40132375  1
  Rh  Rh205  1  0.79417309  0.59760098  -0.00283733  1
  Rh  Rh206  1  0.19868901  0.59469297  0.60274189  1
  Rh  Rh207  1  0.00115186  -0.00338083  0.80233070  1
  Rh  Rh208  1  0.19493815  0.59445136  0.19527519  1
  Rh  Rh209  1  0.61144784  -0.00652485  0.59637358  1
  Rh  Rh210  1  0.18591742  0.18877690  0.80383162  1
  Rh  Rh211  1  0.40815314  0.00666102  0.39458651  1
  Rh  Rh212  1  0.59093402  0.60257531  0.19933726  1
  Rh  Rh213  1  0.59702764  0.00166613  -0.00032974  1
  Rh  Rh214  1  -0.00158246  0.39871787  0.60443856  1
  Rh  Rh215  1  0.01427314  0.38631100  0.39296514  1
  Rh  Rh216  1  0.19533905  0.58980150  0.79854811  1
  Rh  Rh217  1  0.40438369  0.60906945  0.18776902  1
  Rh  Rh218  1  0.00858898  0.60652653  0.61047771  1
  Rh  Rh219  1  0.79582298  0.20257436  0.59578508  1
  Rh  Rh220  1  0.39736520  0.59800342  0.79934422  1
  Rh  Rh221  1  0.38957951  0.39747039  -0.00516178  1
  Rh  Rh222  1  0.60812830  0.79332906  0.40234261  1
  Rh  Rh223  1  -0.00347670  0.79427614  0.19376380  1
  Rh  Rh224  1  0.20219399  0.80629488  0.20423375  1
  Rh  Rh225  1  0.20571324  0.40597798  0.80078025  1
  Rh  Rh226  1  0.00693454  0.40597386  0.00550918  1
  Rh  Rh227  1  0.19387634  0.00781998  0.00363538  1
  Rh  Rh228  1  0.40796546  0.20197196  0.40852687  1
  Rh  Rh229  1  0.59764269  0.20075859  0.59824588  1
  Rh  Rh230  1  0.60108151  0.60647370  0.60073987  1
  Rh  Rh231  1  0.39211230  -0.00486500  0.61076956  1
  Rh  Rh232  1  0.39948073  0.80275498  0.79529604  1
  Rh  Rh233  1  0.80729706  0.59343303  0.80588987  1
  Rh  Rh234  1  0.39671094  0.40381763  0.79762154  1
  Rh  Rh235  1  0.20467829  0.40020633  0.59253568  1
  Rh  Rh236  1  0.80171704  0.59059406  0.59065006  1
  Rh  Rh237  1  0.39135381  0.79305688  0.40459314  1
  Rh  Rh238  1  0.40173607  0.60514465  0.60570158  1
  Rh  Rh239  1  0.00603568  -0.00635588  0.19929068  1
  Rh  Rh240  1  0.80243789  0.59144528  0.21235463  1
  Rh  Rh241  1  0.79698676  -0.01176586  0.19755408  1
  Rh  Rh242  1  0.59564984  0.80031251  0.20698878  1
  Rh  Rh243  1  0.40421567  0.20528853  0.59626301  1
  Rh  Rh244  1  0.59496537  0.00303661  0.39534312  1
  Rh  Rh245  1  0.19610085  0.40961530  0.20197809  1
  Rh  Rh246  1  0.79375874  0.78902027  0.39783729  1
  Rh  Rh247  1  0.19167893  0.80780326  0.81085807  1
  Rh  Rh248  1  0.80803647  0.00420777  0.40759954  1
  Rh  Rh249  1  0.00601641  0.20648342  0.60476580  1
