# generated using pymatgen
data_ZrScNbPdRh
_symmetry_space_group_name_H-M   'P 1'
_cell_length_a   16.55920225
_cell_length_b   16.55655402
_cell_length_c   16.56117354
_cell_angle_alpha   90.03037070
_cell_angle_beta   90.03501281
_cell_angle_gamma   89.99597158
_symmetry_Int_Tables_number   1
_chemical_formula_structural   ZrScNbPdRh
_chemical_formula_sum   'Zr50 Sc50 Nb50 Pd50 Rh50'
_cell_volume   4540.46493581
_cell_formula_units_Z   50
loop_
 _symmetry_equiv_pos_site_id
 _symmetry_equiv_pos_as_xyz
  1  'x, y, z'
loop_
 _atom_site_type_symbol
 _atom_site_label
 _atom_site_symmetry_multiplicity
 _atom_site_fract_x
 _atom_site_fract_y
 _atom_site_fract_z
 _atom_site_occupancy
  Zr  Zr0  1  0.70347490  0.29625847  0.69307371  1
  Zr  Zr1  1  0.29745913  0.89592998  0.90745572  1
  Zr  Zr2  1  0.69853148  0.69537253  0.49282141  1
  Zr  Zr3  1  0.89900577  0.29250869  0.10244209  1
  Zr  Zr4  1  0.69977888  0.69658848  0.90569777  1
  Zr  Zr5  1  0.70114982  0.10034297  0.89446918  1
  Zr  Zr6  1  0.09887975  0.90121212  0.49381746  1
  Zr  Zr7  1  0.49738432  0.89944381  0.90417570  1
  Zr  Zr8  1  0.29965986  0.09660321  0.09801195  1
  Zr  Zr9  1  0.09854650  0.69796812  0.30401414  1
  Zr  Zr10  1  0.49266008  0.49751397  0.69407582  1
  Zr  Zr11  1  0.30276925  0.48995470  0.89956885  1
  Zr  Zr12  1  0.10121212  0.49525680  0.91308777  1
  Zr  Zr13  1  0.70117457  0.69844000  0.29898166  1
  Zr  Zr14  1  0.09692286  0.29669491  0.89966246  1
  Zr  Zr15  1  0.09874935  0.69634052  0.50138843  1
  Zr  Zr16  1  0.50449301  0.90295060  0.69624929  1
  Zr  Zr17  1  0.89893732  0.30777789  0.69841704  1
  Zr  Zr18  1  0.30895743  0.10007838  0.49595014  1
  Zr  Zr19  1  0.29698473  0.29596203  0.89937852  1
  Zr  Zr20  1  0.50905224  0.10351492  0.69422531  1
  Zr  Zr21  1  0.89216864  0.90785929  0.10664639  1
  Zr  Zr22  1  0.90741066  0.70087819  0.49327791  1
  Zr  Zr23  1  0.69323447  0.49968287  0.48774998  1
  Zr  Zr24  1  0.30049727  0.70446928  0.11383037  1
  Zr  Zr25  1  0.69983990  0.10349989  0.49886928  1
  Zr  Zr26  1  0.09382293  0.29713739  0.70802620  1
  Zr  Zr27  1  0.88702365  0.70431305  0.89594840  1
  Zr  Zr28  1  0.71051778  0.89449614  0.90250504  1
  Zr  Zr29  1  0.29638560  0.31131894  0.29700502  1
  Zr  Zr30  1  0.89922849  0.49449148  0.69772127  1
  Zr  Zr31  1  0.29943977  0.09986663  0.70450980  1
  Zr  Zr32  1  0.90819739  0.69053950  0.69922684  1
  Zr  Zr33  1  0.89868448  0.90487446  0.69710609  1
  Zr  Zr34  1  0.30918341  0.88186679  0.69666145  1
  Zr  Zr35  1  0.90322087  0.48890473  0.10299244  1
  Zr  Zr36  1  0.70584795  0.09601469  0.69581888  1
  Zr  Zr37  1  0.48475939  0.70642010  0.69370496  1
  Zr  Zr38  1  0.10141618  0.69072681  0.10555446  1
  Zr  Zr39  1  0.50147349  0.29958641  0.28400616  1
  Zr  Zr40  1  0.10009177  0.09994116  0.48910738  1
  Zr  Zr41  1  0.08904212  0.50296158  0.70030424  1
  Zr  Zr42  1  0.49944746  0.49866124  0.49878126  1
  Zr  Zr43  1  0.49251673  0.30827212  0.90762210  1
  Zr  Zr44  1  0.90269228  0.89786593  0.90750911  1
  Zr  Zr45  1  0.09189437  0.90570961  0.29815444  1
  Zr  Zr46  1  0.10602326  0.90448146  0.90255918  1
  Zr  Zr47  1  0.69967639  0.30148748  0.49635684  1
  Zr  Zr48  1  0.10029587  0.10394781  0.89854343  1
  Zr  Zr49  1  0.90228725  0.10070236  0.90920798  1
  Sc  Sc50  1  0.31196762  0.29811118  0.10007265  1
  Sc  Sc51  1  0.69915515  0.70618476  0.09706775  1
  Sc  Sc52  1  0.10121336  0.09441100  0.71340382  1
  Sc  Sc53  1  0.50098378  0.09908821  0.29911394  1
  Sc  Sc54  1  0.10024144  0.29999076  0.31268369  1
  Sc  Sc55  1  0.50651610  0.91188743  0.29357370  1
  Sc  Sc56  1  0.90433420  0.49513006  0.49802696  1
  Sc  Sc57  1  0.49001980  0.10125038  0.10807675  1
  Sc  Sc58  1  0.49975386  0.91274631  0.49979181  1
  Sc  Sc59  1  0.70241488  0.30463623  0.10911352  1
  Sc  Sc60  1  0.71594407  0.10297037  0.09850968  1
  Sc  Sc61  1  0.09527751  0.88662114  0.09580428  1
  Sc  Sc62  1  0.70889633  0.69799155  0.70698272  1
  Sc  Sc63  1  0.89624089  0.09328296  0.49366120  1
  Sc  Sc64  1  0.89793384  0.30185484  0.30033622  1
  Sc  Sc65  1  0.49845729  0.68784512  0.49944903  1
  Sc  Sc66  1  0.30227841  0.69515662  0.51076774  1
  Sc  Sc67  1  0.69571563  0.48806380  0.69367562  1
  Sc  Sc68  1  0.30474141  0.09734831  0.30204254  1
  Sc  Sc69  1  0.30421029  0.90740018  0.29559229  1
  Sc  Sc70  1  0.30247014  0.50400619  0.30474256  1
  Sc  Sc71  1  0.09404229  0.10134686  0.30452760  1
  Sc  Sc72  1  0.28736589  0.09190510  0.90646534  1
  Sc  Sc73  1  0.09571771  0.30903462  0.10085081  1
  Sc  Sc74  1  0.08735983  0.10506978  0.09730467  1
  Sc  Sc75  1  0.50277602  0.30413353  0.69373389  1
  Sc  Sc76  1  0.48931053  0.69372879  0.29160471  1
  Sc  Sc77  1  0.69841333  0.49870341  0.90968880  1
  Sc  Sc78  1  0.89930990  0.70484447  0.30180571  1
  Sc  Sc79  1  0.90024477  0.30440888  0.49611064  1
  Sc  Sc80  1  0.10125466  0.70535147  0.91450213  1
  Sc  Sc81  1  0.30156765  0.50230606  0.49474705  1
  Sc  Sc82  1  0.70589143  0.91414967  0.49222353  1
  Sc  Sc83  1  0.90412274  0.90409774  0.49372518  1
  Sc  Sc84  1  0.50717628  0.10012842  0.49964141  1
  Sc  Sc85  1  0.90464368  0.10083732  0.29494888  1
  Sc  Sc86  1  0.50089523  0.70525917  0.91067282  1
  Sc  Sc87  1  0.09844237  0.50255412  0.49229240  1
  Sc  Sc88  1  0.31087537  0.30437683  0.70091753  1
  Sc  Sc89  1  0.69583469  0.09999623  0.30751112  1
  Sc  Sc90  1  0.90254304  0.30280086  0.89680727  1
  Sc  Sc91  1  0.69970014  0.30585668  0.89295495  1
  Sc  Sc92  1  0.10295173  0.49867749  0.29848806  1
  Sc  Sc93  1  0.10422530  0.89857615  0.69861590  1
  Sc  Sc94  1  0.49509981  0.89898165  0.10240462  1
  Sc  Sc95  1  0.90359388  0.70389653  0.09841559  1
  Sc  Sc96  1  0.89706523  0.49826065  0.89900260  1
  Sc  Sc97  1  0.28869543  0.49751871  0.10775596  1
  Sc  Sc98  1  0.30047486  0.30823075  0.49752716  1
  Sc  Sc99  1  0.50499034  0.49427831  0.90870554  1
  Nb  Nb100  1  0.29702497  0.90785193  0.09649290  1
  Nb  Nb101  1  0.69521466  0.49531144  0.30001636  1
  Nb  Nb102  1  0.90190655  0.10322342  0.69790077  1
  Nb  Nb103  1  0.09566613  0.50155759  0.10070880  1
  Nb  Nb104  1  0.69917388  0.50234439  0.09966935  1
  Nb  Nb105  1  0.70052093  0.30994368  0.30269131  1
  Nb  Nb106  1  0.69995393  0.90134894  0.10780664  1
  Nb  Nb107  1  0.90104407  0.10441940  0.09908612  1
  Nb  Nb108  1  0.49823967  0.68941371  0.10163572  1
  Nb  Nb109  1  0.50084830  0.29850551  0.09544184  1
  Nb  Nb110  1  0.29683424  0.69566895  0.70438365  1
  Nb  Nb111  1  0.50131044  0.50318175  0.29832138  1
  Nb  Nb112  1  0.70264962  0.89995842  0.69793419  1
  Nb  Nb113  1  0.89341771  0.90125515  0.29803157  1
  Nb  Nb114  1  0.30128750  0.70123449  0.30548477  1
  Nb  Nb115  1  0.10037670  0.29848818  0.50315067  1
  Nb  Nb116  1  0.30225153  0.70134923  0.89808008  1
  Nb  Nb117  1  0.50383678  0.49570637  0.09606797  1
  Nb  Nb118  1  0.29772710  0.50029179  0.70230946  1
  Nb  Nb119  1  0.50519495  0.09746927  0.89872113  1
  Nb  Nb120  1  0.10177918  0.69737685  0.69791107  1
  Nb  Nb121  1  0.89388502  0.49625469  0.29895619  1
  Nb  Nb122  1  0.70330059  0.89557811  0.28935285  1
  Nb  Nb123  1  0.49407307  0.29712377  0.50836333  1
  Nb  Nb124  1  0.30118325  0.90346808  0.49330341  1
  Nb  Nb125  1  0.39730689  0.60018691  0.00431665  1
  Nb  Nb126  1  0.19670319  0.20053842  0.59839322  1
  Nb  Nb127  1  0.60380856  0.00333594  0.00187256  1
  Nb  Nb128  1  0.20109556  0.19825201  0.20140734  1
  Nb  Nb129  1  0.80084064  0.60165772  0.59472833  1
  Nb  Nb130  1  0.59561995  0.19903111  0.00107525  1
  Nb  Nb131  1  0.19603206  0.00265021  0.19497143  1
  Nb  Nb132  1  0.60087607  0.59207821  0.19660618  1
  Nb  Nb133  1  0.39622098  0.60164754  0.80488504  1
  Nb  Nb134  1  0.59202575  0.60442624  0.79989397  1
  Nb  Nb135  1  0.20192821  0.60438164  0.79954474  1
  Nb  Nb136  1  0.40628274  0.19249639  0.80517730  1
  Nb  Nb137  1  0.60807259  0.80178020  0.59759867  1
  Nb  Nb138  1  0.79485284  0.58972142  0.20095869  1
  Nb  Nb139  1  0.79812823  0.79834348  0.59756454  1
  Nb  Nb140  1  0.40338140  0.00121741  0.80268750  1
  Nb  Nb141  1  0.20709770  0.79955452  0.39842889  1
  Nb  Nb142  1  0.00193658  0.79562349  0.79803015  1
  Nb  Nb143  1  0.40525156  0.20915821  0.39959758  1
  Nb  Nb144  1  0.19445793  0.39841240  0.60229750  1
  Nb  Nb145  1  0.20561800  0.00092883  0.59404012  1
  Nb  Nb146  1  0.00306826  0.19785944  0.60001800  1
  Nb  Nb147  1  0.59780393  0.80156691  0.39776737  1
  Nb  Nb148  1  0.39950319  0.80224466  0.39974241  1
  Nb  Nb149  1  0.60271703  0.79905547  0.79563326  1
  Pd  Pd150  1  0.78742789  0.58436280  0.79388516  1
  Pd  Pd151  1  0.00109479  0.40223146  0.39615251  1
  Pd  Pd152  1  0.79300768  0.20985793  -0.00493316  1
  Pd  Pd153  1  0.19158182  0.79591317  0.80218488  1
  Pd  Pd154  1  0.59697597  0.40429675  0.79996399  1
  Pd  Pd155  1  0.39557859  0.79467700  0.00937411  1
  Pd  Pd156  1  0.58769964  0.39018249  0.40075519  1
  Pd  Pd157  1  0.20926802  0.60414777  -0.00053224  1
  Pd  Pd158  1  0.20107284  0.80995126  0.20557548  1
  Pd  Pd159  1  0.80735835  0.00198597  0.80135069  1
  Pd  Pd160  1  0.80733231  0.59305224  0.39865985  1
  Pd  Pd161  1  0.19961650  0.59075725  0.60247937  1
  Pd  Pd162  1  0.39674109  -0.00016006  0.60479599  1
  Pd  Pd163  1  0.60551562  0.01108189  0.19045509  1
  Pd  Pd164  1  0.80453846  0.20096205  0.39396330  1
  Pd  Pd165  1  0.21062130  0.20366409  0.39791968  1
  Pd  Pd166  1  0.19499663  0.40192185  0.79407376  1
  Pd  Pd167  1  0.39911724  0.40809848  0.19427581  1
  Pd  Pd168  1  0.79571930  0.80904438  0.40313940  1
  Pd  Pd169  1  0.00384141  -0.00260605  0.00752217  1
  Pd  Pd170  1  0.60097068  -0.00878973  0.80450758  1
  Pd  Pd171  1  0.20372664  0.39184430  0.01025739  1
  Pd  Pd172  1  0.19411082  0.20490376  0.01170556  1
  Pd  Pd173  1  0.20164004  0.59510813  0.20887228  1
  Pd  Pd174  1  -0.00957470  0.60072498  -0.00263839  1
  Pd  Pd175  1  0.40785890  0.39759807  0.39740345  1
  Pd  Pd176  1  0.00799957  0.20643845  0.20493282  1
  Pd  Pd177  1  0.40318596  0.18953177  -0.00604000  1
  Pd  Pd178  1  0.00833706  0.00913641  0.60046419  1
  Pd  Pd179  1  -0.00643837  0.79962675  0.20167744  1
  Pd  Pd180  1  0.81112580  0.19850631  0.59297704  1
  Pd  Pd181  1  0.80695951  0.20178516  0.80172149  1
  Pd  Pd182  1  0.59173427  0.79177598  0.20380271  1
  Pd  Pd183  1  0.01049687  0.60567319  0.81630332  1
  Pd  Pd184  1  0.60850579  0.19254600  0.19243359  1
  Pd  Pd185  1  0.79788699  0.39304851  0.00010762  1
  Pd  Pd186  1  0.59137032  0.20875230  0.39855707  1
  Pd  Pd187  1  0.79451804  0.19902907  0.21218858  1
  Pd  Pd188  1  0.79807939  0.01069539  0.20753533  1
  Pd  Pd189  1  0.20107301  0.80267307  0.59152074  1
  Pd  Pd190  1  0.00485445  0.39484593  0.20875275  1
  Pd  Pd191  1  0.60779595  0.60566847  0.61034829  1
  Pd  Pd192  1  -0.00970907  0.59685235  0.20580732  1
  Pd  Pd193  1  0.40396866  0.80822704  0.20537462  1
  Pd  Pd194  1  0.80718806  0.59798473  0.01054618  1
  Pd  Pd195  1  -0.00232428  -0.00493105  0.80156644  1
  Pd  Pd196  1  0.60157496  0.80717676  0.00482311  1
  Pd  Pd197  1  0.59355311  0.21142271  0.80358543  1
  Pd  Pd198  1  0.60028991  0.40347557  0.19440360  1
  Pd  Pd199  1  -0.00259389  0.80268826  0.60404102  1
  Rh  Rh200  1  0.40957500  0.80200758  0.58045593  1
  Rh  Rh201  1  0.39625581  0.20223474  0.59842938  1
  Rh  Rh202  1  0.79997824  -0.00037999  0.38921310  1
  Rh  Rh203  1  0.40658768  0.79917741  0.80688238  1
  Rh  Rh204  1  -0.00313231  0.59606393  0.59188988  1
  Rh  Rh205  1  0.60959464  -0.00079518  0.59537042  1
  Rh  Rh206  1  0.20565995  0.79347687  0.00913892  1
  Rh  Rh207  1  0.39113147  0.59240455  0.60244908  1
  Rh  Rh208  1  0.39068557  0.40405196  0.59675956  1
  Rh  Rh209  1  -0.00933929  0.19525065  0.79753442  1
  Rh  Rh210  1  0.80000375  0.40034964  0.39737186  1
  Rh  Rh211  1  0.80232170  0.79341055  0.19664831  1
  Rh  Rh212  1  0.40068804  0.60431273  0.40032759  1
  Rh  Rh213  1  0.40634926  0.00270052  -0.00289634  1
  Rh  Rh214  1  0.58872545  0.60667131  0.38569311  1
  Rh  Rh215  1  -0.00014122  0.40540275  0.80897056  1
  Rh  Rh216  1  0.79644781  -0.00074303  0.00360354  1
  Rh  Rh217  1  0.60748497  0.38879351  0.00706859  1
  Rh  Rh218  1  0.60053249  0.39564698  0.59199212  1
  Rh  Rh219  1  0.20059316  -0.00702512  0.39471253  1
  Rh  Rh220  1  0.00334775  0.80412792  0.39327820  1
  Rh  Rh221  1  0.40600857  0.39890613  0.79758823  1
  Rh  Rh222  1  0.39443461  0.40820474  0.01079537  1
  Rh  Rh223  1  0.39388316  -0.00171791  0.19741496  1
  Rh  Rh224  1  -0.00394641  0.79714060  -0.00415758  1
  Rh  Rh225  1  0.60418249  -0.00637238  0.39529203  1
  Rh  Rh226  1  0.59300206  0.59923164  0.00086724  1
  Rh  Rh227  1  -0.00179525  0.20590918  -0.00016311  1
  Rh  Rh228  1  -0.00762678  0.20108861  0.40756398  1
  Rh  Rh229  1  0.21013527  0.20682725  0.79401961  1
  Rh  Rh230  1  0.00028513  -0.00040684  0.19536042  1
  Rh  Rh231  1  0.00637429  0.39438994  0.59661171  1
  Rh  Rh232  1  0.39106735  0.20140380  0.20976450  1
  Rh  Rh233  1  -0.00396862  0.39776172  0.00010098  1
  Rh  Rh234  1  0.18805331  0.00019178  0.01174840  1
  Rh  Rh235  1  -0.01087476  -0.00061915  0.39220297  1
  Rh  Rh236  1  0.60453631  0.20175414  0.59730187  1
  Rh  Rh237  1  0.40806966  0.00306630  0.39640115  1
  Rh  Rh238  1  0.19302014  0.39572312  0.19965219  1
  Rh  Rh239  1  -0.00326867  0.59460039  0.39317356  1
  Rh  Rh240  1  0.80112521  -0.00147682  0.59857318  1
  Rh  Rh241  1  0.19687190  0.40483206  0.40723058  1
  Rh  Rh242  1  0.80032794  0.80294682  0.01313148  1
  Rh  Rh243  1  0.21495561  -0.01715826  0.78901277  1
  Rh  Rh244  1  0.80417223  0.80413468  0.78976953  1
  Rh  Rh245  1  0.20300080  0.60674242  0.39847051  1
  Rh  Rh246  1  0.79758852  0.40208426  0.20451669  1
  Rh  Rh247  1  0.79691125  0.40231247  0.80031647  1
  Rh  Rh248  1  0.40306268  0.58853396  0.19354296  1
  Rh  Rh249  1  0.79500825  0.40793173  0.58863468  1
