# generated using pymatgen
data_ZrScNbPdRh
_symmetry_space_group_name_H-M   'P 1'
_cell_length_a   16.56253763
_cell_length_b   16.56317246
_cell_length_c   16.55851589
_cell_angle_alpha   89.99398577
_cell_angle_beta   89.98473194
_cell_angle_gamma   90.04338411
_symmetry_Int_Tables_number   1
_chemical_formula_structural   ZrScNbPdRh
_chemical_formula_sum   'Zr50 Sc50 Nb50 Pd50 Rh50'
_cell_volume   4542.46582807
_cell_formula_units_Z   50
loop_
 _symmetry_equiv_pos_site_id
 _symmetry_equiv_pos_as_xyz
  1  'x, y, z'
loop_
 _atom_site_type_symbol
 _atom_site_label
 _atom_site_symmetry_multiplicity
 _atom_site_fract_x
 _atom_site_fract_y
 _atom_site_fract_z
 _atom_site_occupancy
  Zr  Zr0  1  0.30257975  0.70074561  0.89015415  1
  Zr  Zr1  1  0.69505465  0.90641391  0.09931723  1
  Zr  Zr2  1  0.29977889  0.90867517  0.30099746  1
  Zr  Zr3  1  0.09510007  0.89817065  0.49869214  1
  Zr  Zr4  1  0.30082473  0.69267029  0.51051658  1
  Zr  Zr5  1  0.89374498  0.10359771  0.30339748  1
  Zr  Zr6  1  0.30410184  0.30666619  0.09075868  1
  Zr  Zr7  1  0.09869358  0.70006443  0.30630151  1
  Zr  Zr8  1  0.69529994  0.89678260  0.30703574  1
  Zr  Zr9  1  0.50550328  0.50473618  0.89014806  1
  Zr  Zr10  1  0.50068031  0.49159030  0.50012724  1
  Zr  Zr11  1  0.10116508  0.89906520  0.69716487  1
  Zr  Zr12  1  0.90120454  0.29555535  0.29921220  1
  Zr  Zr13  1  0.50316093  0.09031093  0.09428340  1
  Zr  Zr14  1  0.89642777  0.30207945  0.70139767  1
  Zr  Zr15  1  0.89180770  0.69757509  0.09735612  1
  Zr  Zr16  1  0.89784012  0.30555371  0.89888307  1
  Zr  Zr17  1  0.29969400  0.89822893  0.70455546  1
  Zr  Zr18  1  0.30326999  0.09883389  0.89428303  1
  Zr  Zr19  1  0.89573291  0.89143606  0.09965343  1
  Zr  Zr20  1  0.88800965  0.09866048  0.10518403  1
  Zr  Zr21  1  0.30072147  0.10968741  0.49644481  1
  Zr  Zr22  1  0.10707791  0.91529416  0.89464845  1
  Zr  Zr23  1  0.89943085  0.10080662  0.70736713  1
  Zr  Zr24  1  0.50099585  0.90001009  0.49554582  1
  Zr  Zr25  1  0.29837978  0.49274853  0.50260090  1
  Zr  Zr26  1  0.49591736  0.89651633  0.30264596  1
  Zr  Zr27  1  0.50005939  0.49852020  0.29439924  1
  Zr  Zr28  1  0.69667459  0.69865371  0.09473922  1
  Zr  Zr29  1  0.70118493  0.71276188  0.50197418  1
  Zr  Zr30  1  0.10070395  0.29693016  0.10207212  1
  Zr  Zr31  1  0.70334090  0.50621818  0.29911363  1
  Zr  Zr32  1  0.90181232  0.89932548  0.90239810  1
  Zr  Zr33  1  0.09771870  0.89985174  0.30919729  1
  Zr  Zr34  1  0.10318921  0.30146054  0.50855944  1
  Zr  Zr35  1  0.89703767  0.09744625  0.51022844  1
  Zr  Zr36  1  0.09972042  0.09246506  0.49593676  1
  Zr  Zr37  1  0.50031683  0.89917750  0.69870818  1
  Zr  Zr38  1  0.88956037  0.49881283  0.70254079  1
  Zr  Zr39  1  0.30292255  0.90374620  0.90099598  1
  Zr  Zr40  1  0.10398520  0.51047844  0.30839526  1
  Zr  Zr41  1  0.90937100  0.50500960  0.89904541  1
  Zr  Zr42  1  0.10627754  0.70010896  0.69901845  1
  Zr  Zr43  1  0.50060527  0.71288839  0.50568455  1
  Zr  Zr44  1  0.29928099  0.70077787  0.09498923  1
  Zr  Zr45  1  0.29827550  0.30268188  0.88887230  1
  Zr  Zr46  1  0.70430967  0.69529588  0.30051305  1
  Zr  Zr47  1  0.49310150  0.70125288  0.70233160  1
  Zr  Zr48  1  0.29146812  0.49827801  0.90326940  1
  Zr  Zr49  1  0.30406756  0.49978281  0.10094212  1
  Sc  Sc50  1  0.89772611  0.70273294  0.50176926  1
  Sc  Sc51  1  0.89641594  0.70324693  0.30528862  1
  Sc  Sc52  1  0.09570911  0.09503839  0.70712474  1
  Sc  Sc53  1  0.71258987  0.49828453  0.50011402  1
  Sc  Sc54  1  0.29981176  0.29153519  0.30167246  1
  Sc  Sc55  1  0.49550712  0.10325042  0.50196246  1
  Sc  Sc56  1  0.30636183  0.10205489  0.69344740  1
  Sc  Sc57  1  0.89774707  0.90067908  0.69761228  1
  Sc  Sc58  1  0.49832681  0.08947336  0.30069719  1
  Sc  Sc59  1  0.90354508  0.89260717  0.50502001  1
  Sc  Sc60  1  0.50094599  0.30208201  0.30655660  1
  Sc  Sc61  1  0.70019108  0.10011113  0.29447601  1
  Sc  Sc62  1  0.30216221  0.50434702  0.29702449  1
  Sc  Sc63  1  0.30520640  0.90681354  0.50227077  1
  Sc  Sc64  1  0.50221908  0.50368986  0.10084493  1
  Sc  Sc65  1  0.89454571  0.69898527  0.90354407  1
  Sc  Sc66  1  0.48969243  0.30405943  0.89889052  1
  Sc  Sc67  1  0.70419227  0.70122833  0.70560743  1
  Sc  Sc68  1  0.10101173  0.30709781  0.70247972  1
  Sc  Sc69  1  0.10332518  0.28551840  0.29899599  1
  Sc  Sc70  1  0.50422325  0.30791617  0.69815139  1
  Sc  Sc71  1  0.10690799  0.50412883  0.08124127  1
  Sc  Sc72  1  0.69849526  0.50086033  0.89899632  1
  Sc  Sc73  1  0.50849383  0.71061787  0.89721416  1
  Sc  Sc74  1  0.29119134  0.69761138  0.29585783  1
  Sc  Sc75  1  0.29731441  0.09125274  0.09746165  1
  Sc  Sc76  1  0.89938806  0.29766007  0.10038532  1
  Sc  Sc77  1  0.69431736  0.28922512  0.50143980  1
  Sc  Sc78  1  0.70660398  0.31108395  0.08691364  1
  Sc  Sc79  1  0.49489336  0.29676795  0.50168824  1
  Sc  Sc80  1  0.89476598  0.70142709  0.70384445  1
  Sc  Sc81  1  0.70105833  0.51181612  0.09204576  1
  Sc  Sc82  1  0.70533228  0.89757512  0.70090765  1
  Sc  Sc83  1  0.90019616  0.30793688  0.50484710  1
  Sc  Sc84  1  0.49479308  0.89748553  0.09279664  1
  Sc  Sc85  1  0.10940276  0.09713332  0.10909859  1
  Sc  Sc86  1  0.70855133  0.28951431  0.30711611  1
  Sc  Sc87  1  0.69273101  0.89683237  0.89912166  1
  Sc  Sc88  1  0.49205288  0.31159434  0.09502516  1
  Sc  Sc89  1  0.09682295  0.49928810  0.50279462  1
  Sc  Sc90  1  0.29741363  0.89824707  0.09416166  1
  Sc  Sc91  1  0.89771767  0.50762051  0.32036595  1
  Sc  Sc92  1  0.10139660  0.68062652  0.89746448  1
  Sc  Sc93  1  0.70855169  0.09892481  0.69757532  1
  Sc  Sc94  1  0.10429023  0.89601648  0.09818262  1
  Sc  Sc95  1  0.10388668  0.70194828  0.10213800  1
  Sc  Sc96  1  0.09937440  0.69882952  0.49810991  1
  Sc  Sc97  1  0.49794203  0.09529307  0.70106982  1
  Sc  Sc98  1  0.11012467  0.09413871  0.30229551  1
  Sc  Sc99  1  0.30292477  0.50560673  0.69688690  1
  Nb  Nb100  1  0.89810742  0.49840156  0.09774604  1
  Nb  Nb101  1  0.90360357  0.09955333  0.89599939  1
  Nb  Nb102  1  0.69790871  0.30593531  0.71137357  1
  Nb  Nb103  1  0.30184931  0.70423669  0.70029679  1
  Nb  Nb104  1  0.69766800  0.89840852  0.50200204  1
  Nb  Nb105  1  0.29578222  0.29930752  0.50917007  1
  Nb  Nb106  1  0.50377743  0.69840103  0.10003072  1
  Nb  Nb107  1  0.29764448  0.29883532  0.68402507  1
  Nb  Nb108  1  0.09003485  0.50416730  0.71132954  1
  Nb  Nb109  1  0.69072426  0.49846283  0.70513132  1
  Nb  Nb110  1  0.90571510  0.50060918  0.50702149  1
  Nb  Nb111  1  0.50190952  0.69764345  0.29913737  1
  Nb  Nb112  1  0.69653105  0.09922604  0.09855542  1
  Nb  Nb113  1  0.90158393  0.89984214  0.30534342  1
  Nb  Nb114  1  0.69946897  0.69577399  0.90747514  1
  Nb  Nb115  1  0.51607221  0.50308728  0.70306920  1
  Nb  Nb116  1  0.69892841  0.29790302  0.90053490  1
  Nb  Nb117  1  0.50392620  0.09359234  0.89539539  1
  Nb  Nb118  1  0.50272440  0.91401216  0.89281386  1
  Nb  Nb119  1  0.70294019  0.09664942  0.50082714  1
  Nb  Nb120  1  0.29412498  0.10186175  0.29539710  1
  Nb  Nb121  1  0.10265179  0.30624984  0.89994493  1
  Nb  Nb122  1  0.69512636  0.09511261  0.90075204  1
  Nb  Nb123  1  0.10033364  0.49134054  0.88816941  1
  Nb  Nb124  1  0.09932209  0.10204603  0.89795225  1
  Nb  Nb125  1  0.40728896  0.60280185  0.40198432  1
  Nb  Nb126  1  0.60899603  0.39805115  0.20140628  1
  Nb  Nb127  1  0.20130541  0.39468752  0.40124736  1
  Nb  Nb128  1  0.60117354  0.59737543  0.60172119  1
  Nb  Nb129  1  -0.00124357  0.19624527  0.40636954  1
  Nb  Nb130  1  0.60589695  -0.00200386  0.59353118  1
  Nb  Nb131  1  -0.00232930  0.00778475  0.00204503  1
  Nb  Nb132  1  0.59595458  0.60267295  0.40589324  1
  Nb  Nb133  1  0.00529175  0.80122071  0.80184753  1
  Nb  Nb134  1  0.79642931  0.19204694  -0.00905982  1
  Nb  Nb135  1  -0.00394314  0.59353649  0.19752003  1
  Nb  Nb136  1  0.80468816  0.40669909  0.20085522  1
  Nb  Nb137  1  0.60449558  0.19928219  0.80666231  1
  Nb  Nb138  1  0.40291788  0.19569418  0.19649075  1
  Nb  Nb139  1  0.60152099  0.19596785  -0.00421251  1
  Nb  Nb140  1  -0.00655324  -0.00609037  0.20082786  1
  Nb  Nb141  1  -0.00508509  0.59476636  0.60572427  1
  Nb  Nb142  1  0.59813719  0.20366418  0.18872492  1
  Nb  Nb143  1  0.40383372  0.60620380  -0.00240309  1
  Nb  Nb144  1  0.19525662  0.40137092  0.20216947  1
  Nb  Nb145  1  0.00036180  0.19384831  -0.00707388  1
  Nb  Nb146  1  0.00030658  0.41074468  0.20152618  1
  Nb  Nb147  1  0.59468196  0.79398715  0.19978759  1
  Nb  Nb148  1  0.19520680  0.20174367  -0.01033921  1
  Nb  Nb149  1  0.79794134  -0.00292301  0.40644203  1
  Pd  Pd150  1  0.00840304  0.39167083  0.39477467  1
  Pd  Pd151  1  0.19883299  0.19891296  0.79462310  1
  Pd  Pd152  1  -0.00014786  0.79681125  0.20354884  1
  Pd  Pd153  1  0.80352383  0.79942000  0.80710676  1
  Pd  Pd154  1  0.00365142  0.19992748  0.60113472  1
  Pd  Pd155  1  0.38802137  0.79142258  0.39755674  1
  Pd  Pd156  1  0.19229811  0.79486895  -0.01101548  1
  Pd  Pd157  1  0.00095569  0.60393570  0.00474552  1
  Pd  Pd158  1  0.19112106  0.59197846  0.60431147  1
  Pd  Pd159  1  0.79618721  -0.00399270  0.80375223  1
  Pd  Pd160  1  0.20774577  0.80090824  0.40808650  1
  Pd  Pd161  1  0.19340043  0.79779404  0.80759733  1
  Pd  Pd162  1  0.01049047  0.80116575  -0.00891841  1
  Pd  Pd163  1  0.39666917  0.40404006  0.78999313  1
  Pd  Pd164  1  0.40252965  0.19740531  0.39315935  1
  Pd  Pd165  1  0.40805930  0.20342953  0.79019258  1
  Pd  Pd166  1  0.80099804  0.00031174  -0.00725844  1
  Pd  Pd167  1  0.79239664  0.80031054  0.20191058  1
  Pd  Pd168  1  0.40015781  0.19273157  0.00242891  1
  Pd  Pd169  1  0.79555784  0.20842108  0.60144918  1
  Pd  Pd170  1  0.79559418  0.40776113  0.80762083  1
  Pd  Pd171  1  0.00524465  0.20901787  0.80082063  1
  Pd  Pd172  1  0.20425923  0.80359394  0.59195766  1
  Pd  Pd173  1  0.38984518  0.39898927  0.39475563  1
  Pd  Pd174  1  0.40940676  0.59455450  0.59912880  1
  Pd  Pd175  1  0.79376124  0.19821394  0.80352758  1
  Pd  Pd176  1  0.40749709  0.79903051  -0.00798050  1
  Pd  Pd177  1  0.39836464  0.60732552  0.19829218  1
  Pd  Pd178  1  0.79929836  -0.00655767  0.21019970  1
  Pd  Pd179  1  0.59573106  0.40013602  0.00030961  1
  Pd  Pd180  1  0.19176307  0.19072746  0.60887054  1
  Pd  Pd181  1  0.60382044  0.79911636  0.79780477  1
  Pd  Pd182  1  0.20156926  0.80453313  0.20189995  1
  Pd  Pd183  1  0.00316759  0.18882489  0.20255042  1
  Pd  Pd184  1  0.20345217  0.00466141  0.60157839  1
  Pd  Pd185  1  0.59562282  0.19168557  0.39206998  1
  Pd  Pd186  1  0.79761745  0.60226759  0.60059443  1
  Pd  Pd187  1  0.20540434  0.40398012  0.78585123  1
  Pd  Pd188  1  0.60297184  0.00829694  0.40391871  1
  Pd  Pd189  1  0.79903354  0.39514571  0.40099814  1
  Pd  Pd190  1  0.39862281  0.00171389  0.19601965  1
  Pd  Pd191  1  0.59929585  0.19267394  0.61122796  1
  Pd  Pd192  1  0.00161245  0.39633621  0.00386425  1
  Pd  Pd193  1  0.60942285  0.40089693  0.59327670  1
  Pd  Pd194  1  0.79001469  0.39365781  0.59929856  1
  Pd  Pd195  1  -0.00275830  -0.00289553  0.60555964  1
  Pd  Pd196  1  0.39922940  0.59766537  0.80155166  1
  Pd  Pd197  1  0.40456540  0.40018985  0.60848673  1
  Pd  Pd198  1  0.61020938  0.40066622  0.39735766  1
  Pd  Pd199  1  0.40033739  0.79743063  0.20099784  1
  Rh  Rh200  1  -0.01081466  0.00641494  0.39428949  1
  Rh  Rh201  1  0.78936257  0.80114272  -0.00426718  1
  Rh  Rh202  1  0.59820385  0.39068311  0.80785014  1
  Rh  Rh203  1  0.59998966  0.59986066  0.20413756  1
  Rh  Rh204  1  0.59239805  0.60262266  -0.00701956  1
  Rh  Rh205  1  0.20881699  0.00052172  0.40301343  1
  Rh  Rh206  1  0.20666562  0.60383741  -0.00218300  1
  Rh  Rh207  1  -0.00607138  0.60665637  0.40884502  1
  Rh  Rh208  1  0.79835649  0.60455848  0.41262830  1
  Rh  Rh209  1  0.19533944  0.00860188  0.00065877  1
  Rh  Rh210  1  0.81180973  0.59417471  0.19984091  1
  Rh  Rh211  1  0.39781003  0.38762055  0.20808321  1
  Rh  Rh212  1  0.80434118  0.80776631  0.40288971  1
  Rh  Rh213  1  0.59634425  -0.00588343  0.20082893  1
  Rh  Rh214  1  0.21246670  0.59484981  0.40713005  1
  Rh  Rh215  1  0.19482633  0.20350153  0.40721721  1
  Rh  Rh216  1  0.20801876  0.00926356  0.79158221  1
  Rh  Rh217  1  0.21775338  0.20665084  0.18653984  1
  Rh  Rh218  1  0.80713127  0.19470732  0.41370227  1
  Rh  Rh219  1  -0.00517925  -0.00744390  0.80165091  1
  Rh  Rh220  1  0.80095209  0.80256993  0.60200387  1
  Rh  Rh221  1  0.19561226  0.40620505  0.60318055  1
  Rh  Rh222  1  0.19033773  0.59368301  0.19269948  1
  Rh  Rh223  1  0.60551202  0.00502076  0.78731909  1
  Rh  Rh224  1  0.39730386  -0.00098761  0.79727425  1
  Rh  Rh225  1  0.39284976  0.80611077  0.60282054  1
  Rh  Rh226  1  0.79392950  0.59883649  0.80611505  1
  Rh  Rh227  1  0.19637103  0.39448697  0.00103459  1
  Rh  Rh228  1  0.80075270  0.59526625  -0.00732772  1
  Rh  Rh229  1  0.60050769  0.79228424  0.39193480  1
  Rh  Rh230  1  0.40605767  0.20637643  0.60366363  1
  Rh  Rh231  1  0.40218834  0.80688172  0.80236610  1
  Rh  Rh232  1  0.40698805  0.41847177  -0.01026042  1
  Rh  Rh233  1  0.80443776  0.40370254  -0.00226430  1
  Rh  Rh234  1  0.39365864  0.00875784  0.40130884  1
  Rh  Rh235  1  -0.00096598  0.78920393  0.60979597  1
  Rh  Rh236  1  0.79603087  -0.00589108  0.59515708  1
  Rh  Rh237  1  -0.00540939  0.60823291  0.79458399  1
  Rh  Rh238  1  -0.00056885  0.40832795  0.61016737  1
  Rh  Rh239  1  0.78361943  0.21307615  0.18454163  1
  Rh  Rh240  1  0.20559813  0.59431680  0.79414958  1
  Rh  Rh241  1  0.59804818  0.80485417  0.00241238  1
  Rh  Rh242  1  0.39950760  -0.00167118  -0.00461601  1
  Rh  Rh243  1  -0.00237575  0.79514514  0.40201271  1
  Rh  Rh244  1  0.60784836  0.61054917  0.79593338  1
  Rh  Rh245  1  0.19469523  -0.01018687  0.20141541  1
  Rh  Rh246  1  0.40827825  -0.00126130  0.59723998  1
  Rh  Rh247  1  0.59869324  -0.00370016  -0.00388314  1
  Rh  Rh248  1  0.60386368  0.80257761  0.61126419  1
  Rh  Rh249  1  -0.00328270  0.39528840  0.79657497  1
