# generated using pymatgen
data_ZrScNbPdRh
_symmetry_space_group_name_H-M   'P 1'
_cell_length_a   16.55907031
_cell_length_b   16.56312186
_cell_length_c   16.56078005
_cell_angle_alpha   90.03092531
_cell_angle_beta   90.00822258
_cell_angle_gamma   89.99794166
_symmetry_Int_Tables_number   1
_chemical_formula_structural   ZrScNbPdRh
_chemical_formula_sum   'Zr50 Sc50 Nb50 Pd50 Rh50'
_cell_volume   4542.12276852
_cell_formula_units_Z   50
loop_
 _symmetry_equiv_pos_site_id
 _symmetry_equiv_pos_as_xyz
  1  'x, y, z'
loop_
 _atom_site_type_symbol
 _atom_site_label
 _atom_site_symmetry_multiplicity
 _atom_site_fract_x
 _atom_site_fract_y
 _atom_site_fract_z
 _atom_site_occupancy
  Zr  Zr0  1  0.70269002  0.50669719  0.29204995  1
  Zr  Zr1  1  0.29919402  0.49828618  0.90012123  1
  Zr  Zr2  1  0.89557225  0.69603643  0.89949159  1
  Zr  Zr3  1  0.29070257  0.70383887  0.50381960  1
  Zr  Zr4  1  0.10991803  0.69372929  0.10020959  1
  Zr  Zr5  1  0.30230086  0.30070912  0.08980869  1
  Zr  Zr6  1  0.10007154  0.70437848  0.29385797  1
  Zr  Zr7  1  0.09690348  0.50961414  0.29487597  1
  Zr  Zr8  1  0.69460785  0.49677945  0.50170120  1
  Zr  Zr9  1  0.10016755  0.50729690  0.50081606  1
  Zr  Zr10  1  0.09541665  0.29944228  0.49889221  1
  Zr  Zr11  1  0.30191970  0.10012054  0.10098735  1
  Zr  Zr12  1  0.10133343  0.30148213  0.09629054  1
  Zr  Zr13  1  0.50080013  0.10020048  0.70751288  1
  Zr  Zr14  1  0.69642350  0.69838894  0.70567264  1
  Zr  Zr15  1  0.70441915  0.29518298  0.50186531  1
  Zr  Zr16  1  0.09897614  0.70429665  0.69190853  1
  Zr  Zr17  1  0.10120589  0.69808112  0.89635907  1
  Zr  Zr18  1  0.70285198  0.90971066  0.69887105  1
  Zr  Zr19  1  0.29403605  0.70122143  0.90625886  1
  Zr  Zr20  1  0.30104211  0.29787118  0.30054603  1
  Zr  Zr21  1  0.09689737  0.90415752  0.11332256  1
  Zr  Zr22  1  0.29838667  0.69936609  0.70024863  1
  Zr  Zr23  1  0.91277737  0.89862388  0.69898679  1
  Zr  Zr24  1  0.29949046  0.30022139  0.70494367  1
  Zr  Zr25  1  0.49123606  0.71126125  0.49753481  1
  Zr  Zr26  1  0.69681358  0.90766713  0.10856845  1
  Zr  Zr27  1  0.90136997  0.49603637  0.70294834  1
  Zr  Zr28  1  0.51058603  0.90692522  0.71155997  1
  Zr  Zr29  1  0.10393226  0.09706260  0.69793123  1
  Zr  Zr30  1  0.90268467  0.29456902  0.50375434  1
  Zr  Zr31  1  0.49200684  0.70595399  0.29389605  1
  Zr  Zr32  1  0.50064590  0.90467392  0.29820028  1
  Zr  Zr33  1  0.09588663  0.49732029  0.70233312  1
  Zr  Zr34  1  0.50208277  0.29960796  0.48497016  1
  Zr  Zr35  1  0.49888927  0.29875080  0.70802567  1
  Zr  Zr36  1  0.70733454  0.70507034  0.29411813  1
  Zr  Zr37  1  0.69762210  0.69501487  0.90074005  1
  Zr  Zr38  1  0.49655350  0.49236415  0.09859360  1
  Zr  Zr39  1  0.49868940  0.09487663  0.49118105  1
  Zr  Zr40  1  0.49752461  0.09820564  0.90592546  1
  Zr  Zr41  1  0.90012788  0.89503140  0.29028630  1
  Zr  Zr42  1  0.09889636  0.29237960  0.30461639  1
  Zr  Zr43  1  0.69869902  0.09912520  0.70228579  1
  Zr  Zr44  1  0.89861496  0.90173252  0.50011093  1
  Zr  Zr45  1  0.29531043  0.49612990  0.49626452  1
  Zr  Zr46  1  0.90897595  0.90773425  0.89808741  1
  Zr  Zr47  1  0.29854999  0.49518475  0.69685946  1
  Zr  Zr48  1  0.90166606  0.49936511  0.89402472  1
  Zr  Zr49  1  0.69960928  0.90542674  0.49610585  1
  Sc  Sc50  1  0.69113309  0.28892875  0.29730073  1
  Sc  Sc51  1  0.29973307  0.70485399  0.29299674  1
  Sc  Sc52  1  0.70840520  0.69881208  0.09569272  1
  Sc  Sc53  1  0.89628374  0.09819716  0.69594907  1
  Sc  Sc54  1  0.29384314  0.90589235  0.29918626  1
  Sc  Sc55  1  0.90022553  0.10850243  0.49907190  1
  Sc  Sc56  1  0.50100393  0.49178800  0.50010125  1
  Sc  Sc57  1  0.89444452  0.29328903  0.09430538  1
  Sc  Sc58  1  0.89574021  0.31017390  0.89877103  1
  Sc  Sc59  1  0.30209837  0.89220459  0.50018493  1
  Sc  Sc60  1  0.29681437  0.49480977  0.29706775  1
  Sc  Sc61  1  0.29887613  0.29560506  0.90228276  1
  Sc  Sc62  1  0.89829997  0.70331054  0.09853766  1
  Sc  Sc63  1  0.69576362  0.70332683  0.49679126  1
  Sc  Sc64  1  0.30985587  0.89375718  0.09807121  1
  Sc  Sc65  1  0.30397679  0.10531571  0.90025285  1
  Sc  Sc66  1  0.29313992  0.10280940  0.71009896  1
  Sc  Sc67  1  0.69380349  0.90288152  0.89844443  1
  Sc  Sc68  1  0.29663111  0.49843913  0.10262844  1
  Sc  Sc69  1  0.89093360  0.09601376  0.10044876  1
  Sc  Sc70  1  0.89909458  0.90564085  0.10067207  1
  Sc  Sc71  1  0.50051913  0.09854018  0.10112430  1
  Sc  Sc72  1  0.89854732  0.30431525  0.69777596  1
  Sc  Sc73  1  0.70526232  0.10774133  0.90393562  1
  Sc  Sc74  1  0.70284395  0.30140564  0.90263161  1
  Sc  Sc75  1  0.10503532  0.08894994  0.89013453  1
  Sc  Sc76  1  0.49619367  0.29903510  0.90973997  1
  Sc  Sc77  1  0.10959898  0.90242152  0.51286762  1
  Sc  Sc78  1  0.69963189  0.09842061  0.29139443  1
  Sc  Sc79  1  0.70203092  0.90157042  0.29905614  1
  Sc  Sc80  1  0.90193770  0.50551755  0.09368611  1
  Sc  Sc81  1  0.10258620  0.30810126  0.90131048  1
  Sc  Sc82  1  0.10373726  0.10446444  0.50394444  1
  Sc  Sc83  1  0.69759021  0.10532448  0.09993624  1
  Sc  Sc84  1  0.10205802  0.49949982  0.09417836  1
  Sc  Sc85  1  0.09991128  0.09841626  0.10665540  1
  Sc  Sc86  1  0.49241425  0.48447068  0.29859815  1
  Sc  Sc87  1  0.29042710  0.30717122  0.49830663  1
  Sc  Sc88  1  0.69637624  0.49843323  0.09116645  1
  Sc  Sc89  1  0.89829586  0.10248142  0.29659768  1
  Sc  Sc90  1  0.11199183  0.09683073  0.29441385  1
  Sc  Sc91  1  0.90214625  0.69613721  0.28691538  1
  Sc  Sc92  1  0.50284538  0.69910642  0.70598889  1
  Sc  Sc93  1  0.49928354  0.49629366  0.70566694  1
  Sc  Sc94  1  0.91761748  0.69904459  0.50992330  1
  Sc  Sc95  1  0.09962465  0.29943885  0.69677265  1
  Sc  Sc96  1  0.91184278  0.69533549  0.70553417  1
  Sc  Sc97  1  0.89688080  0.28335664  0.30439407  1
  Sc  Sc98  1  0.69637568  0.49132599  0.70381637  1
  Sc  Sc99  1  0.70824847  0.09464513  0.50325182  1
  Nb  Nb100  1  0.90224705  0.10380570  0.90221666  1
  Nb  Nb101  1  0.69580076  0.29538468  0.10068718  1
  Nb  Nb102  1  0.48815649  0.11041153  0.29748650  1
  Nb  Nb103  1  0.10431116  0.69949352  0.50090547  1
  Nb  Nb104  1  0.09624689  0.90186191  0.29681294  1
  Nb  Nb105  1  0.49383883  0.90329016  0.90630569  1
  Nb  Nb106  1  0.10235700  0.89765340  0.89664948  1
  Nb  Nb107  1  0.50264225  0.70281835  0.89887025  1
  Nb  Nb108  1  0.70618399  0.50542540  0.89905159  1
  Nb  Nb109  1  0.69773958  0.29556118  0.70093824  1
  Nb  Nb110  1  0.50588226  0.29723272  0.10388269  1
  Nb  Nb111  1  0.50164429  0.89935311  0.09740381  1
  Nb  Nb112  1  0.29751484  0.90238269  0.90153331  1
  Nb  Nb113  1  0.48793484  0.70347161  0.10513168  1
  Nb  Nb114  1  0.90057659  0.49782125  0.50084988  1
  Nb  Nb115  1  0.49707870  0.28414507  0.29564117  1
  Nb  Nb116  1  0.31258222  0.09909419  0.30087744  1
  Nb  Nb117  1  0.89797613  0.50304478  0.29545004  1
  Nb  Nb118  1  0.30873661  0.69345234  0.10346577  1
  Nb  Nb119  1  0.50430830  0.50726047  0.90723841  1
  Nb  Nb120  1  0.10128937  0.90560012  0.71247258  1
  Nb  Nb121  1  0.30118544  0.09076687  0.50642210  1
  Nb  Nb122  1  0.29806586  0.89976722  0.70028359  1
  Nb  Nb123  1  0.50160821  0.90041486  0.50102551  1
  Nb  Nb124  1  0.09485177  0.49847952  0.90504652  1
  Nb  Nb125  1  -0.00141610  0.19438660  -0.00847471  1
  Nb  Nb126  1  0.59597974  0.19940641  0.60202570  1
  Nb  Nb127  1  0.00565740  -0.00611171  0.39530210  1
  Nb  Nb128  1  0.80321414  0.59546628  0.40611951  1
  Nb  Nb129  1  0.80092220  0.80063200  0.79789450  1
  Nb  Nb130  1  0.80455709  0.40297924  0.39574208  1
  Nb  Nb131  1  -0.00207201  0.19718278  0.80527964  1
  Nb  Nb132  1  0.40607071  0.60449052  -0.00083513  1
  Nb  Nb133  1  0.79825308  0.79648376  0.60489115  1
  Nb  Nb134  1  0.59118979  0.60355930  0.19840516  1
  Nb  Nb135  1  0.58804470  0.80030404  0.00279583  1
  Nb  Nb136  1  0.20091194  -0.00885196  -0.00240146  1
  Nb  Nb137  1  0.40028642  0.80623225  0.80948487  1
  Nb  Nb138  1  0.40110851  0.19567962  0.59749057  1
  Nb  Nb139  1  0.80187340  0.39706805  0.20272192  1
  Nb  Nb140  1  -0.00805432  0.40664370  0.39498039  1
  Nb  Nb141  1  0.40019585  -0.00055698  0.60186715  1
  Nb  Nb142  1  0.59633757  0.60221365  0.39219224  1
  Nb  Nb143  1  -0.00733819  0.39811258  0.20498455  1
  Nb  Nb144  1  0.39735468  0.60077620  0.59577956  1
  Nb  Nb145  1  0.40087770  0.60168954  0.40248516  1
  Nb  Nb146  1  0.60136421  0.80853510  0.60042159  1
  Nb  Nb147  1  0.80046326  0.59913849  0.59772550  1
  Nb  Nb148  1  0.00800863  0.80520659  -0.00316886  1
  Nb  Nb149  1  0.00918710  0.80342920  0.39937345  1
  Pd  Pd150  1  0.40423730  0.39673139  0.59587200  1
  Pd  Pd151  1  0.20844626  0.60348574  0.39065165  1
  Pd  Pd152  1  0.60092146  0.40088158  0.81245659  1
  Pd  Pd153  1  0.80759216  0.20565178  0.79877726  1
  Pd  Pd154  1  0.60175751  0.00657560  0.39039405  1
  Pd  Pd155  1  0.59911785  0.79978517  0.39971794  1
  Pd  Pd156  1  0.19792366  0.00120102  0.40203159  1
  Pd  Pd157  1  0.40159919  0.79639906  -0.00402696  1
  Pd  Pd158  1  0.19504809  0.80337699  0.39849491  1
  Pd  Pd159  1  0.60141203  0.20146825  0.80595727  1
  Pd  Pd160  1  0.79935703  0.40226935  0.60003552  1
  Pd  Pd161  1  0.60559118  0.39963147  0.20293986  1
  Pd  Pd162  1  0.39715166  0.39078840  0.19833451  1
  Pd  Pd163  1  0.20817105  0.80386658  0.19403306  1
  Pd  Pd164  1  -0.00590443  0.60600182  0.39753138  1
  Pd  Pd165  1  0.59378241  0.60766912  0.59346253  1
  Pd  Pd166  1  0.19426732  0.59613451  0.79833737  1
  Pd  Pd167  1  0.38603815  0.20365302  0.41026148  1
  Pd  Pd168  1  0.19713290  0.39768550  0.80297216  1
  Pd  Pd169  1  0.00942339  0.00323049  0.00301075  1
  Pd  Pd170  1  0.20348925  0.80227458  0.79571145  1
  Pd  Pd171  1  0.18912622  0.18735040  -0.00687764  1
  Pd  Pd172  1  0.59940867  0.59048206  0.79947081  1
  Pd  Pd173  1  0.60830922  0.18742500  0.40256702  1
  Pd  Pd174  1  0.39540482  -0.00923385  0.40360550  1
  Pd  Pd175  1  0.19175604  0.39915050  0.20181826  1
  Pd  Pd176  1  0.59395902  0.38955165  0.60321251  1
  Pd  Pd177  1  0.60196258  0.39651957  -0.00737738  1
  Pd  Pd178  1  0.39213432  -0.00167275  0.79854455  1
  Pd  Pd179  1  0.40196898  0.60419508  0.80097860  1
  Pd  Pd180  1  0.79370079  -0.00007428  -0.00184551  1
  Pd  Pd181  1  0.80849265  0.00614403  0.39361790  1
  Pd  Pd182  1  -0.00373186  0.20060898  0.19040929  1
  Pd  Pd183  1  0.40466661  0.39889729  0.81148741  1
  Pd  Pd184  1  0.19592119  0.80621268  0.01031906  1
  Pd  Pd185  1  0.20668567  0.19959161  0.20029474  1
  Pd  Pd186  1  0.80273959  -0.00118173  0.80377264  1
  Pd  Pd187  1  0.60538027  0.40072124  0.38684530  1
  Pd  Pd188  1  0.79944250  0.80990599  -0.00461914  1
  Pd  Pd189  1  -0.00096561  0.60677498  0.00189461  1
  Pd  Pd190  1  0.59487016  0.60966558  0.01021977  1
  Pd  Pd191  1  0.60297561  0.79567108  0.19182522  1
  Pd  Pd192  1  0.80042193  0.40182924  0.00650247  1
  Pd  Pd193  1  0.81603773  0.78507910  0.40908499  1
  Pd  Pd194  1  0.20711628  0.18916469  0.40201163  1
  Pd  Pd195  1  0.60417082  0.00008657  0.00020188  1
  Pd  Pd196  1  0.20810999  0.20235950  0.59936303  1
  Pd  Pd197  1  0.00119032  0.00529452  0.59226994  1
  Pd  Pd198  1  0.40805801  0.80456672  0.61416398  1
  Pd  Pd199  1  0.40188449  -0.00337149  0.19536335  1
  Rh  Rh200  1  0.00076631  0.59739099  0.18937102  1
  Rh  Rh201  1  0.39354322  0.00274646  0.00350834  1
  Rh  Rh202  1  0.39841642  0.39712561  0.39638058  1
  Rh  Rh203  1  0.79447328  0.20513212  0.19594151  1
  Rh  Rh204  1  0.19314493  0.39978659  0.60011361  1
  Rh  Rh205  1  -0.00275424  0.79814454  0.80719210  1
  Rh  Rh206  1  0.20231792  0.59655509  0.60482643  1
  Rh  Rh207  1  0.80245045  0.20211709  -0.00015465  1
  Rh  Rh208  1  0.39680467  0.20412917  0.80088605  1
  Rh  Rh209  1  0.79362730  0.19886766  0.60730825  1
  Rh  Rh210  1  0.20729643  -0.00318157  0.80340494  1
  Rh  Rh211  1  0.21049019  0.00019486  0.19523867  1
  Rh  Rh212  1  0.20806456  0.59345839  0.00098336  1
  Rh  Rh213  1  -0.00536981  0.00868404  0.20790344  1
  Rh  Rh214  1  0.00357519  0.40035472  0.59400035  1
  Rh  Rh215  1  0.79547917  0.59602221  0.19033514  1
  Rh  Rh216  1  0.80675761  -0.00194824  0.59873550  1
  Rh  Rh217  1  0.19504462  0.80628840  0.60743607  1
  Rh  Rh218  1  -0.00155336  0.00969175  0.79595187  1
  Rh  Rh219  1  0.39475841  0.80436498  0.39184595  1
  Rh  Rh220  1  0.20042175  0.40574943  -0.00296911  1
  Rh  Rh221  1  0.39757717  0.20532661  0.19152833  1
  Rh  Rh222  1  0.00682433  0.59719398  0.80091519  1
  Rh  Rh223  1  0.79409480  0.19975189  0.39839497  1
  Rh  Rh224  1  0.18692292  0.40225109  0.39456828  1
  Rh  Rh225  1  -0.00131883  0.19826963  0.61117268  1
  Rh  Rh226  1  0.59157787  0.00294390  0.59370939  1
  Rh  Rh227  1  -0.00117608  0.59513442  0.60379279  1
  Rh  Rh228  1  0.60412374  0.00923699  0.81712481  1
  Rh  Rh229  1  0.59189115  0.00638416  0.20381140  1
  Rh  Rh230  1  0.79832226  0.00069825  0.20085082  1
  Rh  Rh231  1  0.39864842  0.40488640  -0.00221008  1
  Rh  Rh232  1  0.60052524  0.80463590  0.80597051  1
  Rh  Rh233  1  0.80007214  0.80425745  0.19017052  1
  Rh  Rh234  1  0.79775235  0.59910270  0.79353317  1
  Rh  Rh235  1  0.79158163  0.40025866  0.79905123  1
  Rh  Rh236  1  0.19125916  0.20435737  0.80313435  1
  Rh  Rh237  1  0.40649764  0.20033853  0.00578283  1
  Rh  Rh238  1  -0.00132670  0.79499159  0.19414775  1
  Rh  Rh239  1  0.00711521  0.80579029  0.59655210  1
  Rh  Rh240  1  0.59949451  0.20340957  0.00407287  1
  Rh  Rh241  1  -0.00056630  0.39305641  0.00566294  1
  Rh  Rh242  1  0.00662857  0.18884061  0.39854426  1
  Rh  Rh243  1  0.80198698  0.59367638  -0.00034980  1
  Rh  Rh244  1  0.20803462  -0.00401498  0.60661604  1
  Rh  Rh245  1  0.59504786  0.19360357  0.19587440  1
  Rh  Rh246  1  0.20519305  0.59873934  0.19914307  1
  Rh  Rh247  1  0.40138385  0.59204243  0.20040051  1
  Rh  Rh248  1  0.39489867  0.81159265  0.20477552  1
  Rh  Rh249  1  0.00332179  0.39345660  0.80229375  1
