# generated using pymatgen
data_ZrScNbPdRh
_symmetry_space_group_name_H-M   'P 1'
_cell_length_a   16.56233097
_cell_length_b   16.56345964
_cell_length_c   16.55882040
_cell_angle_alpha   89.98078416
_cell_angle_beta   89.98216906
_cell_angle_gamma   89.94322289
_symmetry_Int_Tables_number   1
_chemical_formula_structural   ZrScNbPdRh
_chemical_formula_sum   'Zr50 Sc50 Nb50 Pd50 Rh50'
_cell_volume   4542.57022726
_cell_formula_units_Z   50
loop_
 _symmetry_equiv_pos_site_id
 _symmetry_equiv_pos_as_xyz
  1  'x, y, z'
loop_
 _atom_site_type_symbol
 _atom_site_label
 _atom_site_symmetry_multiplicity
 _atom_site_fract_x
 _atom_site_fract_y
 _atom_site_fract_z
 _atom_site_occupancy
  Zr  Zr0  1  0.50554371  0.48717848  0.70625030  1
  Zr  Zr1  1  0.09891056  0.10494551  0.70614081  1
  Zr  Zr2  1  0.90514875  0.89294892  0.29752089  1
  Zr  Zr3  1  0.70156061  0.10322747  0.08654254  1
  Zr  Zr4  1  0.50750487  0.89091315  0.10034901  1
  Zr  Zr5  1  0.90738643  0.50188198  0.50084207  1
  Zr  Zr6  1  0.69892799  0.30692215  0.50124967  1
  Zr  Zr7  1  0.50417664  0.30095041  0.70309671  1
  Zr  Zr8  1  0.70127579  0.10018585  0.29914069  1
  Zr  Zr9  1  0.08575857  0.50385389  0.69583210  1
  Zr  Zr10  1  0.88510653  0.29744289  0.29216604  1
  Zr  Zr11  1  0.49089232  0.30490504  0.50512548  1
  Zr  Zr12  1  0.30071455  0.90050482  0.90205049  1
  Zr  Zr13  1  0.70905788  0.50116226  0.50650204  1
  Zr  Zr14  1  0.30498391  0.49848406  0.49538913  1
  Zr  Zr15  1  0.09777991  0.30052553  0.50086341  1
  Zr  Zr16  1  0.48690176  0.70580447  0.69501741  1
  Zr  Zr17  1  0.89783619  0.10187694  0.29753888  1
  Zr  Zr18  1  0.09275841  0.69702761  0.69875800  1
  Zr  Zr19  1  0.70070782  0.70218189  0.49539938  1
  Zr  Zr20  1  0.90088445  0.90503209  0.09818283  1
  Zr  Zr21  1  0.50862485  0.69119927  0.30114591  1
  Zr  Zr22  1  0.50254612  0.90934857  0.69739817  1
  Zr  Zr23  1  0.10324907  0.30144789  0.08837650  1
  Zr  Zr24  1  0.29519759  0.50002906  0.09400656  1
  Zr  Zr25  1  0.89189837  0.50448445  0.70323736  1
  Zr  Zr26  1  0.70121262  0.89678927  0.49370995  1
  Zr  Zr27  1  0.29688835  0.09497452  0.89655814  1
  Zr  Zr28  1  0.08932668  0.30165360  0.70295476  1
  Zr  Zr29  1  0.50798313  0.09783193  0.90075557  1
  Zr  Zr30  1  0.29632613  0.69829121  0.10463598  1
  Zr  Zr31  1  0.30298573  0.90081226  0.70756902  1
  Zr  Zr32  1  0.30209302  0.89586520  0.30046399  1
  Zr  Zr33  1  0.50012555  0.50565526  0.29447408  1
  Zr  Zr34  1  0.88882742  0.10714300  0.69533229  1
  Zr  Zr35  1  0.50121722  0.30844396  0.09153930  1
  Zr  Zr36  1  0.50023896  0.09363304  0.30340814  1
  Zr  Zr37  1  0.09666434  0.10715968  0.50563687  1
  Zr  Zr38  1  0.29800118  0.29745932  0.30395173  1
  Zr  Zr39  1  0.09916414  0.09840038  0.29892008  1
  Zr  Zr40  1  0.30167566  0.69727545  0.30105196  1
  Zr  Zr41  1  0.30298938  0.11520128  0.50064653  1
  Zr  Zr42  1  0.30323031  0.69779212  0.89656401  1
  Zr  Zr43  1  0.30198789  0.09802380  0.30497296  1
  Zr  Zr44  1  0.50150271  0.31007877  0.89739071  1
  Zr  Zr45  1  0.09940939  0.49802793  0.90732149  1
  Zr  Zr46  1  0.89845020  0.88677486  0.70238183  1
  Zr  Zr47  1  0.08889749  0.50296258  0.29963493  1
  Zr  Zr48  1  0.09661707  0.89116409  0.50093344  1
  Zr  Zr49  1  0.89243722  0.30957108  0.09993097  1
  Sc  Sc50  1  0.30499673  0.89720938  0.50321804  1
  Sc  Sc51  1  0.49678040  0.31201956  0.30227075  1
  Sc  Sc52  1  0.70160964  0.69468143  0.90728183  1
  Sc  Sc53  1  0.29853192  0.50428519  0.90009593  1
  Sc  Sc54  1  0.51115584  0.69778924  0.09703459  1
  Sc  Sc55  1  0.29099682  0.09510225  0.09764867  1
  Sc  Sc56  1  0.49338921  0.50222947  0.10033571  1
  Sc  Sc57  1  0.89754707  0.70071136  0.88282129  1
  Sc  Sc58  1  0.71383797  0.51136588  0.09621096  1
  Sc  Sc59  1  0.49996611  0.09093484  0.49863731  1
  Sc  Sc60  1  0.30564743  0.89814231  0.10292606  1
  Sc  Sc61  1  0.89495414  0.30259097  0.70686464  1
  Sc  Sc62  1  0.10082374  0.89237671  0.30065549  1
  Sc  Sc63  1  0.89418502  0.30439181  0.89768586  1
  Sc  Sc64  1  0.89984395  0.69690492  0.30073964  1
  Sc  Sc65  1  0.10385979  0.90468059  0.89093692  1
  Sc  Sc66  1  0.70374135  0.69872424  0.29454011  1
  Sc  Sc67  1  0.31153060  0.50358816  0.29399521  1
  Sc  Sc68  1  0.89654556  0.50207673  0.29449664  1
  Sc  Sc69  1  0.30667857  0.69803049  0.51345689  1
  Sc  Sc70  1  0.69273696  0.90416106  0.90337617  1
  Sc  Sc71  1  0.89723259  0.29740759  0.49964478  1
  Sc  Sc72  1  0.29561131  0.30515747  0.90208377  1
  Sc  Sc73  1  0.29773858  0.70358961  0.70491032  1
  Sc  Sc74  1  0.50193341  0.49634203  0.49254624  1
  Sc  Sc75  1  0.09730767  0.10267702  0.09988270  1
  Sc  Sc76  1  0.90275928  0.09694009  0.09462707  1
  Sc  Sc77  1  0.09870721  0.89442944  0.69984373  1
  Sc  Sc78  1  0.50784371  0.90491560  0.30164150  1
  Sc  Sc79  1  0.69387953  0.90296816  0.69473315  1
  Sc  Sc80  1  0.31233040  0.29270977  0.69803142  1
  Sc  Sc81  1  0.71032765  0.09368291  0.50479713  1
  Sc  Sc82  1  0.09910378  0.90357104  0.10918591  1
  Sc  Sc83  1  0.89705348  0.69392696  0.10789322  1
  Sc  Sc84  1  0.70740599  0.49791551  0.89785389  1
  Sc  Sc85  1  0.10329110  0.10695431  0.90388644  1
  Sc  Sc86  1  0.09833174  0.69000045  0.89123614  1
  Sc  Sc87  1  0.09599133  0.29946896  0.90087237  1
  Sc  Sc88  1  0.49531879  0.89929051  0.90658904  1
  Sc  Sc89  1  0.89462736  0.70366039  0.50075960  1
  Sc  Sc90  1  0.71871467  0.70125046  0.69720212  1
  Sc  Sc91  1  0.09787648  0.70758147  0.30051215  1
  Sc  Sc92  1  0.09193685  0.28895373  0.29899772  1
  Sc  Sc93  1  0.51013110  0.90017844  0.50108570  1
  Sc  Sc94  1  0.30205166  0.51139403  0.70231915  1
  Sc  Sc95  1  0.89889694  0.49718826  0.90139137  1
  Sc  Sc96  1  0.49693555  0.49760056  0.90353504  1
  Sc  Sc97  1  0.09925486  0.68456978  0.10191804  1
  Sc  Sc98  1  0.50090990  0.09110460  0.09519841  1
  Sc  Sc99  1  0.70492496  0.50614446  0.30086428  1
  Nb  Nb100  1  0.50390168  0.70301317  0.89632781  1
  Nb  Nb101  1  0.50468013  0.70173128  0.49806571  1
  Nb  Nb102  1  0.50286315  0.10214415  0.69893629  1
  Nb  Nb103  1  0.09383397  0.49658143  0.09727976  1
  Nb  Nb104  1  0.09659798  0.49847652  0.50171283  1
  Nb  Nb105  1  0.89888266  0.90588772  0.50115226  1
  Nb  Nb106  1  0.89917874  0.09008510  0.50289842  1
  Nb  Nb107  1  0.30569754  0.09586323  0.70027751  1
  Nb  Nb108  1  0.10024259  0.69452571  0.50072269  1
  Nb  Nb109  1  0.70301182  0.29745823  0.29221660  1
  Nb  Nb110  1  0.69895710  0.29696010  0.90768839  1
  Nb  Nb111  1  0.89026113  0.08989273  0.90299228  1
  Nb  Nb112  1  0.70237666  0.10429165  0.89784897  1
  Nb  Nb113  1  0.70066843  0.70695468  0.10236169  1
  Nb  Nb114  1  0.70062701  0.30254101  0.70518453  1
  Nb  Nb115  1  0.70154025  0.30080980  0.09936771  1
  Nb  Nb116  1  0.69573021  0.10483458  0.70404790  1
  Nb  Nb117  1  0.69852478  0.49599178  0.69944184  1
  Nb  Nb118  1  0.29588166  0.30311801  0.49807786  1
  Nb  Nb119  1  0.69794820  0.89718816  0.29457070  1
  Nb  Nb120  1  0.89844969  0.90147366  0.90125460  1
  Nb  Nb121  1  0.90252548  0.69684534  0.70190038  1
  Nb  Nb122  1  0.91127706  0.49878255  0.10184700  1
  Nb  Nb123  1  0.30305446  0.30402780  0.10073336  1
  Nb  Nb124  1  0.69964283  0.88856684  0.10595296  1
  Nb  Nb125  1  -0.00269925  -0.00086924  0.40778237  1
  Nb  Nb126  1  0.19616772  0.40141044  0.19881863  1
  Nb  Nb127  1  0.19528752  0.79609956  -0.00024828  1
  Nb  Nb128  1  0.19507719  0.40234676  0.79038789  1
  Nb  Nb129  1  0.60640908  0.20064454  0.80100119  1
  Nb  Nb130  1  0.19569538  0.40347951  0.40005755  1
  Nb  Nb131  1  0.79404170  -0.00722720  0.19760428  1
  Nb  Nb132  1  0.39836293  0.20182735  0.00208489  1
  Nb  Nb133  1  0.40327935  0.20246188  0.19422486  1
  Nb  Nb134  1  0.60150675  0.59990811  0.60513333  1
  Nb  Nb135  1  0.19837188  0.40031087  0.59761701  1
  Nb  Nb136  1  0.79723428  0.00438812  0.80299254  1
  Nb  Nb137  1  0.60041568  0.60369582  0.79347986  1
  Nb  Nb138  1  0.20311167  0.00624532  0.60243225  1
  Nb  Nb139  1  0.19632796  0.00234697  0.40823165  1
  Nb  Nb140  1  0.59563111  0.79223498  0.80043213  1
  Nb  Nb141  1  0.60345656  0.20417353  0.39937263  1
  Nb  Nb142  1  0.40918815  0.79355558  0.40235055  1
  Nb  Nb143  1  0.19494115  0.59689544  0.40666865  1
  Nb  Nb144  1  -0.00139591  0.80107361  -0.00524900  1
  Nb  Nb145  1  0.80292495  0.80335870  0.00346367  1
  Nb  Nb146  1  -0.01283765  0.00272721  0.80154568  1
  Nb  Nb147  1  0.60983796  0.39760962  0.19630758  1
  Nb  Nb148  1  0.60195181  0.20014291  0.60412661  1
  Nb  Nb149  1  0.59941818  0.20690932  0.19914686  1
  Pd  Pd150  1  0.40713998  -0.00088729  0.80548113  1
  Pd  Pd151  1  0.20996598  0.79392277  0.40776728  1
  Pd  Pd152  1  0.41122215  0.79359988  0.20731834  1
  Pd  Pd153  1  0.41109900  0.20432420  0.39630672  1
  Pd  Pd154  1  -0.00428157  0.39330814  0.39337560  1
  Pd  Pd155  1  -0.00595509  0.79205265  0.59604913  1
  Pd  Pd156  1  0.00348468  0.39251803  0.20218898  1
  Pd  Pd157  1  0.79559868  -0.00650511  0.60919086  1
  Pd  Pd158  1  -0.00856739  0.60911366  -0.00477608  1
  Pd  Pd159  1  0.40811692  0.59599330  0.80242208  1
  Pd  Pd160  1  0.60433394  0.79203166  0.60775667  1
  Pd  Pd161  1  -0.00946674  0.20245019  -0.00341518  1
  Pd  Pd162  1  0.78622910  0.80636629  0.80826405  1
  Pd  Pd163  1  0.60672520  0.00426383  0.19295774  1
  Pd  Pd164  1  0.40426651  0.19844668  0.80936147  1
  Pd  Pd165  1  0.20347429  0.80235115  0.60184126  1
  Pd  Pd166  1  0.40319447  0.60531747  0.00233091  1
  Pd  Pd167  1  0.19619645  0.59300028  0.20887044  1
  Pd  Pd168  1  -0.00019005  0.60863380  0.40051724  1
  Pd  Pd169  1  0.39731819  0.00039336  0.59470597  1
  Pd  Pd170  1  0.19916370  0.59623155  0.59909758  1
  Pd  Pd171  1  0.19315909  -0.00812075  0.00328208  1
  Pd  Pd172  1  0.01168500  -0.00399479  -0.00756223  1
  Pd  Pd173  1  0.19935264  -0.00433564  0.20674196  1
  Pd  Pd174  1  0.60699877  0.59384970  0.40646893  1
  Pd  Pd175  1  0.80356957  0.40503885  0.39566408  1
  Pd  Pd176  1  0.19495030  0.79490099  0.80514924  1
  Pd  Pd177  1  0.79650947  0.19889754  0.40946762  1
  Pd  Pd178  1  0.80737352  0.39531808  0.60386955  1
  Pd  Pd179  1  0.20645141  0.20870199  0.79797589  1
  Pd  Pd180  1  0.00363900  0.79137439  0.18910436  1
  Pd  Pd181  1  0.81192892  0.60730916  -0.00229093  1
  Pd  Pd182  1  0.39575322  0.79351434  0.00266948  1
  Pd  Pd183  1  0.80278397  -0.00663543  0.39086813  1
  Pd  Pd184  1  0.00438915  -0.00146669  0.60665043  1
  Pd  Pd185  1  0.60080692  0.59530877  -0.00397187  1
  Pd  Pd186  1  0.80870500  0.20365033  -0.00017987  1
  Pd  Pd187  1  0.20506083  0.20397382  0.19420092  1
  Pd  Pd188  1  0.60472394  0.40123491  0.39219790  1
  Pd  Pd189  1  0.40003695  0.00323553  0.19426431  1
  Pd  Pd190  1  -0.00947932  0.19638859  0.40220413  1
  Pd  Pd191  1  -0.01145596  0.20544131  0.60101456  1
  Pd  Pd192  1  0.39286603  0.40558602  0.60691241  1
  Pd  Pd193  1  0.80247118  0.79892553  0.39509491  1
  Pd  Pd194  1  0.41178833  0.59030009  0.59663079  1
  Pd  Pd195  1  0.61041365  0.41496438  0.00538552  1
  Pd  Pd196  1  0.60349747  -0.00661362  0.00245820  1
  Pd  Pd197  1  0.20380213  0.20389593  0.61121222  1
  Pd  Pd198  1  -0.00484229  0.20284652  0.18870630  1
  Pd  Pd199  1  -0.01210985  0.19361484  0.81101056  1
  Rh  Rh200  1  0.20747634  0.19951013  -0.00096015  1
  Rh  Rh201  1  0.19717602  0.20093183  0.39881949  1
  Rh  Rh202  1  0.79521313  0.41098047  0.19472569  1
  Rh  Rh203  1  0.39825958  0.39807436  0.20114486  1
  Rh  Rh204  1  0.19580964  0.59342740  0.79762817  1
  Rh  Rh205  1  0.59798594  0.80197815  0.39227349  1
  Rh  Rh206  1  0.40435765  0.60586948  0.19047906  1
  Rh  Rh207  1  0.60795820  0.79721680  -0.00663461  1
  Rh  Rh208  1  -0.00548351  0.80085645  0.40657346  1
  Rh  Rh209  1  0.40633719  0.80762438  0.80106212  1
  Rh  Rh210  1  0.38563431  0.40494546  0.80006128  1
  Rh  Rh211  1  0.79709896  0.18978612  0.18926929  1
  Rh  Rh212  1  0.80315955  0.60000690  0.40066251  1
  Rh  Rh213  1  0.40901960  0.19634458  0.59987239  1
  Rh  Rh214  1  -0.00624323  0.39823010  -0.00211209  1
  Rh  Rh215  1  0.60936460  0.00310666  0.40454680  1
  Rh  Rh216  1  0.00185905  0.40399841  0.80500847  1
  Rh  Rh217  1  0.60229289  -0.00046784  0.79956291  1
  Rh  Rh218  1  -0.00416471  0.00371902  0.20868850  1
  Rh  Rh219  1  0.79445668  0.20525630  0.59689573  1
  Rh  Rh220  1  0.39708700  0.00532120  0.00151714  1
  Rh  Rh221  1  -0.00119737  0.60114662  0.20096007  1
  Rh  Rh222  1  0.80279141  0.60009223  0.19902717  1
  Rh  Rh223  1  0.80120672  0.60142677  0.60002393  1
  Rh  Rh224  1  0.19966861  0.60494245  -0.00291482  1
  Rh  Rh225  1  0.80238557  0.80330132  0.59747752  1
  Rh  Rh226  1  0.39428165  0.40088893  0.39399376  1
  Rh  Rh227  1  0.79975263  0.40278503  0.00139415  1
  Rh  Rh228  1  0.79575408  0.20046916  0.80565177  1
  Rh  Rh229  1  0.60423487  0.00872822  0.59537967  1
  Rh  Rh230  1  0.20089588  0.40190792  -0.00171738  1
  Rh  Rh231  1  0.19563892  0.79876586  0.18945767  1
  Rh  Rh232  1  0.19441708  0.00396831  0.79181921  1
  Rh  Rh233  1  0.59376065  0.20396375  -0.00256662  1
  Rh  Rh234  1  -0.00809202  0.60730953  0.59620758  1
  Rh  Rh235  1  0.79543105  0.59751312  0.79949118  1
  Rh  Rh236  1  0.39614436  0.60861867  0.40626433  1
  Rh  Rh237  1  0.60639502  0.59321330  0.19161284  1
  Rh  Rh238  1  0.40394246  0.80850392  0.59399593  1
  Rh  Rh239  1  0.79479768  0.39882806  0.80278840  1
  Rh  Rh240  1  0.61097669  0.40006332  0.80791926  1
  Rh  Rh241  1  -0.00545428  0.59484466  0.80265820  1
  Rh  Rh242  1  0.80169509  0.80054209  0.19831507  1
  Rh  Rh243  1  0.39280909  0.40003890  -0.00518097  1
  Rh  Rh244  1  0.59752421  0.79405788  0.20660470  1
  Rh  Rh245  1  0.39238372  -0.01277354  0.40238473  1
  Rh  Rh246  1  0.78956317  -0.00884486  0.00192458  1
  Rh  Rh247  1  -0.00582811  0.39674091  0.60141893  1
  Rh  Rh248  1  0.60177170  0.40098941  0.59835125  1
  Rh  Rh249  1  0.00436361  0.80440619  0.80460387  1
