# generated using pymatgen
data_ZrScNbPdRh
_symmetry_space_group_name_H-M   'P 1'
_cell_length_a   16.55587896
_cell_length_b   16.55376653
_cell_length_c   16.55488637
_cell_angle_alpha   89.99574256
_cell_angle_beta   89.98724253
_cell_angle_gamma   89.99299855
_symmetry_Int_Tables_number   1
_chemical_formula_structural   ZrScNbPdRh
_chemical_formula_sum   'Zr50 Sc50 Nb50 Pd50 Rh50'
_cell_volume   4537.06767429
_cell_formula_units_Z   50
loop_
 _symmetry_equiv_pos_site_id
 _symmetry_equiv_pos_as_xyz
  1  'x, y, z'
loop_
 _atom_site_type_symbol
 _atom_site_label
 _atom_site_symmetry_multiplicity
 _atom_site_fract_x
 _atom_site_fract_y
 _atom_site_fract_z
 _atom_site_occupancy
  Zr  Zr0  1  0.09170466  0.49209208  0.49201843  1
  Zr  Zr1  1  0.89596338  0.29853402  0.90513312  1
  Zr  Zr2  1  0.49674644  0.30015853  0.29895748  1
  Zr  Zr3  1  0.70732879  0.90477121  0.90175674  1
  Zr  Zr4  1  0.10268906  0.50084926  0.70227094  1
  Zr  Zr5  1  0.49976382  0.69979801  0.89978963  1
  Zr  Zr6  1  0.50200784  0.30825882  0.09686528  1
  Zr  Zr7  1  0.29718293  0.70570027  0.08741635  1
  Zr  Zr8  1  0.29212155  0.30552917  0.90327004  1
  Zr  Zr9  1  0.50111468  0.29560767  0.69009922  1
  Zr  Zr10  1  0.30481708  0.29433901  0.69807683  1
  Zr  Zr11  1  0.69770171  0.09697398  0.69045677  1
  Zr  Zr12  1  0.10280492  0.09828356  0.30448590  1
  Zr  Zr13  1  0.71028812  0.69757748  0.10606176  1
  Zr  Zr14  1  0.89813918  0.69758396  0.69925475  1
  Zr  Zr15  1  0.10354776  0.49684688  0.30265005  1
  Zr  Zr16  1  0.09067738  0.69956515  0.09134554  1
  Zr  Zr17  1  0.69736042  0.90447392  0.50877368  1
  Zr  Zr18  1  0.50158878  0.49990622  0.90405309  1
  Zr  Zr19  1  0.10272012  0.91270951  0.49665651  1
  Zr  Zr20  1  0.10182777  0.69859464  0.70083017  1
  Zr  Zr21  1  0.49943261  0.49778492  0.10139330  1
  Zr  Zr22  1  0.50224334  0.70152743  0.29653948  1
  Zr  Zr23  1  0.30144966  0.49579104  0.70452053  1
  Zr  Zr24  1  0.29785741  0.70421291  0.50201274  1
  Zr  Zr25  1  0.10132815  0.69521918  0.49778974  1
  Zr  Zr26  1  0.90000345  0.90049465  0.29575432  1
  Zr  Zr27  1  0.49360857  0.90433686  0.10095902  1
  Zr  Zr28  1  0.49595732  0.70625815  0.49716034  1
  Zr  Zr29  1  0.09768976  0.30067783  0.10277873  1
  Zr  Zr30  1  0.70346125  0.89514556  0.29570184  1
  Zr  Zr31  1  0.29837679  0.69095421  0.70282019  1
  Zr  Zr32  1  0.70450507  0.10324723  0.29185016  1
  Zr  Zr33  1  0.10118265  0.29969843  0.70726856  1
  Zr  Zr34  1  0.10624352  0.10089476  0.69057458  1
  Zr  Zr35  1  0.70691321  0.90477457  0.69732838  1
  Zr  Zr36  1  0.51033226  0.29985117  0.89628296  1
  Zr  Zr37  1  0.90317133  0.10516901  0.29944461  1
  Zr  Zr38  1  0.70444723  0.30001794  0.09222467  1
  Zr  Zr39  1  0.89355129  0.49744614  0.70224358  1
  Zr  Zr40  1  0.29318932  0.10055755  0.50032808  1
  Zr  Zr41  1  0.50258718  0.49883781  0.28652175  1
  Zr  Zr42  1  0.30248618  0.50169442  0.90336758  1
  Zr  Zr43  1  0.09549204  0.29334314  0.90574923  1
  Zr  Zr44  1  0.70301858  0.69840435  0.70209697  1
  Zr  Zr45  1  0.89620656  0.10428576  0.89753962  1
  Zr  Zr46  1  0.69966368  0.69713097  0.90197127  1
  Zr  Zr47  1  0.70395967  0.29758553  0.89711671  1
  Zr  Zr48  1  0.89981681  0.30280584  0.49998573  1
  Zr  Zr49  1  0.89481554  0.50031889  0.10354195  1
  Sc  Sc50  1  0.08855529  0.88408705  0.90289621  1
  Sc  Sc51  1  0.29309575  0.30647722  0.10190626  1
  Sc  Sc52  1  0.89619907  0.70195454  0.30425035  1
  Sc  Sc53  1  0.89768343  0.89637226  0.90452512  1
  Sc  Sc54  1  0.10317414  0.49387061  0.90112941  1
  Sc  Sc55  1  0.08780868  0.69660813  0.30102778  1
  Sc  Sc56  1  0.29642299  0.10492925  0.30044793  1
  Sc  Sc57  1  0.09905244  0.10557309  0.11375362  1
  Sc  Sc58  1  0.89474591  0.30377095  0.70314766  1
  Sc  Sc59  1  0.08751397  0.49942352  0.10178089  1
  Sc  Sc60  1  0.29333423  0.29722966  0.29742569  1
  Sc  Sc61  1  0.89710788  0.10344670  0.10816551  1
  Sc  Sc62  1  0.30712558  0.88577667  0.91249765  1
  Sc  Sc63  1  0.09249383  0.91005491  0.29441795  1
  Sc  Sc64  1  0.29929620  0.90633956  0.09793580  1
  Sc  Sc65  1  0.70323911  0.49846526  0.89476744  1
  Sc  Sc66  1  0.29540148  0.49264463  0.49807068  1
  Sc  Sc67  1  0.50924708  0.49086397  0.50641010  1
  Sc  Sc68  1  0.90080126  0.89411843  0.10431417  1
  Sc  Sc69  1  0.90097738  0.10953654  0.50085458  1
  Sc  Sc70  1  0.30201527  0.69258589  0.89808518  1
  Sc  Sc71  1  0.09979977  0.30108148  0.30054841  1
  Sc  Sc72  1  0.89142725  0.09713134  0.69671817  1
  Sc  Sc73  1  0.30764170  0.28986088  0.49827162  1
  Sc  Sc74  1  0.50625042  0.90748735  0.69636829  1
  Sc  Sc75  1  0.49513514  0.09973180  0.10194994  1
  Sc  Sc76  1  0.29654634  0.70477414  0.31049861  1
  Sc  Sc77  1  0.89264797  0.89784375  0.49819165  1
  Sc  Sc78  1  0.70536308  0.10828318  0.89687934  1
  Sc  Sc79  1  0.09457726  0.90039890  0.69662352  1
  Sc  Sc80  1  0.90550743  0.50069322  0.30291473  1
  Sc  Sc81  1  0.49737004  0.90137389  0.89525437  1
  Sc  Sc82  1  0.29177317  0.90805090  0.30146426  1
  Sc  Sc83  1  0.50893967  0.68959495  0.10139238  1
  Sc  Sc84  1  0.30240875  0.89298959  0.49802226  1
  Sc  Sc85  1  0.29972392  0.09670997  0.10618150  1
  Sc  Sc86  1  0.70460552  0.50021221  0.69822322  1
  Sc  Sc87  1  0.89754833  0.49594542  0.90331389  1
  Sc  Sc88  1  0.49502933  0.10468247  0.29021229  1
  Sc  Sc89  1  0.69321960  0.29572469  0.29724851  1
  Sc  Sc90  1  0.70615587  0.50122654  0.29269204  1
  Sc  Sc91  1  0.30488822  0.10511898  0.89375176  1
  Sc  Sc92  1  0.71408753  0.70366991  0.50267741  1
  Sc  Sc93  1  0.50617459  0.49494076  0.69786466  1
  Sc  Sc94  1  0.90373780  0.70321672  0.91168142  1
  Sc  Sc95  1  0.50181096  0.11505565  0.50517309  1
  Sc  Sc96  1  0.30854380  0.90428944  0.69493817  1
  Sc  Sc97  1  0.90053529  0.50019711  0.50268813  1
  Sc  Sc98  1  0.50369891  0.69953569  0.70617272  1
  Sc  Sc99  1  0.71204723  0.90174140  0.10662878  1
  Nb  Nb100  1  0.30175762  0.49610747  0.29507466  1
  Nb  Nb101  1  0.90441514  0.30669809  0.09946287  1
  Nb  Nb102  1  0.90529176  0.69351452  0.10471103  1
  Nb  Nb103  1  0.70149522  0.30214289  0.70063680  1
  Nb  Nb104  1  0.70222517  0.49224822  0.49494008  1
  Nb  Nb105  1  0.50066489  0.30340316  0.49780969  1
  Nb  Nb106  1  0.10026916  0.90024714  0.10051381  1
  Nb  Nb107  1  0.69892024  0.50336273  0.10122523  1
  Nb  Nb108  1  0.68957651  0.29212899  0.50089933  1
  Nb  Nb109  1  0.30550109  0.49918298  0.10729101  1
  Nb  Nb110  1  0.09993560  0.29228279  0.50556733  1
  Nb  Nb111  1  0.09610843  0.70064733  0.90154738  1
  Nb  Nb112  1  0.10241620  0.10668708  0.50081332  1
  Nb  Nb113  1  0.49926747  0.90063419  0.29964777  1
  Nb  Nb114  1  0.50281459  0.10558836  0.89916315  1
  Nb  Nb115  1  0.30833986  0.10205667  0.69948284  1
  Nb  Nb116  1  0.90019683  0.89834997  0.70337784  1
  Nb  Nb117  1  0.90395691  0.70297958  0.49850312  1
  Nb  Nb118  1  0.48434453  0.10469856  0.71251212  1
  Nb  Nb119  1  0.70012937  0.70135381  0.30186468  1
  Nb  Nb120  1  0.49979895  0.89834532  0.49420821  1
  Nb  Nb121  1  0.70189470  0.10304909  0.49612253  1
  Nb  Nb122  1  0.09739737  0.10100604  0.89737658  1
  Nb  Nb123  1  0.89460358  0.29695687  0.30292417  1
  Nb  Nb124  1  0.69855046  0.10095182  0.09549672  1
  Nb  Nb125  1  -0.00241566  0.79728316  0.59494144  1
  Nb  Nb126  1  0.60149037  0.80217096  0.39796391  1
  Nb  Nb127  1  0.80057987  0.79887484  0.79867213  1
  Nb  Nb128  1  0.40430052  0.59233056  0.40029126  1
  Nb  Nb129  1  0.60364083  0.60329876  0.39896875  1
  Nb  Nb130  1  0.18917447  0.00112960  -0.00794884  1
  Nb  Nb131  1  0.20350245  0.60007756  0.19718316  1
  Nb  Nb132  1  0.60427175  0.80577794  0.00181223  1
  Nb  Nb133  1  0.79185742  0.00608978  0.39968880  1
  Nb  Nb134  1  0.19778528  0.80029053  0.80126842  1
  Nb  Nb135  1  0.40011979  0.59875890  0.59417948  1
  Nb  Nb136  1  0.00304828  0.00111024  0.80387865  1
  Nb  Nb137  1  0.19626467  -0.00412133  0.80596255  1
  Nb  Nb138  1  0.40385136  0.20597636  -0.00425174  1
  Nb  Nb139  1  0.39662855  0.80179037  0.20166838  1
  Nb  Nb140  1  0.00196175  0.60356717  0.80293435  1
  Nb  Nb141  1  0.19514000  0.39164379  0.59831242  1
  Nb  Nb142  1  0.79442509  0.39280373  0.40421756  1
  Nb  Nb143  1  0.00540043  0.00287700  -0.00060459  1
  Nb  Nb144  1  0.40293388  0.39542282  0.80281751  1
  Nb  Nb145  1  0.60268910  0.00289579  0.00024335  1
  Nb  Nb146  1  0.40889703  -0.00169879  0.40179421  1
  Nb  Nb147  1  0.40476250  0.40078901  0.39732248  1
  Nb  Nb148  1  0.59826594  -0.00078248  0.39964114  1
  Nb  Nb149  1  0.19713951  0.79694792  0.19455792  1
  Pd  Pd150  1  0.58687755  0.01124333  0.59690212  1
  Pd  Pd151  1  0.39296408  -0.00583221  0.80743570  1
  Pd  Pd152  1  0.79980291  0.59329095  0.39983288  1
  Pd  Pd153  1  0.39915885  0.01131508  -0.00853421  1
  Pd  Pd154  1  0.39312461  0.20655808  0.19038743  1
  Pd  Pd155  1  0.38823702  0.61253100  0.20437898  1
  Pd  Pd156  1  0.59968502  0.59269367  0.79884581  1
  Pd  Pd157  1  0.79901199  0.59589422  0.59296847  1
  Pd  Pd158  1  0.60090139  0.00233426  0.19671047  1
  Pd  Pd159  1  0.59955481  0.79439986  0.59818194  1
  Pd  Pd160  1  -0.00284275  0.40470259  0.80663374  1
  Pd  Pd161  1  0.40629687  0.00532585  0.58990367  1
  Pd  Pd162  1  0.79773170  0.39533649  0.20672297  1
  Pd  Pd163  1  -0.00639781  0.19336731  0.79016499  1
  Pd  Pd164  1  0.40506345  0.79650915  0.61058233  1
  Pd  Pd165  1  0.60130522  0.00588132  0.80559491  1
  Pd  Pd166  1  -0.00564709  0.20180922  0.60788400  1
  Pd  Pd167  1  0.60175196  0.40524353  0.39231981  1
  Pd  Pd168  1  0.39542008  0.80309393  0.79390178  1
  Pd  Pd169  1  0.80219548  0.59621172  -0.00230559  1
  Pd  Pd170  1  0.20420430  0.59795601  0.39433988  1
  Pd  Pd171  1  0.59824530  0.20123888  0.19148877  1
  Pd  Pd172  1  0.60593375  0.80719815  0.80442847  1
  Pd  Pd173  1  0.00276537  0.39701186  0.60393901  1
  Pd  Pd174  1  -0.01096639  0.00412339  0.40696676  1
  Pd  Pd175  1  0.20764396  0.38800568  0.40573867  1
  Pd  Pd176  1  0.59646615  0.80211802  0.19440078  1
  Pd  Pd177  1  0.60918458  0.39735467  0.60432854  1
  Pd  Pd178  1  0.00560371  0.20496755  0.39768719  1
  Pd  Pd179  1  0.59526399  0.19256721  0.39477093  1
  Pd  Pd180  1  0.20291872  0.19311770  0.79898372  1
  Pd  Pd181  1  0.79733918  0.20555982  0.60131274  1
  Pd  Pd182  1  0.19600279  0.40980900  0.01097612  1
  Pd  Pd183  1  0.80203666  0.20739278  0.19328782  1
  Pd  Pd184  1  0.18841461  0.80753895  0.38821892  1
  Pd  Pd185  1  -0.00832864  -0.00282963  0.60017569  1
  Pd  Pd186  1  0.20655642  -0.00477988  0.60481767  1
  Pd  Pd187  1  -0.00397073  0.19326012  0.01042107  1
  Pd  Pd188  1  -0.00216654  0.60107258  0.60154308  1
  Pd  Pd189  1  0.61080856  0.40753885  -0.00134190  1
  Pd  Pd190  1  0.19499038  0.80856984  0.60609140  1
  Pd  Pd191  1  0.00438156  0.80412186  0.40335397  1
  Pd  Pd192  1  0.80462463  0.00583149  0.00623631  1
  Pd  Pd193  1  0.60046318  0.60291011  0.59181406  1
  Pd  Pd194  1  0.40360487  0.60245796  0.00329608  1
  Pd  Pd195  1  0.19447526  0.59193989  0.00342567  1
  Pd  Pd196  1  0.20692838  0.18983452  0.00535304  1
  Pd  Pd197  1  -0.00238267  0.39803540  0.20679647  1
  Pd  Pd198  1  0.60627453  0.19537888  0.79028832  1
  Pd  Pd199  1  0.20390908  0.58721197  0.59274997  1
  Rh  Rh200  1  0.40198412  0.80478406  0.39042715  1
  Rh  Rh201  1  0.80953697  0.60699635  0.80751361  1
  Rh  Rh202  1  0.79691016  0.39673363  0.80084389  1
  Rh  Rh203  1  0.60963023  0.39904092  0.19460201  1
  Rh  Rh204  1  0.19755137  0.40881193  0.19653091  1
  Rh  Rh205  1  -0.00282916  0.79727055  0.79111402  1
  Rh  Rh206  1  0.79198645  0.39494929  0.59199155  1
  Rh  Rh207  1  -0.00362631  0.59302860  -0.00621722  1
  Rh  Rh208  1  0.00051141  0.59996879  0.20443267  1
  Rh  Rh209  1  0.19457990  0.80627646  -0.00215162  1
  Rh  Rh210  1  0.39914306  0.20901106  0.80795329  1
  Rh  Rh211  1  0.00186658  0.79634204  0.19724385  1
  Rh  Rh212  1  0.80711789  -0.00403327  0.80009610  1
  Rh  Rh213  1  0.80593921  0.19972364  0.00660634  1
  Rh  Rh214  1  0.39358623  0.39156178  0.20409021  1
  Rh  Rh215  1  -0.00194222  0.00215132  0.19346396  1
  Rh  Rh216  1  0.19430048  0.20184123  0.40068057  1
  Rh  Rh217  1  0.60580687  0.59992885  0.00200409  1
  Rh  Rh218  1  0.40191934  0.19492711  0.59694899  1
  Rh  Rh219  1  0.79855585  0.79412126  0.00074167  1
  Rh  Rh220  1  0.80461712  0.60231898  0.20454531  1
  Rh  Rh221  1  0.20497638  0.00350885  0.40232028  1
  Rh  Rh222  1  0.40978718  0.58920541  0.79178009  1
  Rh  Rh223  1  0.19787708  0.20070671  0.20151189  1
  Rh  Rh224  1  0.19102606  0.60574416  0.81237583  1
  Rh  Rh225  1  0.39451255  -0.00450558  0.21185873  1
  Rh  Rh226  1  0.81071183  0.79114754  0.20003142  1
  Rh  Rh227  1  0.59329924  0.19052329  0.00544848  1
  Rh  Rh228  1  0.79652099  0.20094727  0.79128778  1
  Rh  Rh229  1  0.79833903  0.40251919  0.00152381  1
  Rh  Rh230  1  0.20337938  0.20316257  0.59995045  1
  Rh  Rh231  1  0.80783274  0.80137247  0.60574958  1
  Rh  Rh232  1  0.79542162  0.20412279  0.40154189  1
  Rh  Rh233  1  0.40350367  0.20014157  0.39821115  1
  Rh  Rh234  1  -0.00264912  0.20889264  0.20405496  1
  Rh  Rh235  1  0.80367860  0.00330188  0.20226449  1
  Rh  Rh236  1  0.61159633  0.59759902  0.20239307  1
  Rh  Rh237  1  0.79524758  0.80664690  0.40126972  1
  Rh  Rh238  1  0.19867083  -0.00344824  0.19295917  1
  Rh  Rh239  1  0.80785946  0.00233892  0.59118574  1
  Rh  Rh240  1  -0.00206658  0.39897824  -0.00165547  1
  Rh  Rh241  1  0.41695578  0.79164821  0.00884770  1
  Rh  Rh242  1  0.39309579  0.40340603  0.59702300  1
  Rh  Rh243  1  -0.00626215  0.59925939  0.40080129  1
  Rh  Rh244  1  0.59933995  0.19693857  0.60501437  1
  Rh  Rh245  1  -0.00746536  0.80380123  0.00925719  1
  Rh  Rh246  1  -0.00842355  0.39320901  0.39645836  1
  Rh  Rh247  1  0.39616221  0.39637776  -0.00332641  1
  Rh  Rh248  1  0.20439531  0.39614068  0.79557357  1
  Rh  Rh249  1  0.60095170  0.39989727  0.79429395  1
