# generated using pymatgen
data_ZrScNbPdRh
_symmetry_space_group_name_H-M   'P 1'
_cell_length_a   16.55352735
_cell_length_b   16.55554631
_cell_length_c   16.55190425
_cell_angle_alpha   90.01509724
_cell_angle_beta   90.01067088
_cell_angle_gamma   89.99634227
_symmetry_Int_Tables_number   1
_chemical_formula_structural   ZrScNbPdRh
_chemical_formula_sum   'Zr50 Sc50 Nb50 Pd50 Rh50'
_cell_volume   4536.09361540
_cell_formula_units_Z   50
loop_
 _symmetry_equiv_pos_site_id
 _symmetry_equiv_pos_as_xyz
  1  'x, y, z'
loop_
 _atom_site_type_symbol
 _atom_site_label
 _atom_site_symmetry_multiplicity
 _atom_site_fract_x
 _atom_site_fract_y
 _atom_site_fract_z
 _atom_site_occupancy
  Zr  Zr0  1  0.49926328  0.70763991  0.50222120  1
  Zr  Zr1  1  0.69615499  0.10706126  0.70133380  1
  Zr  Zr2  1  0.89834356  0.69775277  0.49553159  1
  Zr  Zr3  1  0.29809254  0.29908900  0.51280124  1
  Zr  Zr4  1  0.70421006  0.69729216  0.49870015  1
  Zr  Zr5  1  0.29692593  0.70522932  0.88750855  1
  Zr  Zr6  1  0.10087652  0.09346374  0.50901432  1
  Zr  Zr7  1  0.09962816  0.50395232  0.09573477  1
  Zr  Zr8  1  0.49299394  0.90254107  0.10310719  1
  Zr  Zr9  1  0.89570795  0.50095351  0.10375869  1
  Zr  Zr10  1  0.30322620  0.69648097  0.49785345  1
  Zr  Zr11  1  0.49756119  0.30381941  0.09423161  1
  Zr  Zr12  1  0.89880260  0.89982879  0.50543199  1
  Zr  Zr13  1  0.49876899  0.50196037  0.90267448  1
  Zr  Zr14  1  0.30205552  0.50249363  0.69073243  1
  Zr  Zr15  1  0.90576261  0.90118190  0.29923568  1
  Zr  Zr16  1  0.09906171  0.09610288  0.29673210  1
  Zr  Zr17  1  0.30512220  0.30306176  0.90691375  1
  Zr  Zr18  1  0.71103736  0.50017853  0.10312658  1
  Zr  Zr19  1  0.70067368  0.29639635  0.51002347  1
  Zr  Zr20  1  0.09599912  0.70238835  0.29465553  1
  Zr  Zr21  1  0.10245884  0.29665366  0.28763899  1
  Zr  Zr22  1  0.49926523  0.89944482  0.68977231  1
  Zr  Zr23  1  0.29850165  0.89751243  0.09766494  1
  Zr  Zr24  1  0.90208507  0.90183869  0.89807754  1
  Zr  Zr25  1  0.29609074  0.89890043  0.90527443  1
  Zr  Zr26  1  0.29143207  0.49690001  0.49820539  1
  Zr  Zr27  1  0.49643038  0.90237517  0.30472509  1
  Zr  Zr28  1  0.69898714  0.09210425  0.09894280  1
  Zr  Zr29  1  0.89809895  0.90275309  0.70292089  1
  Zr  Zr30  1  0.50469175  0.90257074  0.50352242  1
  Zr  Zr31  1  0.70361357  0.70404146  0.89726894  1
  Zr  Zr32  1  0.29289470  0.29933679  0.30008474  1
  Zr  Zr33  1  0.09679204  0.89825428  0.29460464  1
  Zr  Zr34  1  0.09771988  0.31158178  0.49491674  1
  Zr  Zr35  1  0.69883114  0.90320818  0.69842912  1
  Zr  Zr36  1  0.09565239  0.69129174  0.49777995  1
  Zr  Zr37  1  0.51035488  0.69755828  0.89932070  1
  Zr  Zr38  1  0.70741279  0.89822585  0.89596965  1
  Zr  Zr39  1  0.70154688  0.49789326  0.69885994  1
  Zr  Zr40  1  0.70470891  0.29333505  0.89478985  1
  Zr  Zr41  1  0.89883799  0.71076793  0.90629491  1
  Zr  Zr42  1  0.49312705  0.69526296  0.30548068  1
  Zr  Zr43  1  0.90561591  0.69197608  0.10297572  1
  Zr  Zr44  1  0.09990410  0.29596112  0.90266762  1
  Zr  Zr45  1  0.89804204  0.10670776  0.49983228  1
  Zr  Zr46  1  0.49499456  0.50441340  0.50261271  1
  Zr  Zr47  1  0.49516472  0.29410108  0.89765785  1
  Zr  Zr48  1  0.30333950  0.11073004  0.89384040  1
  Zr  Zr49  1  0.29546646  0.69801989  0.10729938  1
  Sc  Sc50  1  0.89900417  0.09409731  0.09715782  1
  Sc  Sc51  1  0.70040340  0.49767795  0.30497792  1
  Sc  Sc52  1  0.90311389  0.69349556  0.30167789  1
  Sc  Sc53  1  0.50476401  0.10588233  0.89824831  1
  Sc  Sc54  1  0.10181793  0.28378345  0.69790066  1
  Sc  Sc55  1  0.08926140  0.10378063  0.89940930  1
  Sc  Sc56  1  0.09745943  0.90139534  0.49606273  1
  Sc  Sc57  1  0.90685418  0.09491574  0.70038120  1
  Sc  Sc58  1  0.70249230  0.09805339  0.89696387  1
  Sc  Sc59  1  0.70468830  0.30485760  0.10222627  1
  Sc  Sc60  1  0.09301363  0.10656687  0.10281758  1
  Sc  Sc61  1  0.71115020  0.69415639  0.31097939  1
  Sc  Sc62  1  0.89922112  0.29382111  0.68661246  1
  Sc  Sc63  1  0.90875646  0.70406689  0.70011737  1
  Sc  Sc64  1  0.30552670  0.09390807  0.29997716  1
  Sc  Sc65  1  0.10073849  0.70303712  0.70024553  1
  Sc  Sc66  1  0.29943618  0.50116246  0.09557988  1
  Sc  Sc67  1  0.29411683  0.50383321  0.90560365  1
  Sc  Sc68  1  0.09672044  0.69285874  0.89654979  1
  Sc  Sc69  1  0.91798696  0.49395847  0.50575294  1
  Sc  Sc70  1  0.49959131  0.10017515  0.09478249  1
  Sc  Sc71  1  0.29655077  0.70906402  0.69649809  1
  Sc  Sc72  1  0.49964345  0.70379596  0.09962565  1
  Sc  Sc73  1  0.50544071  0.29004114  0.69030500  1
  Sc  Sc74  1  0.29898794  0.69751970  0.30220611  1
  Sc  Sc75  1  0.30260533  0.89482323  0.30108079  1
  Sc  Sc76  1  0.69815504  0.89619664  0.50327301  1
  Sc  Sc77  1  0.69548258  0.70447486  0.09624382  1
  Sc  Sc78  1  0.30598294  0.09384340  0.10050375  1
  Sc  Sc79  1  0.89495550  0.51132228  0.90912295  1
  Sc  Sc80  1  0.68783192  0.29578148  0.30916660  1
  Sc  Sc81  1  0.90549179  0.89898459  0.09179996  1
  Sc  Sc82  1  0.69830193  0.89783734  0.30502268  1
  Sc  Sc83  1  0.10177418  0.49426357  0.30500496  1
  Sc  Sc84  1  0.89666996  0.09806735  0.89652131  1
  Sc  Sc85  1  0.89730100  0.28994049  0.90635677  1
  Sc  Sc86  1  0.49700272  0.70815478  0.69673930  1
  Sc  Sc87  1  0.50463740  0.09545511  0.69656504  1
  Sc  Sc88  1  0.29312019  0.11164874  0.69313043  1
  Sc  Sc89  1  0.49811007  0.09868859  0.49800665  1
  Sc  Sc90  1  0.49654810  0.50873407  0.09753781  1
  Sc  Sc91  1  0.09541278  0.70056549  0.10462501  1
  Sc  Sc92  1  0.89751891  0.30163655  0.29817404  1
  Sc  Sc93  1  0.70161723  0.90023382  0.09585425  1
  Sc  Sc94  1  0.30201543  0.90308711  0.50247376  1
  Sc  Sc95  1  0.89520773  0.30584413  0.10181303  1
  Sc  Sc96  1  0.09271967  0.90132506  0.69077474  1
  Sc  Sc97  1  0.09582056  0.51307441  0.69667040  1
  Sc  Sc98  1  0.90624732  0.09411762  0.29578133  1
  Sc  Sc99  1  0.70225481  0.51544503  0.90016074  1
  Nb  Nb100  1  0.10366614  0.89674333  0.09706341  1
  Nb  Nb101  1  0.49428271  0.89505612  0.89476903  1
  Nb  Nb102  1  0.70572645  0.49765156  0.50459911  1
  Nb  Nb103  1  0.90062198  0.29753342  0.49777449  1
  Nb  Nb104  1  0.69738516  0.10405880  0.48930606  1
  Nb  Nb105  1  0.29302061  0.10485496  0.49702090  1
  Nb  Nb106  1  0.69577380  0.10244506  0.30585291  1
  Nb  Nb107  1  0.50025738  0.50477754  0.70083631  1
  Nb  Nb108  1  0.88552066  0.50104122  0.28954049  1
  Nb  Nb109  1  0.49839489  0.49746198  0.30046265  1
  Nb  Nb110  1  0.89973497  0.49588901  0.69859758  1
  Nb  Nb111  1  0.10048626  0.09599064  0.70419780  1
  Nb  Nb112  1  0.50113027  0.30104992  0.30025046  1
  Nb  Nb113  1  0.29930350  0.29805567  0.70909107  1
  Nb  Nb114  1  0.10088021  0.49596694  0.89694905  1
  Nb  Nb115  1  0.50639873  0.10427989  0.30179310  1
  Nb  Nb116  1  0.09959475  0.90278935  0.91073509  1
  Nb  Nb117  1  0.70054311  0.30279336  0.70082752  1
  Nb  Nb118  1  0.10794202  0.30261360  0.10229053  1
  Nb  Nb119  1  0.49985169  0.29834003  0.49281705  1
  Nb  Nb120  1  0.69876509  0.69524391  0.70375392  1
  Nb  Nb121  1  0.10437516  0.50006972  0.50025745  1
  Nb  Nb122  1  0.30278115  0.89669297  0.70983486  1
  Nb  Nb123  1  0.31165765  0.50158436  0.30212981  1
  Nb  Nb124  1  0.29798032  0.30066759  0.10371703  1
  Nb  Nb125  1  0.19901966  0.39882626  0.79880347  1
  Nb  Nb126  1  0.79591530  0.00693012  0.40028208  1
  Nb  Nb127  1  0.60011449  0.40016791  0.79831221  1
  Nb  Nb128  1  0.80450647  0.80000917  0.20078724  1
  Nb  Nb129  1  -0.00214704  0.40248803  0.80231404  1
  Nb  Nb130  1  0.80111161  0.59432107  0.60113437  1
  Nb  Nb131  1  0.39465781  -0.00600338  0.79786502  1
  Nb  Nb132  1  0.60583367  0.59889809  0.60151450  1
  Nb  Nb133  1  0.40519041  0.20595439  0.20444944  1
  Nb  Nb134  1  0.19856216  -0.00144535  0.80049674  1
  Nb  Nb135  1  0.59730898  0.00358301  0.20744452  1
  Nb  Nb136  1  0.80336267  0.39787209  0.41008584  1
  Nb  Nb137  1  0.00466783  0.40176398  -0.00242291  1
  Nb  Nb138  1  0.40005350  0.40143816  0.79279806  1
  Nb  Nb139  1  0.00448912  0.20298340  0.40145157  1
  Nb  Nb140  1  0.79183407  0.19101629  0.20696228  1
  Nb  Nb141  1  0.80214028  0.39954723  0.79501794  1
  Nb  Nb142  1  0.59774529  0.59931965  0.20724549  1
  Nb  Nb143  1  0.40136020  0.59780556  0.79641615  1
  Nb  Nb144  1  0.60314281  0.40259185  -0.00712163  1
  Nb  Nb145  1  0.19730831  0.19724777  0.40409548  1
  Nb  Nb146  1  0.40203571  0.39857282  0.20481107  1
  Nb  Nb147  1  0.19742685  -0.00663618  0.19420597  1
  Nb  Nb148  1  0.20209719  0.20599760  0.00779678  1
  Nb  Nb149  1  0.40392208  0.39534852  0.39763462  1
  Pd  Pd150  1  0.19385031  0.78725979  -0.00019130  1
  Pd  Pd151  1  0.19851821  0.59280058  0.20744251  1
  Pd  Pd152  1  0.79961322  0.19557342  0.01014565  1
  Pd  Pd153  1  0.38967237  0.00813397  0.60545218  1
  Pd  Pd154  1  0.60226060  0.40136284  0.40813567  1
  Pd  Pd155  1  0.39539376  0.20220736  0.39702616  1
  Pd  Pd156  1  0.19373989  0.01485706  0.00042266  1
  Pd  Pd157  1  0.40693866  0.00530186  -0.01142072  1
  Pd  Pd158  1  0.79356184  0.00976119  0.59500499  1
  Pd  Pd159  1  0.19816341  0.60674508  0.60299492  1
  Pd  Pd160  1  0.59210647  0.40157462  0.60181101  1
  Pd  Pd161  1  0.40755590  0.39311622  0.60117329  1
  Pd  Pd162  1  0.79800373  0.19375183  0.60426528  1
  Pd  Pd163  1  0.00879911  0.39717100  0.61105328  1
  Pd  Pd164  1  0.39873693  0.00145787  0.40286797  1
  Pd  Pd165  1  -0.00123884  0.40397747  0.19580275  1
  Pd  Pd166  1  0.19928162  0.59890852  0.39203872  1
  Pd  Pd167  1  0.60767013  0.79710991  0.20786086  1
  Pd  Pd168  1  -0.00855808  0.20493951  0.79570239  1
  Pd  Pd169  1  0.39648398  0.79530142  0.20405308  1
  Pd  Pd170  1  0.39338915  0.61001670  -0.00633621  1
  Pd  Pd171  1  0.59919989  0.80241231  0.79351898  1
  Pd  Pd172  1  0.19738789  0.60762593  -0.00283404  1
  Pd  Pd173  1  0.79247482  -0.00367368  0.20650775  1
  Pd  Pd174  1  -0.00719085  0.40103694  0.38977970  1
  Pd  Pd175  1  0.00055161  0.00486017  0.00109662  1
  Pd  Pd176  1  -0.00706554  0.59732107  0.80276314  1
  Pd  Pd177  1  0.59780134  0.80945041  -0.00120611  1
  Pd  Pd178  1  0.60299362  0.79878314  0.39680301  1
  Pd  Pd179  1  0.20317580  -0.00005949  0.39330915  1
  Pd  Pd180  1  0.79844602  0.79140937  0.60760020  1
  Pd  Pd181  1  0.40346736  0.19505662  0.60112323  1
  Pd  Pd182  1  0.59589197  -0.00754696  -0.00153325  1
  Pd  Pd183  1  0.59798339  0.40873141  0.19224135  1
  Pd  Pd184  1  0.39977757  0.79092005  -0.00107825  1
  Pd  Pd185  1  0.20727709  0.41398144  0.20003865  1
  Pd  Pd186  1  -0.00448128  0.58778695  0.39308629  1
  Pd  Pd187  1  0.19900206  0.80008268  0.40275697  1
  Pd  Pd188  1  0.18762621  0.39849300  0.61389386  1
  Pd  Pd189  1  0.81139087  0.60139412  0.79413733  1
  Pd  Pd190  1  0.19829353  0.80421754  0.59450815  1
  Pd  Pd191  1  -0.00022121  0.79965038  0.40353067  1
  Pd  Pd192  1  0.00746705  0.80640020  0.80290100  1
  Pd  Pd193  1  0.20750120  -0.00545582  0.60873884  1
  Pd  Pd194  1  0.18423782  0.81066354  0.79931432  1
  Pd  Pd195  1  0.60745223  0.20564755  0.00256605  1
  Pd  Pd196  1  0.59974228  0.19576934  0.19306488  1
  Pd  Pd197  1  0.59993264  0.59596511  0.40186700  1
  Pd  Pd198  1  0.59267846  -0.00193770  0.80412134  1
  Pd  Pd199  1  -0.01338866  0.20301533  0.19726506  1
  Rh  Rh200  1  0.40458457  0.00532358  0.20398982  1
  Rh  Rh201  1  0.80118720  0.39929955  -0.01542277  1
  Rh  Rh202  1  -0.00199310  0.00030422  0.60040795  1
  Rh  Rh203  1  0.60969820  0.79276981  0.60320286  1
  Rh  Rh204  1  0.00260147  0.59006013  0.20832388  1
  Rh  Rh205  1  0.80755161  0.40191970  0.59823638  1
  Rh  Rh206  1  0.79940968  0.00404529  0.79774934  1
  Rh  Rh207  1  0.39177985  0.80333861  0.59606883  1
  Rh  Rh208  1  0.80490004  0.20231820  0.79076125  1
  Rh  Rh209  1  0.60867039  0.59380535  0.01386868  1
  Rh  Rh210  1  0.79636401  0.61186541  0.00431802  1
  Rh  Rh211  1  0.00320659  0.20966332  0.01177227  1
  Rh  Rh212  1  -0.00197299  0.60231941  0.59896075  1
  Rh  Rh213  1  0.78854804  0.38604309  0.21753077  1
  Rh  Rh214  1  0.80586566  0.81195829  0.39247125  1
  Rh  Rh215  1  0.59368192  0.20116801  0.40753623  1
  Rh  Rh216  1  0.80964848  0.20035367  0.39258984  1
  Rh  Rh217  1  0.19519911  0.19789927  0.80814507  1
  Rh  Rh218  1  0.21118653  0.18470189  0.19738181  1
  Rh  Rh219  1  0.78978730  0.61105128  0.19894987  1
  Rh  Rh220  1  0.19504803  0.39519864  -0.00243400  1
  Rh  Rh221  1  0.40636804  0.79820604  0.80029884  1
  Rh  Rh222  1  0.39826579  0.80323056  0.40387563  1
  Rh  Rh223  1  0.80239752  0.80075162  0.00854676  1
  Rh  Rh224  1  0.00232027  0.59691563  -0.00245148  1
  Rh  Rh225  1  0.19376218  0.20064625  0.59504953  1
  Rh  Rh226  1  0.00276229  0.79698539  0.59424398  1
  Rh  Rh227  1  0.00555273  0.19585744  0.59483282  1
  Rh  Rh228  1  0.59895572  0.19552841  0.59162433  1
  Rh  Rh229  1  0.80122441  0.79823313  0.79258053  1
  Rh  Rh230  1  0.20579841  0.39852945  0.39837093  1
  Rh  Rh231  1  0.00883504  -0.00522753  0.80269859  1
  Rh  Rh232  1  0.20821079  0.59340156  0.79573153  1
  Rh  Rh233  1  0.20129387  0.80397388  0.20017264  1
  Rh  Rh234  1  -0.00996249  0.00508488  0.40896711  1
  Rh  Rh235  1  0.40671805  0.19609937  0.78717344  1
  Rh  Rh236  1  -0.00704896  0.80313916  0.19362097  1
  Rh  Rh237  1  0.40491435  0.59758910  0.19975021  1
  Rh  Rh238  1  0.00880336  -0.00609010  0.18758075  1
  Rh  Rh239  1  0.81304758  0.58244087  0.41033367  1
  Rh  Rh240  1  0.00712918  0.79691565  -0.00039563  1
  Rh  Rh241  1  0.60777290  0.00704794  0.59190795  1
  Rh  Rh242  1  0.39330791  0.19555461  0.01127684  1
  Rh  Rh243  1  0.80199061  -0.00117376  -0.00790301  1
  Rh  Rh244  1  0.40342402  0.40455131  0.00424581  1
  Rh  Rh245  1  0.59282757  0.60107099  0.79185440  1
  Rh  Rh246  1  0.40406147  0.60959506  0.60377556  1
  Rh  Rh247  1  0.39809606  0.59603561  0.40423113  1
  Rh  Rh248  1  0.60278390  -0.00102169  0.40051170  1
  Rh  Rh249  1  0.59849840  0.20310573  0.79723586  1
