# generated using pymatgen
data_ZrScNbPdRh
_symmetry_space_group_name_H-M   'P 1'
_cell_length_a   16.56478172
_cell_length_b   16.55968629
_cell_length_c   16.56120529
_cell_angle_alpha   89.98495918
_cell_angle_beta   90.00913778
_cell_angle_gamma   89.98793746
_symmetry_Int_Tables_number   1
_chemical_formula_structural   ZrScNbPdRh
_chemical_formula_sum   'Zr50 Sc50 Nb50 Pd50 Rh50'
_cell_volume   4542.86397351
_cell_formula_units_Z   50
loop_
 _symmetry_equiv_pos_site_id
 _symmetry_equiv_pos_as_xyz
  1  'x, y, z'
loop_
 _atom_site_type_symbol
 _atom_site_label
 _atom_site_symmetry_multiplicity
 _atom_site_fract_x
 _atom_site_fract_y
 _atom_site_fract_z
 _atom_site_occupancy
  Zr  Zr0  1  0.30077955  0.69443499  0.09710173  1
  Zr  Zr1  1  0.09845711  0.11161900  0.29954605  1
  Zr  Zr2  1  0.69645499  0.89477364  0.09652029  1
  Zr  Zr3  1  0.70443107  0.09950299  0.89957826  1
  Zr  Zr4  1  0.70193108  0.89953244  0.29013620  1
  Zr  Zr5  1  0.91136167  0.50451246  0.29968311  1
  Zr  Zr6  1  0.89895100  0.10555525  0.69872272  1
  Zr  Zr7  1  0.09902290  0.89866084  0.90858997  1
  Zr  Zr8  1  0.29886233  0.70929765  0.49689634  1
  Zr  Zr9  1  0.09983380  0.48823095  0.29887530  1
  Zr  Zr10  1  0.09161241  0.49613756  0.48917881  1
  Zr  Zr11  1  0.70277050  0.70034948  0.92029843  1
  Zr  Zr12  1  0.30776241  0.09602580  0.51111954  1
  Zr  Zr13  1  0.90511830  0.70205204  0.69907438  1
  Zr  Zr14  1  0.30050144  0.70389933  0.30060643  1
  Zr  Zr15  1  0.49802440  0.49855926  0.90426309  1
  Zr  Zr16  1  0.10240749  0.10119849  0.50464097  1
  Zr  Zr17  1  0.30072071  0.29807360  0.50001625  1
  Zr  Zr18  1  0.89700840  0.09925192  0.30241407  1
  Zr  Zr19  1  0.49568145  0.50311347  0.10642238  1
  Zr  Zr20  1  0.29701281  0.89563190  0.09436538  1
  Zr  Zr21  1  0.50325535  0.50054432  0.30079919  1
  Zr  Zr22  1  0.70205089  0.50462477  0.09880025  1
  Zr  Zr23  1  0.29524937  0.30277962  0.09369161  1
  Zr  Zr24  1  0.70046775  0.29462512  0.90636800  1
  Zr  Zr25  1  0.49837686  0.69424359  0.29495342  1
  Zr  Zr26  1  0.89561753  0.29947630  0.51643091  1
  Zr  Zr27  1  0.70239670  0.50240942  0.50276172  1
  Zr  Zr28  1  0.50615155  0.89824597  0.89877918  1
  Zr  Zr29  1  0.90288527  0.70387430  0.49649421  1
  Zr  Zr30  1  0.70928032  0.09851184  0.29612635  1
  Zr  Zr31  1  0.30025845  0.09994326  0.89206337  1
  Zr  Zr32  1  0.50250233  0.09543953  0.29506295  1
  Zr  Zr33  1  0.51355653  0.89226217  0.69929572  1
  Zr  Zr34  1  0.90726639  0.49811492  0.10192528  1
  Zr  Zr35  1  0.89969755  0.29281124  0.90122862  1
  Zr  Zr36  1  0.28709233  0.30136159  0.30295978  1
  Zr  Zr37  1  0.68931249  0.50912785  0.30282117  1
  Zr  Zr38  1  0.69959389  0.30446484  0.29642761  1
  Zr  Zr39  1  0.10375747  0.70419971  0.49735470  1
  Zr  Zr40  1  0.09660679  0.70133160  0.90183353  1
  Zr  Zr41  1  0.50914693  0.29976391  0.09979445  1
  Zr  Zr42  1  0.30187946  0.49625101  0.90488282  1
  Zr  Zr43  1  0.29325039  0.10129151  0.29940429  1
  Zr  Zr44  1  0.90571627  0.89909921  0.50378589  1
  Zr  Zr45  1  0.49548214  0.09652598  0.69336229  1
  Zr  Zr46  1  0.49444332  0.90529740  0.08897339  1
  Zr  Zr47  1  0.90394276  0.48842430  0.69417156  1
  Zr  Zr48  1  0.29722770  0.29745478  0.90012999  1
  Zr  Zr49  1  0.90078757  0.90260202  0.69939107  1
  Sc  Sc50  1  0.09915192  0.68460500  0.30567651  1
  Sc  Sc51  1  0.49125282  0.89847901  0.50385292  1
  Sc  Sc52  1  0.09630234  0.49950910  0.09977291  1
  Sc  Sc53  1  0.49511652  0.30007980  0.89481934  1
  Sc  Sc54  1  0.49933610  0.30785924  0.50167088  1
  Sc  Sc55  1  0.49257504  0.89271509  0.29229974  1
  Sc  Sc56  1  0.70344528  0.90609800  0.70342195  1
  Sc  Sc57  1  0.30209406  0.49953437  0.29682346  1
  Sc  Sc58  1  0.30194923  0.50196277  0.09341644  1
  Sc  Sc59  1  0.90054989  0.29414326  0.29128441  1
  Sc  Sc60  1  0.29961417  0.09765889  0.69747395  1
  Sc  Sc61  1  0.89666996  0.90656534  0.30110740  1
  Sc  Sc62  1  0.30744792  0.50345358  0.69986303  1
  Sc  Sc63  1  0.09655395  0.90746463  0.30147624  1
  Sc  Sc64  1  0.29762621  0.69539495  0.89934807  1
  Sc  Sc65  1  0.49918230  0.49822788  0.49641055  1
  Sc  Sc66  1  0.30216464  0.89287764  0.30210843  1
  Sc  Sc67  1  0.10556941  0.90111664  0.70129147  1
  Sc  Sc68  1  0.31085576  0.49717350  0.49910645  1
  Sc  Sc69  1  0.50367943  0.31374377  0.30066862  1
  Sc  Sc70  1  0.10118674  0.29712627  0.48918328  1
  Sc  Sc71  1  0.07418575  0.30336576  0.69807202  1
  Sc  Sc72  1  0.09682508  0.68976179  0.08692281  1
  Sc  Sc73  1  0.90349291  0.90864683  0.09442857  1
  Sc  Sc74  1  0.09520949  0.09825679  0.09955024  1
  Sc  Sc75  1  0.28382918  0.10163209  0.09651818  1
  Sc  Sc76  1  0.69984665  0.90799636  0.90275915  1
  Sc  Sc77  1  0.50035563  0.30052200  0.69568496  1
  Sc  Sc78  1  0.10258808  0.70230262  0.70910326  1
  Sc  Sc79  1  0.70058153  0.09272022  0.69596312  1
  Sc  Sc80  1  0.70687292  0.09843549  0.50617081  1
  Sc  Sc81  1  0.69338576  0.10705056  0.09825414  1
  Sc  Sc82  1  0.49840143  0.70243322  0.09428622  1
  Sc  Sc83  1  0.70037906  0.89862543  0.51449642  1
  Sc  Sc84  1  0.89935024  0.10398559  0.10318065  1
  Sc  Sc85  1  0.49476151  0.49593674  0.69979213  1
  Sc  Sc86  1  0.49269149  0.70408221  0.50833616  1
  Sc  Sc87  1  0.69833214  0.29951582  0.50903445  1
  Sc  Sc88  1  0.31007367  0.69676235  0.70147448  1
  Sc  Sc89  1  0.50397242  0.09131887  0.90190107  1
  Sc  Sc90  1  0.09159909  0.50317457  0.89925803  1
  Sc  Sc91  1  0.29962437  0.90184669  0.90028571  1
  Sc  Sc92  1  0.89844558  0.30061245  0.10002101  1
  Sc  Sc93  1  0.29789650  0.90791259  0.69829021  1
  Sc  Sc94  1  0.31165288  0.28818528  0.69629582  1
  Sc  Sc95  1  0.08935873  0.30082952  0.90907386  1
  Sc  Sc96  1  0.70430613  0.71409657  0.69521576  1
  Sc  Sc97  1  0.71003623  0.70119939  0.49939835  1
  Sc  Sc98  1  0.10079831  0.89415777  0.50728118  1
  Sc  Sc99  1  0.09370693  0.29517582  0.09987983  1
  Nb  Nb100  1  0.88988545  0.30269997  0.70266943  1
  Nb  Nb101  1  0.09881685  0.49708948  0.69854742  1
  Nb  Nb102  1  0.70070752  0.50128978  0.90015083  1
  Nb  Nb103  1  0.89869851  0.09841418  0.49958780  1
  Nb  Nb104  1  0.10544478  0.09547017  0.70411860  1
  Nb  Nb105  1  0.50217492  0.09438349  0.49749731  1
  Nb  Nb106  1  0.70264346  0.30455383  0.70037050  1
  Nb  Nb107  1  0.89709366  0.70552170  0.29683390  1
  Nb  Nb108  1  0.90682851  0.70090308  0.90477156  1
  Nb  Nb109  1  0.09812128  0.10349192  0.90138715  1
  Nb  Nb110  1  0.90353299  0.69840122  0.09738890  1
  Nb  Nb111  1  0.90123742  0.09612087  0.90358099  1
  Nb  Nb112  1  0.50632760  0.69989306  0.70432819  1
  Nb  Nb113  1  0.10394108  0.29754245  0.29948616  1
  Nb  Nb114  1  0.89677212  0.49782974  0.89939997  1
  Nb  Nb115  1  0.49677358  0.10234588  0.09650847  1
  Nb  Nb116  1  0.50340240  0.70249683  0.89125937  1
  Nb  Nb117  1  0.09972322  0.89361912  0.09826905  1
  Nb  Nb118  1  0.70077009  0.70530794  0.29517881  1
  Nb  Nb119  1  0.90231437  0.90749434  0.90183008  1
  Nb  Nb120  1  0.70009330  0.50165117  0.70475879  1
  Nb  Nb121  1  0.89687525  0.50095349  0.49938566  1
  Nb  Nb122  1  0.70484088  0.70295179  0.10631393  1
  Nb  Nb123  1  0.70242652  0.29966199  0.09844149  1
  Nb  Nb124  1  0.29591689  0.89781695  0.49541349  1
  Nb  Nb125  1  0.60374688  0.20066343  0.79589539  1
  Nb  Nb126  1  0.00133591  0.00788385  0.80636154  1
  Nb  Nb127  1  0.18897309  0.20181936  0.79819468  1
  Nb  Nb128  1  0.59668166  0.19248390  0.40136359  1
  Nb  Nb129  1  0.39815450  0.19875189  0.19845321  1
  Nb  Nb130  1  0.60045154  0.60236086  0.61029547  1
  Nb  Nb131  1  0.60332005  0.80094428  0.39467777  1
  Nb  Nb132  1  0.19475693  0.59443434  0.59918104  1
  Nb  Nb133  1  0.81021440  0.79749668  0.81308579  1
  Nb  Nb134  1  0.60576933  0.60198171  0.80124262  1
  Nb  Nb135  1  0.19484427  0.39588099  0.79286986  1
  Nb  Nb136  1  0.39615853  0.00619085  0.19183428  1
  Nb  Nb137  1  0.79658370  0.40225991  0.80043628  1
  Nb  Nb138  1  0.00298183  0.59501722  0.59708652  1
  Nb  Nb139  1  0.19048956  0.79754937  0.19484617  1
  Nb  Nb140  1  0.80048093  0.59972808  0.80608269  1
  Nb  Nb141  1  0.80106873  0.61133908  0.20027426  1
  Nb  Nb142  1  0.19541928  0.40286548  0.60532420  1
  Nb  Nb143  1  0.20414186  0.00071376  0.40658654  1
  Nb  Nb144  1  0.80309008  0.40541513  0.40298090  1
  Nb  Nb145  1  0.40009947  0.19629033  0.00425790  1
  Nb  Nb146  1  0.60022893  -0.00284266  0.39964192  1
  Nb  Nb147  1  0.60664235  0.40192845  0.00014916  1
  Nb  Nb148  1  0.00143502  0.79536012  0.19588429  1
  Nb  Nb149  1  0.40522281  0.19561826  0.39658087  1
  Pd  Pd150  1  0.39945727  -0.00231934  0.39313837  1
  Pd  Pd151  1  0.39883447  0.79360515  -0.01116160  1
  Pd  Pd152  1  -0.00402389  0.59501307  0.79620962  1
  Pd  Pd153  1  0.79348859  -0.00828737  0.40920060  1
  Pd  Pd154  1  0.39478159  0.39458687  0.20105622  1
  Pd  Pd155  1  -0.01233946  0.38449531  0.39897690  1
  Pd  Pd156  1  0.39584675  0.80498934  0.60900034  1
  Pd  Pd157  1  0.39240734  0.39621667  0.79408112  1
  Pd  Pd158  1  0.00641098  0.00237247  0.40458599  1
  Pd  Pd159  1  -0.00010917  0.81099191  0.80112431  1
  Pd  Pd160  1  0.60321192  0.39730039  0.80432956  1
  Pd  Pd161  1  0.59798328  0.40899897  0.60065878  1
  Pd  Pd162  1  0.59146657  0.79684532  0.19689870  1
  Pd  Pd163  1  0.40536122  -0.00570432  0.79557278  1
  Pd  Pd164  1  0.59294191  0.59942014  0.00135235  1
  Pd  Pd165  1  -0.00820662  0.20464843  0.40227100  1
  Pd  Pd166  1  0.59944643  0.19880883  0.60028552  1
  Pd  Pd167  1  0.18972435  0.21244278  0.61195625  1
  Pd  Pd168  1  0.00106586  0.19745793  0.80077633  1
  Pd  Pd169  1  0.80423500  0.59904917  0.39127561  1
  Pd  Pd170  1  0.80102669  0.60292309  0.60887430  1
  Pd  Pd171  1  0.80975984  0.59858379  0.00366122  1
  Pd  Pd172  1  0.20808365  0.80056964  0.80056094  1
  Pd  Pd173  1  0.80034371  0.39764270  -0.00218597  1
  Pd  Pd174  1  0.40642965  0.59952173  0.80351829  1
  Pd  Pd175  1  0.00332162  0.00158633  0.60669970  1
  Pd  Pd176  1  0.20430112  0.79420732  0.61031720  1
  Pd  Pd177  1  0.79511002  0.20957471  0.40535815  1
  Pd  Pd178  1  0.40008426  0.60160910  0.40226342  1
  Pd  Pd179  1  0.20988675  0.59035001  0.40590517  1
  Pd  Pd180  1  0.59919173  0.20199410  0.20631545  1
  Pd  Pd181  1  0.79412774  0.80976859  0.40250431  1
  Pd  Pd182  1  0.79610025  0.00585695  0.00788557  1
  Pd  Pd183  1  0.59556861  -0.00353333  0.19506299  1
  Pd  Pd184  1  0.19773714  0.00269827  -0.00345311  1
  Pd  Pd185  1  0.79384881  0.20047398  0.79533321  1
  Pd  Pd186  1  0.18748296  0.40451163  -0.00568003  1
  Pd  Pd187  1  0.81299523  0.80390520  0.19202440  1
  Pd  Pd188  1  0.00198688  0.19683435  0.59944339  1
  Pd  Pd189  1  0.59569718  0.61445186  0.41402439  1
  Pd  Pd190  1  0.19618817  0.40120879  0.19080773  1
  Pd  Pd191  1  0.20242605  -0.01006823  0.20570045  1
  Pd  Pd192  1  0.80942192  0.80678805  0.00041693  1
  Pd  Pd193  1  0.19771125  0.60119719  0.19697537  1
  Pd  Pd194  1  0.20112645  0.59229307  0.79691103  1
  Pd  Pd195  1  0.39370673  0.80555594  0.79919044  1
  Pd  Pd196  1  0.61774558  0.79540177  0.80762533  1
  Pd  Pd197  1  0.00582097  0.80071615  0.38840060  1
  Pd  Pd198  1  0.79911441  0.40987141  0.20794842  1
  Pd  Pd199  1  -0.00103530  -0.00262483  0.19821219  1
  Rh  Rh200  1  -0.00620073  0.60577366  0.40364984  1
  Rh  Rh201  1  0.79724116  0.19513354  0.60449824  1
  Rh  Rh202  1  0.19989629  -0.00441560  0.59368206  1
  Rh  Rh203  1  0.79366998  0.40207924  0.60094674  1
  Rh  Rh204  1  0.20404156  0.40402023  0.40620816  1
  Rh  Rh205  1  0.19988963  0.19863019  -0.00689381  1
  Rh  Rh206  1  0.79742294  0.19934105  0.19458690  1
  Rh  Rh207  1  0.80105926  0.00230752  0.19197674  1
  Rh  Rh208  1  0.19241406  0.80945019  0.38853611  1
  Rh  Rh209  1  0.00012143  0.20116457  0.20120877  1
  Rh  Rh210  1  0.39685755  0.59982991  0.20010115  1
  Rh  Rh211  1  0.61165162  0.39237570  0.40670625  1
  Rh  Rh212  1  0.40721333  0.19317517  0.80508734  1
  Rh  Rh213  1  0.59627035  -0.00450276  0.59540879  1
  Rh  Rh214  1  0.00358100  0.40173254  0.59021192  1
  Rh  Rh215  1  0.00624343  0.79242714  0.60392138  1
  Rh  Rh216  1  0.19838450  0.59391716  -0.00669654  1
  Rh  Rh217  1  0.20051402  0.79278027  0.00129474  1
  Rh  Rh218  1  0.60685297  0.40360944  0.19070181  1
  Rh  Rh219  1  -0.00570159  0.19578268  0.00436984  1
  Rh  Rh220  1  0.40191416  -0.00985856  0.60361716  1
  Rh  Rh221  1  0.59126823  0.20506183  -0.00986110  1
  Rh  Rh222  1  -0.00318605  0.60829718  0.20038281  1
  Rh  Rh223  1  0.40270828  0.60534602  -0.00593009  1
  Rh  Rh224  1  0.40844226  0.79825488  0.40057717  1
  Rh  Rh225  1  0.60537382  0.00159332  0.00339110  1
  Rh  Rh226  1  0.19701516  0.20642101  0.19280558  1
  Rh  Rh227  1  -0.00351301  0.59312984  -0.00390614  1
  Rh  Rh228  1  0.00374626  0.00570649  -0.00098717  1
  Rh  Rh229  1  0.59941523  0.00722565  0.79699487  1
  Rh  Rh230  1  0.80481226  0.19581935  0.00643930  1
  Rh  Rh231  1  0.80695741  0.00201619  0.59758526  1
  Rh  Rh232  1  0.39081458  0.80147795  0.19390828  1
  Rh  Rh233  1  -0.00444810  0.40069969  -0.00005727  1
  Rh  Rh234  1  0.41221327  0.20079898  0.59017306  1
  Rh  Rh235  1  0.39028348  0.00845504  0.00398185  1
  Rh  Rh236  1  0.80516221  0.80511304  0.60483803  1
  Rh  Rh237  1  0.39472504  0.40028952  0.60092311  1
  Rh  Rh238  1  0.20679402  0.19189321  0.40724811  1
  Rh  Rh239  1  0.39734930  0.39411806  0.39478571  1
  Rh  Rh240  1  0.41111569  0.39229366  0.00543625  1
  Rh  Rh241  1  0.80846207  -0.00442503  0.79981893  1
  Rh  Rh242  1  0.59707778  0.79974608  0.00125602  1
  Rh  Rh243  1  -0.00431903  0.80146595  0.00527913  1
  Rh  Rh244  1  -0.00502028  0.39960631  0.80740801  1
  Rh  Rh245  1  0.19365489  0.00423616  0.80545798  1
  Rh  Rh246  1  0.60346337  0.60786144  0.19281659  1
  Rh  Rh247  1  0.60133906  0.79348232  0.59095285  1
  Rh  Rh248  1  0.00567257  0.39097773  0.20147128  1
  Rh  Rh249  1  0.40349293  0.60159945  0.60028419  1
