# generated using pymatgen
data_ZrScNbPdRh
_symmetry_space_group_name_H-M   'P 1'
_cell_length_a   16.55931739
_cell_length_b   16.55879145
_cell_length_c   16.55797612
_cell_angle_alpha   90.00725307
_cell_angle_beta   89.96589227
_cell_angle_gamma   89.98705777
_symmetry_Int_Tables_number   1
_chemical_formula_structural   ZrScNbPdRh
_chemical_formula_sum   'Zr50 Sc50 Nb50 Pd50 Rh50'
_cell_volume   4540.23390021
_cell_formula_units_Z   50
loop_
 _symmetry_equiv_pos_site_id
 _symmetry_equiv_pos_as_xyz
  1  'x, y, z'
loop_
 _atom_site_type_symbol
 _atom_site_label
 _atom_site_symmetry_multiplicity
 _atom_site_fract_x
 _atom_site_fract_y
 _atom_site_fract_z
 _atom_site_occupancy
  Zr  Zr0  1  0.30811460  0.89956064  0.90096341  1
  Zr  Zr1  1  0.30759844  0.49135026  0.10346235  1
  Zr  Zr2  1  0.11482292  0.70538939  0.30394520  1
  Zr  Zr3  1  0.10802977  0.29553569  0.69791477  1
  Zr  Zr4  1  0.10196255  0.90310068  0.30438424  1
  Zr  Zr5  1  0.29994450  0.30227376  0.29773267  1
  Zr  Zr6  1  0.89512394  0.90340639  0.09917251  1
  Zr  Zr7  1  0.50333173  0.30264036  0.89534437  1
  Zr  Zr8  1  0.89977730  0.50187518  0.69910897  1
  Zr  Zr9  1  0.50722517  0.50298612  0.69561504  1
  Zr  Zr10  1  0.09787298  0.10134232  0.49904087  1
  Zr  Zr11  1  0.29994359  0.69816681  0.30336783  1
  Zr  Zr12  1  0.09999144  0.70894680  0.69150932  1
  Zr  Zr13  1  0.89239800  0.10295188  0.50221093  1
  Zr  Zr14  1  0.10593733  0.10829974  0.09062665  1
  Zr  Zr15  1  0.69555355  0.90512981  0.89256627  1
  Zr  Zr16  1  0.90201363  0.50069647  0.09856061  1
  Zr  Zr17  1  0.09523084  0.29480398  0.89980648  1
  Zr  Zr18  1  0.10159380  0.48803000  0.29912577  1
  Zr  Zr19  1  0.89267878  0.89893528  0.30018504  1
  Zr  Zr20  1  0.30386780  0.89942271  0.09487397  1
  Zr  Zr21  1  0.30320668  0.70442568  0.89672229  1
  Zr  Zr22  1  0.29763730  0.28821022  0.10617791  1
  Zr  Zr23  1  0.50253317  0.09748644  0.89475648  1
  Zr  Zr24  1  0.90012365  0.49852568  0.29967926  1
  Zr  Zr25  1  0.10332421  0.69858407  0.89429773  1
  Zr  Zr26  1  0.68548922  0.90353958  0.30095931  1
  Zr  Zr27  1  0.88697689  0.69815005  0.30762291  1
  Zr  Zr28  1  0.49555356  0.70224445  0.89161273  1
  Zr  Zr29  1  0.69953451  0.09652466  0.88873415  1
  Zr  Zr30  1  0.69554538  0.70193055  0.89158140  1
  Zr  Zr31  1  0.69359654  0.70113419  0.29235557  1
  Zr  Zr32  1  0.69918766  0.30524563  0.30724763  1
  Zr  Zr33  1  0.69818426  0.29027105  0.50041306  1
  Zr  Zr34  1  0.89824494  0.89807804  0.49838689  1
  Zr  Zr35  1  0.90574861  0.30290963  0.29831660  1
  Zr  Zr36  1  0.70501979  0.29461886  0.10116736  1
  Zr  Zr37  1  0.69519186  0.69156111  0.69763132  1
  Zr  Zr38  1  0.89969833  0.29857756  0.90339135  1
  Zr  Zr39  1  0.31371523  0.90456964  0.50265875  1
  Zr  Zr40  1  0.10101632  0.09860438  0.89105064  1
  Zr  Zr41  1  0.30228937  0.50408502  0.88376932  1
  Zr  Zr42  1  0.69360884  0.49769406  0.88406489  1
  Zr  Zr43  1  0.89887622  0.10636123  0.09637836  1
  Zr  Zr44  1  0.29074669  0.69820658  0.50784341  1
  Zr  Zr45  1  0.30221645  0.49970008  0.68786911  1
  Zr  Zr46  1  0.90558869  0.70412863  0.51289265  1
  Zr  Zr47  1  0.31045685  0.30325158  0.89482741  1
  Zr  Zr48  1  0.49341255  0.49495341  0.50144988  1
  Zr  Zr49  1  0.29961465  0.68861799  0.70589948  1
  Sc  Sc50  1  0.09548426  0.10247323  0.30454752  1
  Sc  Sc51  1  0.49746851  0.09420204  0.30294374  1
  Sc  Sc52  1  0.50163037  0.71300465  0.50292326  1
  Sc  Sc53  1  0.09723729  0.89765388  0.49409194  1
  Sc  Sc54  1  0.90080556  0.70263636  0.90203091  1
  Sc  Sc55  1  0.09403659  0.49558212  0.09912077  1
  Sc  Sc56  1  0.49975630  0.69654102  0.10960764  1
  Sc  Sc57  1  0.50114648  0.49130579  0.10562951  1
  Sc  Sc58  1  0.68620095  0.49350261  0.50080754  1
  Sc  Sc59  1  0.91107563  0.49887545  0.50835554  1
  Sc  Sc60  1  0.90191732  0.10554009  0.30576249  1
  Sc  Sc61  1  0.50487154  0.29974981  0.49531560  1
  Sc  Sc62  1  0.90119585  0.10125501  0.90458857  1
  Sc  Sc63  1  0.10134250  0.49463255  0.69263460  1
  Sc  Sc64  1  0.50051015  0.89912250  0.90000392  1
  Sc  Sc65  1  0.50382200  0.49209021  0.30036154  1
  Sc  Sc66  1  0.89626260  0.90757540  0.89586872  1
  Sc  Sc67  1  0.69701082  0.49541912  0.11258587  1
  Sc  Sc68  1  0.10727010  0.90632467  0.89282371  1
  Sc  Sc69  1  0.89581564  0.29766729  0.49716755  1
  Sc  Sc70  1  0.70452984  0.70034707  0.49635483  1
  Sc  Sc71  1  0.50255500  0.10810695  0.69748130  1
  Sc  Sc72  1  0.49868718  0.10103535  0.49624548  1
  Sc  Sc73  1  0.30041902  0.09838489  0.90444184  1
  Sc  Sc74  1  0.49099606  0.30791032  0.09800751  1
  Sc  Sc75  1  0.70055289  0.09257644  0.10478220  1
  Sc  Sc76  1  0.30444715  0.10932850  0.69681482  1
  Sc  Sc77  1  0.11129271  0.70038256  0.10197680  1
  Sc  Sc78  1  0.49769732  0.90594063  0.09962231  1
  Sc  Sc79  1  0.70090144  0.50331743  0.30448831  1
  Sc  Sc80  1  0.89530591  0.09166234  0.69582423  1
  Sc  Sc81  1  0.10981517  0.49274890  0.50537902  1
  Sc  Sc82  1  0.09128941  0.49958577  0.90146808  1
  Sc  Sc83  1  0.30754433  0.10742530  0.29892585  1
  Sc  Sc84  1  0.69715208  0.09768976  0.69363086  1
  Sc  Sc85  1  0.30231639  0.70325931  0.10479419  1
  Sc  Sc86  1  0.48904700  0.09373649  0.10445656  1
  Sc  Sc87  1  0.30773504  0.10633912  0.50129766  1
  Sc  Sc88  1  0.69110642  0.10071446  0.30405536  1
  Sc  Sc89  1  0.88722815  0.70299545  0.10395094  1
  Sc  Sc90  1  0.29944124  0.49322479  0.30259713  1
  Sc  Sc91  1  0.70313812  0.89875431  0.10830217  1
  Sc  Sc92  1  0.90066218  0.49342481  0.90151652  1
  Sc  Sc93  1  0.30002815  0.89693819  0.69726530  1
  Sc  Sc94  1  0.69930444  0.30348984  0.89847895  1
  Sc  Sc95  1  0.29649029  0.89989562  0.31158054  1
  Sc  Sc96  1  0.30686017  0.30798657  0.50036742  1
  Sc  Sc97  1  0.68701724  0.29479599  0.69823727  1
  Sc  Sc98  1  0.90572075  0.89688258  0.69397958  1
  Sc  Sc99  1  0.90258156  0.29918451  0.09755718  1
  Nb  Nb100  1  0.69170548  0.89972071  0.70164601  1
  Nb  Nb101  1  0.90353038  0.30093456  0.69840529  1
  Nb  Nb102  1  0.29997172  0.09894937  0.10567431  1
  Nb  Nb103  1  0.50206977  0.90162064  0.49732295  1
  Nb  Nb104  1  0.49854947  0.29279960  0.70451492  1
  Nb  Nb105  1  0.30085689  0.29812198  0.70054927  1
  Nb  Nb106  1  0.10474108  0.30080700  0.10714150  1
  Nb  Nb107  1  0.10511923  0.30367318  0.29884875  1
  Nb  Nb108  1  0.69947113  0.49721500  0.69664135  1
  Nb  Nb109  1  0.10637513  0.09863833  0.69877343  1
  Nb  Nb110  1  0.50353847  0.70295430  0.70077176  1
  Nb  Nb111  1  0.69707435  0.69746200  0.09877795  1
  Nb  Nb112  1  0.68367083  0.90474951  0.50553350  1
  Nb  Nb113  1  0.90059653  0.70007556  0.69519977  1
  Nb  Nb114  1  0.49950602  0.70580790  0.30710301  1
  Nb  Nb115  1  0.49933224  0.89479524  0.31952943  1
  Nb  Nb116  1  0.49723523  0.29458253  0.30212822  1
  Nb  Nb117  1  0.30741064  0.50262632  0.50246867  1
  Nb  Nb118  1  0.50578089  0.89823319  0.68414129  1
  Nb  Nb119  1  0.10246775  0.89890380  0.10368830  1
  Nb  Nb120  1  0.49904153  0.49641819  0.90324498  1
  Nb  Nb121  1  0.10167961  0.91309626  0.70231712  1
  Nb  Nb122  1  0.10484426  0.30191978  0.50379924  1
  Nb  Nb123  1  0.09865475  0.69705373  0.49968909  1
  Nb  Nb124  1  0.70176169  0.10631280  0.50032707  1
  Nb  Nb125  1  0.20893235  0.59407096  -0.00408549  1
  Nb  Nb126  1  0.19615750  0.20994382  0.40085332  1
  Nb  Nb127  1  0.00373286  0.80616129  0.00651288  1
  Nb  Nb128  1  0.00040587  0.60811489  0.20887332  1
  Nb  Nb129  1  0.59955769  0.19829514  0.00357673  1
  Nb  Nb130  1  0.79561611  0.39866045  0.60753628  1
  Nb  Nb131  1  0.60333481  0.79246196  0.00157014  1
  Nb  Nb132  1  0.19997284  0.00406687  0.19444821  1
  Nb  Nb133  1  0.00700663  0.60417828  0.40014330  1
  Nb  Nb134  1  0.79700061  0.79880636  0.79015414  1
  Nb  Nb135  1  0.59450683  0.20410206  0.19820428  1
  Nb  Nb136  1  0.59826626  0.59885770  -0.00297003  1
  Nb  Nb137  1  0.80255185  0.20321798  0.79487311  1
  Nb  Nb138  1  0.78681679  0.60041335  -0.00084040  1
  Nb  Nb139  1  0.40508401  0.80272103  0.21362945  1
  Nb  Nb140  1  -0.00294439  0.60730329  0.79038840  1
  Nb  Nb141  1  0.19716022  0.00448212  0.60207713  1
  Nb  Nb142  1  0.00126300  0.80035636  0.19957429  1
  Nb  Nb143  1  0.40280379  0.59602505  -0.00455461  1
  Nb  Nb144  1  0.40411163  -0.00176494  0.79224478  1
  Nb  Nb145  1  0.39993523  0.60171327  0.40423243  1
  Nb  Nb146  1  0.00473679  0.20063858  0.60402773  1
  Nb  Nb147  1  0.20366709  0.39774775  -0.00138812  1
  Nb  Nb148  1  0.00403171  -0.00295389  0.19455922  1
  Nb  Nb149  1  0.78906997  -0.00028294  0.41009200  1
  Pd  Pd150  1  0.79524794  0.58973786  0.59154104  1
  Pd  Pd151  1  0.40696319  0.40295967  0.78727943  1
  Pd  Pd152  1  0.80201171  0.40027575  0.20047899  1
  Pd  Pd153  1  0.00218396  0.40195251  0.40821138  1
  Pd  Pd154  1  0.59096683  0.80669751  0.19360877  1
  Pd  Pd155  1  0.20982920  0.01307415  0.40250142  1
  Pd  Pd156  1  -0.00664759  0.00426854  0.79917869  1
  Pd  Pd157  1  0.40532943  0.60072133  0.20598361  1
  Pd  Pd158  1  -0.00932065  0.19041989  0.79088838  1
  Pd  Pd159  1  0.00072160  0.79346262  0.39502700  1
  Pd  Pd160  1  0.00385881  0.20912614  0.40677712  1
  Pd  Pd161  1  0.80561722  0.58984407  0.41447611  1
  Pd  Pd162  1  0.40702722  0.19581630  0.00136988  1
  Pd  Pd163  1  0.19685595  0.79627548  -0.00327276  1
  Pd  Pd164  1  0.00436510  0.00149598  0.59649250  1
  Pd  Pd165  1  0.00558512  0.19726103  0.19738096  1
  Pd  Pd166  1  0.78558490  0.80868049  0.40296891  1
  Pd  Pd167  1  0.20146401  -0.00134512  0.00087770  1
  Pd  Pd168  1  0.79728392  0.39037629  0.79215663  1
  Pd  Pd169  1  0.40610865  0.80927800  0.78634782  1
  Pd  Pd170  1  0.59691482  0.60541284  0.58996680  1
  Pd  Pd171  1  0.20462277  0.20602383  -0.00885446  1
  Pd  Pd172  1  0.59356950  0.01124240  0.59871104  1
  Pd  Pd173  1  0.79363770  0.00391156  -0.00139324  1
  Pd  Pd174  1  0.20011713  0.80717900  0.79623557  1
  Pd  Pd175  1  0.00475032  0.40583803  0.79653539  1
  Pd  Pd176  1  -0.00088013  0.61304707  0.00480576  1
  Pd  Pd177  1  0.79033771  0.80672418  0.60528808  1
  Pd  Pd178  1  0.20967537  0.19638305  0.80397351  1
  Pd  Pd179  1  0.79389229  -0.00890385  0.59911544  1
  Pd  Pd180  1  0.40493598  0.20733584  0.59493310  1
  Pd  Pd181  1  0.59178328  0.60255434  0.40354474  1
  Pd  Pd182  1  0.79272985  0.40895360  0.00080829  1
  Pd  Pd183  1  0.79813468  0.79792986  -0.00827704  1
  Pd  Pd184  1  0.60187647  -0.00078619  0.00749877  1
  Pd  Pd185  1  0.79335681  0.19478960  0.20897847  1
  Pd  Pd186  1  0.19353394  0.40322510  0.80133295  1
  Pd  Pd187  1  0.60477514  0.39975668  0.00445634  1
  Pd  Pd188  1  0.80040761  0.40749001  0.41346513  1
  Pd  Pd189  1  0.59426752  0.59508366  0.20095646  1
  Pd  Pd190  1  0.00476050  -0.00432076  -0.00021539  1
  Pd  Pd191  1  0.19496120  0.81263551  0.59654197  1
  Pd  Pd192  1  0.80286545  0.00978645  0.21139499  1
  Pd  Pd193  1  0.39862428  0.79327959  0.60482625  1
  Pd  Pd194  1  -0.00535358  0.80152301  0.80451539  1
  Pd  Pd195  1  0.39437622  -0.01049138  0.21205876  1
  Pd  Pd196  1  0.19611377  0.58952791  0.19275700  1
  Pd  Pd197  1  0.80950573  0.60488857  0.80447133  1
  Pd  Pd198  1  0.40609037  0.38933811  0.60545532  1
  Pd  Pd199  1  0.20132151  0.58917369  0.40460726  1
  Rh  Rh200  1  0.39358299  0.40446920  -0.00403902  1
  Rh  Rh201  1  0.59744411  0.39772125  0.39861946  1
  Rh  Rh202  1  0.18570361  0.59335814  0.79750353  1
  Rh  Rh203  1  0.40207364  0.39429714  0.20654839  1
  Rh  Rh204  1  0.80528316  0.20890175  0.60906702  1
  Rh  Rh205  1  -0.00434633  0.38932216  0.59681401  1
  Rh  Rh206  1  0.60053988  0.38943752  0.20505666  1
  Rh  Rh207  1  0.59663077  0.19694653  0.39495685  1
  Rh  Rh208  1  0.79516238  0.79795916  0.20398102  1
  Rh  Rh209  1  -0.01540747  -0.00193959  0.39604784  1
  Rh  Rh210  1  0.59883116  0.80652417  0.79772753  1
  Rh  Rh211  1  0.00955603  0.60107419  0.60021074  1
  Rh  Rh212  1  0.60463802  0.79590477  0.59862562  1
  Rh  Rh213  1  0.19994274  0.40221094  0.19116794  1
  Rh  Rh214  1  0.00782628  0.38893647  0.00516521  1
  Rh  Rh215  1  0.20916178  0.81308331  0.20168833  1
  Rh  Rh216  1  0.40129119  0.00308408  0.40110363  1
  Rh  Rh217  1  0.78947654  0.19349847  -0.01252512  1
  Rh  Rh218  1  0.59278737  0.00267388  0.20220693  1
  Rh  Rh219  1  0.19519906  0.59670869  0.60123454  1
  Rh  Rh220  1  0.21456061  0.00181255  0.79094173  1
  Rh  Rh221  1  0.40729245  0.60894513  0.59594100  1
  Rh  Rh222  1  0.40832221  0.20156307  0.19929959  1
  Rh  Rh223  1  0.60681496  0.20246180  0.80552654  1
  Rh  Rh224  1  0.39442436  0.79333683  0.40225614  1
  Rh  Rh225  1  0.40201221  0.40472050  0.39631554  1
  Rh  Rh226  1  0.59362957  0.39818646  0.79159318  1
  Rh  Rh227  1  0.00209640  0.20345446  0.00390557  1
  Rh  Rh228  1  0.00698452  0.80816948  0.60011725  1
  Rh  Rh229  1  0.59935700  0.39197570  0.60330913  1
  Rh  Rh230  1  0.80199877  0.59644185  0.19339472  1
  Rh  Rh231  1  0.20569345  0.80367515  0.41161205  1
  Rh  Rh232  1  0.59397279  0.19934800  0.59498617  1
  Rh  Rh233  1  0.39870260  0.19459727  0.79998906  1
  Rh  Rh234  1  0.58786400  -0.00434029  0.78671155  1
  Rh  Rh235  1  0.19903407  0.19860729  0.59215258  1
  Rh  Rh236  1  0.59157191  0.59527878  0.79942822  1
  Rh  Rh237  1  0.59952083  0.00552946  0.40727296  1
  Rh  Rh238  1  0.79767276  0.19510358  0.39361384  1
  Rh  Rh239  1  0.40993833  0.59591634  0.79513436  1
  Rh  Rh240  1  0.21111598  0.39518484  0.59960141  1
  Rh  Rh241  1  0.39960587  0.00130542  0.60613668  1
  Rh  Rh242  1  0.80186592  -0.00175330  0.79167308  1
  Rh  Rh243  1  0.60561179  0.79551079  0.40706606  1
  Rh  Rh244  1  0.39525181  0.20393319  0.39933207  1
  Rh  Rh245  1  0.41260889  0.79072775  0.01479912  1
  Rh  Rh246  1  0.39992034  0.00552273  -0.00873176  1
  Rh  Rh247  1  0.19415702  0.19084439  0.21176972  1
  Rh  Rh248  1  -0.00229936  0.39932923  0.19542543  1
  Rh  Rh249  1  0.20474305  0.39646891  0.40720236  1
