# generated using pymatgen
data_ZrScNbPdRh
_symmetry_space_group_name_H-M   'P 1'
_cell_length_a   16.55572703
_cell_length_b   16.55625003
_cell_length_c   16.55134253
_cell_angle_alpha   90.01384920
_cell_angle_beta   90.01938299
_cell_angle_gamma   89.96009763
_symmetry_Int_Tables_number   1
_chemical_formula_structural   ZrScNbPdRh
_chemical_formula_sum   'Zr50 Sc50 Nb50 Pd50 Rh50'
_cell_volume   4536.73400987
_cell_formula_units_Z   50
loop_
 _symmetry_equiv_pos_site_id
 _symmetry_equiv_pos_as_xyz
  1  'x, y, z'
loop_
 _atom_site_type_symbol
 _atom_site_label
 _atom_site_symmetry_multiplicity
 _atom_site_fract_x
 _atom_site_fract_y
 _atom_site_fract_z
 _atom_site_occupancy
  Zr  Zr0  1  0.10308400  0.70252544  0.09007906  1
  Zr  Zr1  1  0.69936623  0.50570784  0.49732312  1
  Zr  Zr2  1  0.69777737  0.50166796  0.11074903  1
  Zr  Zr3  1  0.90205316  0.90092458  0.50662801  1
  Zr  Zr4  1  0.09746337  0.29218179  0.29701719  1
  Zr  Zr5  1  0.50561739  0.69943379  0.09870070  1
  Zr  Zr6  1  0.50149614  0.89798314  0.69743605  1
  Zr  Zr7  1  0.89066764  0.90556703  0.28990479  1
  Zr  Zr8  1  0.90690612  0.29596940  0.29934804  1
  Zr  Zr9  1  0.49304287  0.30081277  0.50058406  1
  Zr  Zr10  1  0.90044132  0.69524853  0.30153627  1
  Zr  Zr11  1  0.49886208  0.10404819  0.70728605  1
  Zr  Zr12  1  0.29997033  0.69535914  0.49922625  1
  Zr  Zr13  1  0.90010621  0.49849360  0.89688472  1
  Zr  Zr14  1  0.09902672  0.69467840  0.29822146  1
  Zr  Zr15  1  0.09671290  0.70181205  0.90122084  1
  Zr  Zr16  1  0.10133845  0.49127404  0.50451341  1
  Zr  Zr17  1  0.90019606  0.90391557  0.89912873  1
  Zr  Zr18  1  0.90496742  0.30161745  0.90749752  1
  Zr  Zr19  1  0.10064018  0.30364368  0.69413733  1
  Zr  Zr20  1  0.09649097  0.69890927  0.69457003  1
  Zr  Zr21  1  0.10070195  0.49709048  0.89758608  1
  Zr  Zr22  1  0.30560632  0.09858876  0.09983790  1
  Zr  Zr23  1  0.10378165  0.10582165  0.11153734  1
  Zr  Zr24  1  0.70584873  0.70433685  0.70505756  1
  Zr  Zr25  1  0.89284818  0.08703997  0.69813955  1
  Zr  Zr26  1  0.30553581  0.69198600  0.29881709  1
  Zr  Zr27  1  0.30038803  0.30465275  0.90295868  1
  Zr  Zr28  1  0.11260877  0.11143102  0.49928963  1
  Zr  Zr29  1  0.89895657  0.10703913  0.49430857  1
  Zr  Zr30  1  0.49413764  0.09728527  0.50099196  1
  Zr  Zr31  1  0.50631478  0.49689092  0.10403208  1
  Zr  Zr32  1  0.50615708  0.89623682  0.49687371  1
  Zr  Zr33  1  0.29208453  0.08823962  0.69600945  1
  Zr  Zr34  1  0.30063180  0.50578818  0.29847359  1
  Zr  Zr35  1  0.90782358  0.29704837  0.49682623  1
  Zr  Zr36  1  0.89922190  0.70235201  0.69316997  1
  Zr  Zr37  1  0.09448709  0.30568831  0.89212027  1
  Zr  Zr38  1  0.70751419  0.89858191  0.11354932  1
  Zr  Zr39  1  0.09761514  0.90507594  0.69973140  1
  Zr  Zr40  1  0.70074195  0.09059689  0.30150970  1
  Zr  Zr41  1  0.49734495  0.89615160  0.09848227  1
  Zr  Zr42  1  0.30704660  0.49811593  0.10323648  1
  Zr  Zr43  1  0.89995236  0.90268397  0.09635308  1
  Zr  Zr44  1  0.69994169  0.49546030  0.69324979  1
  Zr  Zr45  1  0.29663112  0.49617580  0.50244152  1
  Zr  Zr46  1  0.51065837  0.49396982  0.50843484  1
  Zr  Zr47  1  0.30165750  0.09111713  0.90200830  1
  Zr  Zr48  1  0.69816213  0.30656087  0.09347226  1
  Zr  Zr49  1  0.31012428  0.29655058  0.10324622  1
  Sc  Sc50  1  0.09226026  0.30230144  0.09922302  1
  Sc  Sc51  1  0.30152689  0.90824577  0.29746406  1
  Sc  Sc52  1  0.09658461  0.90080275  0.50068632  1
  Sc  Sc53  1  0.30199193  0.31262840  0.69728903  1
  Sc  Sc54  1  0.70356140  0.49012224  0.89954205  1
  Sc  Sc55  1  0.90307098  0.30350839  0.69919186  1
  Sc  Sc56  1  0.89670085  0.50574345  0.50660239  1
  Sc  Sc57  1  0.90192443  0.49220454  0.10001303  1
  Sc  Sc58  1  0.50149556  0.09855760  0.29289430  1
  Sc  Sc59  1  0.69587151  0.69737060  0.49973646  1
  Sc  Sc60  1  0.09877930  0.49934890  0.29915927  1
  Sc  Sc61  1  0.30368547  0.49270975  0.89493817  1
  Sc  Sc62  1  0.69641665  0.89613632  0.89354449  1
  Sc  Sc63  1  0.50518092  0.90233158  0.31044918  1
  Sc  Sc64  1  0.30478198  0.70045619  0.10287326  1
  Sc  Sc65  1  0.08719285  0.69409282  0.50233392  1
  Sc  Sc66  1  0.30256241  0.69993645  0.90801726  1
  Sc  Sc67  1  0.70093311  0.30801977  0.51026315  1
  Sc  Sc68  1  0.89443616  0.89532732  0.70261250  1
  Sc  Sc69  1  0.90282992  0.70070297  0.88712168  1
  Sc  Sc70  1  0.50128835  0.89814930  0.90503328  1
  Sc  Sc71  1  0.28788630  0.10225015  0.29525209  1
  Sc  Sc72  1  0.71116512  0.09933733  0.50235791  1
  Sc  Sc73  1  0.10114761  0.90322854  0.09298943  1
  Sc  Sc74  1  0.10275212  0.09749488  0.69552520  1
  Sc  Sc75  1  0.50427075  0.49961522  0.30163063  1
  Sc  Sc76  1  0.69468112  0.89932731  0.49403545  1
  Sc  Sc77  1  0.29685428  0.29815056  0.50102821  1
  Sc  Sc78  1  0.30014631  0.90122821  0.09109633  1
  Sc  Sc79  1  0.69350471  0.70520353  0.89890237  1
  Sc  Sc80  1  0.50473257  0.70912829  0.90280284  1
  Sc  Sc81  1  0.49835063  0.30831910  0.70258457  1
  Sc  Sc82  1  0.68962742  0.09968909  0.09940461  1
  Sc  Sc83  1  0.50514973  0.70527474  0.49444476  1
  Sc  Sc84  1  0.09615315  0.89564308  0.90355903  1
  Sc  Sc85  1  0.50728643  0.30069145  0.89987446  1
  Sc  Sc86  1  0.09906825  0.49699472  0.69453766  1
  Sc  Sc87  1  0.30876180  0.90934005  0.50000121  1
  Sc  Sc88  1  0.10093991  0.50489555  0.09856937  1
  Sc  Sc89  1  0.69329092  0.10072584  0.90316651  1
  Sc  Sc90  1  0.69277297  0.29971870  0.28835725  1
  Sc  Sc91  1  0.08872119  0.10160424  0.89786408  1
  Sc  Sc92  1  0.90430041  0.30167668  0.09593334  1
  Sc  Sc93  1  0.89963867  0.50339092  0.29223535  1
  Sc  Sc94  1  0.50252530  0.70505901  0.69725246  1
  Sc  Sc95  1  0.50145319  0.29619305  0.10967921  1
  Sc  Sc96  1  0.50185261  0.09835686  0.90873709  1
  Sc  Sc97  1  0.70254165  0.09616845  0.70807260  1
  Sc  Sc98  1  0.70419017  0.68395413  0.30063737  1
  Sc  Sc99  1  0.31213621  0.29828993  0.30045931  1
  Nb  Nb100  1  0.49448065  0.50513728  0.89105026  1
  Nb  Nb101  1  0.89790216  0.09950198  0.09545495  1
  Nb  Nb102  1  0.89397298  0.10350286  0.90392314  1
  Nb  Nb103  1  0.29582966  0.89983171  0.89683776  1
  Nb  Nb104  1  0.29461663  0.90110058  0.70340079  1
  Nb  Nb105  1  0.88687991  0.51515188  0.70640978  1
  Nb  Nb106  1  0.69957301  0.89566521  0.30221317  1
  Nb  Nb107  1  0.09791210  0.09909283  0.29635759  1
  Nb  Nb108  1  0.69573912  0.29546257  0.70964740  1
  Nb  Nb109  1  0.29991162  0.69775190  0.69901881  1
  Nb  Nb110  1  0.49037526  0.50075309  0.70609710  1
  Nb  Nb111  1  0.50123245  0.70073687  0.29858574  1
  Nb  Nb112  1  0.10061244  0.90264374  0.29650521  1
  Nb  Nb113  1  0.50243777  0.29436491  0.30037964  1
  Nb  Nb114  1  0.30526290  0.50448468  0.70400600  1
  Nb  Nb115  1  0.70424482  0.29771373  0.89571614  1
  Nb  Nb116  1  0.49391237  0.10042358  0.09725429  1
  Nb  Nb117  1  0.89802900  0.70341466  0.49791925  1
  Nb  Nb118  1  0.70359905  0.49934333  0.30369192  1
  Nb  Nb119  1  0.29721499  0.10319726  0.50544737  1
  Nb  Nb120  1  0.90206677  0.10525226  0.29824989  1
  Nb  Nb121  1  0.09811064  0.30311748  0.50411944  1
  Nb  Nb122  1  0.89531307  0.70283666  0.10390789  1
  Nb  Nb123  1  0.69881674  0.69747717  0.10161838  1
  Nb  Nb124  1  0.70106955  0.89992795  0.70146331  1
  Nb  Nb125  1  0.19842525  0.79956801  0.39833958  1
  Nb  Nb126  1  0.40963595  0.59544723  -0.00163439  1
  Nb  Nb127  1  0.39051300  0.80362274  0.79685432  1
  Nb  Nb128  1  0.60408260  0.79524052  0.20533911  1
  Nb  Nb129  1  0.19521024  0.80037833  0.20574289  1
  Nb  Nb130  1  0.80275073  0.79781814  0.39605725  1
  Nb  Nb131  1  0.80262557  0.20155538  0.80781726  1
  Nb  Nb132  1  0.00159456  0.80005602  0.19908527  1
  Nb  Nb133  1  0.20467998  0.39869823  0.19997752  1
  Nb  Nb134  1  0.59453995  0.59407540  0.79758006  1
  Nb  Nb135  1  0.20551843  0.60340471  0.79478873  1
  Nb  Nb136  1  0.20423870  0.79909990  0.79631356  1
  Nb  Nb137  1  0.79810711  0.60572241  0.00502280  1
  Nb  Nb138  1  0.40010005  0.59753667  0.60595381  1
  Nb  Nb139  1  0.80049396  0.79480567  0.00538045  1
  Nb  Nb140  1  0.80365988  0.19456066  0.19758038  1
  Nb  Nb141  1  0.00231871  0.00751612  0.39059999  1
  Nb  Nb142  1  0.39186013  0.19813761  0.80274170  1
  Nb  Nb143  1  0.20086894  0.20145237  -0.00336714  1
  Nb  Nb144  1  0.20490697  0.79982433  0.60074724  1
  Nb  Nb145  1  0.20340666  0.20140373  0.80215094  1
  Nb  Nb146  1  0.59950230  0.19836267  0.60215782  1
  Nb  Nb147  1  0.59681180  0.20133916  0.40464558  1
  Nb  Nb148  1  0.79848580  0.40220181  0.39608868  1
  Nb  Nb149  1  0.60030331  0.00218467  0.60264877  1
  Pd  Pd150  1  -0.01222409  0.40973451  0.60674617  1
  Pd  Pd151  1  0.40015246  0.19018203  0.39378559  1
  Pd  Pd152  1  0.41282996  0.40187970  -0.00208391  1
  Pd  Pd153  1  0.60347213  0.59393763  -0.01205877  1
  Pd  Pd154  1  -0.01109616  0.59956749  0.00174876  1
  Pd  Pd155  1  0.00061591  -0.00143086  0.19827777  1
  Pd  Pd156  1  0.00693600  0.59482739  0.79338353  1
  Pd  Pd157  1  0.20024133  0.39108573  0.39140286  1
  Pd  Pd158  1  0.41267156  0.59344268  0.41009317  1
  Pd  Pd159  1  -0.00161009  0.80944319  0.39399051  1
  Pd  Pd160  1  0.39511604  0.00999052  0.39273745  1
  Pd  Pd161  1  -0.00335688  0.19475520  0.79140769  1
  Pd  Pd162  1  -0.00271470  0.58917727  0.40537265  1
  Pd  Pd163  1  0.00515658  0.00971154  0.58924929  1
  Pd  Pd164  1  -0.00017379  0.19345828  0.60556199  1
  Pd  Pd165  1  0.60440537  -0.00713975  0.00329242  1
  Pd  Pd166  1  0.59527897  0.60401138  0.60783878  1
  Pd  Pd167  1  0.40188337  0.40530176  0.39760727  1
  Pd  Pd168  1  0.39648681  0.79678426  0.60068407  1
  Pd  Pd169  1  0.79274983  0.80164017  0.59074337  1
  Pd  Pd170  1  -0.00112853  0.00046283  0.80145281  1
  Pd  Pd171  1  0.20318222  0.20818517  0.39573698  1
  Pd  Pd172  1  0.39278934  0.80265727  0.39465245  1
  Pd  Pd173  1  0.59797196  0.40443130  0.79905418  1
  Pd  Pd174  1  0.60081062  -0.00200615  0.79918956  1
  Pd  Pd175  1  0.78857072  -0.00480783  -0.00341043  1
  Pd  Pd176  1  0.59292681  -0.00699414  0.19927577  1
  Pd  Pd177  1  0.19102468  0.60190662  0.40605533  1
  Pd  Pd178  1  0.60676686  0.39190482  0.39553389  1
  Pd  Pd179  1  0.19668410  -0.00432431  0.40362299  1
  Pd  Pd180  1  0.59509858  0.20394463  0.00212032  1
  Pd  Pd181  1  0.39678986  0.20221752  0.61029774  1
  Pd  Pd182  1  0.40076827  0.80386731  0.20668663  1
  Pd  Pd183  1  0.59718674  0.40196732  -0.00454770  1
  Pd  Pd184  1  0.40354712  -0.00211056  0.60165654  1
  Pd  Pd185  1  0.21236259  0.59448292  -0.00663426  1
  Pd  Pd186  1  0.79637040  0.20046596  0.00254573  1
  Pd  Pd187  1  0.79499564  0.20372541  0.61198476  1
  Pd  Pd188  1  0.00111480  0.60127079  0.19114105  1
  Pd  Pd189  1  0.80556246  0.39326064  0.79662166  1
  Pd  Pd190  1  0.78711483  0.21312353  0.39069473  1
  Pd  Pd191  1  0.40131127  -0.00005598  0.20236510  1
  Pd  Pd192  1  0.80341955  0.39185080  0.20429517  1
  Pd  Pd193  1  0.19138508  0.00599682  -0.00238457  1
  Pd  Pd194  1  0.80568387  0.39833138  0.59787061  1
  Pd  Pd195  1  -0.00675367  0.40705607  0.39690802  1
  Pd  Pd196  1  0.40525268  -0.00266498  0.80561523  1
  Pd  Pd197  1  0.19577668  0.39580762  0.00972175  1
  Pd  Pd198  1  0.00464249  0.00794643  0.00195191  1
  Pd  Pd199  1  0.80508841  -0.00676011  0.40441041  1
  Rh  Rh200  1  0.40391052  -0.00570271  -0.00102844  1
  Rh  Rh201  1  0.20201426  -0.00770251  0.19504074  1
  Rh  Rh202  1  0.00952137  0.40216132  0.19980233  1
  Rh  Rh203  1  0.79762994  0.78974259  0.20499100  1
  Rh  Rh204  1  0.19877617  0.40381631  0.79253174  1
  Rh  Rh205  1  0.59662279  0.39976351  0.20680003  1
  Rh  Rh206  1  0.00285514  0.79934214  0.60160866  1
  Rh  Rh207  1  0.59969474  0.19975985  0.79954490  1
  Rh  Rh208  1  0.79895044  0.40513531  0.00168091  1
  Rh  Rh209  1  0.60191707  0.01046853  0.40864399  1
  Rh  Rh210  1  0.59894197  0.39270913  0.60964587  1
  Rh  Rh211  1  0.79779280  0.00448142  0.80735933  1
  Rh  Rh212  1  -0.00844891  0.59606460  0.60052627  1
  Rh  Rh213  1  0.20375482  0.20989021  0.19581425  1
  Rh  Rh214  1  0.00208095  0.80562859  0.79592421  1
  Rh  Rh215  1  0.80370384  0.59854970  0.40434192  1
  Rh  Rh216  1  0.59727486  0.60283848  0.20981105  1
  Rh  Rh217  1  0.01096529  0.19432519  0.40241437  1
  Rh  Rh218  1  -0.00703636  0.40911349  0.79169650  1
  Rh  Rh219  1  0.00542684  0.19497754  0.00438373  1
  Rh  Rh220  1  0.60811359  0.80749321  0.60124088  1
  Rh  Rh221  1  0.61060877  0.78800778  0.38878649  1
  Rh  Rh222  1  0.78657281  0.60148934  0.81010030  1
  Rh  Rh223  1  0.19897157  -0.00799740  0.58827351  1
  Rh  Rh224  1  0.61078019  0.80904791  0.01240742  1
  Rh  Rh225  1  0.40112869  0.19902356  -0.00409063  1
  Rh  Rh226  1  -0.00918746  0.19735663  0.19146931  1
  Rh  Rh227  1  0.80252240  0.59567043  0.19425657  1
  Rh  Rh228  1  0.20498772  0.80116258  0.00057082  1
  Rh  Rh229  1  -0.01067047  0.79775409  0.00373076  1
  Rh  Rh230  1  0.40216718  0.40075886  0.20848097  1
  Rh  Rh231  1  0.39693308  0.79713553  -0.00713724  1
  Rh  Rh232  1  0.41012119  0.59947021  0.19332530  1
  Rh  Rh233  1  0.40058668  0.39118241  0.80328271  1
  Rh  Rh234  1  0.40365980  0.19184494  0.20320580  1
  Rh  Rh235  1  0.00356194  0.40572313  0.00035583  1
  Rh  Rh236  1  0.60169640  0.19547686  0.20099594  1
  Rh  Rh237  1  0.20411437  0.59995714  0.60215304  1
  Rh  Rh238  1  0.40225358  0.61212462  0.80238234  1
  Rh  Rh239  1  0.39862153  0.40709039  0.59763744  1
  Rh  Rh240  1  0.20355806  0.39959845  0.60206565  1
  Rh  Rh241  1  0.79142585  -0.00831445  0.59947398  1
  Rh  Rh242  1  0.20515637  0.20717801  0.60635850  1
  Rh  Rh243  1  0.59299173  0.79657711  0.79459095  1
  Rh  Rh244  1  0.80180910  0.80228060  0.80747925  1
  Rh  Rh245  1  0.80003910  0.01349642  0.19562862  1
  Rh  Rh246  1  0.59650186  0.60120317  0.39681656  1
  Rh  Rh247  1  0.79883040  0.60760069  0.59572867  1
  Rh  Rh248  1  0.19961454  0.59863539  0.19567801  1
  Rh  Rh249  1  0.18955893  -0.00076485  0.80734951  1
