# generated using pymatgen
data_ZrScNbPdRh
_symmetry_space_group_name_H-M   'P 1'
_cell_length_a   16.55847100
_cell_length_b   16.55899289
_cell_length_c   16.56194564
_cell_angle_alpha   90.03168218
_cell_angle_beta   90.02430363
_cell_angle_gamma   90.00523509
_symmetry_Int_Tables_number   1
_chemical_formula_structural   ZrScNbPdRh
_chemical_formula_sum   'Zr50 Sc50 Nb50 Pd50 Rh50'
_cell_volume   4541.14531249
_cell_formula_units_Z   50
loop_
 _symmetry_equiv_pos_site_id
 _symmetry_equiv_pos_as_xyz
  1  'x, y, z'
loop_
 _atom_site_type_symbol
 _atom_site_label
 _atom_site_symmetry_multiplicity
 _atom_site_fract_x
 _atom_site_fract_y
 _atom_site_fract_z
 _atom_site_occupancy
  Zr  Zr0  1  0.50815866  0.10139922  0.30891679  1
  Zr  Zr1  1  0.69660313  0.90798942  0.30027828  1
  Zr  Zr2  1  0.70359483  0.50182139  0.70102838  1
  Zr  Zr3  1  0.09886244  0.29714130  0.70334595  1
  Zr  Zr4  1  0.09165177  0.89165221  0.89940970  1
  Zr  Zr5  1  0.29145651  0.10120095  0.89806035  1
  Zr  Zr6  1  0.10923942  0.50276896  0.50068790  1
  Zr  Zr7  1  0.51767802  0.69884503  0.50459875  1
  Zr  Zr8  1  0.90076035  0.89492282  0.09060659  1
  Zr  Zr9  1  0.89050858  0.11039244  0.29733638  1
  Zr  Zr10  1  0.09897473  0.69804315  0.30711196  1
  Zr  Zr11  1  0.50981575  0.09133537  0.89873929  1
  Zr  Zr12  1  0.69839107  0.69141706  0.68853572  1
  Zr  Zr13  1  0.09968579  0.49899700  0.28953217  1
  Zr  Zr14  1  0.71229303  0.90202983  0.70813475  1
  Zr  Zr15  1  0.68713882  0.89677868  0.09562466  1
  Zr  Zr16  1  0.89864931  0.30266810  0.70832515  1
  Zr  Zr17  1  0.29630106  0.50140515  0.69366402  1
  Zr  Zr18  1  0.69432610  0.10157173  0.50275109  1
  Zr  Zr19  1  0.69609156  0.49790666  0.89406221  1
  Zr  Zr20  1  0.89665119  0.50681086  0.88982382  1
  Zr  Zr21  1  0.29762834  0.50135819  0.10847108  1
  Zr  Zr22  1  0.09545253  0.68121810  0.09420013  1
  Zr  Zr23  1  0.50603527  0.49136110  0.09608594  1
  Zr  Zr24  1  0.09796581  0.29771837  0.49778456  1
  Zr  Zr25  1  0.09917520  0.89378739  0.30326431  1
  Zr  Zr26  1  0.29977637  0.69944672  0.70414753  1
  Zr  Zr27  1  0.50129265  0.90175633  0.09444511  1
  Zr  Zr28  1  0.70934318  0.88403738  0.49733702  1
  Zr  Zr29  1  0.29918509  0.90607089  0.50603895  1
  Zr  Zr30  1  0.49441531  0.49695817  0.30064561  1
  Zr  Zr31  1  0.10138000  0.09559106  0.89182158  1
  Zr  Zr32  1  0.50388873  0.49880094  0.89895074  1
  Zr  Zr33  1  0.49895689  0.71101289  0.09912319  1
  Zr  Zr34  1  0.09965469  0.30557758  0.10493856  1
  Zr  Zr35  1  0.69156320  0.70288339  0.30357371  1
  Zr  Zr36  1  0.09964837  0.10491733  0.09039305  1
  Zr  Zr37  1  0.30838842  0.10519081  0.29843147  1
  Zr  Zr38  1  0.89707928  0.09526877  0.69539885  1
  Zr  Zr39  1  0.30196284  0.10562111  0.50396154  1
  Zr  Zr40  1  0.29883571  0.89374868  0.30994112  1
  Zr  Zr41  1  0.89623612  0.89370954  0.88348541  1
  Zr  Zr42  1  0.90102540  0.09936480  0.10125010  1
  Zr  Zr43  1  0.70443447  0.50763180  0.10138529  1
  Zr  Zr44  1  0.30196462  0.89289685  0.69668961  1
  Zr  Zr45  1  0.89724493  0.50038577  0.70016732  1
  Zr  Zr46  1  0.51040541  0.90038986  0.90967435  1
  Zr  Zr47  1  0.89657292  0.30362375  0.30719568  1
  Zr  Zr48  1  0.69848182  0.50430291  0.50687879  1
  Zr  Zr49  1  0.89998797  0.29449414  0.10475281  1
  Sc  Sc50  1  0.90711706  0.70149604  0.30206097  1
  Sc  Sc51  1  0.10052132  0.09866949  0.69718341  1
  Sc  Sc52  1  0.49938726  0.30085807  0.30101138  1
  Sc  Sc53  1  0.30621330  0.90311106  0.09963189  1
  Sc  Sc54  1  0.50068323  0.29958981  0.69667295  1
  Sc  Sc55  1  0.30169339  0.30787369  0.69811900  1
  Sc  Sc56  1  0.49660676  0.49363199  0.49403916  1
  Sc  Sc57  1  0.90294163  0.50191261  0.30343685  1
  Sc  Sc58  1  0.49252221  0.29855045  0.50042449  1
  Sc  Sc59  1  0.29568521  0.10173534  0.10367955  1
  Sc  Sc60  1  0.70118576  0.29261175  0.70216124  1
  Sc  Sc61  1  0.69645493  0.29637122  0.30469564  1
  Sc  Sc62  1  0.50497001  0.31431746  0.89621024  1
  Sc  Sc63  1  0.09771177  0.70176447  0.49822652  1
  Sc  Sc64  1  0.50161642  0.90651557  0.50559104  1
  Sc  Sc65  1  0.30006410  0.69828834  0.89844507  1
  Sc  Sc66  1  0.90636696  0.10196427  0.89076831  1
  Sc  Sc67  1  0.50309421  0.49819970  0.70740845  1
  Sc  Sc68  1  0.69180636  0.49538746  0.30283210  1
  Sc  Sc69  1  0.49596524  0.09586128  0.10656967  1
  Sc  Sc70  1  0.90146423  0.29819387  0.50182876  1
  Sc  Sc71  1  0.49966483  0.10165750  0.50840295  1
  Sc  Sc72  1  0.49359287  0.69932596  0.90090076  1
  Sc  Sc73  1  0.09380760  0.30861434  0.30016072  1
  Sc  Sc74  1  0.29831203  0.70768244  0.49814890  1
  Sc  Sc75  1  0.10049576  0.10187448  0.29033643  1
  Sc  Sc76  1  0.90479700  0.89470386  0.69333664  1
  Sc  Sc77  1  0.10152699  0.89617691  0.70208888  1
  Sc  Sc78  1  0.29695355  0.89595870  0.89997661  1
  Sc  Sc79  1  0.10459257  0.50549125  0.70578899  1
  Sc  Sc80  1  0.69010857  0.30571526  0.10393002  1
  Sc  Sc81  1  0.69579748  0.10305734  0.70294413  1
  Sc  Sc82  1  0.49883264  0.90335742  0.30229035  1
  Sc  Sc83  1  0.70225820  0.09763230  0.11752832  1
  Sc  Sc84  1  0.09897654  0.28735836  0.89362713  1
  Sc  Sc85  1  0.89015703  0.49065875  0.50623985  1
  Sc  Sc86  1  0.70435371  0.30676727  0.49754143  1
  Sc  Sc87  1  0.89879176  0.71648453  0.50124974  1
  Sc  Sc88  1  0.90272315  0.89410099  0.29756214  1
  Sc  Sc89  1  0.30622472  0.50123557  0.89189261  1
  Sc  Sc90  1  0.29654321  0.30326013  0.88932073  1
  Sc  Sc91  1  0.49766289  0.30509708  0.10403422  1
  Sc  Sc92  1  0.30763449  0.30475639  0.29734688  1
  Sc  Sc93  1  0.89714372  0.69149329  0.09407172  1
  Sc  Sc94  1  0.09273127  0.90537140  0.10186153  1
  Sc  Sc95  1  0.30231119  0.29936224  0.10568980  1
  Sc  Sc96  1  0.09763115  0.89186661  0.50513440  1
  Sc  Sc97  1  0.29293314  0.09387144  0.69248390  1
  Sc  Sc98  1  0.10675041  0.70001085  0.70420645  1
  Sc  Sc99  1  0.90351437  0.50774292  0.10245780  1
  Nb  Nb100  1  0.09338290  0.69593863  0.89969581  1
  Nb  Nb101  1  0.69910849  0.09677889  0.30521828  1
  Nb  Nb102  1  0.09772187  0.49681775  0.09758769  1
  Nb  Nb103  1  0.30133421  0.70333033  0.10158001  1
  Nb  Nb104  1  0.30568113  0.50326394  0.30342334  1
  Nb  Nb105  1  0.89990037  0.69810506  0.70528377  1
  Nb  Nb106  1  0.89554663  0.30227747  0.89682169  1
  Nb  Nb107  1  0.90483806  0.70212739  0.89494510  1
  Nb  Nb108  1  0.69969191  0.69924469  0.09864877  1
  Nb  Nb109  1  0.90622483  0.09873662  0.49767476  1
  Nb  Nb110  1  0.50150991  0.70293120  0.69942111  1
  Nb  Nb111  1  0.09919293  0.10446245  0.49833893  1
  Nb  Nb112  1  0.69851224  0.90221472  0.89898355  1
  Nb  Nb113  1  0.70422014  0.69886074  0.49947396  1
  Nb  Nb114  1  0.48814858  0.69654261  0.30277494  1
  Nb  Nb115  1  0.30815071  0.69748643  0.29693598  1
  Nb  Nb116  1  0.70427798  0.29649266  0.89750954  1
  Nb  Nb117  1  0.70337224  0.69866219  0.89618106  1
  Nb  Nb118  1  0.30318811  0.49422190  0.50215816  1
  Nb  Nb119  1  0.89883526  0.90362743  0.49940960  1
  Nb  Nb120  1  0.50384149  0.09500067  0.69876380  1
  Nb  Nb121  1  0.30269360  0.30925662  0.49904964  1
  Nb  Nb122  1  0.49848933  0.89892561  0.70165152  1
  Nb  Nb123  1  0.69942052  0.09483517  0.89517128  1
  Nb  Nb124  1  0.09675103  0.51392115  0.90733233  1
  Nb  Nb125  1  0.40598663  0.19902533  -0.00918113  1
  Nb  Nb126  1  0.79255649  0.79640160  0.19218913  1
  Nb  Nb127  1  0.79532474  -0.00049662  -0.00691263  1
  Nb  Nb128  1  0.19072510  0.40750484  -0.00038352  1
  Nb  Nb129  1  0.19454604  0.79083474  0.00706065  1
  Nb  Nb130  1  0.19498313  0.00763384  0.40454323  1
  Nb  Nb131  1  0.79457216  0.60636345  0.40592886  1
  Nb  Nb132  1  0.21244391  0.59482892  0.39537295  1
  Nb  Nb133  1  -0.00231651  0.00517195  0.40504761  1
  Nb  Nb134  1  0.20238201  0.20176880  0.40487472  1
  Nb  Nb135  1  0.80400764  0.00332003  0.40322973  1
  Nb  Nb136  1  0.60119796  0.79907821  0.79781230  1
  Nb  Nb137  1  0.79440656  0.79855966  -0.00581509  1
  Nb  Nb138  1  0.40473491  0.18976303  0.80039408  1
  Nb  Nb139  1  0.40578765  -0.00008080  0.79610872  1
  Nb  Nb140  1  0.60527802  0.60397653  0.00129576  1
  Nb  Nb141  1  0.20326346  0.79010051  0.19682739  1
  Nb  Nb142  1  0.80409887  0.39571433  -0.00219473  1
  Nb  Nb143  1  0.79360044  0.19829731  -0.00488859  1
  Nb  Nb144  1  0.60334308  0.19876685  -0.00478233  1
  Nb  Nb145  1  0.40056390  0.60196188  0.60041424  1
  Nb  Nb146  1  0.60235284  0.40198228  0.60020754  1
  Nb  Nb147  1  0.00006659  0.40215003  -0.00552208  1
  Nb  Nb148  1  -0.00336923  0.60203897  0.60279786  1
  Nb  Nb149  1  0.80044166  0.40051649  0.19720165  1
  Pd  Pd150  1  0.79633323  0.19716492  0.40762663  1
  Pd  Pd151  1  0.20313363  0.20746159  0.60011100  1
  Pd  Pd152  1  0.79519536  0.00122602  0.59498533  1
  Pd  Pd153  1  0.40339509  0.59948710  0.00522468  1
  Pd  Pd154  1  0.59765234  0.20015946  0.19652362  1
  Pd  Pd155  1  0.59693826  0.20625798  0.40757996  1
  Pd  Pd156  1  0.40303128  0.59779564  0.79302081  1
  Pd  Pd157  1  0.39842716  0.00434731  0.40385763  1
  Pd  Pd158  1  0.40899247  0.79889039  0.41013016  1
  Pd  Pd159  1  0.39861075  0.20229405  0.60898726  1
  Pd  Pd160  1  0.20497830  0.39926742  0.39241221  1
  Pd  Pd161  1  0.20806733  0.21241528  -0.00033460  1
  Pd  Pd162  1  0.20048435  0.60320685  0.20637386  1
  Pd  Pd163  1  0.59425325  0.20543223  0.80355145  1
  Pd  Pd164  1  0.39249467  0.00602663  -0.00505025  1
  Pd  Pd165  1  0.39801733  0.60421126  0.41295035  1
  Pd  Pd166  1  0.60529494  0.80964983  0.60778861  1
  Pd  Pd167  1  0.19956280  0.20784939  0.20841502  1
  Pd  Pd168  1  -0.00354976  0.00203433  0.20684826  1
  Pd  Pd169  1  0.19840209  -0.01127078  0.00352181  1
  Pd  Pd170  1  0.40142395  -0.00272765  0.20475405  1
  Pd  Pd171  1  0.19557855  0.79498926  0.59948171  1
  Pd  Pd172  1  -0.00769516  0.59447074  0.41368934  1
  Pd  Pd173  1  0.60891579  -0.00811031  0.60152623  1
  Pd  Pd174  1  0.20339237  -0.00828985  0.79520803  1
  Pd  Pd175  1  0.60054072  0.59606652  0.39848824  1
  Pd  Pd176  1  0.19171434  0.40637165  0.80902286  1
  Pd  Pd177  1  0.00781270  -0.00320310  0.59770938  1
  Pd  Pd178  1  0.39832535  0.80762268  0.20216742  1
  Pd  Pd179  1  -0.00373818  0.20082967  0.60467944  1
  Pd  Pd180  1  0.59060289  0.80549967  0.39678566  1
  Pd  Pd181  1  0.38772171  0.39287723  -0.00350138  1
  Pd  Pd182  1  0.40893635  0.59741426  0.19197794  1
  Pd  Pd183  1  0.19456303  0.39575075  0.60265238  1
  Pd  Pd184  1  0.80118824  0.20312544  0.59765041  1
  Pd  Pd185  1  0.59652771  0.80049723  0.20847583  1
  Pd  Pd186  1  0.20226836  -0.00864810  0.20406681  1
  Pd  Pd187  1  -0.00468352  0.20384161  -0.00743915  1
  Pd  Pd188  1  -0.00346267  0.40885794  0.40696227  1
  Pd  Pd189  1  0.40382570  0.79375622  0.59212196  1
  Pd  Pd190  1  0.80224483  0.60248727  0.21459610  1
  Pd  Pd191  1  0.21218323  0.59803760  -0.00489752  1
  Pd  Pd192  1  -0.00782376  0.00110398  -0.00962565  1
  Pd  Pd193  1  0.80431436  -0.01027161  0.19991846  1
  Pd  Pd194  1  0.00446228  0.20144761  0.20634625  1
  Pd  Pd195  1  0.00066407  0.78909807  0.18923422  1
  Pd  Pd196  1  0.00989758  0.40318384  0.80732763  1
  Pd  Pd197  1  0.00561798  0.40639101  0.59948635  1
  Pd  Pd198  1  0.40663195  0.80670601  0.80822891  1
  Pd  Pd199  1  0.58989269  0.60215908  0.19754493  1
  Rh  Rh200  1  0.00432234  0.60460013  0.79248158  1
  Rh  Rh201  1  0.19587033  0.79632947  0.81182033  1
  Rh  Rh202  1  -0.00305962  0.19608102  0.79366723  1
  Rh  Rh203  1  0.80338999  0.19285588  0.80138699  1
  Rh  Rh204  1  0.00644721  0.19674970  0.39512923  1
  Rh  Rh205  1  0.80427131  0.00721972  0.80200088  1
  Rh  Rh206  1  -0.00267816  0.60003950  0.20262547  1
  Rh  Rh207  1  0.79900930  0.40932084  0.39044626  1
  Rh  Rh208  1  0.58846342  0.58837054  0.60231672  1
  Rh  Rh209  1  0.61168856  0.01567422  0.01253828  1
  Rh  Rh210  1  0.79338774  0.39019330  0.60891193  1
  Rh  Rh211  1  0.60579907  -0.00243895  0.40861916  1
  Rh  Rh212  1  0.20103617  0.79489844  0.39527412  1
  Rh  Rh213  1  0.59199627  0.00328061  0.20203017  1
  Rh  Rh214  1  -0.00303030  0.81005550  0.40537081  1
  Rh  Rh215  1  0.59657300  0.39484899  0.40733342  1
  Rh  Rh216  1  -0.01250259  0.59559249  -0.00446491  1
  Rh  Rh217  1  -0.00005601  -0.00169678  0.79233528  1
  Rh  Rh218  1  0.78943927  0.21012476  0.19855144  1
  Rh  Rh219  1  0.79868365  0.60604151  0.79814127  1
  Rh  Rh220  1  0.19954158  0.60123594  0.80631188  1
  Rh  Rh221  1  0.61032817  0.40090682  -0.00169792  1
  Rh  Rh222  1  0.60489700  0.78701864  -0.01202462  1
  Rh  Rh223  1  0.60341695  0.39971889  0.20596345  1
  Rh  Rh224  1  0.40599488  0.20006439  0.19388752  1
  Rh  Rh225  1  0.79382110  0.39825495  0.79925396  1
  Rh  Rh226  1  0.59901165  0.20768395  0.59650214  1
  Rh  Rh227  1  0.40068072  0.40274954  0.20145314  1
  Rh  Rh228  1  0.20275411  0.60436929  0.59018176  1
  Rh  Rh229  1  0.40182046  0.00069914  0.60823967  1
  Rh  Rh230  1  0.00456437  0.79413681  0.79189042  1
  Rh  Rh231  1  0.81541702  0.60974150  0.59156838  1
  Rh  Rh232  1  -0.01098154  0.40333256  0.19487877  1
  Rh  Rh233  1  0.00008917  0.79277995  0.60499542  1
  Rh  Rh234  1  0.40091648  0.39583910  0.79649540  1
  Rh  Rh235  1  0.39620959  0.20384231  0.40081296  1
  Rh  Rh236  1  0.38952207  0.80077659  -0.00231284  1
  Rh  Rh237  1  0.40773155  0.40843727  0.60245566  1
  Rh  Rh238  1  0.19252569  -0.00417373  0.59391658  1
  Rh  Rh239  1  0.39847401  0.39592763  0.39715286  1
  Rh  Rh240  1  0.59577764  0.61081821  0.80614084  1
  Rh  Rh241  1  0.80388856  0.79888225  0.38732883  1
  Rh  Rh242  1  0.60553725  0.39276648  0.78980374  1
  Rh  Rh243  1  0.79803654  0.60069547  -0.01020837  1
  Rh  Rh244  1  0.20776504  0.19832292  0.78770715  1
  Rh  Rh245  1  0.59835266  -0.00914107  0.78932839  1
  Rh  Rh246  1  -0.00054437  0.79159214  0.00069752  1
  Rh  Rh247  1  0.80382149  0.79548042  0.60759352  1
  Rh  Rh248  1  0.20484758  0.40089013  0.20025500  1
  Rh  Rh249  1  0.79445298  0.78991301  0.79753113  1
