# generated using pymatgen
data_ZrScNbPdRh
_symmetry_space_group_name_H-M   'P 1'
_cell_length_a   16.56105948
_cell_length_b   16.56421352
_cell_length_c   16.56390906
_cell_angle_alpha   89.94338296
_cell_angle_beta   89.97886326
_cell_angle_gamma   89.99774795
_symmetry_Int_Tables_number   1
_chemical_formula_structural   ZrScNbPdRh
_chemical_formula_sum   'Zr50 Sc50 Nb50 Pd50 Rh50'
_cell_volume   4543.82432966
_cell_formula_units_Z   50
loop_
 _symmetry_equiv_pos_site_id
 _symmetry_equiv_pos_as_xyz
  1  'x, y, z'
loop_
 _atom_site_type_symbol
 _atom_site_label
 _atom_site_symmetry_multiplicity
 _atom_site_fract_x
 _atom_site_fract_y
 _atom_site_fract_z
 _atom_site_occupancy
  Zr  Zr0  1  0.89946208  0.69765945  0.90373027  1
  Zr  Zr1  1  0.89770570  0.10528859  0.90950883  1
  Zr  Zr2  1  0.48109798  0.90053308  0.50365086  1
  Zr  Zr3  1  0.89986626  0.29317499  0.10094238  1
  Zr  Zr4  1  0.10240246  0.09955303  0.09757745  1
  Zr  Zr5  1  0.50104870  0.10712999  0.89391093  1
  Zr  Zr6  1  0.10325498  0.30247705  0.69928407  1
  Zr  Zr7  1  0.90134669  0.50433850  0.90682666  1
  Zr  Zr8  1  0.29541063  0.49619614  0.69774674  1
  Zr  Zr9  1  0.10738323  0.49830757  0.69648112  1
  Zr  Zr10  1  0.08992582  0.09903284  0.49650944  1
  Zr  Zr11  1  0.29963225  0.69253317  0.90895215  1
  Zr  Zr12  1  0.30090438  0.90493343  0.90102934  1
  Zr  Zr13  1  0.10081970  0.90053568  0.10110452  1
  Zr  Zr14  1  0.89672721  0.29868919  0.69993888  1
  Zr  Zr15  1  0.09815036  0.68965676  0.90724548  1
  Zr  Zr16  1  0.89441608  0.89919701  0.89726356  1
  Zr  Zr17  1  0.69724867  0.70296846  0.69785790  1
  Zr  Zr18  1  0.70088753  0.49223153  0.29896700  1
  Zr  Zr19  1  0.70334203  0.89683941  0.70295128  1
  Zr  Zr20  1  0.50039688  0.10438025  0.09678724  1
  Zr  Zr21  1  0.89219272  0.49562922  0.10291121  1
  Zr  Zr22  1  0.10964019  0.50162375  0.89973580  1
  Zr  Zr23  1  0.49723664  0.10158814  0.29559298  1
  Zr  Zr24  1  0.49786029  0.90775213  0.90012408  1
  Zr  Zr25  1  0.50117732  0.09596833  0.70455013  1
  Zr  Zr26  1  0.89699354  0.10230833  0.69689999  1
  Zr  Zr27  1  0.09837056  0.29298039  0.89897706  1
  Zr  Zr28  1  0.30509029  0.69370082  0.10300355  1
  Zr  Zr29  1  0.49475451  0.10921574  0.50556017  1
  Zr  Zr30  1  0.90573318  0.31352141  0.30028813  1
  Zr  Zr31  1  0.89158010  0.29783664  0.89714972  1
  Zr  Zr32  1  0.09635581  0.49418004  0.29299846  1
  Zr  Zr33  1  0.89347056  0.89210151  0.30355855  1
  Zr  Zr34  1  0.49512987  0.70415078  0.29595487  1
  Zr  Zr35  1  0.69419595  0.10098689  0.70323150  1
  Zr  Zr36  1  0.89691377  0.49435650  0.69864072  1
  Zr  Zr37  1  0.89681299  0.71526377  0.70416116  1
  Zr  Zr38  1  0.30176584  0.30545855  0.90397724  1
  Zr  Zr39  1  0.30994691  0.89407492  0.29991032  1
  Zr  Zr40  1  0.29933358  0.70937838  0.50113483  1
  Zr  Zr41  1  0.70599725  0.10087279  0.09773831  1
  Zr  Zr42  1  0.50480265  0.49946949  0.30185493  1
  Zr  Zr43  1  0.90013290  0.30253216  0.49982010  1
  Zr  Zr44  1  0.30178287  0.10281140  0.29554891  1
  Zr  Zr45  1  0.30162826  0.89576360  0.68721597  1
  Zr  Zr46  1  0.50134180  0.69418441  0.08987430  1
  Zr  Zr47  1  0.29758925  0.69135920  0.30623107  1
  Zr  Zr48  1  0.69530297  0.49908942  0.09887978  1
  Zr  Zr49  1  0.70418688  0.49331324  0.90164001  1
  Sc  Sc50  1  0.70354904  0.09425835  0.50868925  1
  Sc  Sc51  1  0.90181063  0.49430191  0.48556891  1
  Sc  Sc52  1  0.70652777  0.90330883  0.50206916  1
  Sc  Sc53  1  0.30141487  0.09863843  0.50358079  1
  Sc  Sc54  1  0.51383792  0.50519023  0.69523218  1
  Sc  Sc55  1  0.30224617  0.29193274  0.29000325  1
  Sc  Sc56  1  0.70026371  0.89537417  0.10199765  1
  Sc  Sc57  1  0.29962504  0.51775387  0.50217508  1
  Sc  Sc58  1  0.50204545  0.90354969  0.70152455  1
  Sc  Sc59  1  0.30252577  0.10307223  0.69682486  1
  Sc  Sc60  1  0.89965498  0.91220652  0.50536717  1
  Sc  Sc61  1  0.09755275  0.10621077  0.69955280  1
  Sc  Sc62  1  0.31225164  0.09899297  0.90482932  1
  Sc  Sc63  1  0.69701178  0.31593173  0.50407404  1
  Sc  Sc64  1  0.49996845  0.89450364  0.11074254  1
  Sc  Sc65  1  0.28669890  0.30043085  0.69774110  1
  Sc  Sc66  1  0.70874281  0.70060177  0.30169213  1
  Sc  Sc67  1  0.10241696  0.49550150  0.50181829  1
  Sc  Sc68  1  0.70118771  0.10829819  0.90139362  1
  Sc  Sc69  1  0.90450401  0.69371099  0.10104387  1
  Sc  Sc70  1  0.50871453  0.49625936  0.91442371  1
  Sc  Sc71  1  0.70607204  0.30086187  0.10722244  1
  Sc  Sc72  1  0.29639257  0.69760847  0.69284107  1
  Sc  Sc73  1  0.09752165  0.89922982  0.50541479  1
  Sc  Sc74  1  0.69461029  0.10137689  0.29023843  1
  Sc  Sc75  1  0.50842679  0.70124906  0.69336906  1
  Sc  Sc76  1  0.08824882  0.90222516  0.69806202  1
  Sc  Sc77  1  0.68996179  0.70409361  0.90134535  1
  Sc  Sc78  1  0.49620795  0.30116194  0.29149146  1
  Sc  Sc79  1  0.30319108  0.29901572  0.09990825  1
  Sc  Sc80  1  0.90773323  0.10359407  0.31153892  1
  Sc  Sc81  1  0.69257413  0.49943820  0.49640668  1
  Sc  Sc82  1  0.70610578  0.31071265  0.70309020  1
  Sc  Sc83  1  0.09710875  0.90341873  0.90206303  1
  Sc  Sc84  1  0.10114211  0.29773459  0.50188263  1
  Sc  Sc85  1  0.89784777  0.89166540  0.09128588  1
  Sc  Sc86  1  0.09947884  0.70361615  0.70433860  1
  Sc  Sc87  1  0.30054107  0.49021792  0.09499853  1
  Sc  Sc88  1  0.09615245  0.10087698  0.90217446  1
  Sc  Sc89  1  0.51216677  0.29413059  0.69939606  1
  Sc  Sc90  1  0.09676548  0.68476228  0.29444699  1
  Sc  Sc91  1  0.50864253  0.50787827  0.49648520  1
  Sc  Sc92  1  0.30140665  0.91138701  0.09903136  1
  Sc  Sc93  1  0.49507567  0.30457605  0.09711914  1
  Sc  Sc94  1  0.30028055  0.28601990  0.50125994  1
  Sc  Sc95  1  0.70051828  0.69518077  0.09757024  1
  Sc  Sc96  1  0.10277789  0.50350808  0.10608840  1
  Sc  Sc97  1  0.10387307  0.29660421  0.10762448  1
  Sc  Sc98  1  0.10195216  0.10751200  0.30030584  1
  Sc  Sc99  1  0.69590847  0.69991270  0.49865217  1
  Nb  Nb100  1  0.89501763  0.90145731  0.70401508  1
  Nb  Nb101  1  0.50133647  0.49730404  0.10634458  1
  Nb  Nb102  1  0.29474440  0.90035601  0.49880007  1
  Nb  Nb103  1  0.89770887  0.10408091  0.50043739  1
  Nb  Nb104  1  0.90159197  0.69430768  0.49336746  1
  Nb  Nb105  1  0.09598580  0.69588051  0.49685361  1
  Nb  Nb106  1  0.09780208  0.89557613  0.29782493  1
  Nb  Nb107  1  0.10448827  0.69786246  0.10272861  1
  Nb  Nb108  1  0.49243286  0.69868712  0.90303403  1
  Nb  Nb109  1  0.89810985  0.09741011  0.09991061  1
  Nb  Nb110  1  0.69600419  0.90389453  0.29901806  1
  Nb  Nb111  1  0.50535257  0.90391725  0.29828429  1
  Nb  Nb112  1  0.90299007  0.68960429  0.30935678  1
  Nb  Nb113  1  0.70336062  0.50415983  0.69671673  1
  Nb  Nb114  1  0.49941441  0.69550480  0.49387110  1
  Nb  Nb115  1  0.10263322  0.30196774  0.29991553  1
  Nb  Nb116  1  0.69925142  0.30154857  0.89683673  1
  Nb  Nb117  1  0.30033809  0.49701984  0.29651153  1
  Nb  Nb118  1  0.70112113  0.30132461  0.30555439  1
  Nb  Nb119  1  0.49985672  0.29770056  0.89890719  1
  Nb  Nb120  1  0.29768872  0.10054688  0.09827557  1
  Nb  Nb121  1  0.30327369  0.49809792  0.89916946  1
  Nb  Nb122  1  0.49957148  0.30555285  0.49692904  1
  Nb  Nb123  1  0.90560110  0.50402320  0.29838954  1
  Nb  Nb124  1  0.69953714  0.90667253  0.90222223  1
  Nb  Nb125  1  0.40271871  0.59242963  0.19948929  1
  Nb  Nb126  1  0.20294222  -0.00194823  0.79730402  1
  Nb  Nb127  1  0.60186851  0.20149332  0.40184459  1
  Nb  Nb128  1  0.59400530  -0.00038239  0.39709406  1
  Nb  Nb129  1  0.40002449  0.79203094  0.80420475  1
  Nb  Nb130  1  0.80475864  0.60121128  0.60036085  1
  Nb  Nb131  1  0.79623339  0.60087667  0.79436328  1
  Nb  Nb132  1  0.20746094  0.39777538  0.39351521  1
  Nb  Nb133  1  0.80111935  -0.00200852  0.80128502  1
  Nb  Nb134  1  -0.00440858  -0.00316167  0.20021504  1
  Nb  Nb135  1  -0.00007315  0.39842116  -0.00179974  1
  Nb  Nb136  1  0.40425591  0.39974773  0.59739283  1
  Nb  Nb137  1  0.39526462  0.40150786  0.40324277  1
  Nb  Nb138  1  0.19886072  0.79628824  0.00644969  1
  Nb  Nb139  1  0.40318797  0.59747198  0.80591380  1
  Nb  Nb140  1  0.40288534  0.40451791  0.79884268  1
  Nb  Nb141  1  0.20298999  -0.00894858  0.39920275  1
  Nb  Nb142  1  -0.00312904  0.79240581  0.39889216  1
  Nb  Nb143  1  0.00160481  0.40104085  0.80457547  1
  Nb  Nb144  1  0.79520469  0.20491222  0.40129454  1
  Nb  Nb145  1  0.19846286  0.79779610  0.19929525  1
  Nb  Nb146  1  -0.00610121  0.60513036  0.59617081  1
  Nb  Nb147  1  0.59461401  0.80970572  0.39621124  1
  Nb  Nb148  1  0.80766500  -0.00086482  0.20068627  1
  Nb  Nb149  1  0.60070335  0.00143806  -0.00025105  1
  Pd  Pd150  1  0.80867622  0.19455725  0.21317157  1
  Pd  Pd151  1  0.20575462  0.18892831  0.80511980  1
  Pd  Pd152  1  0.80090856  0.79733674  0.19768938  1
  Pd  Pd153  1  0.79803479  0.80041995  0.40752499  1
  Pd  Pd154  1  0.20205786  0.80501351  0.80654201  1
  Pd  Pd155  1  0.00597539  -0.00820722  0.39574236  1
  Pd  Pd156  1  0.19312633  0.39842390  0.00592827  1
  Pd  Pd157  1  0.80200815  0.60065265  0.20208621  1
  Pd  Pd158  1  -0.00316662  -0.00107404  0.00436520  1
  Pd  Pd159  1  0.60304190  0.38941059  0.00592181  1
  Pd  Pd160  1  -0.00035422  0.40463578  0.60048770  1
  Pd  Pd161  1  0.39609674  0.80809801  0.00271918  1
  Pd  Pd162  1  -0.00520179  0.59656724  0.78909411  1
  Pd  Pd163  1  0.19486508  0.00465239  0.60018621  1
  Pd  Pd164  1  0.19540249  -0.00248412  0.20920756  1
  Pd  Pd165  1  0.60932344  0.20795822  0.59462316  1
  Pd  Pd166  1  0.39538773  0.21265906  0.79329535  1
  Pd  Pd167  1  0.59386131  0.80518057  0.58694979  1
  Pd  Pd168  1  0.60672772  0.79274453  0.20375429  1
  Pd  Pd169  1  0.20052480  0.19798783  0.40068555  1
  Pd  Pd170  1  0.59658171  -0.00692649  0.59277845  1
  Pd  Pd171  1  0.59933381  0.20884109  0.20077297  1
  Pd  Pd172  1  0.59911937  0.80756079  -0.00067823  1
  Pd  Pd173  1  0.00028080  0.79550536  0.20608624  1
  Pd  Pd174  1  0.18860455  0.80138702  0.39591386  1
  Pd  Pd175  1  0.59892016  0.59788292  0.80780987  1
  Pd  Pd176  1  -0.00083696  0.19380417  0.20272051  1
  Pd  Pd177  1  -0.00317692  0.79838328  0.59187055  1
  Pd  Pd178  1  0.39700698  0.00604639  0.40078069  1
  Pd  Pd179  1  -0.00076964  0.00642684  0.79793092  1
  Pd  Pd180  1  0.59432456  0.40070646  0.79763306  1
  Pd  Pd181  1  0.59937938  0.60460324  0.20385596  1
  Pd  Pd182  1  0.20546525  0.19699410  -0.00192322  1
  Pd  Pd183  1  0.79484945  0.79346589  -0.00064723  1
  Pd  Pd184  1  0.59201505  0.80283006  0.80458859  1
  Pd  Pd185  1  0.00131159  0.20072628  0.59946281  1
  Pd  Pd186  1  0.19231801  0.59096557  0.40070890  1
  Pd  Pd187  1  0.20806571  0.60432106  0.79619277  1
  Pd  Pd188  1  0.40029777  0.20932048  0.61091530  1
  Pd  Pd189  1  0.40776701  0.59896277  0.60556860  1
  Pd  Pd190  1  0.80445636  0.79807242  0.58819220  1
  Pd  Pd191  1  0.00437895  0.79723712  -0.00225316  1
  Pd  Pd192  1  0.60417785  0.20486131  -0.00011623  1
  Pd  Pd193  1  0.40387749  0.79737943  0.40123220  1
  Pd  Pd194  1  0.79017130  0.20663981  0.59277488  1
  Pd  Pd195  1  0.18934323  0.79778391  0.59933528  1
  Pd  Pd196  1  0.79107950  0.01197700  0.39208109  1
  Pd  Pd197  1  0.00633451  0.80226742  0.80752023  1
  Pd  Pd198  1  0.40155512  0.00229747  0.19424488  1
  Pd  Pd199  1  0.79308449  0.59145994  0.40440746  1
  Rh  Rh200  1  -0.00645140  0.59848681  0.19635748  1
  Rh  Rh201  1  0.60206279  0.39423808  0.19844535  1
  Rh  Rh202  1  0.60847506  0.00243217  0.80779117  1
  Rh  Rh203  1  0.01299787  0.39776274  0.39913028  1
  Rh  Rh204  1  0.39747662  0.19671450  0.19021057  1
  Rh  Rh205  1  0.60611859  0.20628986  0.80066568  1
  Rh  Rh206  1  0.39854714  0.20214630  0.00171852  1
  Rh  Rh207  1  0.18829935  0.60906003  0.60004633  1
  Rh  Rh208  1  0.39433726  0.79388110  0.19721292  1
  Rh  Rh209  1  0.79939009  0.40127613  0.20443731  1
  Rh  Rh210  1  0.38900060  -0.00959241  0.78886217  1
  Rh  Rh211  1  0.39765595  0.00390684  0.60312080  1
  Rh  Rh212  1  0.20173624  0.19972348  0.19638509  1
  Rh  Rh213  1  0.80107033  0.39252671  0.00278429  1
  Rh  Rh214  1  0.20038405  0.39773265  0.80570612  1
  Rh  Rh215  1  0.60823924  -0.00102372  0.19449567  1
  Rh  Rh216  1  0.20947584  0.59854266  0.19684416  1
  Rh  Rh217  1  0.79237190  0.60558787  -0.00684173  1
  Rh  Rh218  1  0.59585445  0.40257009  0.60383993  1
  Rh  Rh219  1  0.79398215  0.20750215  -0.00000682  1
  Rh  Rh220  1  0.79992841  0.40086896  0.39769900  1
  Rh  Rh221  1  0.20042096  0.59706098  0.00802834  1
  Rh  Rh222  1  0.40397458  0.79120020  0.60502959  1
  Rh  Rh223  1  0.59116227  0.39152288  0.39344340  1
  Rh  Rh224  1  0.60450139  0.61337082  0.39491242  1
  Rh  Rh225  1  0.40979464  0.00293888  0.00773696  1
  Rh  Rh226  1  -0.00221007  0.20452845  0.79767185  1
  Rh  Rh227  1  0.40040636  0.40577911  0.20326372  1
  Rh  Rh228  1  0.00632057  0.59649079  0.40277097  1
  Rh  Rh229  1  0.79739735  0.41101790  0.59203895  1
  Rh  Rh230  1  0.79345035  0.80130219  0.80897331  1
  Rh  Rh231  1  0.00012753  0.40068336  0.19189071  1
  Rh  Rh232  1  0.60160076  0.59762889  -0.00152917  1
  Rh  Rh233  1  0.40856360  0.20655088  0.39781517  1
  Rh  Rh234  1  -0.00555929  0.00358014  0.60289054  1
  Rh  Rh235  1  0.79524601  0.19437960  0.79947394  1
  Rh  Rh236  1  0.40294521  0.59416054  0.39594568  1
  Rh  Rh237  1  0.20116530  0.00203617  -0.01014269  1
  Rh  Rh238  1  0.21621533  0.39857094  0.58020346  1
  Rh  Rh239  1  0.40503296  0.39952057  -0.00475122  1
  Rh  Rh240  1  0.20230340  0.39487378  0.20419622  1
  Rh  Rh241  1  0.19308028  0.19284617  0.59598359  1
  Rh  Rh242  1  -0.00508813  0.20887854  0.40135934  1
  Rh  Rh243  1  0.80401806  -0.00008836  0.61019639  1
  Rh  Rh244  1  0.79368386  -0.00138283  0.00105002  1
  Rh  Rh245  1  0.00357832  0.59133784  0.01150545  1
  Rh  Rh246  1  0.80239237  0.40547496  0.80305104  1
  Rh  Rh247  1  0.00108863  0.20397138  0.00553415  1
  Rh  Rh248  1  0.60789580  0.60179090  0.59336010  1
  Rh  Rh249  1  0.40485600  0.58402650  0.00384284  1
