# generated using pymatgen
data_ZrScNbPdRh
_symmetry_space_group_name_H-M   'P 1'
_cell_length_a   16.55449301
_cell_length_b   16.55457947
_cell_length_c   16.56012630
_cell_angle_alpha   90.00998765
_cell_angle_beta   89.98951192
_cell_angle_gamma   89.99359858
_symmetry_Int_Tables_number   1
_chemical_formula_structural   ZrScNbPdRh
_chemical_formula_sum   'Zr50 Sc50 Nb50 Pd50 Rh50'
_cell_volume   4538.34665556
_cell_formula_units_Z   50
loop_
 _symmetry_equiv_pos_site_id
 _symmetry_equiv_pos_as_xyz
  1  'x, y, z'
loop_
 _atom_site_type_symbol
 _atom_site_label
 _atom_site_symmetry_multiplicity
 _atom_site_fract_x
 _atom_site_fract_y
 _atom_site_fract_z
 _atom_site_occupancy
  Zr  Zr0  1  0.50031835  0.30370085  0.69152599  1
  Zr  Zr1  1  0.29849205  0.29713024  0.29709801  1
  Zr  Zr2  1  0.49864803  0.49760481  0.90631519  1
  Zr  Zr3  1  0.70190550  0.29666470  0.69833416  1
  Zr  Zr4  1  0.49690024  0.09964714  0.70911684  1
  Zr  Zr5  1  0.10009651  0.10249271  0.89869011  1
  Zr  Zr6  1  0.29501423  0.90091038  0.50413654  1
  Zr  Zr7  1  0.70666961  0.49955713  0.49346384  1
  Zr  Zr8  1  0.30289590  0.10415892  0.89670704  1
  Zr  Zr9  1  0.49352973  0.29181264  0.90340993  1
  Zr  Zr10  1  0.89696803  0.29175650  0.89868549  1
  Zr  Zr11  1  0.49935417  0.69866820  0.29683542  1
  Zr  Zr12  1  0.89951805  0.90568411  0.09761832  1
  Zr  Zr13  1  0.70176315  0.69685475  0.70292021  1
  Zr  Zr14  1  0.90538691  0.49636143  0.90135986  1
  Zr  Zr15  1  0.89535229  0.50338298  0.30864689  1
  Zr  Zr16  1  0.69548007  0.49990699  0.10162026  1
  Zr  Zr17  1  0.70258143  0.69950902  0.90464607  1
  Zr  Zr18  1  0.50762013  0.90031743  0.28923591  1
  Zr  Zr19  1  0.10145025  0.09452499  0.50056470  1
  Zr  Zr20  1  0.10263830  0.89455059  0.29340683  1
  Zr  Zr21  1  0.30044005  0.10107523  0.30438999  1
  Zr  Zr22  1  0.89687178  0.49414654  0.10247135  1
  Zr  Zr23  1  0.70123206  0.49356833  0.29350871  1
  Zr  Zr24  1  0.30644374  0.69383003  0.50738448  1
  Zr  Zr25  1  0.09690544  0.29745384  0.89191208  1
  Zr  Zr26  1  0.49958803  0.29582248  0.49990895  1
  Zr  Zr27  1  0.30108111  0.50180009  0.50099714  1
  Zr  Zr28  1  0.09482161  0.90065668  0.09804925  1
  Zr  Zr29  1  0.10415877  0.90253702  0.50335495  1
  Zr  Zr30  1  0.89755297  0.09650401  0.09651547  1
  Zr  Zr31  1  0.30200389  0.89695158  0.09393379  1
  Zr  Zr32  1  0.49427005  0.50191888  0.51249727  1
  Zr  Zr33  1  0.89652123  0.90245498  0.90306593  1
  Zr  Zr34  1  0.50539774  0.89302967  0.50770907  1
  Zr  Zr35  1  0.29690179  0.50371173  0.89616931  1
  Zr  Zr36  1  0.51020016  0.90534767  0.70954670  1
  Zr  Zr37  1  0.30063494  0.89818971  0.69946344  1
  Zr  Zr38  1  0.30796622  0.50381783  0.09855684  1
  Zr  Zr39  1  0.70505207  0.50478091  0.90541835  1
  Zr  Zr40  1  0.69964264  0.70203636  0.09847906  1
  Zr  Zr41  1  0.10455630  0.49586584  0.50703197  1
  Zr  Zr42  1  0.30499896  0.90006962  0.29618572  1
  Zr  Zr43  1  0.70320247  0.09458225  0.50014770  1
  Zr  Zr44  1  0.89972024  0.29185411  0.10082593  1
  Zr  Zr45  1  0.90856993  0.90345622  0.50541621  1
  Zr  Zr46  1  0.70289383  0.90870215  0.50325246  1
  Zr  Zr47  1  0.10049288  0.49724616  0.89480577  1
  Zr  Zr48  1  0.09527213  0.50342429  0.69973087  1
  Zr  Zr49  1  0.30016589  0.30235649  0.49930968  1
  Sc  Sc50  1  0.70023715  0.49963477  0.68672638  1
  Sc  Sc51  1  0.09544899  0.28644765  0.09825549  1
  Sc  Sc52  1  0.50645920  0.70285301  0.68423429  1
  Sc  Sc53  1  0.09904985  0.71097361  0.10153171  1
  Sc  Sc54  1  0.90111215  0.90400992  0.29445666  1
  Sc  Sc55  1  0.89755803  0.69475043  0.89606465  1
  Sc  Sc56  1  0.50515817  0.70277600  0.10052913  1
  Sc  Sc57  1  0.70085410  0.09603450  0.30503741  1
  Sc  Sc58  1  0.91385574  0.69434404  0.30692317  1
  Sc  Sc59  1  0.49428224  0.30112738  0.09646794  1
  Sc  Sc60  1  0.69472373  0.70580065  0.29646889  1
  Sc  Sc61  1  0.90525387  0.29654853  0.50252463  1
  Sc  Sc62  1  0.29647622  0.50213736  0.69324867  1
  Sc  Sc63  1  0.70163531  0.08335344  0.70553009  1
  Sc  Sc64  1  0.70625316  0.90017462  0.10567617  1
  Sc  Sc65  1  0.10472349  0.90353666  0.90185345  1
  Sc  Sc66  1  0.09151366  0.30157421  0.70032453  1
  Sc  Sc67  1  0.50293231  0.10311079  0.49805220  1
  Sc  Sc68  1  0.28983834  0.70137389  0.70147518  1
  Sc  Sc69  1  0.89061780  0.09796184  0.90253497  1
  Sc  Sc70  1  0.29963050  0.09011980  0.49582416  1
  Sc  Sc71  1  0.70010184  0.90558514  0.29661085  1
  Sc  Sc72  1  0.69216174  0.90156223  0.89570984  1
  Sc  Sc73  1  0.50256897  0.71489788  0.90517810  1
  Sc  Sc74  1  0.89693776  0.10240764  0.29854479  1
  Sc  Sc75  1  0.49529692  0.50487386  0.28180026  1
  Sc  Sc76  1  0.09762086  0.10712880  0.30503457  1
  Sc  Sc77  1  0.30666047  0.29539525  0.70815748  1
  Sc  Sc78  1  0.90005533  0.50703368  0.50333405  1
  Sc  Sc79  1  0.89603704  0.09291543  0.71262076  1
  Sc  Sc80  1  0.49633535  0.09808502  0.30223260  1
  Sc  Sc81  1  0.70108129  0.30490433  0.09920693  1
  Sc  Sc82  1  0.90144747  0.71365127  0.09747424  1
  Sc  Sc83  1  0.70294953  0.09721223  0.09896143  1
  Sc  Sc84  1  0.69305988  0.29787299  0.50015699  1
  Sc  Sc85  1  0.90603570  0.29761484  0.70121282  1
  Sc  Sc86  1  0.09617729  0.50788988  0.09190340  1
  Sc  Sc87  1  0.29942861  0.09649625  0.70351105  1
  Sc  Sc88  1  0.69287893  0.69682430  0.50660290  1
  Sc  Sc89  1  0.09640480  0.29867930  0.50176602  1
  Sc  Sc90  1  0.08873745  0.70186422  0.50676571  1
  Sc  Sc91  1  0.10400620  0.69418989  0.89354179  1
  Sc  Sc92  1  0.30057226  0.70658372  0.90291182  1
  Sc  Sc93  1  0.89322163  0.29155437  0.29883695  1
  Sc  Sc94  1  0.09497630  0.51024455  0.30082391  1
  Sc  Sc95  1  0.50487659  0.50425644  0.09759676  1
  Sc  Sc96  1  0.09338524  0.09871891  0.09404605  1
  Sc  Sc97  1  0.90441632  0.09718953  0.49128673  1
  Sc  Sc98  1  0.09831836  0.89489085  0.69825345  1
  Sc  Sc99  1  0.10115727  0.09880189  0.70922926  1
  Nb  Nb100  1  0.29785069  0.70472228  0.10363411  1
  Nb  Nb101  1  0.90705900  0.69892008  0.69485621  1
  Nb  Nb102  1  0.29583447  0.29701224  0.10023772  1
  Nb  Nb103  1  0.29960393  0.11066685  0.10522041  1
  Nb  Nb104  1  0.30270612  0.50558439  0.29824509  1
  Nb  Nb105  1  0.48777708  0.90764634  0.90312907  1
  Nb  Nb106  1  0.69945354  0.10701458  0.90211425  1
  Nb  Nb107  1  0.70366451  0.89930450  0.69499327  1
  Nb  Nb108  1  0.50227594  0.10615769  0.09542477  1
  Nb  Nb109  1  0.69185366  0.30321014  0.29733127  1
  Nb  Nb110  1  0.50063857  0.49788263  0.70252759  1
  Nb  Nb111  1  0.50061058  0.90972864  0.09741255  1
  Nb  Nb112  1  0.30424038  0.69939851  0.29771177  1
  Nb  Nb113  1  0.89396376  0.89924616  0.70233335  1
  Nb  Nb114  1  0.89849395  0.70132103  0.49896534  1
  Nb  Nb115  1  0.09750585  0.69886799  0.69753566  1
  Nb  Nb116  1  0.31597622  0.89844221  0.90090809  1
  Nb  Nb117  1  0.50144326  0.09957853  0.90310336  1
  Nb  Nb118  1  0.50086425  0.29639211  0.30516107  1
  Nb  Nb119  1  0.29694199  0.29887005  0.90182675  1
  Nb  Nb120  1  0.09776722  0.30384917  0.30103111  1
  Nb  Nb121  1  0.10574288  0.70087976  0.29967002  1
  Nb  Nb122  1  0.89784214  0.50249059  0.70427283  1
  Nb  Nb123  1  0.49884532  0.69514996  0.49608707  1
  Nb  Nb124  1  0.69961188  0.29377075  0.89740279  1
  Nb  Nb125  1  0.20579683  0.60416111  0.20236012  1
  Nb  Nb126  1  0.59974158  0.20025384  0.80619388  1
  Nb  Nb127  1  0.80673468  0.80046836  0.60189109  1
  Nb  Nb128  1  0.40802420  0.59985573  0.79800358  1
  Nb  Nb129  1  0.79989741  0.19259584  0.60178851  1
  Nb  Nb130  1  0.59195985  0.40277050  0.39455777  1
  Nb  Nb131  1  0.40072876  0.79544239  0.40046387  1
  Nb  Nb132  1  0.80123091  0.59932052  0.20045289  1
  Nb  Nb133  1  0.60318343  0.39809614  0.80231867  1
  Nb  Nb134  1  0.59542246  0.59374923  0.80012649  1
  Nb  Nb135  1  0.20389066  0.60610569  0.39587403  1
  Nb  Nb136  1  0.20561787  0.00341836  0.19530684  1
  Nb  Nb137  1  0.19831552  0.40269660  0.19730696  1
  Nb  Nb138  1  0.80192417  0.80105914  0.79132354  1
  Nb  Nb139  1  0.00113147  0.40075976  0.39454492  1
  Nb  Nb140  1  0.40152325  0.40319188  0.39350052  1
  Nb  Nb141  1  0.59698900  0.20192323  0.20197696  1
  Nb  Nb142  1  0.59148093  0.00424885  -0.00187579  1
  Nb  Nb143  1  0.79719797  0.40172476  0.80078455  1
  Nb  Nb144  1  0.80440001  0.79889948  0.40892105  1
  Nb  Nb145  1  0.20511501  0.79287580  0.39712328  1
  Nb  Nb146  1  0.20443286  0.39325167  0.00200347  1
  Nb  Nb147  1  0.00360981  0.39724683  0.20449150  1
  Nb  Nb148  1  0.19912620  0.19712867  0.60045897  1
  Nb  Nb149  1  0.59422729  0.59386485  0.39978017  1
  Pd  Pd150  1  0.39746619  0.00743529  0.19365771  1
  Pd  Pd151  1  -0.00121089  0.18843847  0.60492980  1
  Pd  Pd152  1  -0.00080968  0.60214604  0.79957055  1
  Pd  Pd153  1  0.59416617  0.00161821  0.39843749  1
  Pd  Pd154  1  0.00209208  0.80229101  0.39687452  1
  Pd  Pd155  1  0.80797061  0.79343846  0.21298502  1
  Pd  Pd156  1  0.20434528  -0.00828670  0.80130417  1
  Pd  Pd157  1  -0.00291865  0.79963862  0.80338300  1
  Pd  Pd158  1  0.20018557  0.60222840  0.00602247  1
  Pd  Pd159  1  0.39629646  0.01178056  0.00619269  1
  Pd  Pd160  1  0.41003496  -0.00916477  0.40427904  1
  Pd  Pd161  1  0.00447297  0.79580626  -0.01253438  1
  Pd  Pd162  1  0.78770258  0.19688982  0.19972166  1
  Pd  Pd163  1  0.79528184  0.20401530  0.40631169  1
  Pd  Pd164  1  0.00111770  -0.00063590  0.39065443  1
  Pd  Pd165  1  0.80183269  0.38653992  0.40260987  1
  Pd  Pd166  1  0.40472802  0.79120033  0.79173593  1
  Pd  Pd167  1  0.39416694  0.39601165  0.00142813  1
  Pd  Pd168  1  0.60775645  0.18668162  0.60918010  1
  Pd  Pd169  1  0.00007965  0.60121345  0.19318552  1
  Pd  Pd170  1  0.39007400  0.19116865  0.59632808  1
  Pd  Pd171  1  0.80378894  0.60520450  0.60053569  1
  Pd  Pd172  1  0.40492016  0.00278143  0.60060860  1
  Pd  Pd173  1  0.00946546  0.39258300  0.00744131  1
  Pd  Pd174  1  0.80996648  0.60428886  0.00998597  1
  Pd  Pd175  1  0.19866047  0.40901169  0.39033355  1
  Pd  Pd176  1  0.19724621  0.20028575  0.40862830  1
  Pd  Pd177  1  0.60334064  0.79510923  0.40374541  1
  Pd  Pd178  1  0.40793543  0.19993344  0.20036500  1
  Pd  Pd179  1  -0.00078783  0.00637520  0.61112586  1
  Pd  Pd180  1  0.79814951  0.39369806  -0.00453840  1
  Pd  Pd181  1  0.80846422  0.39091582  0.60218928  1
  Pd  Pd182  1  0.20243418  0.39608053  0.79707388  1
  Pd  Pd183  1  0.18980981  0.19739379  0.20061386  1
  Pd  Pd184  1  0.19969943  0.20119304  -0.00180406  1
  Pd  Pd185  1  0.60106233  0.39377355  -0.00179876  1
  Pd  Pd186  1  0.40662960  0.79831061  0.19506260  1
  Pd  Pd187  1  0.20608948  0.00317873  0.00371671  1
  Pd  Pd188  1  0.40084968  0.40353519  0.79899454  1
  Pd  Pd189  1  0.00709845  0.00803900  0.20390716  1
  Pd  Pd190  1  0.60115129  0.81424848  0.00539926  1
  Pd  Pd191  1  0.19809336  0.80047333  -0.00713605  1
  Pd  Pd192  1  0.39925762  0.39558850  0.20128663  1
  Pd  Pd193  1  -0.00354010  0.60907220  0.00298021  1
  Pd  Pd194  1  0.40514292  0.61244717  -0.00389535  1
  Pd  Pd195  1  0.20002523  0.80401595  0.80497287  1
  Pd  Pd196  1  0.40069684  0.79874869  0.60248159  1
  Pd  Pd197  1  0.20243766  0.38773790  0.61207377  1
  Pd  Pd198  1  0.00080518  -0.00265942  0.80346692  1
  Pd  Pd199  1  0.60184006  0.79586080  0.79849886  1
  Rh  Rh200  1  0.58923050  0.38988159  0.19969070  1
  Rh  Rh201  1  0.40056011  0.60259900  0.61449698  1
  Rh  Rh202  1  0.40288657  0.19953349  0.80241506  1
  Rh  Rh203  1  0.59520840  0.60388768  -0.00519696  1
  Rh  Rh204  1  0.78740886  -0.00316274  -0.00319679  1
  Rh  Rh205  1  -0.00509690  0.19337732  -0.00709304  1
  Rh  Rh206  1  0.60456606  0.20080256  0.39244709  1
  Rh  Rh207  1  0.39745746  0.60788989  0.18858135  1
  Rh  Rh208  1  0.60510015  0.19619670  0.00419053  1
  Rh  Rh209  1  0.19700656  -0.00743345  0.38845285  1
  Rh  Rh210  1  0.00026938  0.20125952  0.20371129  1
  Rh  Rh211  1  0.79668250  0.20038247  0.00540244  1
  Rh  Rh212  1  0.79780478  0.80540744  -0.00966683  1
  Rh  Rh213  1  -0.00588291  0.40705966  0.59516908  1
  Rh  Rh214  1  0.59372147  0.00229628  0.60143540  1
  Rh  Rh215  1  -0.00361785  0.19428140  0.80218824  1
  Rh  Rh216  1  0.19240276  0.60737740  0.59777865  1
  Rh  Rh217  1  0.59986096  0.80568420  0.19195869  1
  Rh  Rh218  1  0.60785936  0.60326341  0.20198631  1
  Rh  Rh219  1  0.20507283  0.60185888  0.79635053  1
  Rh  Rh220  1  0.39446999  0.39963309  0.59945482  1
  Rh  Rh221  1  0.60110403  0.40384904  0.59586452  1
  Rh  Rh222  1  0.60242604  0.00542547  0.81019887  1
  Rh  Rh223  1  0.40219408  0.79835338  0.00632983  1
  Rh  Rh224  1  0.80893633  0.00314189  0.59868964  1
  Rh  Rh225  1  0.19368090  0.79627876  0.59600247  1
  Rh  Rh226  1  -0.00193164  0.80015806  0.60544473  1
  Rh  Rh227  1  0.78685672  0.61716561  0.39180016  1
  Rh  Rh228  1  0.19914683  0.20494865  0.79162203  1
  Rh  Rh229  1  -0.00230757  0.59702773  0.60030057  1
  Rh  Rh230  1  0.40349687  0.59809760  0.39699045  1
  Rh  Rh231  1  0.59951540  0.59430150  0.59780162  1
  Rh  Rh232  1  0.79509345  0.20147708  0.79331145  1
  Rh  Rh233  1  0.80001968  0.00367795  0.20122215  1
  Rh  Rh234  1  0.79339467  -0.00773662  0.80879205  1
  Rh  Rh235  1  0.60726673  0.80258778  0.59923461  1
  Rh  Rh236  1  0.39123107  0.19802355  0.00107120  1
  Rh  Rh237  1  0.39590597  0.20270032  0.40368299  1
  Rh  Rh238  1  0.80530215  -0.00905343  0.39647102  1
  Rh  Rh239  1  0.20209241  0.80163716  0.19944485  1
  Rh  Rh240  1  0.59964470  0.00956697  0.19129209  1
  Rh  Rh241  1  0.39500431  -0.00110005  0.80038511  1
  Rh  Rh242  1  0.00046686  0.20789789  0.39856087  1
  Rh  Rh243  1  -0.00117650  0.00215001  -0.00678208  1
  Rh  Rh244  1  0.80824432  0.39972582  0.20239610  1
  Rh  Rh245  1  -0.00925632  0.40230065  0.79534193  1
  Rh  Rh246  1  0.19641526  0.00709291  0.60971729  1
  Rh  Rh247  1  0.79759926  0.59731541  0.79404755  1
  Rh  Rh248  1  0.01133788  0.59406593  0.41276230  1
  Rh  Rh249  1  -0.00517112  0.79759613  0.20263392  1
