# generated using pymatgen
data_ZrScNbPdRh
_symmetry_space_group_name_H-M   'P 1'
_cell_length_a   16.55212878
_cell_length_b   16.55032651
_cell_length_c   16.55423849
_cell_angle_alpha   90.01242401
_cell_angle_beta   89.96910064
_cell_angle_gamma   90.01535363
_symmetry_Int_Tables_number   1
_chemical_formula_structural   ZrScNbPdRh
_chemical_formula_sum   'Zr50 Sc50 Nb50 Pd50 Rh50'
_cell_volume   4534.91907269
_cell_formula_units_Z   50
loop_
 _symmetry_equiv_pos_site_id
 _symmetry_equiv_pos_as_xyz
  1  'x, y, z'
loop_
 _atom_site_type_symbol
 _atom_site_label
 _atom_site_symmetry_multiplicity
 _atom_site_fract_x
 _atom_site_fract_y
 _atom_site_fract_z
 _atom_site_occupancy
  Zr  Zr0  1  0.49499216  0.69851268  0.09566888  1
  Zr  Zr1  1  0.30234601  0.09555628  0.70261962  1
  Zr  Zr2  1  0.30241347  0.69199946  0.49371343  1
  Zr  Zr3  1  0.49673129  0.50502237  0.89935355  1
  Zr  Zr4  1  0.30272389  0.89495787  0.70786598  1
  Zr  Zr5  1  0.10401146  0.89987390  0.90504569  1
  Zr  Zr6  1  0.09298399  0.89388448  0.30639941  1
  Zr  Zr7  1  0.90604706  0.50215831  0.70876987  1
  Zr  Zr8  1  0.69222648  0.09654647  0.50840705  1
  Zr  Zr9  1  0.49785967  0.30100285  0.10164627  1
  Zr  Zr10  1  0.89775166  0.50021627  0.09489109  1
  Zr  Zr11  1  0.30740079  0.70599586  0.69263988  1
  Zr  Zr12  1  0.89527098  0.29092986  0.29609387  1
  Zr  Zr13  1  0.29913084  0.49397465  0.90264535  1
  Zr  Zr14  1  0.49862173  0.50060281  0.30031622  1
  Zr  Zr15  1  0.49815017  0.30020224  0.49801549  1
  Zr  Zr16  1  0.30335288  0.50432688  0.70989141  1
  Zr  Zr17  1  0.10119006  0.30610619  0.70580397  1
  Zr  Zr18  1  0.50756659  0.69411495  0.50197536  1
  Zr  Zr19  1  0.90429484  0.69778212  0.09721379  1
  Zr  Zr20  1  0.90592911  0.11257058  0.90003755  1
  Zr  Zr21  1  0.89781857  0.70437667  0.50445321  1
  Zr  Zr22  1  0.89885434  0.30559232  0.09468229  1
  Zr  Zr23  1  0.69965277  0.30025965  0.90268158  1
  Zr  Zr24  1  0.10193625  0.50218134  0.49401934  1
  Zr  Zr25  1  0.50174445  0.89849223  0.89905306  1
  Zr  Zr26  1  0.08907692  0.89420641  0.50173577  1
  Zr  Zr27  1  0.10223928  0.70612222  0.48880883  1
  Zr  Zr28  1  0.90223935  0.09888965  0.29336436  1
  Zr  Zr29  1  0.70044502  0.09883810  0.89984313  1
  Zr  Zr30  1  0.90823142  0.50508304  0.89995028  1
  Zr  Zr31  1  0.89688269  0.10544642  0.10367303  1
  Zr  Zr32  1  0.49548775  0.89450618  0.69784041  1
  Zr  Zr33  1  0.70302078  0.89399714  0.49642832  1
  Zr  Zr34  1  0.09816498  0.29855117  0.49561103  1
  Zr  Zr35  1  0.09680131  0.29417024  0.29454114  1
  Zr  Zr36  1  0.10032482  0.71526123  0.10125743  1
  Zr  Zr37  1  0.89584017  0.70017172  0.71416702  1
  Zr  Zr38  1  0.69126075  0.70743907  0.09548223  1
  Zr  Zr39  1  0.89959683  0.90051519  0.49237344  1
  Zr  Zr40  1  0.90078558  0.88565146  0.89309547  1
  Zr  Zr41  1  0.09948084  0.08962586  0.48818619  1
  Zr  Zr42  1  0.10691402  0.09890030  0.90553829  1
  Zr  Zr43  1  0.70119807  0.29461697  0.69680749  1
  Zr  Zr44  1  0.89292399  0.10059762  0.69995203  1
  Zr  Zr45  1  0.51001363  0.89422462  0.30383366  1
  Zr  Zr46  1  0.50146841  0.69504980  0.29466938  1
  Zr  Zr47  1  0.70065124  0.09517166  0.09948727  1
  Zr  Zr48  1  0.50154838  0.10104101  0.50106379  1
  Zr  Zr49  1  0.30920598  0.09937667  0.50133516  1
  Sc  Sc50  1  0.09190861  0.70197445  0.90691152  1
  Sc  Sc51  1  0.09451623  0.10045280  0.71462511  1
  Sc  Sc52  1  0.09857915  0.49947670  0.09070572  1
  Sc  Sc53  1  0.10582705  0.30742334  0.10720157  1
  Sc  Sc54  1  0.49931132  0.69127955  0.69658399  1
  Sc  Sc55  1  0.09102337  0.09799999  0.09782085  1
  Sc  Sc56  1  0.49925976  0.10069922  0.10286029  1
  Sc  Sc57  1  0.30638948  0.50414445  0.29620838  1
  Sc  Sc58  1  0.70276343  0.11006018  0.29753159  1
  Sc  Sc59  1  0.30475371  0.89581270  0.50643851  1
  Sc  Sc60  1  0.50256956  0.49504440  0.49904553  1
  Sc  Sc61  1  0.30946499  0.89580787  0.29316990  1
  Sc  Sc62  1  0.49532734  0.49887323  0.09926991  1
  Sc  Sc63  1  0.88980628  0.29265790  0.50363527  1
  Sc  Sc64  1  0.69472007  0.50563651  0.29663000  1
  Sc  Sc65  1  0.69931901  0.90129500  0.91179147  1
  Sc  Sc66  1  0.89918470  0.70054858  0.29267251  1
  Sc  Sc67  1  0.50464054  0.10169033  0.30639159  1
  Sc  Sc68  1  0.30646048  0.30596075  0.70392241  1
  Sc  Sc69  1  0.90724938  0.89611053  0.69328183  1
  Sc  Sc70  1  0.69777933  0.50110174  0.68998225  1
  Sc  Sc71  1  0.69610499  0.10368479  0.69883442  1
  Sc  Sc72  1  0.69989193  0.30518542  0.10485479  1
  Sc  Sc73  1  0.10272944  0.30219747  0.89687269  1
  Sc  Sc74  1  0.50380792  0.09421527  0.69593900  1
  Sc  Sc75  1  0.30567698  0.09209710  0.30117087  1
  Sc  Sc76  1  0.50986211  0.30416505  0.30051486  1
  Sc  Sc77  1  0.50687704  0.09647967  0.90247245  1
  Sc  Sc78  1  0.10247092  0.49568101  0.29231498  1
  Sc  Sc79  1  0.88940116  0.50795335  0.28546869  1
  Sc  Sc80  1  0.29912621  0.69953113  0.90193737  1
  Sc  Sc81  1  0.90239329  0.90830648  0.10064131  1
  Sc  Sc82  1  0.51160812  0.90666161  0.50204381  1
  Sc  Sc83  1  0.10282830  0.50092359  0.88982340  1
  Sc  Sc84  1  0.89808752  0.29342283  0.70429275  1
  Sc  Sc85  1  0.30218943  0.70315652  0.09927782  1
  Sc  Sc86  1  0.50133019  0.30638991  0.69902523  1
  Sc  Sc87  1  0.29895246  0.89046692  0.09967842  1
  Sc  Sc88  1  0.68910593  0.49754175  0.90214754  1
  Sc  Sc89  1  0.68965998  0.30106884  0.50673043  1
  Sc  Sc90  1  0.49850401  0.89204153  0.10068019  1
  Sc  Sc91  1  0.88509876  0.50809045  0.50527375  1
  Sc  Sc92  1  0.30192070  0.69789688  0.29984879  1
  Sc  Sc93  1  0.29469380  0.10644992  0.09205668  1
  Sc  Sc94  1  0.89344111  0.09240822  0.49941998  1
  Sc  Sc95  1  0.29850869  0.30856984  0.09473175  1
  Sc  Sc96  1  0.30196066  0.49953886  0.09837812  1
  Sc  Sc97  1  0.10083744  0.70938073  0.70231849  1
  Sc  Sc98  1  0.50070242  0.31234365  0.90547982  1
  Sc  Sc99  1  0.68951877  0.69815595  0.30369601  1
  Nb  Nb100  1  0.89559335  0.30397056  0.89928157  1
  Nb  Nb101  1  0.69815612  0.89678075  0.30215180  1
  Nb  Nb102  1  0.29872444  0.90837272  0.89934005  1
  Nb  Nb103  1  0.29456042  0.30227667  0.29070864  1
  Nb  Nb104  1  0.69427899  0.29951077  0.30469743  1
  Nb  Nb105  1  0.70090045  0.68328176  0.51234229  1
  Nb  Nb106  1  0.88625134  0.90158676  0.30263736  1
  Nb  Nb107  1  0.10572402  0.89894605  0.09965470  1
  Nb  Nb108  1  0.49628165  0.49613858  0.70581097  1
  Nb  Nb109  1  0.30472785  0.29374495  0.90769576  1
  Nb  Nb110  1  0.10215809  0.49798991  0.69971789  1
  Nb  Nb111  1  0.89601657  0.69844860  0.89780869  1
  Nb  Nb112  1  0.71311855  0.50018149  0.09856329  1
  Nb  Nb113  1  0.29765573  0.10269279  0.90490516  1
  Nb  Nb114  1  0.29805665  0.49920540  0.49212808  1
  Nb  Nb115  1  0.30034607  0.30007857  0.49806789  1
  Nb  Nb116  1  0.10211914  0.70138991  0.29952715  1
  Nb  Nb117  1  0.69996706  0.90622431  0.10230850  1
  Nb  Nb118  1  0.70376084  0.70418465  0.89761324  1
  Nb  Nb119  1  0.51657756  0.69778126  0.90786912  1
  Nb  Nb120  1  0.10069807  0.09817589  0.29857076  1
  Nb  Nb121  1  0.70108931  0.70183228  0.69746964  1
  Nb  Nb122  1  0.69726388  0.50469504  0.50007443  1
  Nb  Nb123  1  0.70216511  0.89821965  0.69925451  1
  Nb  Nb124  1  0.10179618  0.89899930  0.69953804  1
  Nb  Nb125  1  -0.00000456  0.59939846  0.39879590  1
  Nb  Nb126  1  0.39635650  0.20547172  0.20199767  1
  Nb  Nb127  1  0.41055633  0.79405528  0.40281377  1
  Nb  Nb128  1  0.19295328  -0.00414266  0.20002820  1
  Nb  Nb129  1  0.19522715  -0.00112977  0.60428219  1
  Nb  Nb130  1  0.79764849  0.60567224  -0.00610359  1
  Nb  Nb131  1  0.00182307  0.40187003  0.59742699  1
  Nb  Nb132  1  0.19417666  0.60750714  0.19914803  1
  Nb  Nb133  1  0.20372277  0.40319727  0.59474922  1
  Nb  Nb134  1  0.80115011  0.39835581  0.80397670  1
  Nb  Nb135  1  0.39319337  -0.00024512  -0.00580629  1
  Nb  Nb136  1  0.60157704  0.20116254  0.00261207  1
  Nb  Nb137  1  0.79253621  0.80852020  0.19997262  1
  Nb  Nb138  1  -0.00968025  0.40379481  0.40029603  1
  Nb  Nb139  1  0.20509887  0.20042823  0.39741881  1
  Nb  Nb140  1  0.79979353  -0.00304957  0.80005025  1
  Nb  Nb141  1  0.60518952  -0.00570778  0.20258989  1
  Nb  Nb142  1  0.00610222  0.59896979  0.60062239  1
  Nb  Nb143  1  0.39765715  0.19822280  0.81150784  1
  Nb  Nb144  1  0.79401472  0.39971879  0.39893085  1
  Nb  Nb145  1  0.19977331  0.19835009  0.59543578  1
  Nb  Nb146  1  0.20319552  0.39448224  0.39814835  1
  Nb  Nb147  1  0.00670975  0.19917922  0.59930167  1
  Nb  Nb148  1  0.60674076  0.79304647  0.80014662  1
  Nb  Nb149  1  0.19997560  0.59566337  0.59992496  1
  Pd  Pd150  1  0.19792143  0.60318494  0.00679666  1
  Pd  Pd151  1  0.19127736  0.20718765  0.00616137  1
  Pd  Pd152  1  0.19802413  0.79511792  0.80785327  1
  Pd  Pd153  1  0.60565633  0.59066093  0.00867131  1
  Pd  Pd154  1  0.80155624  0.59968189  0.39437103  1
  Pd  Pd155  1  0.39773066  0.20749587  0.38777471  1
  Pd  Pd156  1  0.60733329  -0.00802142  0.79496259  1
  Pd  Pd157  1  0.39870883  0.58875641  0.59479923  1
  Pd  Pd158  1  0.81249445  -0.00096928  -0.00892566  1
  Pd  Pd159  1  -0.00975208  0.80956441  0.20337589  1
  Pd  Pd160  1  0.19970391  0.80094564  0.59737264  1
  Pd  Pd161  1  0.80314791  0.40007631  0.60140867  1
  Pd  Pd162  1  0.19656868  0.61086340  0.79570513  1
  Pd  Pd163  1  0.39752331  0.00531932  0.18914941  1
  Pd  Pd164  1  0.40390491  -0.01227471  0.40379116  1
  Pd  Pd165  1  0.00877874  0.21170536  0.00356533  1
  Pd  Pd166  1  0.40132344  0.20284349  0.61177644  1
  Pd  Pd167  1  0.60466887  0.60333225  0.79270461  1
  Pd  Pd168  1  0.78637405  0.58945903  0.80392929  1
  Pd  Pd169  1  0.60520089  0.40053538  0.79327954  1
  Pd  Pd170  1  0.20435409  0.18797538  0.20075841  1
  Pd  Pd171  1  0.39837226  0.40729119  0.59951825  1
  Pd  Pd172  1  -0.00499375  0.40410296  0.20346735  1
  Pd  Pd173  1  0.41025459  0.78750001  0.80991214  1
  Pd  Pd174  1  0.58808775  0.20520201  0.80579859  1
  Pd  Pd175  1  0.21370924  0.80826918  0.39476500  1
  Pd  Pd176  1  0.20759883  0.20550074  0.79640762  1
  Pd  Pd177  1  0.80337743  0.80130558  0.60329381  1
  Pd  Pd178  1  0.80351453  0.79950679  0.00888945  1
  Pd  Pd179  1  -0.00587077  -0.00450439  0.80320509  1
  Pd  Pd180  1  -0.00532131  -0.00393681  -0.00390289  1
  Pd  Pd181  1  0.40429275  0.00811191  0.80554690  1
  Pd  Pd182  1  0.40185629  0.60938615  0.80798132  1
  Pd  Pd183  1  0.79360473  0.20299510  0.00560789  1
  Pd  Pd184  1  0.60142982  0.79926755  0.60241438  1
  Pd  Pd185  1  0.79469646  0.39504142  0.20857772  1
  Pd  Pd186  1  0.00836553  0.39753312  -0.00609482  1
  Pd  Pd187  1  0.39696755  0.39552646  0.39088674  1
  Pd  Pd188  1  0.39679299  0.80224939  -0.00839276  1
  Pd  Pd189  1  0.00858814  0.59690928  0.20083580  1
  Pd  Pd190  1  0.60115886  0.59377280  0.19064516  1
  Pd  Pd191  1  0.19725634  -0.00129338  0.79734834  1
  Pd  Pd192  1  0.79500030  0.78593718  0.39470015  1
  Pd  Pd193  1  0.79193820  0.00909557  0.39655565  1
  Pd  Pd194  1  0.60394518  0.40770671  0.19536115  1
  Pd  Pd195  1  -0.00224426  0.19730729  0.40397855  1
  Pd  Pd196  1  0.00531017  0.00679285  0.60438668  1
  Pd  Pd197  1  0.00388598  -0.00641876  0.20381500  1
  Pd  Pd198  1  0.78985188  0.20250172  0.40825471  1
  Pd  Pd199  1  0.20751962  -0.00629692  0.39661348  1
  Rh  Rh200  1  -0.00354980  0.80525567  0.00079127  1
  Rh  Rh201  1  0.59965882  0.80705747  -0.00283987  1
  Rh  Rh202  1  0.80189192  0.19451503  0.59629248  1
  Rh  Rh203  1  0.79165162  0.80709009  0.79657343  1
  Rh  Rh204  1  0.20129285  0.80021037  0.20448989  1
  Rh  Rh205  1  0.21011935  0.39609442  0.80224519  1
  Rh  Rh206  1  -0.00730244  0.39393199  0.79943548  1
  Rh  Rh207  1  0.39859832  0.39440101  0.80643439  1
  Rh  Rh208  1  0.20683907  -0.00500150  0.01086667  1
  Rh  Rh209  1  0.39686745  -0.00612081  0.60095820  1
  Rh  Rh210  1  0.40848255  0.60216566  0.40077045  1
  Rh  Rh211  1  0.39969763  0.40467678  -0.00097924  1
  Rh  Rh212  1  0.60017761  0.59525603  0.40330830  1
  Rh  Rh213  1  0.60248896  0.80658893  0.19593299  1
  Rh  Rh214  1  0.20494083  0.80259030  -0.00576822  1
  Rh  Rh215  1  0.80403321  0.60169114  0.60930296  1
  Rh  Rh216  1  0.79621118  0.20646978  0.19470995  1
  Rh  Rh217  1  0.39171542  0.60166309  0.19340067  1
  Rh  Rh218  1  0.00077998  0.20068557  0.19117838  1
  Rh  Rh219  1  0.58811004  0.00071589  0.01213022  1
  Rh  Rh220  1  0.59483025  0.59114597  0.60675687  1
  Rh  Rh221  1  0.60382383  0.79035779  0.41135331  1
  Rh  Rh222  1  0.39962725  0.39472906  0.20209545  1
  Rh  Rh223  1  0.19500707  0.59279774  0.38835555  1
  Rh  Rh224  1  0.60084248  0.39992287  0.00972876  1
  Rh  Rh225  1  0.40408754  0.79360977  0.20688708  1
  Rh  Rh226  1  0.60109322  0.20006288  0.40421358  1
  Rh  Rh227  1  0.19845878  0.39958428  -0.00541379  1
  Rh  Rh228  1  0.00760247  0.79975074  0.80013308  1
  Rh  Rh229  1  0.59544854  0.40439776  0.60106147  1
  Rh  Rh230  1  -0.01271086  0.79315971  0.39141855  1
  Rh  Rh231  1  0.41004794  0.19440225  0.00096947  1
  Rh  Rh232  1  -0.00292098  0.79336575  0.60485263  1
  Rh  Rh233  1  0.60933461  0.40445615  0.40252872  1
  Rh  Rh234  1  0.79324096  -0.00353831  0.20687296  1
  Rh  Rh235  1  0.59541624  0.19452521  0.19648819  1
  Rh  Rh236  1  0.60745092  0.00663951  0.39381703  1
  Rh  Rh237  1  0.79895004  0.19954000  0.80130203  1
  Rh  Rh238  1  -0.00080493  0.60209507  -0.00247284  1
  Rh  Rh239  1  0.40813905  0.80038566  0.59052695  1
  Rh  Rh240  1  0.20494798  0.41447343  0.20050601  1
  Rh  Rh241  1  -0.00927939  -0.00096243  0.39093183  1
  Rh  Rh242  1  0.60332032  -0.00492355  0.60551559  1
  Rh  Rh243  1  0.01037601  0.60937854  0.79801018  1
  Rh  Rh244  1  0.79873371  0.41032801  -0.00959237  1
  Rh  Rh245  1  -0.00079961  0.20489862  0.80024552  1
  Rh  Rh246  1  0.78967768  0.61487886  0.18786475  1
  Rh  Rh247  1  0.40046796  0.60196912  -0.00378952  1
  Rh  Rh248  1  0.79505138  -0.00490479  0.60667907  1
  Rh  Rh249  1  0.58996798  0.20348626  0.60170602  1
