# generated using pymatgen
data_ZrScNbPdRh
_symmetry_space_group_name_H-M   'P 1'
_cell_length_a   16.56344290
_cell_length_b   16.55602776
_cell_length_c   16.56224585
_cell_angle_alpha   90.02803665
_cell_angle_beta   89.99188288
_cell_angle_gamma   90.00167499
_symmetry_Int_Tables_number   1
_chemical_formula_structural   ZrScNbPdRh
_chemical_formula_sum   'Zr50 Sc50 Nb50 Pd50 Rh50'
_cell_volume   4541.77830441
_cell_formula_units_Z   50
loop_
 _symmetry_equiv_pos_site_id
 _symmetry_equiv_pos_as_xyz
  1  'x, y, z'
loop_
 _atom_site_type_symbol
 _atom_site_label
 _atom_site_symmetry_multiplicity
 _atom_site_fract_x
 _atom_site_fract_y
 _atom_site_fract_z
 _atom_site_occupancy
  Zr  Zr0  1  0.10074467  0.50348502  0.50008822  1
  Zr  Zr1  1  0.90023440  0.70735728  0.49760130  1
  Zr  Zr2  1  0.69747948  0.09571466  0.29434254  1
  Zr  Zr3  1  0.50368581  0.90308256  0.70800935  1
  Zr  Zr4  1  0.69322255  0.70057487  0.69797926  1
  Zr  Zr5  1  0.69617987  0.09545976  0.09703445  1
  Zr  Zr6  1  0.30132379  0.69646034  0.69397408  1
  Zr  Zr7  1  0.49590712  0.70424648  0.89529667  1
  Zr  Zr8  1  0.09889256  0.29767685  0.70388855  1
  Zr  Zr9  1  0.70319725  0.49530654  0.70350254  1
  Zr  Zr10  1  0.10380874  0.49461069  0.89442913  1
  Zr  Zr11  1  0.10585982  0.89484687  0.49515859  1
  Zr  Zr12  1  0.90096691  0.30308651  0.09010621  1
  Zr  Zr13  1  0.30276609  0.09783814  0.50190652  1
  Zr  Zr14  1  0.68753632  0.90787452  0.89619349  1
  Zr  Zr15  1  0.10079735  0.29159616  0.49736965  1
  Zr  Zr16  1  0.70362688  0.29669032  0.49937023  1
  Zr  Zr17  1  0.70324409  0.70564622  0.29979542  1
  Zr  Zr18  1  0.49619716  0.69677446  0.70056098  1
  Zr  Zr19  1  0.09540073  0.49470281  0.30354673  1
  Zr  Zr20  1  0.70609583  0.29919614  0.30595657  1
  Zr  Zr21  1  0.30053039  0.30005473  0.30410226  1
  Zr  Zr22  1  0.50373087  0.90764707  0.50202825  1
  Zr  Zr23  1  0.89858875  0.90637636  0.30012557  1
  Zr  Zr24  1  0.89584741  0.90177820  0.10058787  1
  Zr  Zr25  1  0.49209786  0.09728094  0.49756858  1
  Zr  Zr26  1  0.90227365  0.29814592  0.30265583  1
  Zr  Zr27  1  0.09847675  0.29594883  0.09813231  1
  Zr  Zr28  1  0.70305249  0.70400589  0.49807717  1
  Zr  Zr29  1  0.89523231  0.09627738  0.10053240  1
  Zr  Zr30  1  0.49591897  0.29491602  0.70282570  1
  Zr  Zr31  1  0.31246287  0.30814732  0.70967628  1
  Zr  Zr32  1  0.49518563  0.28981224  0.89937077  1
  Zr  Zr33  1  0.90850948  0.10248415  0.49656434  1
  Zr  Zr34  1  0.88984375  0.71031039  0.09184374  1
  Zr  Zr35  1  0.69769152  0.69425581  0.89722984  1
  Zr  Zr36  1  0.69130503  0.49610407  0.09484279  1
  Zr  Zr37  1  0.10638756  0.10400697  0.90471728  1
  Zr  Zr38  1  0.50546882  0.50745531  0.91172210  1
  Zr  Zr39  1  0.90057616  0.28928437  0.49872883  1
  Zr  Zr40  1  0.70649833  0.29661662  0.90062059  1
  Zr  Zr41  1  0.29878385  0.49702939  0.89087869  1
  Zr  Zr42  1  0.89473684  0.09996705  0.29902153  1
  Zr  Zr43  1  0.49508965  0.69354849  0.09431535  1
  Zr  Zr44  1  0.09948273  0.70571337  0.09728058  1
  Zr  Zr45  1  0.10228959  0.30122703  0.90713606  1
  Zr  Zr46  1  0.90166030  0.70008517  0.69723753  1
  Zr  Zr47  1  0.50246431  0.69723670  0.51305312  1
  Zr  Zr48  1  0.90774690  0.89018409  0.89941425  1
  Zr  Zr49  1  0.10667060  0.89972525  0.89803596  1
  Sc  Sc50  1  0.10247671  0.89681061  0.70105322  1
  Sc  Sc51  1  0.09447735  0.09321103  0.29575772  1
  Sc  Sc52  1  0.10164076  0.50907934  0.70000845  1
  Sc  Sc53  1  0.48906256  0.49662188  0.69993031  1
  Sc  Sc54  1  0.89677036  0.49560832  0.70406217  1
  Sc  Sc55  1  0.90534992  0.51189939  0.49321987  1
  Sc  Sc56  1  0.09949466  0.71382779  0.89340223  1
  Sc  Sc57  1  0.70073609  0.09142876  0.50826614  1
  Sc  Sc58  1  0.29825861  0.29627142  0.89826704  1
  Sc  Sc59  1  0.50100566  0.29969963  0.29007540  1
  Sc  Sc60  1  0.88948075  0.30058545  0.70509630  1
  Sc  Sc61  1  0.70089793  0.70746365  0.10248694  1
  Sc  Sc62  1  0.11332818  0.09795563  0.09836048  1
  Sc  Sc63  1  0.69356639  0.29707416  0.09601875  1
  Sc  Sc64  1  0.30686626  0.10456039  0.69532507  1
  Sc  Sc65  1  0.69548392  0.10373964  0.90144425  1
  Sc  Sc66  1  0.49869939  0.29964122  0.50204169  1
  Sc  Sc67  1  0.89837515  0.89852004  0.49857261  1
  Sc  Sc68  1  0.49171773  0.90243913  0.10341302  1
  Sc  Sc69  1  0.09904388  0.90019593  0.29798020  1
  Sc  Sc70  1  0.09711653  0.29928700  0.30641425  1
  Sc  Sc71  1  0.09421597  0.48882060  0.09829539  1
  Sc  Sc72  1  0.70435028  0.90145552  0.09908151  1
  Sc  Sc73  1  0.10247833  0.69777261  0.50036857  1
  Sc  Sc74  1  0.29321171  0.50394745  0.49677633  1
  Sc  Sc75  1  0.30976309  0.89754967  0.90311090  1
  Sc  Sc76  1  0.69582563  0.10079744  0.70356401  1
  Sc  Sc77  1  0.70135658  0.29228814  0.70270409  1
  Sc  Sc78  1  0.29384714  0.90439637  0.09848522  1
  Sc  Sc79  1  0.30081730  0.90042892  0.30014592  1
  Sc  Sc80  1  0.30445583  0.90131729  0.51112922  1
  Sc  Sc81  1  0.29566173  0.50802198  0.29728514  1
  Sc  Sc82  1  0.31099044  0.10221227  0.30034781  1
  Sc  Sc83  1  0.90658833  0.09979210  0.69584455  1
  Sc  Sc84  1  0.30191316  0.29233321  0.49469394  1
  Sc  Sc85  1  0.30484532  0.51006175  0.10793408  1
  Sc  Sc86  1  0.70251317  0.50062375  0.90307202  1
  Sc  Sc87  1  0.90920394  0.89842219  0.69396070  1
  Sc  Sc88  1  0.30563766  0.28584392  0.10443914  1
  Sc  Sc89  1  0.30336467  0.70610094  0.10068407  1
  Sc  Sc90  1  0.10268177  0.09856715  0.69193304  1
  Sc  Sc91  1  0.88816782  0.70152701  0.30532783  1
  Sc  Sc92  1  0.10502508  0.69793796  0.69916761  1
  Sc  Sc93  1  0.70006765  0.49263449  0.49830321  1
  Sc  Sc94  1  0.50107368  0.10293675  0.70238326  1
  Sc  Sc95  1  0.29718291  0.70152977  0.29269221  1
  Sc  Sc96  1  0.30066250  0.70092716  0.89144672  1
  Sc  Sc97  1  0.50895575  0.49560909  0.50884938  1
  Sc  Sc98  1  0.50593114  0.71020096  0.28699086  1
  Sc  Sc99  1  0.10560114  0.70702997  0.30592812  1
  Nb  Nb100  1  0.50087181  0.50332322  0.29094990  1
  Nb  Nb101  1  0.70014545  0.89703233  0.50702728  1
  Nb  Nb102  1  0.50104040  0.49583285  0.10397458  1
  Nb  Nb103  1  0.30386038  0.09859353  0.09286042  1
  Nb  Nb104  1  0.10466094  0.10247043  0.50470457  1
  Nb  Nb105  1  0.89744787  0.29468937  0.90040450  1
  Nb  Nb106  1  0.70184422  0.90291460  0.69885126  1
  Nb  Nb107  1  0.89095161  0.49764979  0.90007457  1
  Nb  Nb108  1  0.89736442  0.50210378  0.29397670  1
  Nb  Nb109  1  0.70239685  0.50359378  0.30052889  1
  Nb  Nb110  1  0.68956773  0.89901993  0.31023919  1
  Nb  Nb111  1  0.30299896  0.09892309  0.91114177  1
  Nb  Nb112  1  0.49942085  0.08986849  0.90349736  1
  Nb  Nb113  1  0.29812483  0.90512130  0.69729384  1
  Nb  Nb114  1  0.29168414  0.50205629  0.70498271  1
  Nb  Nb115  1  0.49980889  0.30580496  0.09676395  1
  Nb  Nb116  1  0.09561874  0.90318053  0.09538021  1
  Nb  Nb117  1  0.89966450  0.49933500  0.10066966  1
  Nb  Nb118  1  0.89391979  0.69908476  0.89898987  1
  Nb  Nb119  1  0.50257660  0.90259728  0.89866283  1
  Nb  Nb120  1  0.30778296  0.70579332  0.49729164  1
  Nb  Nb121  1  0.89884882  0.10341282  0.90174057  1
  Nb  Nb122  1  0.50325572  0.08680273  0.30619514  1
  Nb  Nb123  1  0.49591074  0.10814063  0.09865246  1
  Nb  Nb124  1  0.50297923  0.91021186  0.30908379  1
  Nb  Nb125  1  0.20843832  0.00163250  0.80217461  1
  Nb  Nb126  1  -0.00378601  0.79901008  0.19569258  1
  Nb  Nb127  1  0.59208152  0.80345752  -0.00655140  1
  Nb  Nb128  1  0.59650980  0.39522654  0.80495947  1
  Nb  Nb129  1  0.00473873  0.39714545  0.59744685  1
  Nb  Nb130  1  0.40655680  0.40034769  0.00761935  1
  Nb  Nb131  1  0.19237995  0.59972209  -0.00286875  1
  Nb  Nb132  1  -0.00518275  0.59983135  -0.00327907  1
  Nb  Nb133  1  -0.00784166  0.60009604  0.81080939  1
  Nb  Nb134  1  0.19851764  0.39609379  0.20254282  1
  Nb  Nb135  1  0.19923232  0.39921140  0.60285939  1
  Nb  Nb136  1  0.80350523  -0.00415673  0.79997943  1
  Nb  Nb137  1  0.80264748  0.40769441  0.20119259  1
  Nb  Nb138  1  0.79870856  0.60403115  0.59919696  1
  Nb  Nb139  1  0.00180999  -0.00018981  -0.00195098  1
  Nb  Nb140  1  -0.00796044  0.60165600  0.19497762  1
  Nb  Nb141  1  -0.00182008  0.20182110  0.80943234  1
  Nb  Nb142  1  0.59801428  0.19215289  0.39654790  1
  Nb  Nb143  1  0.40504170  0.41056522  0.39290469  1
  Nb  Nb144  1  0.59809555  0.59615438  0.39199905  1
  Nb  Nb145  1  0.40483191  0.79776167  0.40383396  1
  Nb  Nb146  1  -0.00371284  0.19930179  0.19413666  1
  Nb  Nb147  1  0.41018020  0.60314973  0.39773060  1
  Nb  Nb148  1  0.20067816  0.00277718  0.40783444  1
  Nb  Nb149  1  0.79651635  0.80315212  0.79739124  1
  Pd  Pd150  1  0.60878054  0.39660884  0.20466038  1
  Pd  Pd151  1  0.20859643  0.79654492  -0.00203190  1
  Pd  Pd152  1  0.60207469  0.39378474  0.61195142  1
  Pd  Pd153  1  0.00363267  0.00925120  0.80433832  1
  Pd  Pd154  1  -0.00696794  0.40002565  0.40754113  1
  Pd  Pd155  1  0.19484412  0.80749389  0.19884082  1
  Pd  Pd156  1  0.59728969  0.19746641  0.59296071  1
  Pd  Pd157  1  0.59689822  0.19688094  -0.00148500  1
  Pd  Pd158  1  0.39735122  0.00353696  0.19902464  1
  Pd  Pd159  1  0.19412890  0.19932341  0.20621182  1
  Pd  Pd160  1  0.20460612  0.00141404  0.20574352  1
  Pd  Pd161  1  0.38845819  0.40424163  0.58769205  1
  Pd  Pd162  1  0.59734565  0.80676762  0.60378220  1
  Pd  Pd163  1  0.39953404  0.80462537  0.20492359  1
  Pd  Pd164  1  0.39372715  0.58846506  0.59451608  1
  Pd  Pd165  1  0.19535039  0.18721578  0.39093169  1
  Pd  Pd166  1  -0.00605691  0.40615272  -0.00873802  1
  Pd  Pd167  1  0.21690719  0.40358198  0.01440942  1
  Pd  Pd168  1  0.79904898  0.59801414  0.19298711  1
  Pd  Pd169  1  0.79761116  0.59637171  0.00509380  1
  Pd  Pd170  1  0.20630949  0.60802877  0.40077642  1
  Pd  Pd171  1  -0.00026578  0.61026124  0.38773032  1
  Pd  Pd172  1  0.60308535  0.60327137  0.19882030  1
  Pd  Pd173  1  0.39396057  0.80316287  0.79416879  1
  Pd  Pd174  1  0.80902192  0.40716023  0.40131569  1
  Pd  Pd175  1  0.39075047  0.40224811  0.19948185  1
  Pd  Pd176  1  0.38819389  0.59701875  -0.00215884  1
  Pd  Pd177  1  0.80348988  -0.00263205  -0.01119409  1
  Pd  Pd178  1  0.59142624  0.39816940  0.39354945  1
  Pd  Pd179  1  0.59222339  0.79372013  0.40369212  1
  Pd  Pd180  1  0.40354161  -0.00363900  0.00390331  1
  Pd  Pd181  1  0.00639154  -0.00460953  0.59428317  1
  Pd  Pd182  1  0.40734595  0.19424362  0.20350926  1
  Pd  Pd183  1  0.20159199  0.19308590  0.79644883  1
  Pd  Pd184  1  0.80210935  0.20889198  0.19104096  1
  Pd  Pd185  1  0.20080126  0.79545823  0.60022561  1
  Pd  Pd186  1  0.81190953  0.40703970  0.58986426  1
  Pd  Pd187  1  0.59474482  0.19830409  0.20272932  1
  Pd  Pd188  1  0.79346418  -0.00152672  0.40394190  1
  Pd  Pd189  1  0.21053497  0.20824398  0.60678814  1
  Pd  Pd190  1  0.80555589  0.00022003  0.60708674  1
  Pd  Pd191  1  -0.00397129  0.39874324  0.79730002  1
  Pd  Pd192  1  0.59948687  0.81199463  0.19170895  1
  Pd  Pd193  1  0.80089963  0.19150122  0.60538128  1
  Pd  Pd194  1  0.59720427  -0.00725264  0.19192219  1
  Pd  Pd195  1  0.00916311  0.79990802  0.59769764  1
  Pd  Pd196  1  0.18555033  0.59314259  0.19195742  1
  Pd  Pd197  1  0.00836095  0.00054145  0.40545785  1
  Pd  Pd198  1  0.39466833  0.00538186  0.79814708  1
  Pd  Pd199  1  0.59418611  0.58878467  0.79487170  1
  Rh  Rh200  1  0.39873492  0.18634643  0.80865322  1
  Rh  Rh201  1  0.58907297  -0.00200060  0.00843597  1
  Rh  Rh202  1  0.19785333  0.00028973  0.60110090  1
  Rh  Rh203  1  -0.00172368  0.18989399  0.00124898  1
  Rh  Rh204  1  0.59883690  0.00026151  0.60394860  1
  Rh  Rh205  1  0.60523238  0.60990893  0.00800569  1
  Rh  Rh206  1  0.80479595  0.60484131  0.79146581  1
  Rh  Rh207  1  0.40556806  -0.00043810  0.60870377  1
  Rh  Rh208  1  0.60264812  0.79989555  0.80215073  1
  Rh  Rh209  1  0.00004836  0.80117468  0.00460583  1
  Rh  Rh210  1  0.21055264  0.40104845  0.39879786  1
  Rh  Rh211  1  -0.00896812  0.59232152  0.61103729  1
  Rh  Rh212  1  0.21344063  0.80731943  0.40379743  1
  Rh  Rh213  1  0.80024793  0.80878713  0.21153707  1
  Rh  Rh214  1  -0.00423057  0.79782533  0.39097320  1
  Rh  Rh215  1  0.19238903  0.60665945  0.80664326  1
  Rh  Rh216  1  0.78743797  -0.00885607  0.20700342  1
  Rh  Rh217  1  0.61050749  0.59133183  0.59686931  1
  Rh  Rh218  1  0.41016358  0.40758524  0.81407467  1
  Rh  Rh219  1  0.80712849  0.18899152  0.79741357  1
  Rh  Rh220  1  0.78252840  0.80606145  -0.01546276  1
  Rh  Rh221  1  0.60886148  0.00462054  0.40804657  1
  Rh  Rh222  1  -0.00137169  0.39814202  0.20443921  1
  Rh  Rh223  1  0.40342859  0.80350143  -0.00078016  1
  Rh  Rh224  1  0.00388664  0.00138783  0.18788102  1
  Rh  Rh225  1  0.20913558  0.80843006  0.79277409  1
  Rh  Rh226  1  0.19896507  0.39598012  0.79108105  1
  Rh  Rh227  1  0.40016842  0.20007246  -0.00012091  1
  Rh  Rh228  1  0.20691511  0.59971281  0.59611043  1
  Rh  Rh229  1  0.60177944  0.00907761  0.79709430  1
  Rh  Rh230  1  0.78825213  0.18639175  0.40629765  1
  Rh  Rh231  1  0.59271251  0.39436682  -0.00730529  1
  Rh  Rh232  1  0.40344171  0.80712833  0.60344383  1
  Rh  Rh233  1  0.20017860  -0.00279358  -0.00499884  1
  Rh  Rh234  1  -0.00428484  0.79150032  0.79421378  1
  Rh  Rh235  1  0.79972091  0.39977322  0.00218334  1
  Rh  Rh236  1  0.79790210  0.81304580  0.39876235  1
  Rh  Rh237  1  -0.00418956  0.20656115  0.60895969  1
  Rh  Rh238  1  0.79243184  0.39788612  0.80698460  1
  Rh  Rh239  1  0.40018340  0.59681874  0.79774656  1
  Rh  Rh240  1  0.79139046  0.59583922  0.40685877  1
  Rh  Rh241  1  0.40451077  0.60658203  0.20466527  1
  Rh  Rh242  1  0.38966037  -0.01109512  0.39932312  1
  Rh  Rh243  1  0.00552749  0.19046979  0.39093291  1
  Rh  Rh244  1  0.59641976  0.19937262  0.80517142  1
  Rh  Rh245  1  0.39999516  0.20201256  0.59954436  1
  Rh  Rh246  1  0.21061385  0.20314761  0.00314220  1
  Rh  Rh247  1  0.79559481  0.19839829  0.00298028  1
  Rh  Rh248  1  0.41500610  0.20900584  0.39382068  1
  Rh  Rh249  1  0.79906719  0.79872040  0.60481601  1
