# generated using pymatgen
data_ZrScNbPdRh
_symmetry_space_group_name_H-M   'P 1'
_cell_length_a   16.56450101
_cell_length_b   16.56645026
_cell_length_c   16.56166390
_cell_angle_alpha   89.99068895
_cell_angle_beta   90.03392643
_cell_angle_gamma   89.99885015
_symmetry_Int_Tables_number   1
_chemical_formula_structural   ZrScNbPdRh
_chemical_formula_sum   'Zr50 Sc50 Nb50 Pd50 Rh50'
_cell_volume   4544.76784468
_cell_formula_units_Z   50
loop_
 _symmetry_equiv_pos_site_id
 _symmetry_equiv_pos_as_xyz
  1  'x, y, z'
loop_
 _atom_site_type_symbol
 _atom_site_label
 _atom_site_symmetry_multiplicity
 _atom_site_fract_x
 _atom_site_fract_y
 _atom_site_fract_z
 _atom_site_occupancy
  Zr  Zr0  1  0.90078516  0.29575869  0.70419764  1
  Zr  Zr1  1  0.30134100  0.70521214  0.49953846  1
  Zr  Zr2  1  0.89765212  0.69742603  0.10518067  1
  Zr  Zr3  1  0.30331451  0.69788225  0.29778705  1
  Zr  Zr4  1  0.08942874  0.50149303  0.50116323  1
  Zr  Zr5  1  0.09673777  0.69781280  0.29782397  1
  Zr  Zr6  1  0.49756046  0.90842668  0.49884154  1
  Zr  Zr7  1  0.70069315  0.30209738  0.10396336  1
  Zr  Zr8  1  0.49616956  0.49566757  0.29449177  1
  Zr  Zr9  1  0.09644221  0.70109055  0.69796177  1
  Zr  Zr10  1  0.29927763  0.29771966  0.50307590  1
  Zr  Zr11  1  0.30417208  0.90106124  0.28782566  1
  Zr  Zr12  1  0.29914737  0.10189450  0.50086128  1
  Zr  Zr13  1  0.70002225  0.08431160  0.69384105  1
  Zr  Zr14  1  0.09285374  0.50011600  0.70483020  1
  Zr  Zr15  1  0.89283494  0.49431415  0.10036051  1
  Zr  Zr16  1  0.51559692  0.50377384  0.70185345  1
  Zr  Zr17  1  0.90112050  0.10477337  0.89235969  1
  Zr  Zr18  1  0.70371636  0.10801165  0.10447562  1
  Zr  Zr19  1  0.90292180  0.50356897  0.29604332  1
  Zr  Zr20  1  0.29977599  0.29963037  0.29392900  1
  Zr  Zr21  1  0.30280525  0.89936969  0.90920838  1
  Zr  Zr22  1  0.29462325  0.29691380  0.90518149  1
  Zr  Zr23  1  0.29287902  0.10536829  0.69871135  1
  Zr  Zr24  1  0.30170067  0.71227686  0.09885923  1
  Zr  Zr25  1  0.09869907  0.69432469  0.88995298  1
  Zr  Zr26  1  0.09959299  0.29855830  0.90217070  1
  Zr  Zr27  1  0.89365523  0.50271561  0.89801336  1
  Zr  Zr28  1  0.50214681  0.30130000  0.70226175  1
  Zr  Zr29  1  0.11064914  0.49898565  0.89480235  1
  Zr  Zr30  1  0.30106511  0.50195178  0.90059550  1
  Zr  Zr31  1  0.50381751  0.10108196  0.30509819  1
  Zr  Zr32  1  0.69797975  0.90111710  0.30344005  1
  Zr  Zr33  1  0.69045251  0.90367633  0.09902482  1
  Zr  Zr34  1  0.09967035  0.69761565  0.10307864  1
  Zr  Zr35  1  0.09775235  0.09912848  0.49880423  1
  Zr  Zr36  1  0.89729712  0.89583879  0.88959958  1
  Zr  Zr37  1  0.10280397  0.29486657  0.29048577  1
  Zr  Zr38  1  0.89552805  0.89627005  0.50188244  1
  Zr  Zr39  1  0.69468087  0.50014093  0.50498139  1
  Zr  Zr40  1  0.69999444  0.50116176  0.89745710  1
  Zr  Zr41  1  0.70108699  0.49325298  0.30787398  1
  Zr  Zr42  1  0.50480209  0.49327143  0.49657979  1
  Zr  Zr43  1  0.89965923  0.70315137  0.30117762  1
  Zr  Zr44  1  0.70033377  0.29894201  0.48523669  1
  Zr  Zr45  1  0.30288502  0.49928504  0.29741202  1
  Zr  Zr46  1  0.50125535  0.90494087  0.29549002  1
  Zr  Zr47  1  0.50343575  0.69280850  0.09559571  1
  Zr  Zr48  1  0.30092919  0.10535089  0.90317006  1
  Zr  Zr49  1  0.09563411  0.90696724  0.30221963  1
  Sc  Sc50  1  0.29085807  0.49506219  0.70621106  1
  Sc  Sc51  1  0.10785628  0.89991348  0.50546484  1
  Sc  Sc52  1  0.71153019  0.70055528  0.90454552  1
  Sc  Sc53  1  0.10924368  0.29614265  0.10191530  1
  Sc  Sc54  1  0.70415919  0.90196768  0.90551797  1
  Sc  Sc55  1  0.89578863  0.29644349  0.89513225  1
  Sc  Sc56  1  0.70577664  0.90749548  0.50882573  1
  Sc  Sc57  1  0.49946041  0.09745117  0.49002883  1
  Sc  Sc58  1  0.89954454  0.89854213  0.10646638  1
  Sc  Sc59  1  0.30837138  0.70638557  0.70697781  1
  Sc  Sc60  1  0.49780633  0.89659848  0.10157833  1
  Sc  Sc61  1  0.69520215  0.70175880  0.09899944  1
  Sc  Sc62  1  0.30832038  0.49503809  0.49647510  1
  Sc  Sc63  1  0.29958596  0.90675045  0.50168968  1
  Sc  Sc64  1  0.89688761  0.29774679  0.29878761  1
  Sc  Sc65  1  0.10200551  0.10562999  0.89660702  1
  Sc  Sc66  1  0.50604736  0.10181573  0.70641553  1
  Sc  Sc67  1  0.69682782  0.69152245  0.70284241  1
  Sc  Sc68  1  0.70401185  0.70044546  0.29833040  1
  Sc  Sc69  1  0.70291294  0.50327117  0.09344399  1
  Sc  Sc70  1  0.70414733  0.29642397  0.90129555  1
  Sc  Sc71  1  0.90761610  0.29681211  0.49658319  1
  Sc  Sc72  1  0.09948150  0.91080033  0.89717053  1
  Sc  Sc73  1  0.50622495  0.09723734  0.09215200  1
  Sc  Sc74  1  0.09728704  0.29674574  0.50495170  1
  Sc  Sc75  1  0.90515212  0.71022815  0.71204690  1
  Sc  Sc76  1  0.29901410  0.49169604  0.09448990  1
  Sc  Sc77  1  0.69443434  0.09907945  0.90530323  1
  Sc  Sc78  1  0.10696982  0.90270610  0.10468791  1
  Sc  Sc79  1  0.49668200  0.28383014  0.89967263  1
  Sc  Sc80  1  0.70503343  0.30557984  0.70602112  1
  Sc  Sc81  1  0.30359600  0.69876653  0.89851509  1
  Sc  Sc82  1  0.49580160  0.69961973  0.70646050  1
  Sc  Sc83  1  0.29988561  0.10252050  0.30396247  1
  Sc  Sc84  1  0.09588437  0.10001842  0.29737178  1
  Sc  Sc85  1  0.90293847  0.49227625  0.49770726  1
  Sc  Sc86  1  0.49638948  0.90540713  0.70161792  1
  Sc  Sc87  1  0.48994254  0.69620092  0.89872952  1
  Sc  Sc88  1  0.49867055  0.90112577  0.91113578  1
  Sc  Sc89  1  0.50455781  0.68817942  0.50062712  1
  Sc  Sc90  1  0.10241778  0.30180820  0.69829543  1
  Sc  Sc91  1  0.09422892  0.50001473  0.28728182  1
  Sc  Sc92  1  0.69694676  0.29207500  0.29416865  1
  Sc  Sc93  1  0.30129930  0.90331047  0.69246390  1
  Sc  Sc94  1  0.90327292  0.69611334  0.50329622  1
  Sc  Sc95  1  0.89252120  0.29575795  0.10272194  1
  Sc  Sc96  1  0.29488794  0.09727285  0.09654476  1
  Sc  Sc97  1  0.90409868  0.89908993  0.29961087  1
  Sc  Sc98  1  0.50042356  0.69293530  0.28981362  1
  Sc  Sc99  1  0.70766904  0.69968207  0.49693262  1
  Nb  Nb100  1  0.89212048  0.90689691  0.70134769  1
  Nb  Nb101  1  0.70089172  0.10581280  0.30729067  1
  Nb  Nb102  1  0.50001553  0.30660362  0.10993330  1
  Nb  Nb103  1  0.29884093  0.29840931  0.10261989  1
  Nb  Nb104  1  0.08881881  0.10397498  0.10454503  1
  Nb  Nb105  1  0.70458599  0.49755479  0.70291227  1
  Nb  Nb106  1  0.09664147  0.49788991  0.09447870  1
  Nb  Nb107  1  0.09169333  0.90376939  0.70411119  1
  Nb  Nb108  1  0.50174159  0.29999818  0.29620151  1
  Nb  Nb109  1  0.70004228  0.10311631  0.49496850  1
  Nb  Nb110  1  0.30553232  0.89982017  0.09598582  1
  Nb  Nb111  1  0.49501485  0.09836227  0.89922140  1
  Nb  Nb112  1  0.90758287  0.09934967  0.30165985  1
  Nb  Nb113  1  0.30362416  0.29975213  0.70091325  1
  Nb  Nb114  1  0.49508135  0.50413799  0.90474936  1
  Nb  Nb115  1  0.09626544  0.09353747  0.69989017  1
  Nb  Nb116  1  0.10053593  0.69798420  0.50044068  1
  Nb  Nb117  1  0.89857316  0.09850920  0.70014360  1
  Nb  Nb118  1  0.90298365  0.10153196  0.49559272  1
  Nb  Nb119  1  0.89345701  0.49074834  0.70176447  1
  Nb  Nb120  1  0.49911138  0.49886738  0.09042101  1
  Nb  Nb121  1  0.70196926  0.89693499  0.69977308  1
  Nb  Nb122  1  0.90338804  0.10094613  0.10668399  1
  Nb  Nb123  1  0.90529712  0.70269325  0.90402440  1
  Nb  Nb124  1  0.49817296  0.29992454  0.49755908  1
  Nb  Nb125  1  0.60363246  0.80498567  0.79718385  1
  Nb  Nb126  1  0.60280773  0.20093238  0.59259957  1
  Nb  Nb127  1  0.80013656  0.00962502  0.20631892  1
  Nb  Nb128  1  0.79861108  0.19258768  0.59505427  1
  Nb  Nb129  1  -0.00689683  0.00050638  0.60684142  1
  Nb  Nb130  1  -0.00507288  0.00377260  0.00334167  1
  Nb  Nb131  1  0.59649075  0.80337841  0.40373346  1
  Nb  Nb132  1  0.00157646  0.40409762  0.00044048  1
  Nb  Nb133  1  0.40523959  0.20645985  0.59951639  1
  Nb  Nb134  1  0.40487225  0.80126720  0.39680687  1
  Nb  Nb135  1  0.19532498  0.80641627  0.79785313  1
  Nb  Nb136  1  0.60183295  0.80235958  0.60235335  1
  Nb  Nb137  1  0.00572815  0.79698931  0.40346842  1
  Nb  Nb138  1  0.59016364  0.40066126  0.00052999  1
  Nb  Nb139  1  0.20134533  0.60240882  0.59518541  1
  Nb  Nb140  1  0.80302748  0.01087804  0.39800278  1
  Nb  Nb141  1  0.80174741  0.58876727  0.60973055  1
  Nb  Nb142  1  0.39744929  0.00781358  0.80811684  1
  Nb  Nb143  1  0.19718863  0.40319475  0.39718132  1
  Nb  Nb144  1  0.40242483  0.39824269  0.80342963  1
  Nb  Nb145  1  0.19614985  0.59777035  0.40376366  1
  Nb  Nb146  1  -0.00040294  0.59847602  -0.00174549  1
  Nb  Nb147  1  0.39858476  0.59359836  0.60185289  1
  Nb  Nb148  1  0.40442805  0.20622950  0.19703750  1
  Nb  Nb149  1  -0.00012975  0.79926370  -0.00310242  1
  Pd  Pd150  1  0.59518349  0.39583486  0.81434457  1
  Pd  Pd151  1  0.19995124  0.79970137  0.60830191  1
  Pd  Pd152  1  -0.00246026  0.39687561  0.80691326  1
  Pd  Pd153  1  0.41133337  0.79282922  0.59431235  1
  Pd  Pd154  1  0.59799870  0.20606939  0.00365992  1
  Pd  Pd155  1  0.60846453  0.39031679  0.59982855  1
  Pd  Pd156  1  0.19367358  0.20454589  0.40035759  1
  Pd  Pd157  1  0.39521458  0.59499817  0.18679239  1
  Pd  Pd158  1  0.60341428  0.00872071  0.19846896  1
  Pd  Pd159  1  0.40126785  0.01316678  0.19206192  1
  Pd  Pd160  1  0.20897611  -0.00533256  0.79775945  1
  Pd  Pd161  1  0.79125836  0.59775580  0.19968544  1
  Pd  Pd162  1  0.80659973  0.00205171  0.00715213  1
  Pd  Pd163  1  0.79450136  0.80733153  0.19866412  1
  Pd  Pd164  1  0.00733207  0.39375209  0.39329763  1
  Pd  Pd165  1  0.60072461  0.61084876  0.81012287  1
  Pd  Pd166  1  -0.00181432  0.39094586  0.19045047  1
  Pd  Pd167  1  0.40171406  0.20060391  0.01171757  1
  Pd  Pd168  1  -0.00828616  0.59885430  0.60766183  1
  Pd  Pd169  1  0.19636002  0.40639631  0.59482682  1
  Pd  Pd170  1  0.60614079  0.40921546  0.19536242  1
  Pd  Pd171  1  0.20357859  0.59385579  0.19763064  1
  Pd  Pd172  1  0.40153280  0.40359178  0.60991180  1
  Pd  Pd173  1  0.19710852  0.80413855  0.20150739  1
  Pd  Pd174  1  0.59736130  0.79331699  -0.01073076  1
  Pd  Pd175  1  -0.00261868  0.20351551  0.00394860  1
  Pd  Pd176  1  0.40640181  0.01472363  0.60793402  1
  Pd  Pd177  1  0.61021553  0.19645156  0.79482779  1
  Pd  Pd178  1  0.19258843  0.20437295  0.79450473  1
  Pd  Pd179  1  0.60088027  0.60692904  0.39366604  1
  Pd  Pd180  1  0.80171596  0.39349247  0.59449826  1
  Pd  Pd181  1  0.60681580  0.59191036  0.19979653  1
  Pd  Pd182  1  0.20215133  0.60237212  0.00443968  1
  Pd  Pd183  1  0.20093201  0.79887770  0.39573341  1
  Pd  Pd184  1  0.79441523  0.00364836  0.80687141  1
  Pd  Pd185  1  0.18988852  0.00671731  0.00482827  1
  Pd  Pd186  1  -0.00058850  0.80735519  0.59743681  1
  Pd  Pd187  1  0.80511805  0.60770531  0.79518427  1
  Pd  Pd188  1  0.80558263  0.39660145  0.39707310  1
  Pd  Pd189  1  0.20418530  -0.00023266  0.39748313  1
  Pd  Pd190  1  0.80382294  0.19959857  -0.00166893  1
  Pd  Pd191  1  0.80557445  0.59707631  0.40877300  1
  Pd  Pd192  1  0.79595303  0.78693088  0.60930561  1
  Pd  Pd193  1  0.80446720  0.80360518  0.00598365  1
  Pd  Pd194  1  -0.00246632  0.19578650  0.60516405  1
  Pd  Pd195  1  0.40410628  0.39127297  -0.00571812  1
  Pd  Pd196  1  0.19965806  0.00641383  0.19822037  1
  Pd  Pd197  1  0.19047891  0.80073616  -0.00909870  1
  Pd  Pd198  1  0.59427209  -0.00869615  0.80970141  1
  Pd  Pd199  1  0.39805883  0.39290059  0.39585600  1
  Rh  Rh200  1  0.00325503  0.20316269  0.39367455  1
  Rh  Rh201  1  0.59885520  0.79585408  0.20565421  1
  Rh  Rh202  1  -0.00391337  0.00438784  0.80055963  1
  Rh  Rh203  1  -0.00441966  -0.00889059  0.41176780  1
  Rh  Rh204  1  0.39983234  0.81727272  0.80434220  1
  Rh  Rh205  1  0.00503634  0.19931812  0.79407776  1
  Rh  Rh206  1  0.39017565  -0.00632471  0.39550351  1
  Rh  Rh207  1  0.39229101  0.60376555  0.00478883  1
  Rh  Rh208  1  0.80748445  0.00752848  0.59321523  1
  Rh  Rh209  1  0.39717934  0.19793196  0.79212195  1
  Rh  Rh210  1  0.79931727  0.39719916  0.80531396  1
  Rh  Rh211  1  0.20065881  0.40495199  0.19911830  1
  Rh  Rh212  1  0.79207951  0.79814509  0.79645582  1
  Rh  Rh213  1  0.00586123  0.80797247  0.80513285  1
  Rh  Rh214  1  0.79234215  0.19184261  0.79183861  1
  Rh  Rh215  1  0.40153365  0.00226399  0.00123847  1
  Rh  Rh216  1  0.59579094  0.39490140  0.39296442  1
  Rh  Rh217  1  0.40623618  0.79882551  0.19918149  1
  Rh  Rh218  1  0.80366740  0.60442051  0.00206129  1
  Rh  Rh219  1  0.80163777  0.80644840  0.39707763  1
  Rh  Rh220  1  -0.00043546  0.60542720  0.39644317  1
  Rh  Rh221  1  -0.00350541  -0.00206402  0.19321834  1
  Rh  Rh222  1  0.59265827  0.19578329  0.20055783  1
  Rh  Rh223  1  0.80840817  0.19777409  0.39991224  1
  Rh  Rh224  1  0.39596601  0.60686586  0.40706837  1
  Rh  Rh225  1  0.18987413  0.00176141  0.60232152  1
  Rh  Rh226  1  0.39894769  0.58514693  0.79180651  1
  Rh  Rh227  1  0.79456125  0.40004439  0.20601258  1
  Rh  Rh228  1  0.59947467  0.00165014  -0.00143263  1
  Rh  Rh229  1  0.20687539  0.39065872  0.80045494  1
  Rh  Rh230  1  0.00571975  0.80519695  0.20155155  1
  Rh  Rh231  1  0.80500800  0.19378589  0.20847068  1
  Rh  Rh232  1  -0.00336558  0.59683636  0.19218941  1
  Rh  Rh233  1  0.19532405  0.39619716  0.00325926  1
  Rh  Rh234  1  0.60426075  0.60411262  0.60146492  1
  Rh  Rh235  1  0.39789515  0.39879855  0.19600775  1
  Rh  Rh236  1  0.79654999  0.39485953  -0.00320680  1
  Rh  Rh237  1  0.20702170  0.61251762  0.78713036  1
  Rh  Rh238  1  0.59634020  0.00054676  0.59433331  1
  Rh  Rh239  1  0.60166865  0.59672625  -0.00580889  1
  Rh  Rh240  1  -0.00898038  0.59322164  0.80001704  1
  Rh  Rh241  1  -0.00379295  0.39669343  0.60482153  1
  Rh  Rh242  1  0.19554238  0.19578101  0.00713442  1
  Rh  Rh243  1  0.40593399  0.79556151  0.00312137  1
  Rh  Rh244  1  -0.00331805  0.20444195  0.20091743  1
  Rh  Rh245  1  0.20064058  0.19950225  0.60260277  1
  Rh  Rh246  1  0.59197435  0.20496187  0.40140800  1
  Rh  Rh247  1  0.61023303  -0.00555013  0.40598928  1
  Rh  Rh248  1  0.40468833  0.20614913  0.39744315  1
  Rh  Rh249  1  0.20689891  0.19085052  0.19451329  1
