# generated using pymatgen
data_ZrScNbPdRh
_symmetry_space_group_name_H-M   'P 1'
_cell_length_a   16.56991270
_cell_length_b   16.56254954
_cell_length_c   16.56611782
_cell_angle_alpha   90.04455807
_cell_angle_beta   90.00154946
_cell_angle_gamma   89.97240712
_symmetry_Int_Tables_number   1
_chemical_formula_structural   ZrScNbPdRh
_chemical_formula_sum   'Zr50 Sc50 Nb50 Pd50 Rh50'
_cell_volume   4546.40347122
_cell_formula_units_Z   50
loop_
 _symmetry_equiv_pos_site_id
 _symmetry_equiv_pos_as_xyz
  1  'x, y, z'
loop_
 _atom_site_type_symbol
 _atom_site_label
 _atom_site_symmetry_multiplicity
 _atom_site_fract_x
 _atom_site_fract_y
 _atom_site_fract_z
 _atom_site_occupancy
  Zr  Zr0  1  0.30171884  0.90566639  0.09504612  1
  Zr  Zr1  1  0.69878399  0.69929056  0.70748799  1
  Zr  Zr2  1  0.50217979  0.90366872  0.71100596  1
  Zr  Zr3  1  0.70102609  0.90141599  0.70206632  1
  Zr  Zr4  1  0.89805294  0.30084107  0.30126159  1
  Zr  Zr5  1  0.69539728  0.09500240  0.70621860  1
  Zr  Zr6  1  0.09976446  0.09804783  0.49815992  1
  Zr  Zr7  1  0.69751312  0.71548097  0.50213672  1
  Zr  Zr8  1  0.90928560  0.49973046  0.09984173  1
  Zr  Zr9  1  0.69319059  0.30520250  0.90073266  1
  Zr  Zr10  1  0.69575835  0.10083495  0.90490940  1
  Zr  Zr11  1  0.30231868  0.89240492  0.50746850  1
  Zr  Zr12  1  0.70591067  0.09662862  0.10407489  1
  Zr  Zr13  1  0.89278167  0.89847376  0.90369710  1
  Zr  Zr14  1  0.30957810  0.29654498  0.70351426  1
  Zr  Zr15  1  0.89427086  0.90319906  0.70340686  1
  Zr  Zr16  1  0.89770530  0.29715280  0.10201597  1
  Zr  Zr17  1  0.69961146  0.09927151  0.29467974  1
  Zr  Zr18  1  0.89489840  0.89678065  0.49876484  1
  Zr  Zr19  1  0.69269036  0.09781130  0.50265218  1
  Zr  Zr20  1  0.30134370  0.69554920  0.69611532  1
  Zr  Zr21  1  0.90101297  0.10018023  0.90689098  1
  Zr  Zr22  1  0.29995839  0.90087110  0.70303176  1
  Zr  Zr23  1  0.10957142  0.49742351  0.50003474  1
  Zr  Zr24  1  0.50057666  0.10637336  0.09174720  1
  Zr  Zr25  1  0.10163808  0.49965330  0.30147196  1
  Zr  Zr26  1  0.09697746  0.90565146  0.49923032  1
  Zr  Zr27  1  0.90229304  0.29944127  0.50164360  1
  Zr  Zr28  1  0.89937960  0.50238626  0.70509058  1
  Zr  Zr29  1  0.69376064  0.30389282  0.70249000  1
  Zr  Zr30  1  0.50714966  0.70109902  0.90528174  1
  Zr  Zr31  1  0.09830263  0.69540131  0.90288073  1
  Zr  Zr32  1  0.70094974  0.70580601  0.29146077  1
  Zr  Zr33  1  0.50555087  0.50488278  0.29103411  1
  Zr  Zr34  1  0.89968817  0.09868069  0.09590877  1
  Zr  Zr35  1  0.49610865  0.50208676  0.09234331  1
  Zr  Zr36  1  0.09357313  0.30502663  0.50090605  1
  Zr  Zr37  1  0.50341878  0.68887195  0.69314573  1
  Zr  Zr38  1  0.90427647  0.30528190  0.69985508  1
  Zr  Zr39  1  0.50032117  0.30081218  0.29473496  1
  Zr  Zr40  1  0.69114938  0.90501403  0.29501531  1
  Zr  Zr41  1  0.30495402  0.90915988  0.89669677  1
  Zr  Zr42  1  0.30603267  0.69207956  0.49792957  1
  Zr  Zr43  1  0.90421484  0.09294684  0.50335130  1
  Zr  Zr44  1  0.30128582  0.09937694  0.50328737  1
  Zr  Zr45  1  0.89505322  0.09952689  0.70897939  1
  Zr  Zr46  1  0.09721045  0.49571767  0.90518717  1
  Zr  Zr47  1  0.31191460  0.89785759  0.29106903  1
  Zr  Zr48  1  0.89648966  0.10109635  0.28843161  1
  Zr  Zr49  1  0.09316486  0.69896103  0.09863445  1
  Sc  Sc50  1  0.09038081  0.70246869  0.29428373  1
  Sc  Sc51  1  0.10903657  0.90211889  0.69979076  1
  Sc  Sc52  1  0.69560960  0.31112710  0.30056570  1
  Sc  Sc53  1  0.50048643  0.90337779  0.90395369  1
  Sc  Sc54  1  0.50307813  0.49708100  0.90168520  1
  Sc  Sc55  1  0.70189623  0.70532317  0.90172885  1
  Sc  Sc56  1  0.28994825  0.29370584  0.28762494  1
  Sc  Sc57  1  0.10541546  0.09470402  0.70330103  1
  Sc  Sc58  1  0.90168238  0.89157769  0.30350270  1
  Sc  Sc59  1  0.69818865  0.50380237  0.89639862  1
  Sc  Sc60  1  0.89739048  0.70023318  0.71439733  1
  Sc  Sc61  1  0.50977149  0.09302019  0.29507388  1
  Sc  Sc62  1  0.10455955  0.50191116  0.69809058  1
  Sc  Sc63  1  0.31663173  0.69600995  0.30422883  1
  Sc  Sc64  1  0.70164194  0.90029386  0.09474688  1
  Sc  Sc65  1  0.90838375  0.50173881  0.89622552  1
  Sc  Sc66  1  0.29927509  0.70934706  0.89695456  1
  Sc  Sc67  1  0.91217858  0.29973596  0.89437161  1
  Sc  Sc68  1  0.69838684  0.48561787  0.50012810  1
  Sc  Sc69  1  0.10052601  0.29733483  0.29935794  1
  Sc  Sc70  1  0.89555454  0.49285025  0.29123763  1
  Sc  Sc71  1  0.90011574  0.69966525  0.89940628  1
  Sc  Sc72  1  0.29954094  0.09764783  0.71413592  1
  Sc  Sc73  1  0.51047839  0.29725679  0.51090502  1
  Sc  Sc74  1  0.10200671  0.89307563  0.90769612  1
  Sc  Sc75  1  0.49512891  0.90176636  0.10140108  1
  Sc  Sc76  1  0.09492409  0.30068728  0.70088428  1
  Sc  Sc77  1  0.11157260  0.30646747  0.09235572  1
  Sc  Sc78  1  0.10375452  0.69498127  0.70779818  1
  Sc  Sc79  1  0.29659466  0.50360368  0.30739589  1
  Sc  Sc80  1  0.09645856  0.49341594  0.09805372  1
  Sc  Sc81  1  0.10324754  0.11405266  0.89682667  1
  Sc  Sc82  1  0.29478474  0.30549152  0.50314334  1
  Sc  Sc83  1  0.09429709  0.89723949  0.09647038  1
  Sc  Sc84  1  0.09158033  0.90289189  0.29567039  1
  Sc  Sc85  1  0.50105784  0.49999559  0.50958652  1
  Sc  Sc86  1  0.68886293  0.50027569  0.10958944  1
  Sc  Sc87  1  0.90006461  0.48283278  0.49569691  1
  Sc  Sc88  1  0.69411441  0.89465730  0.90107974  1
  Sc  Sc89  1  0.50873884  0.10341543  0.50359245  1
  Sc  Sc90  1  0.89805837  0.90252116  0.09386279  1
  Sc  Sc91  1  0.68982785  0.29529881  0.09722175  1
  Sc  Sc92  1  0.09746793  0.10127628  0.29347285  1
  Sc  Sc93  1  0.31305389  0.70531502  0.09478954  1
  Sc  Sc94  1  0.69320114  0.50092273  0.70338264  1
  Sc  Sc95  1  0.69939612  0.70790835  0.09895461  1
  Sc  Sc96  1  0.50031034  0.30040682  0.90288176  1
  Sc  Sc97  1  0.11210754  0.69220919  0.49741748  1
  Sc  Sc98  1  0.30845654  0.49992604  0.89911051  1
  Sc  Sc99  1  0.29463279  0.10240961  0.28651727  1
  Nb  Nb100  1  0.48923000  0.48675048  0.70384896  1
  Nb  Nb101  1  0.10658291  0.30517254  0.89529153  1
  Nb  Nb102  1  0.50723822  0.89610977  0.49187617  1
  Nb  Nb103  1  0.89830749  0.69882310  0.29956347  1
  Nb  Nb104  1  0.49999157  0.30127174  0.70353589  1
  Nb  Nb105  1  0.29461489  0.49392672  0.09984451  1
  Nb  Nb106  1  0.28408901  0.28643206  0.90535672  1
  Nb  Nb107  1  0.69994877  0.90304891  0.50002974  1
  Nb  Nb108  1  0.30485730  0.49493067  0.69223555  1
  Nb  Nb109  1  0.49704622  0.10743900  0.70433432  1
  Nb  Nb110  1  0.29060488  0.50092784  0.50488263  1
  Nb  Nb111  1  0.69603498  0.50437359  0.30502447  1
  Nb  Nb112  1  0.50208596  0.70720628  0.30197322  1
  Nb  Nb113  1  0.49845553  0.89486175  0.30367138  1
  Nb  Nb114  1  0.29586463  0.10971720  0.09375158  1
  Nb  Nb115  1  0.29917346  0.29950931  0.09599614  1
  Nb  Nb116  1  0.49332305  0.09601946  0.89549528  1
  Nb  Nb117  1  0.09931284  0.09393771  0.09742919  1
  Nb  Nb118  1  0.70309730  0.29673199  0.50299249  1
  Nb  Nb119  1  0.50096453  0.70628800  0.48980150  1
  Nb  Nb120  1  0.50412607  0.69428314  0.10620121  1
  Nb  Nb121  1  0.49761824  0.30654179  0.09837154  1
  Nb  Nb122  1  0.89440907  0.70521719  0.49173044  1
  Nb  Nb123  1  0.90127039  0.69436584  0.11148626  1
  Nb  Nb124  1  0.30015927  0.10634170  0.90054840  1
  Nb  Nb125  1  0.80121935  0.40438630  0.00190299  1
  Nb  Nb126  1  -0.00226108  -0.00094861  0.80762715  1
  Nb  Nb127  1  0.39630773  0.39773874  0.19339482  1
  Nb  Nb128  1  0.20455300  0.01077855  0.00062590  1
  Nb  Nb129  1  -0.01027163  0.60171778  0.40178077  1
  Nb  Nb130  1  0.40303029  -0.00108051  0.40267760  1
  Nb  Nb131  1  -0.00925191  0.60488873  0.59177321  1
  Nb  Nb132  1  0.60192252  0.60754299  0.39858458  1
  Nb  Nb133  1  0.79526377  0.00073525  0.40170630  1
  Nb  Nb134  1  0.40653140  -0.00170491  0.60029371  1
  Nb  Nb135  1  0.79642280  0.19907621  0.40563888  1
  Nb  Nb136  1  0.40109232  0.20063397  0.39809036  1
  Nb  Nb137  1  0.20737924  -0.00560564  0.39786669  1
  Nb  Nb138  1  0.20711901  0.39651768  0.80087491  1
  Nb  Nb139  1  0.80566376  0.59730975  0.00825364  1
  Nb  Nb140  1  -0.00366300  0.79240237  0.59725520  1
  Nb  Nb141  1  0.20528929  0.80378479  0.39328013  1
  Nb  Nb142  1  0.19920073  0.20017175  0.60027679  1
  Nb  Nb143  1  0.20309255  0.60293444  0.19312445  1
  Nb  Nb144  1  0.20489126  0.79670753  0.19977063  1
  Nb  Nb145  1  0.20255174  0.59915868  0.00520170  1
  Nb  Nb146  1  0.80442389  0.60308501  0.59085909  1
  Nb  Nb147  1  0.79676660  0.20101069  0.59951057  1
  Nb  Nb148  1  0.79777411  0.60140511  0.39884118  1
  Nb  Nb149  1  0.40025326  0.39635208  0.39692288  1
  Pd  Pd150  1  0.80524285  0.79425329  0.60984639  1
  Pd  Pd151  1  0.00168921  -0.00664540  0.61351900  1
  Pd  Pd152  1  0.80569959  0.80852122  0.19623638  1
  Pd  Pd153  1  0.40072567  0.20053105  0.20168561  1
  Pd  Pd154  1  0.59348843  0.20072168  0.80411061  1
  Pd  Pd155  1  -0.01002835  0.79429565  0.00330191  1
  Pd  Pd156  1  0.39587331  0.39138227  0.81220967  1
  Pd  Pd157  1  0.39417183  0.59517477  0.19770807  1
  Pd  Pd158  1  0.00930902  0.20646279  0.00292539  1
  Pd  Pd159  1  0.39328438  0.39355735  -0.00317157  1
  Pd  Pd160  1  0.59939456  0.20429878  0.39676814  1
  Pd  Pd161  1  0.79780415  0.21020188  -0.00354244  1
  Pd  Pd162  1  0.79719204  0.40148455  0.60463594  1
  Pd  Pd163  1  0.60165877  0.20233859  0.19733541  1
  Pd  Pd164  1  0.40663188  0.79204859  0.79919353  1
  Pd  Pd165  1  0.39872157  0.19657012  0.59733125  1
  Pd  Pd166  1  0.41291969  0.80201565  0.60326363  1
  Pd  Pd167  1  0.60891603  0.59518531  0.59166116  1
  Pd  Pd168  1  0.79020379  0.39808716  0.19310959  1
  Pd  Pd169  1  0.40235523  0.59544477  0.59474608  1
  Pd  Pd170  1  0.61186704  0.60147686  0.00123671  1
  Pd  Pd171  1  -0.00461066  0.19598253  0.39507523  1
  Pd  Pd172  1  0.19104899  0.79217288  0.59775397  1
  Pd  Pd173  1  0.40182389  0.60273376  0.80220434  1
  Pd  Pd174  1  0.19647287  -0.00580253  0.19692978  1
  Pd  Pd175  1  0.41071980  0.58758503  0.40625539  1
  Pd  Pd176  1  0.59207072  -0.00304445  0.60270171  1
  Pd  Pd177  1  -0.00666956  -0.00670964  0.19754070  1
  Pd  Pd178  1  0.20708243  0.39191313  0.39353274  1
  Pd  Pd179  1  0.59278652  0.80601819  0.19234780  1
  Pd  Pd180  1  0.40546940  0.01107275  0.19905010  1
  Pd  Pd181  1  0.01106938  0.79291021  0.40650620  1
  Pd  Pd182  1  0.00779346  0.39248679  0.20011805  1
  Pd  Pd183  1  0.59163646  0.40332166  0.40484321  1
  Pd  Pd184  1  0.79594542  0.59515237  0.19902043  1
  Pd  Pd185  1  0.80058639  0.40203036  0.80931075  1
  Pd  Pd186  1  0.00997424  0.20636257  0.19039508  1
  Pd  Pd187  1  0.59299592  0.80462783  0.60579884  1
  Pd  Pd188  1  0.59383338  0.59384252  0.80164808  1
  Pd  Pd189  1  0.40325321  0.20462864  -0.00636468  1
  Pd  Pd190  1  0.00594322  0.80781638  0.79348226  1
  Pd  Pd191  1  0.39467218  0.60301362  -0.00469569  1
  Pd  Pd192  1  0.00188624  0.19426366  0.60914802  1
  Pd  Pd193  1  0.80041158  0.20742766  0.80039747  1
  Pd  Pd194  1  0.59936673  -0.00157436  0.00123528  1
  Pd  Pd195  1  0.19729241  0.80230328  0.80227582  1
  Pd  Pd196  1  0.20680472  0.58953295  0.80574298  1
  Pd  Pd197  1  0.20487077  0.19614624  0.40277181  1
  Pd  Pd198  1  0.40781442  0.80115763  -0.00045607  1
  Pd  Pd199  1  0.40112151  0.39685070  0.58981624  1
  Rh  Rh200  1  0.60515157  0.40192312  0.00146331  1
  Rh  Rh201  1  0.59209240  0.40399232  0.79792607  1
  Rh  Rh202  1  0.79436871  0.00506871  0.59389151  1
  Rh  Rh203  1  -0.00270448  0.80195451  0.19525358  1
  Rh  Rh204  1  0.59437577  0.39980805  0.19491173  1
  Rh  Rh205  1  0.00403783  0.59535980  0.20952925  1
  Rh  Rh206  1  0.00263969  0.59829604  0.79483221  1
  Rh  Rh207  1  0.40272951  0.00507817  0.79723227  1
  Rh  Rh208  1  0.20077946  0.60030272  0.60635478  1
  Rh  Rh209  1  0.78980322  0.21020663  0.20721094  1
  Rh  Rh210  1  0.40522711  0.79343236  0.19535934  1
  Rh  Rh211  1  -0.00735038  0.39057543  -0.00010058  1
  Rh  Rh212  1  -0.00280009  0.00698163  0.38962028  1
  Rh  Rh213  1  0.19838710  0.20766382  0.78871818  1
  Rh  Rh214  1  0.79931879  -0.00307077  0.81241246  1
  Rh  Rh215  1  0.19153858  0.19958427  0.18882542  1
  Rh  Rh216  1  0.39765843  0.80528524  0.40232774  1
  Rh  Rh217  1  0.20815704  0.40671823  -0.01080972  1
  Rh  Rh218  1  0.60476749  0.80002421  0.39550638  1
  Rh  Rh219  1  0.19327762  0.61178362  0.38493174  1
  Rh  Rh220  1  0.78987310  0.80673942  0.39014641  1
  Rh  Rh221  1  0.00103668  0.40533502  0.39423547  1
  Rh  Rh222  1  0.60507857  0.20239896  0.61131020  1
  Rh  Rh223  1  0.59703209  0.40004837  0.60736602  1
  Rh  Rh224  1  0.39515067  0.00895770  -0.00031096  1
  Rh  Rh225  1  0.20428753  0.40502467  0.20355347  1
  Rh  Rh226  1  0.59603654  0.79776367  0.80066813  1
  Rh  Rh227  1  0.20581323  0.80101972  0.00794184  1
  Rh  Rh228  1  0.79372168  0.80140129  0.80342388  1
  Rh  Rh229  1  0.79823316  0.39738200  0.39551493  1
  Rh  Rh230  1  0.01178879  0.00386237  -0.00927614  1
  Rh  Rh231  1  0.59920238  -0.00463384  0.39949306  1
  Rh  Rh232  1  0.19168060  0.19508725  0.00669834  1
  Rh  Rh233  1  0.40443742  0.20279498  0.80847002  1
  Rh  Rh234  1  0.00414771  0.41284904  0.60312111  1
  Rh  Rh235  1  0.80502146  0.78885052  0.00473902  1
  Rh  Rh236  1  0.59337596  0.79812617  0.00534793  1
  Rh  Rh237  1  0.59358523  -0.00320639  0.18983140  1
  Rh  Rh238  1  0.20242508  0.39317441  0.61155459  1
  Rh  Rh239  1  0.79771577  0.59983116  0.80526109  1
  Rh  Rh240  1  0.79253526  0.00013654  -0.00148975  1
  Rh  Rh241  1  0.20841302  0.00760117  0.59917663  1
  Rh  Rh242  1  -0.00212349  0.60466128  -0.00151142  1
  Rh  Rh243  1  0.19153013  -0.00233660  0.81599330  1
  Rh  Rh244  1  0.00290041  0.19432356  0.79662124  1
  Rh  Rh245  1  0.59743890  0.00373215  0.80716690  1
  Rh  Rh246  1  0.59416120  0.19903485  -0.00284433  1
  Rh  Rh247  1  0.60036109  0.60728065  0.20243444  1
  Rh  Rh248  1  0.80475230  -0.00875404  0.20415096  1
  Rh  Rh249  1  0.01102210  0.40413855  0.79594400  1
