# generated using pymatgen
data_ZrScNbPdRh
_symmetry_space_group_name_H-M   'P 1'
_cell_length_a   16.55263358
_cell_length_b   16.55443710
_cell_length_c   16.55560215
_cell_angle_alpha   90.01490040
_cell_angle_beta   90.00127580
_cell_angle_gamma   89.98884893
_symmetry_Int_Tables_number   1
_chemical_formula_structural   ZrScNbPdRh
_chemical_formula_sum   'Zr50 Sc50 Nb50 Pd50 Rh50'
_cell_volume   4536.55810243
_cell_formula_units_Z   50
loop_
 _symmetry_equiv_pos_site_id
 _symmetry_equiv_pos_as_xyz
  1  'x, y, z'
loop_
 _atom_site_type_symbol
 _atom_site_label
 _atom_site_symmetry_multiplicity
 _atom_site_fract_x
 _atom_site_fract_y
 _atom_site_fract_z
 _atom_site_occupancy
  Zr  Zr0  1  0.69882499  0.69988792  0.50003051  1
  Zr  Zr1  1  0.70104934  0.10670346  0.90495929  1
  Zr  Zr2  1  0.69748825  0.89962057  0.49837841  1
  Zr  Zr3  1  0.69437505  0.10277515  0.09548488  1
  Zr  Zr4  1  0.10807321  0.89525143  0.49875020  1
  Zr  Zr5  1  0.10688620  0.30141016  0.30132730  1
  Zr  Zr6  1  0.90347155  0.10702583  0.89762899  1
  Zr  Zr7  1  0.10026108  0.90162374  0.69948593  1
  Zr  Zr8  1  0.69963769  0.90054302  0.30162997  1
  Zr  Zr9  1  0.50312428  0.09601254  0.91317664  1
  Zr  Zr10  1  0.69329124  0.50584122  0.10076564  1
  Zr  Zr11  1  0.30836803  0.09445285  0.49953207  1
  Zr  Zr12  1  0.70483119  0.10433864  0.69907396  1
  Zr  Zr13  1  0.09351924  0.48807555  0.49636843  1
  Zr  Zr14  1  0.10432901  0.29773719  0.90393627  1
  Zr  Zr15  1  0.90076183  0.70230244  0.50540365  1
  Zr  Zr16  1  0.49641089  0.90090202  0.09339496  1
  Zr  Zr17  1  0.90453335  0.69420175  0.29360933  1
  Zr  Zr18  1  0.49026353  0.49876332  0.69349893  1
  Zr  Zr19  1  0.09962293  0.69653041  0.70290391  1
  Zr  Zr20  1  0.90509865  0.89879254  0.29192058  1
  Zr  Zr21  1  0.69683521  0.49401119  0.89845634  1
  Zr  Zr22  1  0.70052401  0.49631638  0.70154687  1
  Zr  Zr23  1  0.09710309  0.89474971  0.10458592  1
  Zr  Zr24  1  0.49415505  0.69022046  0.49964103  1
  Zr  Zr25  1  0.49633559  0.89982237  0.90215726  1
  Zr  Zr26  1  0.10632016  0.30839978  0.10056472  1
  Zr  Zr27  1  0.09866958  0.49925530  0.90168454  1
  Zr  Zr28  1  0.09744762  0.69375417  0.90606967  1
  Zr  Zr29  1  0.71035458  0.69853253  0.90269169  1
  Zr  Zr30  1  0.90019654  0.29731333  0.69609573  1
  Zr  Zr31  1  0.90301875  0.70304094  0.89815466  1
  Zr  Zr32  1  0.69454417  0.69848389  0.10120879  1
  Zr  Zr33  1  0.09904964  0.09100469  0.29838420  1
  Zr  Zr34  1  0.29857206  0.69691209  0.29599821  1
  Zr  Zr35  1  0.70452057  0.30129434  0.49695370  1
  Zr  Zr36  1  0.10787494  0.10316180  0.89456830  1
  Zr  Zr37  1  0.30493144  0.49975066  0.50178423  1
  Zr  Zr38  1  0.70480873  0.90552388  0.70246676  1
  Zr  Zr39  1  0.71313818  0.69883403  0.69619988  1
  Zr  Zr40  1  0.70643800  0.10428543  0.29410039  1
  Zr  Zr41  1  0.49026142  0.70463106  0.90825220  1
  Zr  Zr42  1  0.69767523  0.29009170  0.09930854  1
  Zr  Zr43  1  0.49713764  0.49872005  0.49543002  1
  Zr  Zr44  1  0.30068563  0.49028998  0.88936945  1
  Zr  Zr45  1  0.49573487  0.90075473  0.70958350  1
  Zr  Zr46  1  0.70156380  0.89401715  0.10143913  1
  Zr  Zr47  1  0.89681595  0.89655385  0.90014130  1
  Zr  Zr48  1  0.10016785  0.89819068  0.90115200  1
  Zr  Zr49  1  0.09522470  0.50554532  0.09745960  1
  Sc  Sc50  1  0.30125476  0.09591440  0.29873497  1
  Sc  Sc51  1  0.10378632  0.90006709  0.29374123  1
  Sc  Sc52  1  0.89933922  0.50581460  0.10602126  1
  Sc  Sc53  1  0.30082148  0.50758852  0.11039437  1
  Sc  Sc54  1  0.50465108  0.49504756  0.28921223  1
  Sc  Sc55  1  0.29296337  0.29353896  0.50345073  1
  Sc  Sc56  1  0.89919825  0.10418006  0.51491099  1
  Sc  Sc57  1  0.29811926  0.90862981  0.70158527  1
  Sc  Sc58  1  0.10039715  0.69935413  0.29476690  1
  Sc  Sc59  1  0.69508460  0.70403278  0.29020395  1
  Sc  Sc60  1  0.90363593  0.30056199  0.09512288  1
  Sc  Sc61  1  0.88930450  0.31020709  0.29264262  1
  Sc  Sc62  1  0.90689425  0.30912677  0.50883762  1
  Sc  Sc63  1  0.90030046  0.09026529  0.29679968  1
  Sc  Sc64  1  0.49531960  0.10388784  0.49530816  1
  Sc  Sc65  1  0.49931198  0.90256091  0.30487704  1
  Sc  Sc66  1  0.89806209  0.70017486  0.09836470  1
  Sc  Sc67  1  0.90212744  0.90427967  0.51165745  1
  Sc  Sc68  1  0.29527898  0.89926868  0.29960907  1
  Sc  Sc69  1  0.70364908  0.90480644  0.90148500  1
  Sc  Sc70  1  0.09318053  0.49895593  0.29331761  1
  Sc  Sc71  1  0.89937635  0.90182977  0.70189680  1
  Sc  Sc72  1  0.29652546  0.89864045  0.10610437  1
  Sc  Sc73  1  0.29708880  0.10248438  0.69942888  1
  Sc  Sc74  1  0.50034974  0.28962111  0.49383299  1
  Sc  Sc75  1  0.10759904  0.49788779  0.70582407  1
  Sc  Sc76  1  0.10084608  0.29858439  0.69273267  1
  Sc  Sc77  1  0.89211050  0.10703810  0.09946507  1
  Sc  Sc78  1  0.29441317  0.49248535  0.69716585  1
  Sc  Sc79  1  0.90183712  0.89179135  0.10152644  1
  Sc  Sc80  1  0.69985839  0.09624203  0.50530991  1
  Sc  Sc81  1  0.30598014  0.10550422  0.09603214  1
  Sc  Sc82  1  0.09765623  0.10316998  0.70543886  1
  Sc  Sc83  1  0.10306636  0.70169318  0.50050911  1
  Sc  Sc84  1  0.51170248  0.30696929  0.90001482  1
  Sc  Sc85  1  0.10656323  0.09416236  0.10163171  1
  Sc  Sc86  1  0.69586477  0.30812513  0.29992306  1
  Sc  Sc87  1  0.10348030  0.09900476  0.50188070  1
  Sc  Sc88  1  0.29392233  0.69459765  0.50157291  1
  Sc  Sc89  1  0.50020373  0.10195587  0.69739560  1
  Sc  Sc90  1  0.29996371  0.69859739  0.91308643  1
  Sc  Sc91  1  0.50210459  0.69920285  0.29608130  1
  Sc  Sc92  1  0.49885983  0.29897942  0.70043966  1
  Sc  Sc93  1  0.29891678  0.30478111  0.70129554  1
  Sc  Sc94  1  0.50253351  0.90797757  0.49455328  1
  Sc  Sc95  1  0.50232759  0.49538989  0.90331850  1
  Sc  Sc96  1  0.89565180  0.49383527  0.69804049  1
  Sc  Sc97  1  0.30354650  0.90674646  0.90169824  1
  Sc  Sc98  1  0.89993509  0.50721419  0.90732131  1
  Sc  Sc99  1  0.29333162  0.30182158  0.28501272  1
  Nb  Nb100  1  0.89685843  0.50741748  0.30196691  1
  Nb  Nb101  1  0.70126225  0.30641569  0.70568870  1
  Nb  Nb102  1  0.89776240  0.10633022  0.70229018  1
  Nb  Nb103  1  0.90366913  0.29975943  0.90254040  1
  Nb  Nb104  1  0.29621458  0.69531561  0.70373647  1
  Nb  Nb105  1  0.49771440  0.10628859  0.29659233  1
  Nb  Nb106  1  0.50124180  0.50001651  0.09323214  1
  Nb  Nb107  1  0.70077927  0.49435402  0.49049848  1
  Nb  Nb108  1  0.50565769  0.10600080  0.10428592  1
  Nb  Nb109  1  0.69948639  0.30672168  0.89397446  1
  Nb  Nb110  1  0.29428647  0.11364761  0.90082008  1
  Nb  Nb111  1  0.09507663  0.29832524  0.50006717  1
  Nb  Nb112  1  0.29835716  0.50114174  0.30334500  1
  Nb  Nb113  1  0.49631529  0.69854430  0.69913402  1
  Nb  Nb114  1  0.90500163  0.50230297  0.48924580  1
  Nb  Nb115  1  0.90113827  0.70442374  0.69417788  1
  Nb  Nb116  1  0.30005708  0.30124809  0.09288504  1
  Nb  Nb117  1  0.50035033  0.29676780  0.29868302  1
  Nb  Nb118  1  0.49968412  0.29805979  0.11048784  1
  Nb  Nb119  1  0.29737301  0.29770673  0.90380159  1
  Nb  Nb120  1  0.70610976  0.49836634  0.30170772  1
  Nb  Nb121  1  0.30275044  0.69733419  0.10388783  1
  Nb  Nb122  1  0.30196767  0.89465996  0.49695166  1
  Nb  Nb123  1  0.10885341  0.69973063  0.09941371  1
  Nb  Nb124  1  0.48907806  0.69033136  0.09482653  1
  Nb  Nb125  1  0.60492579  0.40020785  0.59534821  1
  Nb  Nb126  1  -0.00175687  0.39447253  0.80604012  1
  Nb  Nb127  1  0.19896464  0.79628964  0.80163221  1
  Nb  Nb128  1  -0.00308476  0.80150441  0.39981037  1
  Nb  Nb129  1  0.60753434  0.59169471  0.39744334  1
  Nb  Nb130  1  0.20008868  0.59180062  0.39650535  1
  Nb  Nb131  1  0.39590622  0.79782834  0.40613960  1
  Nb  Nb132  1  0.80650448  0.20225567  0.40180809  1
  Nb  Nb133  1  0.39905457  0.39688584  0.39081736  1
  Nb  Nb134  1  -0.00333760  0.59889918  0.59978089  1
  Nb  Nb135  1  0.39626028  0.20235037  0.81195042  1
  Nb  Nb136  1  0.59284165  0.79693757  0.60636740  1
  Nb  Nb137  1  0.80468543  0.79806839  0.39836833  1
  Nb  Nb138  1  -0.00082499  0.20297678  0.39769149  1
  Nb  Nb139  1  0.00492142  0.20184183  0.20733769  1
  Nb  Nb140  1  0.79993625  0.59738671  0.39816079  1
  Nb  Nb141  1  0.40095647  0.39465578  0.00981109  1
  Nb  Nb142  1  0.39855734  0.79825810  0.60036029  1
  Nb  Nb143  1  0.40109791  0.60249827  0.79868812  1
  Nb  Nb144  1  0.79430008  0.39686763  -0.00395069  1
  Nb  Nb145  1  0.00157266  -0.00108692  -0.00376940  1
  Nb  Nb146  1  0.79838468  0.20872188  0.80067062  1
  Nb  Nb147  1  0.59951564  0.79323078  0.79695178  1
  Nb  Nb148  1  0.59469906  0.00699628  0.19726159  1
  Nb  Nb149  1  0.59449534  0.60675123  0.79603234  1
  Pd  Pd150  1  0.20633245  0.80294647  -0.00073513  1
  Pd  Pd151  1  0.00247741  0.80051383  0.79631752  1
  Pd  Pd152  1  0.59269421  -0.00213646  0.60079402  1
  Pd  Pd153  1  0.19328454  0.59282402  0.59353051  1
  Pd  Pd154  1  0.20159814  0.00115587  0.00188594  1
  Pd  Pd155  1  0.39811684  0.40108109  0.19905116  1
  Pd  Pd156  1  0.00400650  0.00495926  0.60224077  1
  Pd  Pd157  1  -0.00640646  0.39091876  0.38939723  1
  Pd  Pd158  1  0.80493592  0.59625207  0.80020268  1
  Pd  Pd159  1  0.20655986  0.40122224  0.40136971  1
  Pd  Pd160  1  0.79954362  0.40388853  0.59413179  1
  Pd  Pd161  1  -0.00418531  -0.00035765  0.40916020  1
  Pd  Pd162  1  0.00882436  0.19308365  0.01189692  1
  Pd  Pd163  1  0.20733264  0.80090964  0.60843240  1
  Pd  Pd164  1  0.20887176  0.59186238  -0.00012202  1
  Pd  Pd165  1  0.19959036  0.19708431  0.60178744  1
  Pd  Pd166  1  0.58704878  0.80593051  0.19708958  1
  Pd  Pd167  1  0.19974680  0.19420997  0.19425418  1
  Pd  Pd168  1  0.40308384  0.00061880  0.20098915  1
  Pd  Pd169  1  0.79722625  0.40278609  0.18808674  1
  Pd  Pd170  1  0.80674310  0.58778032  0.59214021  1
  Pd  Pd171  1  0.20926191  0.41133236  0.00656261  1
  Pd  Pd172  1  0.60212264  0.79942956  -0.00533968  1
  Pd  Pd173  1  0.39416572  0.01525062  0.80434378  1
  Pd  Pd174  1  0.39073147  0.79546576  0.79743056  1
  Pd  Pd175  1  0.59706900  0.19902456  0.80065578  1
  Pd  Pd176  1  0.40439843  0.38514665  0.58868002  1
  Pd  Pd177  1  0.80715670  -0.00151353  0.00442620  1
  Pd  Pd178  1  0.60289630  0.39940409  0.19751980  1
  Pd  Pd179  1  -0.00249450  0.39792100  0.20160813  1
  Pd  Pd180  1  0.40340917  0.80161603  0.20437701  1
  Pd  Pd181  1  0.40688276  0.59672120  0.20372463  1
  Pd  Pd182  1  0.20427491  -0.00063439  0.39951720  1
  Pd  Pd183  1  0.60181308  0.00034945  0.80391441  1
  Pd  Pd184  1  0.39175933  0.00411629  0.00342609  1
  Pd  Pd185  1  0.59723670  0.01292297  0.39271894  1
  Pd  Pd186  1  0.39401110  0.20003140  0.20165947  1
  Pd  Pd187  1  -0.00296652  0.00087144  0.80250232  1
  Pd  Pd188  1  0.79802059  -0.00152748  0.19018206  1
  Pd  Pd189  1  0.19991282  0.19490317  0.40091939  1
  Pd  Pd190  1  0.41058294  0.20976523  -0.00238517  1
  Pd  Pd191  1  -0.00876366  0.59028241  0.79153841  1
  Pd  Pd192  1  0.60081086  0.20713637  0.59995920  1
  Pd  Pd193  1  0.80807677  0.00154129  0.40823117  1
  Pd  Pd194  1  0.38825734  0.20752318  0.39036565  1
  Pd  Pd195  1  0.20005548  0.00435153  0.59994955  1
  Pd  Pd196  1  0.60943616  0.19650129  0.39717867  1
  Pd  Pd197  1  0.60331828  0.59564022  0.59917710  1
  Pd  Pd198  1  0.59626468  0.60377304  -0.00798471  1
  Pd  Pd199  1  0.40426884  -0.00392176  0.59893027  1
  Rh  Rh200  1  0.80009733  0.79779746  0.00277706  1
  Rh  Rh201  1  0.00634943  0.19630949  0.59541001  1
  Rh  Rh202  1  0.79467284  0.60166200  0.20247060  1
  Rh  Rh203  1  0.79697666  0.21028096  -0.00825644  1
  Rh  Rh204  1  0.59528609  0.78935375  0.40796945  1
  Rh  Rh205  1  0.79984303  0.79611074  0.20385695  1
  Rh  Rh206  1  0.79699441  0.20368003  0.60099352  1
  Rh  Rh207  1  0.38666655  0.60352134  0.60950235  1
  Rh  Rh208  1  0.40411170  0.39455187  0.80798856  1
  Rh  Rh209  1  0.20699238  0.20607217  0.79363963  1
  Rh  Rh210  1  0.80004139  0.59524783  0.00527105  1
  Rh  Rh211  1  0.19521992  0.19955777  0.00709235  1
  Rh  Rh212  1  0.79942688  0.80096308  0.79795893  1
  Rh  Rh213  1  0.80193769  0.00028342  0.60398763  1
  Rh  Rh214  1  0.59943465  0.39199717  0.01336020  1
  Rh  Rh215  1  0.80368182  0.01174776  0.79999630  1
  Rh  Rh216  1  0.79527243  0.81100389  0.59834302  1
  Rh  Rh217  1  -0.00392844  0.20739722  0.79505239  1
  Rh  Rh218  1  0.00555035  0.40883927  0.61001732  1
  Rh  Rh219  1  0.59136528  0.40685736  0.78710241  1
  Rh  Rh220  1  0.58888916  0.40160128  0.40046065  1
  Rh  Rh221  1  0.20140866  0.40812558  0.19421828  1
  Rh  Rh222  1  0.39749151  0.19899796  0.60948646  1
  Rh  Rh223  1  0.19622431  0.39765437  0.59600154  1
  Rh  Rh224  1  0.60223695  -0.00472796  0.00659382  1
  Rh  Rh225  1  0.80845164  0.40013827  0.40135999  1
  Rh  Rh226  1  -0.00007171  0.79986823  0.00491966  1
  Rh  Rh227  1  0.00343413  0.60643934  0.40571786  1
  Rh  Rh228  1  -0.00340811  0.00820981  0.18387227  1
  Rh  Rh229  1  -0.00934173  0.40558782  -0.00349368  1
  Rh  Rh230  1  -0.00266571  0.60592983  0.00663424  1
  Rh  Rh231  1  0.20062010  0.79597623  0.19696543  1
  Rh  Rh232  1  0.39502349  0.58607477  -0.00355783  1
  Rh  Rh233  1  0.21016331  0.60589165  0.80937586  1
  Rh  Rh234  1  0.00347951  0.60324288  0.19281010  1
  Rh  Rh235  1  0.59612320  0.59795998  0.20191873  1
  Rh  Rh236  1  0.19046307  0.39031377  0.79866219  1
  Rh  Rh237  1  0.59420309  0.20911446  -0.00227126  1
  Rh  Rh238  1  0.00566633  0.79241730  0.19983922  1
  Rh  Rh239  1  0.20335153  -0.00267247  0.80285157  1
  Rh  Rh240  1  0.80877156  0.20180211  0.20843437  1
  Rh  Rh241  1  0.40078371  0.59780488  0.38815103  1
  Rh  Rh242  1  0.39132184  0.80128257  0.01213793  1
  Rh  Rh243  1  0.59881864  0.19840471  0.20779130  1
  Rh  Rh244  1  0.00430005  0.79633845  0.59901435  1
  Rh  Rh245  1  0.20035479  0.79231107  0.39492920  1
  Rh  Rh246  1  0.20650003  0.00064053  0.19814126  1
  Rh  Rh247  1  0.19514836  0.59947867  0.20459235  1
  Rh  Rh248  1  0.81151885  0.39538392  0.80938000  1
  Rh  Rh249  1  0.39948562  -0.00413569  0.39705601  1
