# generated using pymatgen
data_ZrScNbPdRh
_symmetry_space_group_name_H-M   'P 1'
_cell_length_a   16.55849446
_cell_length_b   16.56275532
_cell_length_c   16.56145342
_cell_angle_alpha   89.99260899
_cell_angle_beta   89.99344040
_cell_angle_gamma   89.98212102
_symmetry_Int_Tables_number   1
_chemical_formula_structural   ZrScNbPdRh
_chemical_formula_sum   'Zr50 Sc50 Nb50 Pd50 Rh50'
_cell_volume   4542.04939729
_cell_formula_units_Z   50
loop_
 _symmetry_equiv_pos_site_id
 _symmetry_equiv_pos_as_xyz
  1  'x, y, z'
loop_
 _atom_site_type_symbol
 _atom_site_label
 _atom_site_symmetry_multiplicity
 _atom_site_fract_x
 _atom_site_fract_y
 _atom_site_fract_z
 _atom_site_occupancy
  Zr  Zr0  1  0.89911680  0.29493139  0.29794982  1
  Zr  Zr1  1  0.69142170  0.70127956  0.70019006  1
  Zr  Zr2  1  0.69863034  0.09996504  0.70782099  1
  Zr  Zr3  1  0.49681218  0.50670072  0.48647231  1
  Zr  Zr4  1  0.10092905  0.70713636  0.49823611  1
  Zr  Zr5  1  0.90542181  0.50312066  0.70419302  1
  Zr  Zr6  1  0.70262995  0.90046474  0.30054484  1
  Zr  Zr7  1  0.09615040  0.28862537  0.50576246  1
  Zr  Zr8  1  0.29878477  0.29603856  0.09977828  1
  Zr  Zr9  1  0.29612082  0.10697302  0.69854150  1
  Zr  Zr10  1  0.69362378  0.49641523  0.50295987  1
  Zr  Zr11  1  0.90208677  0.49942866  0.29537446  1
  Zr  Zr12  1  0.30745576  0.29452232  0.29968729  1
  Zr  Zr13  1  0.89707504  0.70143185  0.10246474  1
  Zr  Zr14  1  0.10294844  0.69558042  0.70617825  1
  Zr  Zr15  1  0.70340308  0.70134690  0.10080409  1
  Zr  Zr16  1  0.09475014  0.70527593  0.90596773  1
  Zr  Zr17  1  0.10802180  0.09774409  0.89103019  1
  Zr  Zr18  1  0.29688687  0.10108979  0.29728735  1
  Zr  Zr19  1  0.70268008  0.30101713  0.49481182  1
  Zr  Zr20  1  0.70467807  0.70492041  0.30492946  1
  Zr  Zr21  1  0.90383079  0.10390492  0.49448587  1
  Zr  Zr22  1  0.30280347  0.09796206  0.09351234  1
  Zr  Zr23  1  0.10413223  0.49990816  0.09880063  1
  Zr  Zr24  1  0.69178561  0.48673211  0.30851184  1
  Zr  Zr25  1  0.69349344  0.49958237  0.70150863  1
  Zr  Zr26  1  0.69792205  0.10483627  0.49880531  1
  Zr  Zr27  1  0.10344269  0.69881337  0.30635035  1
  Zr  Zr28  1  0.49957812  0.49194756  0.10137174  1
  Zr  Zr29  1  0.50272745  0.09304121  0.70363671  1
  Zr  Zr30  1  0.10240815  0.51117138  0.89291337  1
  Zr  Zr31  1  0.30638409  0.70115807  0.50055372  1
  Zr  Zr32  1  0.50093303  0.89693458  0.51179321  1
  Zr  Zr33  1  0.29873477  0.90677056  0.90425956  1
  Zr  Zr34  1  0.69570234  0.70339980  0.90884414  1
  Zr  Zr35  1  0.89529717  0.90818359  0.69963652  1
  Zr  Zr36  1  0.50034572  0.69571371  0.31413263  1
  Zr  Zr37  1  0.69551339  0.09789747  0.31063772  1
  Zr  Zr38  1  0.50113503  0.49629335  0.90400846  1
  Zr  Zr39  1  0.30494983  0.70108893  0.70409176  1
  Zr  Zr40  1  0.89664996  0.29650642  0.50193316  1
  Zr  Zr41  1  0.69481904  0.49670592  0.09678759  1
  Zr  Zr42  1  0.49669084  0.70270095  0.10186095  1
  Zr  Zr43  1  0.30240232  0.30140048  0.69370427  1
  Zr  Zr44  1  0.90353168  0.69673714  0.30177402  1
  Zr  Zr45  1  0.50064553  0.29601098  0.70818023  1
  Zr  Zr46  1  0.10579018  0.89505226  0.09374118  1
  Zr  Zr47  1  0.49876358  0.89873613  0.09397045  1
  Zr  Zr48  1  0.90828826  0.90160417  0.89633690  1
  Zr  Zr49  1  0.69632513  0.90463572  0.69043682  1
  Sc  Sc50  1  0.69081581  0.50409809  0.90101021  1
  Sc  Sc51  1  0.49338222  0.30443681  0.09761945  1
  Sc  Sc52  1  0.30663778  0.09506708  0.89810671  1
  Sc  Sc53  1  0.29983245  0.70735024  0.09750546  1
  Sc  Sc54  1  0.30088284  0.49538688  0.32112026  1
  Sc  Sc55  1  0.09627019  0.10046175  0.10705118  1
  Sc  Sc56  1  0.29963131  0.70952007  0.30698146  1
  Sc  Sc57  1  0.10179892  0.28749372  0.70069900  1
  Sc  Sc58  1  0.28852069  0.89935206  0.29889767  1
  Sc  Sc59  1  0.30456344  0.29783182  0.89336021  1
  Sc  Sc60  1  0.10109512  0.09909876  0.69137200  1
  Sc  Sc61  1  0.31602668  0.90161565  0.69794111  1
  Sc  Sc62  1  0.90534583  0.10393432  0.09285872  1
  Sc  Sc63  1  0.10170656  0.90260982  0.49506600  1
  Sc  Sc64  1  0.08876924  0.90322655  0.69730264  1
  Sc  Sc65  1  0.50093932  0.50050968  0.70281387  1
  Sc  Sc66  1  0.09943528  0.30158604  0.10682257  1
  Sc  Sc67  1  0.90237760  0.89096721  0.50872167  1
  Sc  Sc68  1  0.50066876  0.10385446  0.08800843  1
  Sc  Sc69  1  0.69008827  0.29843442  0.08936220  1
  Sc  Sc70  1  0.69511458  0.91053895  0.91277605  1
  Sc  Sc71  1  0.51210527  0.89524932  0.30016476  1
  Sc  Sc72  1  0.11449675  0.49916615  0.48716701  1
  Sc  Sc73  1  0.30119818  0.49722825  0.08954744  1
  Sc  Sc74  1  0.89015058  0.10039926  0.89786901  1
  Sc  Sc75  1  0.90451352  0.89605154  0.29911058  1
  Sc  Sc76  1  0.30158077  0.30278974  0.50194299  1
  Sc  Sc77  1  0.29804370  0.89877444  0.09825913  1
  Sc  Sc78  1  0.89047531  0.49586583  0.49058515  1
  Sc  Sc79  1  0.91060876  0.29049522  0.09709693  1
  Sc  Sc80  1  0.49458886  0.70429776  0.69856560  1
  Sc  Sc81  1  0.10083661  0.70234752  0.09744775  1
  Sc  Sc82  1  0.29659813  0.89974272  0.50074741  1
  Sc  Sc83  1  0.90431336  0.71494337  0.69323188  1
  Sc  Sc84  1  0.69699249  0.28885983  0.89888620  1
  Sc  Sc85  1  0.69944421  0.89680996  0.50058309  1
  Sc  Sc86  1  0.69297708  0.89796675  0.10123988  1
  Sc  Sc87  1  0.90443723  0.28656527  0.89787679  1
  Sc  Sc88  1  0.29951024  0.50726690  0.90133017  1
  Sc  Sc89  1  0.91027018  0.50752673  0.89577574  1
  Sc  Sc90  1  0.90571633  0.50570554  0.10627492  1
  Sc  Sc91  1  0.09867898  0.90158334  0.29885764  1
  Sc  Sc92  1  0.09981717  0.49706065  0.29379913  1
  Sc  Sc93  1  0.29892362  0.10262080  0.50109097  1
  Sc  Sc94  1  0.30104519  0.69546335  0.90324963  1
  Sc  Sc95  1  0.49379041  0.69975119  0.89914569  1
  Sc  Sc96  1  0.50231391  0.10731362  0.50207874  1
  Sc  Sc97  1  0.90267307  0.28975745  0.69702930  1
  Sc  Sc98  1  0.90527221  0.89846075  0.10643796  1
  Sc  Sc99  1  0.49495351  0.29497005  0.49984910  1
  Nb  Nb100  1  0.50150343  0.29041414  0.90176728  1
  Nb  Nb101  1  0.90062975  0.69777802  0.49970778  1
  Nb  Nb102  1  0.69518627  0.29770424  0.30004244  1
  Nb  Nb103  1  0.89994380  0.09019419  0.70146487  1
  Nb  Nb104  1  0.50421544  0.90271639  0.70468100  1
  Nb  Nb105  1  0.70078240  0.10084469  0.09342907  1
  Nb  Nb106  1  0.90078921  0.09610081  0.29451039  1
  Nb  Nb107  1  0.10423168  0.90136134  0.90081331  1
  Nb  Nb108  1  0.09782172  0.29841324  0.29344311  1
  Nb  Nb109  1  0.10070867  0.29680230  0.89709378  1
  Nb  Nb110  1  0.89598175  0.70503704  0.90172373  1
  Nb  Nb111  1  0.30168689  0.49884694  0.50791856  1
  Nb  Nb112  1  0.49403908  0.91206177  0.89141179  1
  Nb  Nb113  1  0.49840269  0.10647906  0.30455631  1
  Nb  Nb114  1  0.69953909  0.70193041  0.50309843  1
  Nb  Nb115  1  0.09782570  0.50433246  0.70463891  1
  Nb  Nb116  1  0.50083699  0.30532708  0.30056003  1
  Nb  Nb117  1  0.50925109  0.09934793  0.89749228  1
  Nb  Nb118  1  0.50041744  0.49563752  0.30031982  1
  Nb  Nb119  1  0.29600118  0.49858549  0.69631027  1
  Nb  Nb120  1  0.70248758  0.30543118  0.69705253  1
  Nb  Nb121  1  0.09277546  0.09342662  0.30323981  1
  Nb  Nb122  1  0.10336605  0.09829474  0.49299161  1
  Nb  Nb123  1  0.69141669  0.10391212  0.91459116  1
  Nb  Nb124  1  0.50630965  0.70291914  0.49728293  1
  Nb  Nb125  1  0.00745530  -0.00231241  -0.00671185  1
  Nb  Nb126  1  0.00419150  0.39868549  -0.00680676  1
  Nb  Nb127  1  0.00235175  0.59722034  0.59446497  1
  Nb  Nb128  1  0.80011060  0.60725056  0.79820141  1
  Nb  Nb129  1  0.19613867  0.40459304  0.79420254  1
  Nb  Nb130  1  0.19817716  0.20112979  -0.00253635  1
  Nb  Nb131  1  0.79542602  0.39150908  0.19543874  1
  Nb  Nb132  1  0.59711732  0.81031824  0.80220200  1
  Nb  Nb133  1  0.20873837  0.60002295  0.20299970  1
  Nb  Nb134  1  0.40617164  0.00302930  0.20516136  1
  Nb  Nb135  1  0.79715695  0.00968204  0.20054358  1
  Nb  Nb136  1  0.40080465  0.59647775  0.20750977  1
  Nb  Nb137  1  0.79385806  0.80109339  0.80388986  1
  Nb  Nb138  1  0.40330536  0.00379010  0.39313942  1
  Nb  Nb139  1  0.80748827  0.39889036  -0.00385192  1
  Nb  Nb140  1  0.80131804  0.60502093  0.59917364  1
  Nb  Nb141  1  0.00560787  0.40825990  0.59825947  1
  Nb  Nb142  1  0.19031291  0.19692883  0.39299363  1
  Nb  Nb143  1  0.59519984  0.59552642  0.20674421  1
  Nb  Nb144  1  0.59951200  0.19976815  0.20495703  1
  Nb  Nb145  1  0.20005806  0.80426867  0.80337635  1
  Nb  Nb146  1  0.79969636  0.40098522  0.80103792  1
  Nb  Nb147  1  0.00314723  0.39113394  0.40001727  1
  Nb  Nb148  1  0.20135914  0.59468618  0.60264174  1
  Nb  Nb149  1  0.79138084  0.19650982  0.20018349  1
  Pd  Pd150  1  -0.00107437  0.18982996  0.79492888  1
  Pd  Pd151  1  0.40134184  0.59956292  0.59983480  1
  Pd  Pd152  1  0.19603785  0.39379182  -0.01101965  1
  Pd  Pd153  1  0.00194242  0.00327433  0.59221922  1
  Pd  Pd154  1  0.59095594  -0.00409031  0.40884013  1
  Pd  Pd155  1  0.40115312  0.81418070  0.39948721  1
  Pd  Pd156  1  0.20026432  -0.00503031  0.60180458  1
  Pd  Pd157  1  0.80589944  0.59046884  -0.00663357  1
  Pd  Pd158  1  0.79528643  0.20308660  0.79809174  1
  Pd  Pd159  1  0.80041472  0.19221607  0.60575472  1
  Pd  Pd160  1  0.39951558  0.80223492  -0.00834909  1
  Pd  Pd161  1  0.00037888  0.38994926  0.79904434  1
  Pd  Pd162  1  0.78925137  -0.00271669  0.80889881  1
  Pd  Pd163  1  0.79264609  0.59844925  0.40366355  1
  Pd  Pd164  1  0.19353046  0.19687641  0.19907403  1
  Pd  Pd165  1  0.80778115  0.40554514  0.60777070  1
  Pd  Pd166  1  0.59816814  0.00926089  0.19347401  1
  Pd  Pd167  1  -0.00577025  -0.00855381  0.40308447  1
  Pd  Pd168  1  0.60146977  0.20456137  0.60585272  1
  Pd  Pd169  1  0.38954289  0.40824657  0.20463006  1
  Pd  Pd170  1  0.00118159  0.80060631  0.79799608  1
  Pd  Pd171  1  0.59125459  0.60364974  0.00641666  1
  Pd  Pd172  1  0.80975837  -0.00336242  0.00901261  1
  Pd  Pd173  1  0.39391732  0.40540082  0.80345099  1
  Pd  Pd174  1  0.78863903  0.58983996  0.20492388  1
  Pd  Pd175  1  -0.00281722  0.59864794  0.00426459  1
  Pd  Pd176  1  0.20042641  0.80229107  0.60964453  1
  Pd  Pd177  1  0.39737442  0.39443424  -0.00933092  1
  Pd  Pd178  1  0.80938092  -0.00735270  0.40100453  1
  Pd  Pd179  1  0.39844126  0.80437343  0.20862815  1
  Pd  Pd180  1  0.60518700  0.39210790  0.80702292  1
  Pd  Pd181  1  0.21077209  0.40842072  0.20590681  1
  Pd  Pd182  1  0.00246370  0.58957498  0.40507090  1
  Pd  Pd183  1  0.40201299  0.59400216  0.80017332  1
  Pd  Pd184  1  0.40069434  0.00680596  0.59250763  1
  Pd  Pd185  1  0.19621158  0.38583602  0.39722989  1
  Pd  Pd186  1  0.60108214  0.79211931  0.20122877  1
  Pd  Pd187  1  0.20260779  -0.00916398  0.78542126  1
  Pd  Pd188  1  0.41057201  0.40309048  0.59793057  1
  Pd  Pd189  1  0.39977113  0.19313948  0.80250092  1
  Pd  Pd190  1  0.00282937  0.20127483  0.39276985  1
  Pd  Pd191  1  0.59572158  0.60284131  0.59752608  1
  Pd  Pd192  1  0.20233686  -0.00142960  0.19542396  1
  Pd  Pd193  1  0.19058269  0.40175118  0.60483217  1
  Pd  Pd194  1  0.80649486  0.80389235  0.40471742  1
  Pd  Pd195  1  0.58845327  0.39489757  0.59569308  1
  Pd  Pd196  1  0.80347717  0.81227653  0.00125001  1
  Pd  Pd197  1  0.79933065  0.00685082  0.59031664  1
  Pd  Pd198  1  0.41120900  0.19515825  0.19439905  1
  Pd  Pd199  1  0.00639292  0.79554527  0.20189947  1
  Rh  Rh200  1  0.40083754  0.19837680  0.60351888  1
  Rh  Rh201  1  0.60434338  0.20041034  0.79757659  1
  Rh  Rh202  1  0.20293361  0.19674230  0.59088758  1
  Rh  Rh203  1  0.80573062  0.39401285  0.39104740  1
  Rh  Rh204  1  0.20133582  0.60515099  0.00974492  1
  Rh  Rh205  1  0.60879286  0.60236928  0.39838664  1
  Rh  Rh206  1  0.59490235  0.79677619  0.60377832  1
  Rh  Rh207  1  0.00123486  0.00670621  0.80335122  1
  Rh  Rh208  1  0.21041932  0.60153328  0.79618017  1
  Rh  Rh209  1  0.01419164  0.19565401  -0.00696916  1
  Rh  Rh210  1  -0.00324628  0.80184298  0.39991235  1
  Rh  Rh211  1  0.20540190  0.20736536  0.80391889  1
  Rh  Rh212  1  0.60097903  0.00647862  0.59542314  1
  Rh  Rh213  1  0.20895702  0.60443209  0.40244715  1
  Rh  Rh214  1  -0.01198092  0.61704691  0.79560247  1
  Rh  Rh215  1  0.00545830  0.79763036  0.59618773  1
  Rh  Rh216  1  0.60688125  -0.00123708  0.80680114  1
  Rh  Rh217  1  0.39826417  0.00585783  0.79731698  1
  Rh  Rh218  1  0.59482788  0.20814647  0.39779661  1
  Rh  Rh219  1  0.59239237  0.20360967  0.00440512  1
  Rh  Rh220  1  -0.00190323  0.19309475  0.20368758  1
  Rh  Rh221  1  0.59636699  0.61070212  0.80413356  1
  Rh  Rh222  1  -0.00559920  0.80517946  0.00270048  1
  Rh  Rh223  1  0.39444812  0.19767811  0.40247298  1
  Rh  Rh224  1  0.59089974  0.39079724  0.40839026  1
  Rh  Rh225  1  0.40250720  0.39501545  0.40535332  1
  Rh  Rh226  1  0.01283698  0.60688960  0.19975197  1
  Rh  Rh227  1  0.39361240  0.60135334  0.39982631  1
  Rh  Rh228  1  0.40297745  0.59901353  0.00843843  1
  Rh  Rh229  1  0.79680121  0.79423377  0.60208831  1
  Rh  Rh230  1  -0.00703390  0.39714682  0.19715818  1
  Rh  Rh231  1  -0.00582523  0.00334473  0.19324924  1
  Rh  Rh232  1  0.40617915  0.00052030  0.00286156  1
  Rh  Rh233  1  -0.00419915  0.18909650  0.60479028  1
  Rh  Rh234  1  0.58880499  0.80552423  -0.00978297  1
  Rh  Rh235  1  0.19572769  0.79253651  0.20026435  1
  Rh  Rh236  1  0.79894001  0.20527190  0.00473678  1
  Rh  Rh237  1  0.19799063  0.80646911  0.40134743  1
  Rh  Rh238  1  0.59250657  -0.00023035  0.00292358  1
  Rh  Rh239  1  0.80027198  0.19880198  0.39545460  1
  Rh  Rh240  1  0.60251295  0.39517146  0.19899302  1
  Rh  Rh241  1  0.60396134  0.80183298  0.40668095  1
  Rh  Rh242  1  0.20563981  0.79647316  -0.00853615  1
  Rh  Rh243  1  0.40463179  0.79933918  0.59982757  1
  Rh  Rh244  1  0.39722122  0.20177468  -0.00746508  1
  Rh  Rh245  1  0.19216412  0.01021707  0.00618987  1
  Rh  Rh246  1  0.60108727  0.39209972  -0.01081261  1
  Rh  Rh247  1  0.20471588  0.00605073  0.39989297  1
  Rh  Rh248  1  0.79789865  0.81026615  0.19793371  1
  Rh  Rh249  1  0.39958860  0.80655405  0.80427731  1
