# generated using pymatgen
data_ZrScNbPdRh
_symmetry_space_group_name_H-M   'P 1'
_cell_length_a   16.56516877
_cell_length_b   16.56310311
_cell_length_c   16.56088607
_cell_angle_alpha   89.99286776
_cell_angle_beta   89.99539484
_cell_angle_gamma   89.99483539
_symmetry_Int_Tables_number   1
_chemical_formula_structural   ZrScNbPdRh
_chemical_formula_sum   'Zr50 Sc50 Nb50 Pd50 Rh50'
_cell_volume   4543.82015343
_cell_formula_units_Z   50
loop_
 _symmetry_equiv_pos_site_id
 _symmetry_equiv_pos_as_xyz
  1  'x, y, z'
loop_
 _atom_site_type_symbol
 _atom_site_label
 _atom_site_symmetry_multiplicity
 _atom_site_fract_x
 _atom_site_fract_y
 _atom_site_fract_z
 _atom_site_occupancy
  Zr  Zr0  1  0.09878693  0.29724331  0.70788753  1
  Zr  Zr1  1  0.29424837  0.89709688  0.90222011  1
  Zr  Zr2  1  0.08960247  0.09909116  0.29901278  1
  Zr  Zr3  1  0.09982630  0.29981431  0.10401071  1
  Zr  Zr4  1  0.09814712  0.31008297  0.49858073  1
  Zr  Zr5  1  0.30112113  0.29825924  0.90172448  1
  Zr  Zr6  1  0.49384632  0.29655517  0.09770977  1
  Zr  Zr7  1  0.10266947  0.89751087  0.89168156  1
  Zr  Zr8  1  0.49927675  0.10262986  0.49292240  1
  Zr  Zr9  1  0.70775791  0.70474299  0.49642350  1
  Zr  Zr10  1  0.29778588  0.49895636  0.49745556  1
  Zr  Zr11  1  0.49899661  0.90845718  0.70157238  1
  Zr  Zr12  1  0.50204924  0.90577092  0.49855462  1
  Zr  Zr13  1  0.10049776  0.70280895  0.30325412  1
  Zr  Zr14  1  0.70603857  0.29866512  0.49869496  1
  Zr  Zr15  1  0.89262367  0.50225812  0.69906161  1
  Zr  Zr16  1  0.30729077  0.50115059  0.29063511  1
  Zr  Zr17  1  0.70171247  0.49586770  0.10216058  1
  Zr  Zr18  1  0.09906025  0.50304945  0.50051014  1
  Zr  Zr19  1  0.50488391  0.10459754  0.69968224  1
  Zr  Zr20  1  0.10106268  0.29774290  0.89956687  1
  Zr  Zr21  1  0.69646581  0.30304530  0.89249282  1
  Zr  Zr22  1  0.09661424  0.50192030  0.69013101  1
  Zr  Zr23  1  0.90342759  0.71043127  0.10429612  1
  Zr  Zr24  1  0.30395130  0.09932389  0.50150948  1
  Zr  Zr25  1  0.69306034  0.10168924  0.90219767  1
  Zr  Zr26  1  0.29496901  0.50591126  0.10054126  1
  Zr  Zr27  1  0.10466338  0.09804294  0.10508571  1
  Zr  Zr28  1  0.50343212  0.69882267  0.49192782  1
  Zr  Zr29  1  0.71465247  0.90528350  0.09828593  1
  Zr  Zr30  1  0.49905846  0.10027075  0.90319554  1
  Zr  Zr31  1  0.10383814  0.89292411  0.31328385  1
  Zr  Zr32  1  0.89912313  0.08628473  0.11764098  1
  Zr  Zr33  1  0.49546007  0.69494772  0.69819446  1
  Zr  Zr34  1  0.70674229  0.50048184  0.49614945  1
  Zr  Zr35  1  0.69858990  0.49916389  0.30632419  1
  Zr  Zr36  1  0.69646133  0.70258003  0.31006218  1
  Zr  Zr37  1  0.30164366  0.69524119  0.50306212  1
  Zr  Zr38  1  0.50016968  0.30277087  0.70720796  1
  Zr  Zr39  1  0.29531578  0.69620498  0.90177588  1
  Zr  Zr40  1  0.10221291  0.28889133  0.30030332  1
  Zr  Zr41  1  0.70801211  0.09691840  0.50734233  1
  Zr  Zr42  1  0.49403498  0.29655008  0.89691627  1
  Zr  Zr43  1  0.29987855  0.10469167  0.30867518  1
  Zr  Zr44  1  0.69645117  0.69980540  0.90255858  1
  Zr  Zr45  1  0.29693000  0.49814918  0.90764465  1
  Zr  Zr46  1  0.70217172  0.30741748  0.30780654  1
  Zr  Zr47  1  0.49907814  0.49672519  0.89420816  1
  Zr  Zr48  1  0.70066004  0.89695987  0.90389853  1
  Zr  Zr49  1  0.09596888  0.70776553  0.68873442  1
  Sc  Sc50  1  0.30006889  0.70660115  0.29308666  1
  Sc  Sc51  1  0.90697040  0.71452016  0.30378535  1
  Sc  Sc52  1  0.49102986  0.50110280  0.49801301  1
  Sc  Sc53  1  0.48369769  0.50106187  0.10415474  1
  Sc  Sc54  1  0.09406862  0.50241874  0.29954059  1
  Sc  Sc55  1  0.30421915  0.88843626  0.09327774  1
  Sc  Sc56  1  0.90345877  0.09327143  0.68983748  1
  Sc  Sc57  1  0.29038421  0.69565194  0.70102292  1
  Sc  Sc58  1  0.49675795  0.89663487  0.30714659  1
  Sc  Sc59  1  0.70281821  0.50112661  0.89166132  1
  Sc  Sc60  1  0.90433471  0.49365266  0.09438293  1
  Sc  Sc61  1  0.30247099  0.09852283  0.90251500  1
  Sc  Sc62  1  0.09333503  0.08616719  0.50106189  1
  Sc  Sc63  1  0.50289179  0.69250994  0.90423591  1
  Sc  Sc64  1  0.49920215  0.50048881  0.30407452  1
  Sc  Sc65  1  0.70845887  0.90269882  0.69436600  1
  Sc  Sc66  1  0.71606335  0.69987188  0.70373493  1
  Sc  Sc67  1  0.90196961  0.89351257  0.69346729  1
  Sc  Sc68  1  0.30169255  0.29808542  0.71129595  1
  Sc  Sc69  1  0.29979395  0.31254971  0.10282198  1
  Sc  Sc70  1  0.09939618  0.69956137  0.89307731  1
  Sc  Sc71  1  0.90196831  0.49929684  0.50456928  1
  Sc  Sc72  1  0.69730861  0.30238889  0.10759900  1
  Sc  Sc73  1  0.10034439  0.50105615  0.09801658  1
  Sc  Sc74  1  0.10020846  0.89543903  0.50541936  1
  Sc  Sc75  1  0.90630488  0.30806686  0.89758987  1
  Sc  Sc76  1  0.10116495  0.69243669  0.10580644  1
  Sc  Sc77  1  0.49469527  0.70062133  0.09297259  1
  Sc  Sc78  1  0.30071582  0.10192225  0.70187465  1
  Sc  Sc79  1  0.69552164  0.10494542  0.30784874  1
  Sc  Sc80  1  0.09685352  0.49680418  0.90587456  1
  Sc  Sc81  1  0.69905631  0.30425706  0.69207373  1
  Sc  Sc82  1  0.90965460  0.10395160  0.89124868  1
  Sc  Sc83  1  0.49649662  0.69909415  0.30447182  1
  Sc  Sc84  1  0.70840805  0.90100640  0.30822668  1
  Sc  Sc85  1  0.89982989  0.70358840  0.88962259  1
  Sc  Sc86  1  0.10294997  0.09802248  0.89355303  1
  Sc  Sc87  1  0.10634721  0.89354128  0.09218089  1
  Sc  Sc88  1  0.50191041  0.30109102  0.50348347  1
  Sc  Sc89  1  0.89954521  0.50007795  0.89896038  1
  Sc  Sc90  1  0.70545497  0.49633987  0.69979529  1
  Sc  Sc91  1  0.30039458  0.29827716  0.48693055  1
  Sc  Sc92  1  0.49529363  0.49473764  0.69727469  1
  Sc  Sc93  1  0.89525390  0.49694212  0.30616626  1
  Sc  Sc94  1  0.29962875  0.50490960  0.69485287  1
  Sc  Sc95  1  0.28857439  0.90496875  0.69732003  1
  Sc  Sc96  1  0.09777723  0.09273663  0.70220796  1
  Sc  Sc97  1  0.90131364  0.69892383  0.69646760  1
  Sc  Sc98  1  0.50816885  0.29833317  0.30628569  1
  Sc  Sc99  1  0.90359536  0.70798550  0.50447895  1
  Nb  Nb100  1  0.89708160  0.29780786  0.69758906  1
  Nb  Nb101  1  0.09971979  0.70333725  0.49457683  1
  Nb  Nb102  1  0.09883959  0.90398090  0.69307616  1
  Nb  Nb103  1  0.90111617  0.91404524  0.29459226  1
  Nb  Nb104  1  0.70604419  0.89668027  0.49945563  1
  Nb  Nb105  1  0.49979649  0.89822583  0.90172655  1
  Nb  Nb106  1  0.90394016  0.09784079  0.30942017  1
  Nb  Nb107  1  0.49972376  0.10060890  0.09975162  1
  Nb  Nb108  1  0.89404260  0.90962926  0.49560592  1
  Nb  Nb109  1  0.89903355  0.90102104  0.10028802  1
  Nb  Nb110  1  0.29911729  0.90455926  0.49244625  1
  Nb  Nb111  1  0.29979699  0.90353462  0.30147406  1
  Nb  Nb112  1  0.89798494  0.89914897  0.90418682  1
  Nb  Nb113  1  0.70534468  0.10179873  0.70306958  1
  Nb  Nb114  1  0.90172358  0.28589103  0.30752458  1
  Nb  Nb115  1  0.70140554  0.10048253  0.10322730  1
  Nb  Nb116  1  0.89604191  0.28922668  0.49814841  1
  Nb  Nb117  1  0.29773638  0.29465770  0.29497949  1
  Nb  Nb118  1  0.49796860  0.09933517  0.29903894  1
  Nb  Nb119  1  0.89769710  0.29644624  0.10103326  1
  Nb  Nb120  1  0.69696773  0.70460836  0.09992999  1
  Nb  Nb121  1  0.30216180  0.09686477  0.09924336  1
  Nb  Nb122  1  0.50416796  0.89973548  0.09686395  1
  Nb  Nb123  1  0.30056081  0.68762532  0.10091524  1
  Nb  Nb124  1  0.89991144  0.10102710  0.49470518  1
  Nb  Nb125  1  0.40123954  0.19312414  0.20092401  1
  Nb  Nb126  1  0.79978163  0.19754942  0.79764297  1
  Nb  Nb127  1  0.40193672  0.80353170  0.79967028  1
  Nb  Nb128  1  0.80372262  0.19796287  0.20299027  1
  Nb  Nb129  1  0.59968605  0.79898876  0.60045293  1
  Nb  Nb130  1  0.80096367  0.00272817  0.80266186  1
  Nb  Nb131  1  0.20993975  -0.00303808  0.20383206  1
  Nb  Nb132  1  0.79647526  0.60617269  0.00763706  1
  Nb  Nb133  1  0.19863157  0.60395418  0.40031537  1
  Nb  Nb134  1  -0.00115343  0.20348222  0.59554618  1
  Nb  Nb135  1  0.19916912  0.19895321  0.00507567  1
  Nb  Nb136  1  -0.00627332  0.38753389  0.20387391  1
  Nb  Nb137  1  0.60203077  0.80407779  0.19386724  1
  Nb  Nb138  1  0.59492377  0.80312769  0.79715528  1
  Nb  Nb139  1  -0.00498653  -0.00472212  0.00056208  1
  Nb  Nb140  1  0.59585454  0.00079424  0.19475042  1
  Nb  Nb141  1  0.40281834  0.00093464  0.19811698  1
  Nb  Nb142  1  0.40112787  0.80391480  0.60089671  1
  Nb  Nb143  1  0.60417260  0.60542651  0.59559469  1
  Nb  Nb144  1  0.60575860  0.60653238  0.19728961  1
  Nb  Nb145  1  0.19297661  0.20119538  0.59902358  1
  Nb  Nb146  1  -0.00213780  0.19550291  0.00848609  1
  Nb  Nb147  1  0.80339504  0.19809126  0.00437898  1
  Nb  Nb148  1  0.59544893  0.39967668  -0.00143314  1
  Nb  Nb149  1  0.79618408  0.60602977  0.19733533  1
  Pd  Pd150  1  0.60619754  0.60228890  0.78717143  1
  Pd  Pd151  1  0.00226610  0.59742942  0.79758395  1
  Pd  Pd152  1  0.19118241  0.59394758  0.79936068  1
  Pd  Pd153  1  0.60007254  0.41039140  0.59624121  1
  Pd  Pd154  1  0.80516660  0.79199608  -0.00336813  1
  Pd  Pd155  1  0.39098672  0.39257374  0.59986880  1
  Pd  Pd156  1  0.00277951  0.79997708  -0.00319867  1
  Pd  Pd157  1  0.01565954  -0.01657820  0.19611467  1
  Pd  Pd158  1  0.39345645  0.80023541  0.40444832  1
  Pd  Pd159  1  0.60459447  -0.00177809  0.39484814  1
  Pd  Pd160  1  0.39204357  0.20856767  0.60147396  1
  Pd  Pd161  1  -0.00281995  0.40657913  0.79693617  1
  Pd  Pd162  1  -0.00701292  0.39705304  0.39451773  1
  Pd  Pd163  1  -0.01136712  0.59049737  0.20163759  1
  Pd  Pd164  1  -0.00173180  0.60394939  0.40268766  1
  Pd  Pd165  1  -0.00694546  0.60663115  -0.00287905  1
  Pd  Pd166  1  0.79616716  0.79924573  0.20844081  1
  Pd  Pd167  1  0.39376564  -0.00242291  0.60108318  1
  Pd  Pd168  1  0.20177173  0.40802302  0.38702968  1
  Pd  Pd169  1  0.40218916  0.39415666  0.39544118  1
  Pd  Pd170  1  0.60645410  0.20776887  0.00396958  1
  Pd  Pd171  1  0.39535850  0.60047979  0.80102429  1
  Pd  Pd172  1  0.19054959  0.40597643  0.20552824  1
  Pd  Pd173  1  0.81390427  0.60761123  0.39594230  1
  Pd  Pd174  1  0.19672712  0.00278098  0.40053401  1
  Pd  Pd175  1  0.81035017  0.01260572  -0.00948642  1
  Pd  Pd176  1  0.60810549  -0.00530438  0.79922558  1
  Pd  Pd177  1  0.60173426  0.20135703  0.59963408  1
  Pd  Pd178  1  0.19006289  0.19281295  0.41198076  1
  Pd  Pd179  1  0.39349197  -0.00070796  0.80326339  1
  Pd  Pd180  1  0.20165000  0.40862049  0.79823401  1
  Pd  Pd181  1  0.59980078  -0.00186630  0.00578742  1
  Pd  Pd182  1  0.20997661  0.38986128  0.60513361  1
  Pd  Pd183  1  -0.00708664  -0.00905090  0.80003352  1
  Pd  Pd184  1  0.60738031  -0.00237942  0.59970606  1
  Pd  Pd185  1  0.60014240  0.58868831  0.00824189  1
  Pd  Pd186  1  0.60171823  0.19630256  0.20341351  1
  Pd  Pd187  1  0.20172471  0.80310278  0.19511732  1
  Pd  Pd188  1  0.79541178  0.39879813  -0.00492508  1
  Pd  Pd189  1  -0.00015938  0.80417259  0.79377982  1
  Pd  Pd190  1  0.40667341  0.80173090  0.19809925  1
  Pd  Pd191  1  0.80865813  0.39785701  0.20611727  1
  Pd  Pd192  1  0.20603123  0.80343474  0.59621094  1
  Pd  Pd193  1  0.39966883  -0.00358266  0.00222177  1
  Pd  Pd194  1  0.20345497  0.00376827  0.79857308  1
  Pd  Pd195  1  -0.00939892  0.39486978  0.60134294  1
  Pd  Pd196  1  0.19432367  0.78735429  0.00232104  1
  Pd  Pd197  1  0.58861993  0.40873562  0.19582048  1
  Pd  Pd198  1  0.00725275  0.80959401  0.20045645  1
  Pd  Pd199  1  0.40193537  0.79354983  -0.00639882  1
  Rh  Rh200  1  0.19909423  0.59967511  0.20716126  1
  Rh  Rh201  1  0.60178018  0.80936628  0.40046283  1
  Rh  Rh202  1  0.19560545  0.00538291  0.00227583  1
  Rh  Rh203  1  0.59807617  0.80552711  -0.00024271  1
  Rh  Rh204  1  0.60398540  0.20263577  0.79229197  1
  Rh  Rh205  1  -0.00770922  0.20223086  0.79197208  1
  Rh  Rh206  1  0.80398651  0.39251749  0.79624761  1
  Rh  Rh207  1  0.59694224  0.59221784  0.40109632  1
  Rh  Rh208  1  0.80745029  0.19716528  0.60568843  1
  Rh  Rh209  1  0.80891742  0.39639338  0.40543588  1
  Rh  Rh210  1  0.59958143  0.40176199  0.80020576  1
  Rh  Rh211  1  0.40744346  0.61021447  0.20089967  1
  Rh  Rh212  1  0.79775681  0.60059020  0.59759634  1
  Rh  Rh213  1  0.38934514  0.60039422  0.39414333  1
  Rh  Rh214  1  -0.00684779  0.81043103  0.40469302  1
  Rh  Rh215  1  0.79633333  0.80909970  0.80030186  1
  Rh  Rh216  1  -0.00182909  0.80536445  0.59450546  1
  Rh  Rh217  1  -0.01056886  0.20296825  0.19780683  1
  Rh  Rh218  1  0.38978561  0.20108493  0.00642195  1
  Rh  Rh219  1  0.20792534  0.79463714  0.40577387  1
  Rh  Rh220  1  0.40433629  0.38550174  0.21103310  1
  Rh  Rh221  1  -0.00190421  -0.00794421  0.40289004  1
  Rh  Rh222  1  0.39197108  0.40668501  0.79869231  1
  Rh  Rh223  1  -0.00313082  -0.00269312  0.59585453  1
  Rh  Rh224  1  0.40319581  0.40336528  -0.00275864  1
  Rh  Rh225  1  0.40262097  0.19045017  0.79964287  1
  Rh  Rh226  1  0.20100020  0.00577927  0.59763875  1
  Rh  Rh227  1  0.78952768  0.00811545  0.21528130  1
  Rh  Rh228  1  0.19355361  0.60237351  0.59292482  1
  Rh  Rh229  1  0.19335908  0.60333078  0.00026924  1
  Rh  Rh230  1  0.40469535  0.60102610  0.59870771  1
  Rh  Rh231  1  0.00184172  0.39369301  0.00602524  1
  Rh  Rh232  1  0.60142542  0.19929984  0.40767665  1
  Rh  Rh233  1  0.59670911  0.40195869  0.40932640  1
  Rh  Rh234  1  0.80000150  0.00459233  0.39921546  1
  Rh  Rh235  1  0.80294265  0.59910335  0.80735829  1
  Rh  Rh236  1  0.20124306  0.80161891  0.79265335  1
  Rh  Rh237  1  0.21429529  0.19307506  0.19515087  1
  Rh  Rh238  1  -0.00115853  0.60491853  0.59744312  1
  Rh  Rh239  1  0.80450516  0.39884449  0.59597326  1
  Rh  Rh240  1  0.00653158  0.19842904  0.41161902  1
  Rh  Rh241  1  0.19752488  0.39451613  -0.00070085  1
  Rh  Rh242  1  0.40121821  -0.00146084  0.39695745  1
  Rh  Rh243  1  0.40625364  0.20701832  0.39439289  1
  Rh  Rh244  1  0.79597199  0.19347155  0.39557464  1
  Rh  Rh245  1  0.20078598  0.19385198  0.80156231  1
  Rh  Rh246  1  0.81139031  0.80728362  0.39799338  1
  Rh  Rh247  1  0.39782680  0.59922854  -0.00231933  1
  Rh  Rh248  1  0.79991923  0.80247247  0.59683877  1
  Rh  Rh249  1  0.80379967  -0.00068886  0.60198222  1
