# generated using pymatgen
data_ZrScNbPdRh
_symmetry_space_group_name_H-M   'P 1'
_cell_length_a   16.55356536
_cell_length_b   16.55475971
_cell_length_c   16.55299816
_cell_angle_alpha   90.01640887
_cell_angle_beta   89.99676350
_cell_angle_gamma   89.96971973
_symmetry_Int_Tables_number   1
_chemical_formula_structural   ZrScNbPdRh
_chemical_formula_sum   'Zr50 Sc50 Nb50 Pd50 Rh50'
_cell_volume   4536.18770011
_cell_formula_units_Z   50
loop_
 _symmetry_equiv_pos_site_id
 _symmetry_equiv_pos_as_xyz
  1  'x, y, z'
loop_
 _atom_site_type_symbol
 _atom_site_label
 _atom_site_symmetry_multiplicity
 _atom_site_fract_x
 _atom_site_fract_y
 _atom_site_fract_z
 _atom_site_occupancy
  Zr  Zr0  1  0.89300791  0.69623428  0.68656209  1
  Zr  Zr1  1  0.50097096  0.30384938  0.70137388  1
  Zr  Zr2  1  0.69715998  0.09222783  0.69372963  1
  Zr  Zr3  1  0.09685386  0.90672605  0.70912320  1
  Zr  Zr4  1  0.29661040  0.90563937  0.70317351  1
  Zr  Zr5  1  0.29829700  0.90429491  0.90216157  1
  Zr  Zr6  1  0.49529754  0.09509546  0.49835523  1
  Zr  Zr7  1  0.91452729  0.29869762  0.08734407  1
  Zr  Zr8  1  0.49114903  0.50116109  0.09863488  1
  Zr  Zr9  1  0.10171154  0.10243419  0.49822374  1
  Zr  Zr10  1  0.70131360  0.89797828  0.90025989  1
  Zr  Zr11  1  0.50270258  0.49980265  0.89712154  1
  Zr  Zr12  1  0.30321968  0.49532879  0.50259777  1
  Zr  Zr13  1  0.30177615  0.10256262  0.30340825  1
  Zr  Zr14  1  0.30301799  0.69703579  0.69493044  1
  Zr  Zr15  1  0.90123928  0.30012471  0.30439820  1
  Zr  Zr16  1  0.09818089  0.11233269  0.09574063  1
  Zr  Zr17  1  0.89948147  0.70401680  0.31298164  1
  Zr  Zr18  1  0.50022138  0.89882257  0.50047032  1
  Zr  Zr19  1  0.90138756  0.29890286  0.88797366  1
  Zr  Zr20  1  0.49202504  0.89558472  0.11277075  1
  Zr  Zr21  1  0.50029681  0.09857718  0.30181028  1
  Zr  Zr22  1  0.50113600  0.90241830  0.30664559  1
  Zr  Zr23  1  0.70608759  0.50879236  0.09989296  1
  Zr  Zr24  1  0.70352869  0.69727277  0.30347166  1
  Zr  Zr25  1  0.69730538  0.10064037  0.49753827  1
  Zr  Zr26  1  0.10030623  0.49767231  0.50575235  1
  Zr  Zr27  1  0.50129091  0.68962176  0.89567412  1
  Zr  Zr28  1  0.68978988  0.09919374  0.89795411  1
  Zr  Zr29  1  0.30002802  0.29112425  0.49243490  1
  Zr  Zr30  1  0.10274662  0.30490594  0.49006594  1
  Zr  Zr31  1  0.70236648  0.70486948  0.10136979  1
  Zr  Zr32  1  0.90487802  0.10497518  0.70640636  1
  Zr  Zr33  1  0.49957209  0.50031081  0.69922903  1
  Zr  Zr34  1  0.69958708  0.10013156  0.30157693  1
  Zr  Zr35  1  0.50242983  0.29398868  0.09716607  1
  Zr  Zr36  1  0.70302559  0.29719000  0.50716046  1
  Zr  Zr37  1  0.89778833  0.89198420  0.69230932  1
  Zr  Zr38  1  0.29494361  0.49186330  0.09859377  1
  Zr  Zr39  1  0.10713282  0.69600151  0.08933310  1
  Zr  Zr40  1  0.30839815  0.90883551  0.29110301  1
  Zr  Zr41  1  0.29568323  0.09945048  0.10147827  1
  Zr  Zr42  1  0.49448601  0.10389669  0.70674056  1
  Zr  Zr43  1  0.11046186  0.50165872  0.70692781  1
  Zr  Zr44  1  0.49718957  0.10808003  0.89883614  1
  Zr  Zr45  1  0.70410197  0.90122081  0.10270231  1
  Zr  Zr46  1  0.90178516  0.50687582  0.08982434  1
  Zr  Zr47  1  0.89657311  0.29697210  0.70106303  1
  Zr  Zr48  1  0.10188938  0.09461214  0.29347815  1
  Zr  Zr49  1  0.90354288  0.09276193  0.29736534  1
  Sc  Sc50  1  0.10597091  0.70320339  0.29781344  1
  Sc  Sc51  1  0.50319878  0.50085624  0.49942389  1
  Sc  Sc52  1  0.29996314  0.29944220  0.90266800  1
  Sc  Sc53  1  0.50005939  0.10300178  0.09044781  1
  Sc  Sc54  1  0.70559210  0.68780467  0.50345411  1
  Sc  Sc55  1  0.10377503  0.49686905  0.30887994  1
  Sc  Sc56  1  0.90512390  0.50305410  0.30728424  1
  Sc  Sc57  1  0.90623827  0.89806656  0.29791571  1
  Sc  Sc58  1  0.09640512  0.30099602  0.90499389  1
  Sc  Sc59  1  0.90456627  0.09211142  0.09578715  1
  Sc  Sc60  1  0.89706322  0.89847151  0.09615314  1
  Sc  Sc61  1  0.49808120  0.90718150  0.70004493  1
  Sc  Sc62  1  0.30421945  0.30230572  0.69759761  1
  Sc  Sc63  1  0.31026725  0.09992828  0.90111833  1
  Sc  Sc64  1  0.29306845  0.68905371  0.90888189  1
  Sc  Sc65  1  0.09570755  0.09282711  0.69704920  1
  Sc  Sc66  1  0.30915341  0.49884152  0.29792666  1
  Sc  Sc67  1  0.70496731  0.89020627  0.30070677  1
  Sc  Sc68  1  0.09513134  0.90166635  0.50251903  1
  Sc  Sc69  1  0.09715541  0.89196370  0.09614082  1
  Sc  Sc70  1  0.49598958  0.69780822  0.10696150  1
  Sc  Sc71  1  0.90886555  0.89831494  0.90680698  1
  Sc  Sc72  1  0.69346831  0.10149965  0.09836779  1
  Sc  Sc73  1  0.29751897  0.90114878  0.10247077  1
  Sc  Sc74  1  0.09600849  0.69389599  0.70142198  1
  Sc  Sc75  1  0.89571534  0.70219783  0.09430379  1
  Sc  Sc76  1  0.49710139  0.91849312  0.89488396  1
  Sc  Sc77  1  0.30223786  0.89412699  0.50913422  1
  Sc  Sc78  1  0.29912924  0.70048481  0.30222558  1
  Sc  Sc79  1  0.69945362  0.30708243  0.70488328  1
  Sc  Sc80  1  0.48746587  0.30706211  0.50458093  1
  Sc  Sc81  1  0.89572160  0.10761223  0.50804687  1
  Sc  Sc82  1  0.69688408  0.90623647  0.50790953  1
  Sc  Sc83  1  0.50054313  0.29470142  0.89371457  1
  Sc  Sc84  1  0.10491500  0.70046097  0.49718874  1
  Sc  Sc85  1  0.10894711  0.30096305  0.29571064  1
  Sc  Sc86  1  0.30505112  0.70005722  0.50042933  1
  Sc  Sc87  1  0.09701794  0.30543542  0.70417386  1
  Sc  Sc88  1  0.69294595  0.49860038  0.68871192  1
  Sc  Sc89  1  0.89933155  0.30041121  0.50444443  1
  Sc  Sc90  1  0.91044375  0.49944919  0.69745298  1
  Sc  Sc91  1  0.29880526  0.69270889  0.10223648  1
  Sc  Sc92  1  0.69228430  0.28959917  0.30421002  1
  Sc  Sc93  1  0.90501275  0.50882617  0.50409811  1
  Sc  Sc94  1  0.49526205  0.30088228  0.30520085  1
  Sc  Sc95  1  0.09945980  0.90101211  0.29777023  1
  Sc  Sc96  1  0.49932392  0.71143037  0.30716706  1
  Sc  Sc97  1  0.69741166  0.69943350  0.89743662  1
  Sc  Sc98  1  0.90540652  0.70131245  0.90341841  1
  Sc  Sc99  1  0.29705081  0.49801145  0.89544769  1
  Nb  Nb100  1  0.69907637  0.30452887  0.89872939  1
  Nb  Nb101  1  0.69679776  0.49937450  0.30590128  1
  Nb  Nb102  1  0.10970631  0.30664990  0.09833153  1
  Nb  Nb103  1  0.70078682  0.89577508  0.70479703  1
  Nb  Nb104  1  0.29897032  0.10637858  0.50282171  1
  Nb  Nb105  1  0.50725263  0.49703091  0.30134590  1
  Nb  Nb106  1  0.10456612  0.70426784  0.90272162  1
  Nb  Nb107  1  0.69757660  0.69996537  0.70438766  1
  Nb  Nb108  1  0.29980857  0.29927959  0.29679684  1
  Nb  Nb109  1  0.28885338  0.29926472  0.10232794  1
  Nb  Nb110  1  0.70136274  0.50297683  0.89993150  1
  Nb  Nb111  1  0.70101641  0.29949753  0.09974398  1
  Nb  Nb112  1  0.89975690  0.89234264  0.49223377  1
  Nb  Nb113  1  0.90396542  0.10108910  0.89713307  1
  Nb  Nb114  1  0.09544061  0.51513497  0.90111971  1
  Nb  Nb115  1  0.10119747  0.89707621  0.90009962  1
  Nb  Nb116  1  0.49914556  0.70545371  0.51389511  1
  Nb  Nb117  1  0.90153715  0.70561376  0.50269254  1
  Nb  Nb118  1  0.09765660  0.49463807  0.09558258  1
  Nb  Nb119  1  0.50473516  0.69508923  0.70155277  1
  Nb  Nb120  1  0.69523421  0.49731115  0.49709000  1
  Nb  Nb121  1  0.89975787  0.50193811  0.90100795  1
  Nb  Nb122  1  0.29570743  0.10366330  0.69686441  1
  Nb  Nb123  1  0.08997277  0.08663658  0.88989121  1
  Nb  Nb124  1  0.29409143  0.49785484  0.70253347  1
  Nb  Nb125  1  0.59193848  0.80196123  -0.00073445  1
  Nb  Nb126  1  0.79273565  0.40343961  0.39927286  1
  Nb  Nb127  1  0.59597503  0.19824921  0.60171035  1
  Nb  Nb128  1  0.79820109  0.59781889  0.79691246  1
  Nb  Nb129  1  0.19094823  0.00258044  -0.00596509  1
  Nb  Nb130  1  0.39281065  0.20489855  0.19859620  1
  Nb  Nb131  1  0.80117493  -0.00380699  0.79839743  1
  Nb  Nb132  1  0.79835332  0.39871347  -0.00447554  1
  Nb  Nb133  1  0.19894925  0.19106888  0.79880983  1
  Nb  Nb134  1  0.39755142  0.79496810  0.80202943  1
  Nb  Nb135  1  0.79915160  0.20439066  -0.00440964  1
  Nb  Nb136  1  0.00222474  0.40342904  0.19238332  1
  Nb  Nb137  1  0.60159255  0.79426190  0.61075310  1
  Nb  Nb138  1  0.19940343  0.79811631  0.80525683  1
  Nb  Nb139  1  0.60455112  0.40434939  0.19942239  1
  Nb  Nb140  1  0.60777608  0.40163237  0.00042323  1
  Nb  Nb141  1  0.20587052  0.00423796  0.40294849  1
  Nb  Nb142  1  0.00345040  0.19740736  0.39718654  1
  Nb  Nb143  1  0.79982874  0.39798016  0.19937782  1
  Nb  Nb144  1  0.80209629  0.20511862  0.19180788  1
  Nb  Nb145  1  0.80581961  -0.00313491  0.40348585  1
  Nb  Nb146  1  0.59961146  -0.00285508  0.20340566  1
  Nb  Nb147  1  0.60071500  0.59467281  0.20883227  1
  Nb  Nb148  1  0.00380604  0.59661753  0.19529783  1
  Nb  Nb149  1  0.40353501  0.79861679  -0.00652493  1
  Pd  Pd150  1  0.19407475  0.20778986  0.60926015  1
  Pd  Pd151  1  0.20376618  0.81250243  0.39786267  1
  Pd  Pd152  1  0.59886558  0.60366343  0.00871491  1
  Pd  Pd153  1  0.60960126  0.79633102  0.41598049  1
  Pd  Pd154  1  0.79795653  0.41220575  0.79780536  1
  Pd  Pd155  1  0.19714492  0.19310371  -0.01459336  1
  Pd  Pd156  1  0.59330136  -0.00810828  0.00930922  1
  Pd  Pd157  1  0.39236052  0.80131659  0.40208917  1
  Pd  Pd158  1  0.00059153  0.79436100  0.79956148  1
  Pd  Pd159  1  0.80358360  0.59321865  0.40619688  1
  Pd  Pd160  1  -0.00813349  -0.00026241  0.59409529  1
  Pd  Pd161  1  0.00029146  0.39847669  0.60066162  1
  Pd  Pd162  1  0.60071851  0.39131987  0.40199398  1
  Pd  Pd163  1  0.80249330  0.00825061  -0.00769169  1
  Pd  Pd164  1  0.78965440  0.19272809  0.80052227  1
  Pd  Pd165  1  -0.00286176  0.79000916  0.19531688  1
  Pd  Pd166  1  0.19957084  -0.00097036  0.59214288  1
  Pd  Pd167  1  0.39150383  0.59990245  0.79978012  1
  Pd  Pd168  1  0.20386603  0.80179792  0.19882998  1
  Pd  Pd169  1  0.78849929  0.79887145  0.59059414  1
  Pd  Pd170  1  0.39525179  0.39757557  0.80072491  1
  Pd  Pd171  1  0.58856042  0.80668904  0.80200181  1
  Pd  Pd172  1  0.00690824  0.40485752  0.80497346  1
  Pd  Pd173  1  0.00923339  0.79573475  0.59767562  1
  Pd  Pd174  1  0.00747165  0.20655338  0.59677443  1
  Pd  Pd175  1  0.40785209  0.60132609  0.40116177  1
  Pd  Pd176  1  0.81047623  0.80007432  0.20249652  1
  Pd  Pd177  1  0.20455973  0.39123950  0.60279348  1
  Pd  Pd178  1  0.40587770  0.60494879  0.21054391  1
  Pd  Pd179  1  0.40384748  0.39349435  -0.00508879  1
  Pd  Pd180  1  -0.00671514  0.60590946  0.79944259  1
  Pd  Pd181  1  0.59138054  0.60880201  0.40178317  1
  Pd  Pd182  1  0.58751216  0.20932520  0.41187916  1
  Pd  Pd183  1  0.19512400  0.59175564  0.20322435  1
  Pd  Pd184  1  0.40168064  0.59402868  0.59871105  1
  Pd  Pd185  1  0.00953271  0.79932302  0.40027306  1
  Pd  Pd186  1  0.80732616  -0.00213545  0.59905627  1
  Pd  Pd187  1  0.19517058  0.40497295  -0.01284409  1
  Pd  Pd188  1  0.00798182  0.60457643  0.39910201  1
  Pd  Pd189  1  0.40425513  0.39298025  0.20176896  1
  Pd  Pd190  1  0.20013456  0.60286086  0.59633959  1
  Pd  Pd191  1  0.00372252  -0.00748529  0.18785257  1
  Pd  Pd192  1  0.20331965  0.59797841  0.40072699  1
  Pd  Pd193  1  0.39732398  0.00239436  0.60100326  1
  Pd  Pd194  1  -0.00004844  0.20803665  0.20261205  1
  Pd  Pd195  1  0.21007720  0.40468102  0.39406670  1
  Pd  Pd196  1  0.80667662  0.59745997  0.20966278  1
  Pd  Pd197  1  0.19123533  0.79885562  0.60790074  1
  Pd  Pd198  1  0.80827314  0.79718272  0.80605355  1
  Pd  Pd199  1  0.80336088  0.40850561  0.59531988  1
  Rh  Rh200  1  0.79305664  0.00485308  0.20621127  1
  Rh  Rh201  1  0.79646510  0.80417714  0.40682623  1
  Rh  Rh202  1  0.40967355  0.79952903  0.61183009  1
  Rh  Rh203  1  0.39298586  0.20750293  0.00746857  1
  Rh  Rh204  1  0.39393551  0.00440339  0.79498717  1
  Rh  Rh205  1  -0.00314820  0.00430776  0.40850546  1
  Rh  Rh206  1  0.19464491  0.19488046  0.39276554  1
  Rh  Rh207  1  0.39107947  0.79097551  0.19753704  1
  Rh  Rh208  1  0.59629906  0.19618790  0.20036162  1
  Rh  Rh209  1  0.79665053  0.59412866  0.60271343  1
  Rh  Rh210  1  0.01223726  0.20069411  0.80047235  1
  Rh  Rh211  1  0.60378384  0.20304454  0.79275825  1
  Rh  Rh212  1  0.79128042  0.20301694  0.61235032  1
  Rh  Rh213  1  0.60964562  0.59132446  0.79272356  1
  Rh  Rh214  1  0.19649683  0.40533998  0.20343564  1
  Rh  Rh215  1  0.19092059  -0.00497853  0.19436725  1
  Rh  Rh216  1  0.20319941  0.20323779  0.20330148  1
  Rh  Rh217  1  0.59587628  0.39395035  0.59454804  1
  Rh  Rh218  1  0.41024124  0.01490272  0.19257184  1
  Rh  Rh219  1  0.59381430  -0.00208364  0.60499978  1
  Rh  Rh220  1  0.00280142  0.60563338  0.00006740  1
  Rh  Rh221  1  0.60415936  0.20733210  -0.00822549  1
  Rh  Rh222  1  0.39415465  0.59993355  0.00142006  1
  Rh  Rh223  1  0.40436308  0.19880898  0.60140754  1
  Rh  Rh224  1  0.60208048  0.79797802  0.19475011  1
  Rh  Rh225  1  0.61315240  -0.00955073  0.39207916  1
  Rh  Rh226  1  -0.01400129  -0.00859318  0.79923881  1
  Rh  Rh227  1  0.38750087  -0.00394005  0.41281193  1
  Rh  Rh228  1  0.00031725  0.19448578  -0.01109692  1
  Rh  Rh229  1  0.39681484  0.40333493  0.39826053  1
  Rh  Rh230  1  0.40129829  0.20168883  0.39608824  1
  Rh  Rh231  1  -0.00612733  0.39490576  0.39971870  1
  Rh  Rh232  1  0.20714876  0.80631075  -0.00310634  1
  Rh  Rh233  1  0.60543534  -0.00330028  0.79499123  1
  Rh  Rh234  1  0.60143210  0.40562131  0.80450632  1
  Rh  Rh235  1  0.39413328  -0.00445369  0.00671334  1
  Rh  Rh236  1  0.20075250  0.58931100  0.00061959  1
  Rh  Rh237  1  0.00695782  0.60393958  0.59560749  1
  Rh  Rh238  1  0.00140832  0.79679830  0.00316595  1
  Rh  Rh239  1  0.81132122  0.19457922  0.39134584  1
  Rh  Rh240  1  0.39561232  0.40648831  0.60300066  1
  Rh  Rh241  1  0.20465245  0.00463112  0.80582019  1
  Rh  Rh242  1  0.00510385  -0.00003783  0.00224982  1
  Rh  Rh243  1  0.19909466  0.39478209  0.80318915  1
  Rh  Rh244  1  0.59959692  0.60346902  0.59892246  1
  Rh  Rh245  1  0.79419034  0.79821674  -0.00412610  1
  Rh  Rh246  1  0.00198216  0.40583502  -0.00623389  1
  Rh  Rh247  1  0.20129184  0.60521732  0.80142301  1
  Rh  Rh248  1  0.38802625  0.20217360  0.79675061  1
  Rh  Rh249  1  0.80097046  0.60457323  -0.01510581  1
