# generated using pymatgen
data_ZrScNbPdRh
_symmetry_space_group_name_H-M   'P 1'
_cell_length_a   16.55896209
_cell_length_b   16.56249566
_cell_length_c   16.55990286
_cell_angle_alpha   90.01791580
_cell_angle_beta   90.00117672
_cell_angle_gamma   89.98989634
_symmetry_Int_Tables_number   1
_chemical_formula_structural   ZrScNbPdRh
_chemical_formula_sum   'Zr50 Sc50 Nb50 Pd50 Rh50'
_cell_volume   4541.68120404
_cell_formula_units_Z   50
loop_
 _symmetry_equiv_pos_site_id
 _symmetry_equiv_pos_as_xyz
  1  'x, y, z'
loop_
 _atom_site_type_symbol
 _atom_site_label
 _atom_site_symmetry_multiplicity
 _atom_site_fract_x
 _atom_site_fract_y
 _atom_site_fract_z
 _atom_site_occupancy
  Zr  Zr0  1  0.69538950  0.29062544  0.10832575  1
  Zr  Zr1  1  0.88731323  0.30017689  0.49984884  1
  Zr  Zr2  1  0.09439424  0.29534516  0.50577807  1
  Zr  Zr3  1  0.89310429  0.70094018  0.09272934  1
  Zr  Zr4  1  0.29595416  0.69796067  0.50354063  1
  Zr  Zr5  1  0.49766127  0.90188494  0.89711666  1
  Zr  Zr6  1  0.90151463  0.90243259  0.70644477  1
  Zr  Zr7  1  0.29933578  0.09811931  0.10839955  1
  Zr  Zr8  1  0.29998668  0.50400468  0.70466750  1
  Zr  Zr9  1  0.69677185  0.50966970  0.90342302  1
  Zr  Zr10  1  0.10585669  0.70325340  0.50395706  1
  Zr  Zr11  1  0.89846920  0.70310016  0.49974596  1
  Zr  Zr12  1  0.69364530  0.09028093  0.69770215  1
  Zr  Zr13  1  0.50032503  0.10941560  0.50514511  1
  Zr  Zr14  1  0.89277006  0.10141233  0.10430788  1
  Zr  Zr15  1  0.30016696  0.90105502  0.10282230  1
  Zr  Zr16  1  0.89675731  0.09498080  0.69407883  1
  Zr  Zr17  1  0.31281561  0.10217206  0.90182931  1
  Zr  Zr18  1  0.30196156  0.49605513  0.29203047  1
  Zr  Zr19  1  0.90235646  0.09283534  0.90472583  1
  Zr  Zr20  1  0.90239494  0.91425738  0.50620788  1
  Zr  Zr21  1  0.31252357  0.89874102  0.71098524  1
  Zr  Zr22  1  0.10199725  0.89570032  0.50238216  1
  Zr  Zr23  1  0.89958998  0.30036761  0.90505926  1
  Zr  Zr24  1  0.30427325  0.09588151  0.50037842  1
  Zr  Zr25  1  0.69311406  0.49703461  0.29649781  1
  Zr  Zr26  1  0.70452106  0.30021973  0.69692396  1
  Zr  Zr27  1  0.50023176  0.48505158  0.50122089  1
  Zr  Zr28  1  0.10565776  0.29707926  0.29968135  1
  Zr  Zr29  1  0.09957838  0.50590355  0.08927137  1
  Zr  Zr30  1  0.70240929  0.10217028  0.49632023  1
  Zr  Zr31  1  0.09921523  0.09642630  0.30300926  1
  Zr  Zr32  1  0.29633158  0.69315790  0.09695259  1
  Zr  Zr33  1  0.69721692  0.90024720  0.89992713  1
  Zr  Zr34  1  0.69760594  0.30291781  0.89820953  1
  Zr  Zr35  1  0.70186001  0.09626937  0.09326327  1
  Zr  Zr36  1  0.89485070  0.49324748  0.70085532  1
  Zr  Zr37  1  0.49587782  0.90078603  0.30246388  1
  Zr  Zr38  1  0.10079235  0.10313592  0.49974100  1
  Zr  Zr39  1  0.10477487  0.69808488  0.70516297  1
  Zr  Zr40  1  0.49968831  0.49644751  0.90418210  1
  Zr  Zr41  1  0.49640573  0.70599405  0.50053608  1
  Zr  Zr42  1  0.90238310  0.29977085  0.69863320  1
  Zr  Zr43  1  0.10446563  0.50056412  0.50496704  1
  Zr  Zr44  1  0.50610091  0.30476755  0.68783950  1
  Zr  Zr45  1  0.49604764  0.70212988  0.30415887  1
  Zr  Zr46  1  0.09818451  0.30342717  0.90691557  1
  Zr  Zr47  1  0.89898471  0.70731653  0.71031410  1
  Zr  Zr48  1  0.29410977  0.90927416  0.29885794  1
  Zr  Zr49  1  0.90278348  0.10405921  0.49223021  1
  Sc  Sc50  1  0.10986246  0.69796817  0.90344003  1
  Sc  Sc51  1  0.89013033  0.50288219  0.30024843  1
  Sc  Sc52  1  0.30820961  0.09994056  0.69220258  1
  Sc  Sc53  1  0.09822273  0.30752758  0.10177129  1
  Sc  Sc54  1  0.90381459  0.89868805  0.10210869  1
  Sc  Sc55  1  0.30131098  0.29547936  0.70080494  1
  Sc  Sc56  1  0.50757137  0.69981542  0.90468844  1
  Sc  Sc57  1  0.50073263  0.31109100  0.09518532  1
  Sc  Sc58  1  0.09023608  0.89729262  0.89873680  1
  Sc  Sc59  1  0.29331702  0.09805760  0.30054410  1
  Sc  Sc60  1  0.09805413  0.69659617  0.10194059  1
  Sc  Sc61  1  0.69945578  0.70046225  0.09030257  1
  Sc  Sc62  1  0.29967499  0.89775608  0.50274892  1
  Sc  Sc63  1  0.90484246  0.50798094  0.10461571  1
  Sc  Sc64  1  0.69097181  0.71186820  0.49515928  1
  Sc  Sc65  1  0.29633375  0.49777213  0.49726761  1
  Sc  Sc66  1  0.31284169  0.49845704  0.09884693  1
  Sc  Sc67  1  0.70604642  0.48906181  0.48632661  1
  Sc  Sc68  1  0.10266259  0.49581542  0.69749153  1
  Sc  Sc69  1  0.30912716  0.30257351  0.49181439  1
  Sc  Sc70  1  0.29854365  0.70156271  0.70921769  1
  Sc  Sc71  1  0.30567217  0.89220085  0.90091713  1
  Sc  Sc72  1  0.49973488  0.89219566  0.50170610  1
  Sc  Sc73  1  0.50306359  0.69541929  0.09676621  1
  Sc  Sc74  1  0.50490349  0.90215548  0.69740477  1
  Sc  Sc75  1  0.69927204  0.70470838  0.29546317  1
  Sc  Sc76  1  0.49528707  0.09571784  0.09452820  1
  Sc  Sc77  1  0.29873426  0.69111320  0.30239679  1
  Sc  Sc78  1  0.09842901  0.50040801  0.28655335  1
  Sc  Sc79  1  0.69828779  0.49712363  0.71336447  1
  Sc  Sc80  1  0.09712024  0.89406318  0.10690663  1
  Sc  Sc81  1  0.70545498  0.10612959  0.29144794  1
  Sc  Sc82  1  0.89957749  0.89338720  0.89756133  1
  Sc  Sc83  1  0.50142675  0.71187311  0.70090200  1
  Sc  Sc84  1  0.69921933  0.89759262  0.09796051  1
  Sc  Sc85  1  0.10673667  0.69968141  0.29453616  1
  Sc  Sc86  1  0.49399320  0.49960648  0.28550941  1
  Sc  Sc87  1  0.48920320  0.09766525  0.30183956  1
  Sc  Sc88  1  0.50797134  0.90087664  0.09510367  1
  Sc  Sc89  1  0.09668125  0.09833264  0.10642178  1
  Sc  Sc90  1  0.89967692  0.29550620  0.09767006  1
  Sc  Sc91  1  0.89418548  0.69386756  0.28829649  1
  Sc  Sc92  1  0.30202231  0.69876469  0.89864215  1
  Sc  Sc93  1  0.69687660  0.90433771  0.29490752  1
  Sc  Sc94  1  0.09623335  0.88983321  0.70580315  1
  Sc  Sc95  1  0.89602648  0.49972373  0.90565136  1
  Sc  Sc96  1  0.31078367  0.30473977  0.90724449  1
  Sc  Sc97  1  0.11189249  0.11347000  0.69404890  1
  Sc  Sc98  1  0.69416733  0.90581436  0.50168344  1
  Sc  Sc99  1  0.30336235  0.50664333  0.90344891  1
  Nb  Nb100  1  0.49875237  0.29561003  0.90066181  1
  Nb  Nb101  1  0.09411154  0.89981455  0.29987518  1
  Nb  Nb102  1  0.50598307  0.09884683  0.89665747  1
  Nb  Nb103  1  0.50378027  0.29785098  0.30393712  1
  Nb  Nb104  1  0.50788125  0.50245934  0.09629575  1
  Nb  Nb105  1  0.70215619  0.09790003  0.89918381  1
  Nb  Nb106  1  0.09833953  0.29937265  0.70428977  1
  Nb  Nb107  1  0.09947292  0.49840506  0.90131304  1
  Nb  Nb108  1  0.50177504  0.10352544  0.69873824  1
  Nb  Nb109  1  0.51242635  0.29472964  0.49280835  1
  Nb  Nb110  1  0.70142946  0.89700807  0.69616843  1
  Nb  Nb111  1  0.90694415  0.91417429  0.30659516  1
  Nb  Nb112  1  0.30057741  0.30376227  0.28591841  1
  Nb  Nb113  1  0.70363180  0.69973249  0.70266537  1
  Nb  Nb114  1  0.88418314  0.69733719  0.89986168  1
  Nb  Nb115  1  0.30298922  0.29610370  0.10004133  1
  Nb  Nb116  1  0.89935867  0.50256317  0.49714086  1
  Nb  Nb117  1  0.10396875  0.10275265  0.90126075  1
  Nb  Nb118  1  0.69623898  0.29980508  0.30586311  1
  Nb  Nb119  1  0.49846142  0.50260015  0.69754126  1
  Nb  Nb120  1  0.90232814  0.09722902  0.30612264  1
  Nb  Nb121  1  0.68318688  0.49130115  0.09923034  1
  Nb  Nb122  1  0.68691447  0.29680147  0.48631337  1
  Nb  Nb123  1  0.71358933  0.69973393  0.89598694  1
  Nb  Nb124  1  0.89691949  0.29559732  0.30357932  1
  Nb  Nb125  1  0.79841507  0.80057228  0.60215396  1
  Nb  Nb126  1  0.59633918  0.00445887  0.40042523  1
  Nb  Nb127  1  0.78974818  0.40210506  0.01107388  1
  Nb  Nb128  1  0.80179327  0.19325201  0.80370111  1
  Nb  Nb129  1  0.40698355  0.59664646  0.60187944  1
  Nb  Nb130  1  0.80846624  0.81092140  0.39957082  1
  Nb  Nb131  1  -0.00101008  0.59962103  0.40458526  1
  Nb  Nb132  1  0.59693537  0.19613416  -0.00951561  1
  Nb  Nb133  1  0.00103504  0.20045434  0.80173639  1
  Nb  Nb134  1  0.20424424  0.19702678  0.00188328  1
  Nb  Nb135  1  0.60099949  0.59834875  0.59952278  1
  Nb  Nb136  1  -0.00522631  0.19801032  0.20994843  1
  Nb  Nb137  1  0.19591681  0.39653428  0.80429547  1
  Nb  Nb138  1  -0.00697684  0.60034598  0.60136857  1
  Nb  Nb139  1  -0.00117479  0.59852637  0.80151473  1
  Nb  Nb140  1  0.41442247  0.19870273  0.80018017  1
  Nb  Nb141  1  -0.00281796  0.80139727  0.39567292  1
  Nb  Nb142  1  0.39796646  0.80029974  0.19980381  1
  Nb  Nb143  1  0.39683385  0.20947226  0.19946769  1
  Nb  Nb144  1  -0.00431748  0.40251176  0.40128511  1
  Nb  Nb145  1  0.19900743  0.00401818  -0.00503877  1
  Nb  Nb146  1  0.79145717  0.39400329  0.20040651  1
  Nb  Nb147  1  0.79511319  0.60322897  0.60039613  1
  Nb  Nb148  1  0.20238418  0.00575929  0.80717186  1
  Nb  Nb149  1  0.59344926  0.59881211  0.40347500  1
  Pd  Pd150  1  0.20672106  0.39180441  0.60632618  1
  Pd  Pd151  1  0.19583298  0.80683159  -0.00287067  1
  Pd  Pd152  1  -0.00663055  0.79474720  0.20641527  1
  Pd  Pd153  1  0.40953483  0.60796188  0.79836256  1
  Pd  Pd154  1  0.60247765  0.20114830  0.79897867  1
  Pd  Pd155  1  0.20634193  0.79717826  0.20433044  1
  Pd  Pd156  1  0.39917754  -0.00439906  0.00116409  1
  Pd  Pd157  1  0.60053679  0.60866971  0.20299995  1
  Pd  Pd158  1  0.38504959  0.80411033  0.39523996  1
  Pd  Pd159  1  0.80135290  -0.00534313  0.20183271  1
  Pd  Pd160  1  0.39738131  0.39362723  0.79894108  1
  Pd  Pd161  1  0.00538141  -0.00290008  0.00781608  1
  Pd  Pd162  1  0.59854638  -0.00514804  0.79805858  1
  Pd  Pd163  1  0.79142908  0.61135659  0.40379678  1
  Pd  Pd164  1  0.20908667  0.80620492  0.61199166  1
  Pd  Pd165  1  0.40348576  0.59084479  0.40743771  1
  Pd  Pd166  1  0.20959578  0.20337943  0.40194260  1
  Pd  Pd167  1  0.21103980  0.20834112  0.59308907  1
  Pd  Pd168  1  0.80387401  -0.01132237  -0.00061647  1
  Pd  Pd169  1  0.20675004  0.20358917  0.80869873  1
  Pd  Pd170  1  0.78808241  0.59216281  0.18899042  1
  Pd  Pd171  1  -0.00058210  0.79169155  -0.00304928  1
  Pd  Pd172  1  0.01413317  0.01180248  0.79113606  1
  Pd  Pd173  1  0.20063743  0.40581441  0.18693028  1
  Pd  Pd174  1  0.19310584  0.59375732  0.39209508  1
  Pd  Pd175  1  0.59521299  0.40109519  0.80167588  1
  Pd  Pd176  1  0.39279628  0.39897868  0.60022759  1
  Pd  Pd177  1  0.01400772  0.00556666  0.60926834  1
  Pd  Pd178  1  0.59487132  0.00739363  0.20412167  1
  Pd  Pd179  1  0.19436989  0.40131273  0.39734095  1
  Pd  Pd180  1  -0.00296741  0.60722241  -0.01051084  1
  Pd  Pd181  1  0.19794873  -0.00767703  0.61398433  1
  Pd  Pd182  1  0.20960126  0.39970008  -0.00092796  1
  Pd  Pd183  1  0.60273844  0.79748940  0.80239431  1
  Pd  Pd184  1  0.39387870  0.20230952  0.39123187  1
  Pd  Pd185  1  0.58529930  0.19404421  0.19542801  1
  Pd  Pd186  1  0.40471650  0.79568031  0.00609020  1
  Pd  Pd187  1  0.00746114  0.19780166  0.00742107  1
  Pd  Pd188  1  0.59400254  0.79689754  0.19611819  1
  Pd  Pd189  1  0.40418543  0.39797333  0.39223626  1
  Pd  Pd190  1  -0.00145462  0.40242786  0.59397316  1
  Pd  Pd191  1  0.00388341  0.40198073  0.80316137  1
  Pd  Pd192  1  0.19714475  -0.00288036  0.40445041  1
  Pd  Pd193  1  0.78960949  0.40563250  0.59527737  1
  Pd  Pd194  1  0.40855683  -0.00586651  0.59696936  1
  Pd  Pd195  1  -0.01167883  0.39587589  0.20462988  1
  Pd  Pd196  1  0.59404211  0.60555006  0.79551685  1
  Pd  Pd197  1  0.80490459  0.80956024  0.20504190  1
  Pd  Pd198  1  0.61395738  0.40765904  0.59861123  1
  Pd  Pd199  1  0.79389920  0.19784818  0.60075208  1
  Rh  Rh200  1  0.19275963  0.58914788  0.80356326  1
  Rh  Rh201  1  0.19848728  0.20259398  0.19394866  1
  Rh  Rh202  1  0.40500226  -0.00109106  0.40969546  1
  Rh  Rh203  1  0.01100486  -0.00235382  0.40487978  1
  Rh  Rh204  1  0.20654931  0.60070082  0.60552184  1
  Rh  Rh205  1  0.40158035  0.60701372  0.19280405  1
  Rh  Rh206  1  -0.01179050  0.40697050  0.00726284  1
  Rh  Rh207  1  0.20282676  0.59339647  0.19386254  1
  Rh  Rh208  1  -0.00172129  0.00650508  0.19776453  1
  Rh  Rh209  1  0.60761862  0.79654596  0.60661939  1
  Rh  Rh210  1  0.80738576  0.20353366  0.20769056  1
  Rh  Rh211  1  0.60013070  0.39365147  -0.00556021  1
  Rh  Rh212  1  0.39417308  0.79465931  0.60382378  1
  Rh  Rh213  1  -0.00250298  0.19766149  0.60549086  1
  Rh  Rh214  1  0.60876919  0.80807943  0.39240848  1
  Rh  Rh215  1  0.00225176  0.78498401  0.81392056  1
  Rh  Rh216  1  0.40731551  0.39444970  0.19601602  1
  Rh  Rh217  1  0.80338241  0.39492696  0.39203060  1
  Rh  Rh218  1  0.59103425  0.40518889  0.39030785  1
  Rh  Rh219  1  -0.00561958  0.79842409  0.59469489  1
  Rh  Rh220  1  0.18865246  -0.00403714  0.19532643  1
  Rh  Rh221  1  0.79393057  0.59241235  0.00840201  1
  Rh  Rh222  1  0.79524962  0.19882823  0.39606961  1
  Rh  Rh223  1  0.40507899  0.59947793  0.00034635  1
  Rh  Rh224  1  0.20374164  0.59684533  -0.00069470  1
  Rh  Rh225  1  0.60655950  0.20149918  0.60064111  1
  Rh  Rh226  1  0.79868079  0.80414683  -0.00070420  1
  Rh  Rh227  1  0.80540381  0.59324757  0.79620892  1
  Rh  Rh228  1  0.40704611  0.79510497  0.80514201  1
  Rh  Rh229  1  0.60565759  0.79768330  -0.00544733  1
  Rh  Rh230  1  0.79975048  0.39789444  0.81183509  1
  Rh  Rh231  1  0.00115200  0.60484158  0.20512992  1
  Rh  Rh232  1  0.60283863  0.60491857  -0.00271592  1
  Rh  Rh233  1  0.40366690  0.40408977  0.00286592  1
  Rh  Rh234  1  0.40287224  0.20738461  0.60189161  1
  Rh  Rh235  1  0.79694536  -0.00002176  0.80171556  1
  Rh  Rh236  1  0.79443257  -0.00466480  0.60110211  1
  Rh  Rh237  1  0.40569448  0.20072515  0.00220412  1
  Rh  Rh238  1  0.40477247  -0.00228150  0.19839741  1
  Rh  Rh239  1  0.19560894  0.80372327  0.39267114  1
  Rh  Rh240  1  0.20164086  0.81075396  0.80594924  1
  Rh  Rh241  1  -0.00128310  0.20827440  0.39723202  1
  Rh  Rh242  1  0.78825827  -0.00115282  0.39448682  1
  Rh  Rh243  1  0.79405791  0.81018651  0.79847006  1
  Rh  Rh244  1  0.59560942  0.39502995  0.20644424  1
  Rh  Rh245  1  0.59529837  0.00017306  0.59367281  1
  Rh  Rh246  1  0.40200795  0.00857463  0.79572944  1
  Rh  Rh247  1  0.60123274  0.00411609  -0.00198686  1
  Rh  Rh248  1  0.78865246  0.20450287  -0.00684634  1
  Rh  Rh249  1  0.60095860  0.18931703  0.39026565  1
