# generated using pymatgen
data_ZrScNbPdRh
_symmetry_space_group_name_H-M   'P 1'
_cell_length_a   16.56062592
_cell_length_b   16.55533880
_cell_length_c   16.56069190
_cell_angle_alpha   89.98214029
_cell_angle_beta   89.98358558
_cell_angle_gamma   90.00511325
_symmetry_Int_Tables_number   1
_chemical_formula_structural   ZrScNbPdRh
_chemical_formula_sum   'Zr50 Sc50 Nb50 Pd50 Rh50'
_cell_volume   4540.39102934
_cell_formula_units_Z   50
loop_
 _symmetry_equiv_pos_site_id
 _symmetry_equiv_pos_as_xyz
  1  'x, y, z'
loop_
 _atom_site_type_symbol
 _atom_site_label
 _atom_site_symmetry_multiplicity
 _atom_site_fract_x
 _atom_site_fract_y
 _atom_site_fract_z
 _atom_site_occupancy
  Zr  Zr0  1  0.10525246  0.28902227  0.50008756  1
  Zr  Zr1  1  0.08952993  0.70316681  0.10025167  1
  Zr  Zr2  1  0.09568016  0.70504227  0.70340814  1
  Zr  Zr3  1  0.10231069  0.90865752  0.30015639  1
  Zr  Zr4  1  0.70871505  0.70361829  0.09829574  1
  Zr  Zr5  1  0.70045249  0.09565162  0.50163515  1
  Zr  Zr6  1  0.90577873  0.09589747  0.08956778  1
  Zr  Zr7  1  0.30895156  0.70412193  0.90390446  1
  Zr  Zr8  1  0.30014477  0.29447957  0.68166281  1
  Zr  Zr9  1  0.29613806  0.49903322  0.51053640  1
  Zr  Zr10  1  0.69786316  0.90296175  0.49279269  1
  Zr  Zr11  1  0.50299227  0.69712040  0.30342833  1
  Zr  Zr12  1  0.09882806  0.09801644  0.30826653  1
  Zr  Zr13  1  0.69814282  0.29885860  0.49937734  1
  Zr  Zr14  1  0.10234361  0.90634563  0.50126680  1
  Zr  Zr15  1  0.09781494  0.89982031  0.69963158  1
  Zr  Zr16  1  0.30283186  0.49672046  0.10405597  1
  Zr  Zr17  1  0.29461035  0.09667015  0.28609593  1
  Zr  Zr18  1  0.70613501  0.70336776  0.70057715  1
  Zr  Zr19  1  0.70206871  0.89765884  0.70163484  1
  Zr  Zr20  1  0.90081791  0.88844932  0.70765698  1
  Zr  Zr21  1  0.69939181  0.30892513  0.30223813  1
  Zr  Zr22  1  0.09718275  0.50399008  0.48444068  1
  Zr  Zr23  1  0.49364465  0.49792140  0.70567090  1
  Zr  Zr24  1  0.50722758  0.88807247  0.90064811  1
  Zr  Zr25  1  0.89640593  0.29512398  0.70210748  1
  Zr  Zr26  1  0.90289885  0.10004766  0.30165563  1
  Zr  Zr27  1  0.49444144  0.09488344  0.30141616  1
  Zr  Zr28  1  0.30297348  0.89861961  0.10180853  1
  Zr  Zr29  1  0.69602349  0.10827570  0.29639789  1
  Zr  Zr30  1  0.70699592  0.50387919  0.10557364  1
  Zr  Zr31  1  0.50309442  0.10143065  0.89900426  1
  Zr  Zr32  1  0.50171455  0.29378288  0.89495622  1
  Zr  Zr33  1  0.10580742  0.10312983  0.10361433  1
  Zr  Zr34  1  0.50139142  0.50916330  0.10018758  1
  Zr  Zr35  1  0.70061556  0.29913624  0.88996657  1
  Zr  Zr36  1  0.09367699  0.68866573  0.30540911  1
  Zr  Zr37  1  0.30838402  0.90828690  0.29890812  1
  Zr  Zr38  1  0.30663917  0.09964772  0.89255757  1
  Zr  Zr39  1  0.49291377  0.10276227  0.70471976  1
  Zr  Zr40  1  0.09506021  0.89651508  0.09590235  1
  Zr  Zr41  1  0.69808288  0.30090859  0.69742239  1
  Zr  Zr42  1  0.09863242  0.48574644  0.89660136  1
  Zr  Zr43  1  0.09253169  0.10260970  0.90723660  1
  Zr  Zr44  1  0.69540721  0.09273569  0.69754146  1
  Zr  Zr45  1  0.90882272  0.10466651  0.49697736  1
  Zr  Zr46  1  0.69212213  0.71144990  0.90120470  1
  Zr  Zr47  1  0.49862016  0.50517435  0.89985382  1
  Zr  Zr48  1  0.89765539  0.89409114  0.29969242  1
  Zr  Zr49  1  0.70556197  0.70864011  0.29899807  1
  Sc  Sc50  1  0.91154176  0.30357520  0.50105874  1
  Sc  Sc51  1  0.69448345  0.08816598  0.90206545  1
  Sc  Sc52  1  0.89183017  0.30397326  0.30393905  1
  Sc  Sc53  1  0.50490138  0.90503555  0.29982511  1
  Sc  Sc54  1  0.49840596  0.90861231  0.49808491  1
  Sc  Sc55  1  0.29718992  0.49761743  0.29885325  1
  Sc  Sc56  1  0.89953797  0.08864699  0.70075080  1
  Sc  Sc57  1  0.50175173  0.50457540  0.29787041  1
  Sc  Sc58  1  0.09412130  0.49549644  0.09142982  1
  Sc  Sc59  1  0.09805639  0.70680038  0.90436653  1
  Sc  Sc60  1  0.10947480  0.49696094  0.70651650  1
  Sc  Sc61  1  0.30984334  0.70275270  0.09684336  1
  Sc  Sc62  1  0.50040794  0.69790427  0.09206766  1
  Sc  Sc63  1  0.30596951  0.89868142  0.89950109  1
  Sc  Sc64  1  0.30350385  0.90257487  0.51397176  1
  Sc  Sc65  1  0.89644015  0.48633848  0.69552305  1
  Sc  Sc66  1  0.69868963  0.49344285  0.69618218  1
  Sc  Sc67  1  0.50468798  0.29786260  0.70607387  1
  Sc  Sc68  1  0.10781536  0.29801899  0.08737866  1
  Sc  Sc69  1  0.70056639  0.29915055  0.11378405  1
  Sc  Sc70  1  0.29530955  0.29154029  0.10451717  1
  Sc  Sc71  1  0.69482488  0.69757451  0.49775063  1
  Sc  Sc72  1  0.70293790  0.89826918  0.90605336  1
  Sc  Sc73  1  0.30071859  0.68802169  0.50872315  1
  Sc  Sc74  1  0.90232457  0.69777485  0.29138067  1
  Sc  Sc75  1  0.49206637  0.70291918  0.70075063  1
  Sc  Sc76  1  0.50434438  0.89919863  0.10469697  1
  Sc  Sc77  1  0.30161029  0.50304499  0.88823014  1
  Sc  Sc78  1  0.29640212  0.29461911  0.90435848  1
  Sc  Sc79  1  0.89800204  0.71076549  0.90683424  1
  Sc  Sc80  1  0.09426207  0.09128562  0.69393487  1
  Sc  Sc81  1  0.90870625  0.50396785  0.30316672  1
  Sc  Sc82  1  0.10535894  0.30546894  0.30232949  1
  Sc  Sc83  1  0.70329079  0.50172601  0.90688989  1
  Sc  Sc84  1  0.09153292  0.30438037  0.70274989  1
  Sc  Sc85  1  0.89235045  0.30677078  0.09929986  1
  Sc  Sc86  1  0.89339898  0.70163017  0.50167545  1
  Sc  Sc87  1  0.10859634  0.69392238  0.50431925  1
  Sc  Sc88  1  0.90187520  0.49540996  0.49892571  1
  Sc  Sc89  1  0.29741396  0.30405833  0.29203164  1
  Sc  Sc90  1  0.50873414  0.09645515  0.50356882  1
  Sc  Sc91  1  0.30410839  0.69114223  0.29812055  1
  Sc  Sc92  1  0.50593605  0.29744771  0.29366064  1
  Sc  Sc93  1  0.29856456  0.69520036  0.69752930  1
  Sc  Sc94  1  0.50972909  0.10864323  0.10061389  1
  Sc  Sc95  1  0.69325948  0.49632153  0.50439264  1
  Sc  Sc96  1  0.50437947  0.29506504  0.50960235  1
  Sc  Sc97  1  0.89187713  0.90390270  0.49985262  1
  Sc  Sc98  1  0.90446525  0.09754496  0.89629677  1
  Sc  Sc99  1  0.48732489  0.90320817  0.69447977  1
  Nb  Nb100  1  0.90164691  0.70133313  0.10507532  1
  Nb  Nb101  1  0.70438014  0.09591324  0.09534595  1
  Nb  Nb102  1  0.50082591  0.69756483  0.90120759  1
  Nb  Nb103  1  0.09791529  0.50189068  0.29508800  1
  Nb  Nb104  1  0.50127263  0.30400918  0.09643157  1
  Nb  Nb105  1  0.70234772  0.90462783  0.09753367  1
  Nb  Nb106  1  0.09412670  0.29428991  0.89757013  1
  Nb  Nb107  1  0.90657287  0.90523692  0.90658972  1
  Nb  Nb108  1  0.29776842  0.09680192  0.09756691  1
  Nb  Nb109  1  0.28809244  0.12342722  0.51361254  1
  Nb  Nb110  1  0.70570150  0.50103072  0.29891174  1
  Nb  Nb111  1  0.89644123  0.50725545  0.09724928  1
  Nb  Nb112  1  0.49580562  0.69981971  0.50163596  1
  Nb  Nb113  1  0.30169743  0.29929683  0.49873430  1
  Nb  Nb114  1  0.89806823  0.89460542  0.09623674  1
  Nb  Nb115  1  0.29608781  0.91245253  0.70493839  1
  Nb  Nb116  1  0.90508333  0.29814287  0.89600340  1
  Nb  Nb117  1  0.09556467  0.10466666  0.49492553  1
  Nb  Nb118  1  0.10042515  0.89767915  0.90145407  1
  Nb  Nb119  1  0.90100363  0.49502243  0.90540121  1
  Nb  Nb120  1  0.70304850  0.89748425  0.29448255  1
  Nb  Nb121  1  0.30143141  0.50151450  0.69871894  1
  Nb  Nb122  1  0.29978366  0.09801389  0.70319927  1
  Nb  Nb123  1  0.89999269  0.69959087  0.70457063  1
  Nb  Nb124  1  0.49400718  0.51384846  0.50235844  1
  Nb  Nb125  1  0.00046467  0.40168538  0.19776930  1
  Nb  Nb126  1  0.59510363  0.79940167  0.59650709  1
  Nb  Nb127  1  0.19735286  0.19589632  0.79746170  1
  Nb  Nb128  1  0.79981395  0.19957317  -0.00438199  1
  Nb  Nb129  1  0.79482105  0.59720121  0.39569593  1
  Nb  Nb130  1  0.00066194  0.20499369  0.19876277  1
  Nb  Nb131  1  0.60276776  0.60554980  0.80232154  1
  Nb  Nb132  1  0.79581235  -0.00357885  0.19451631  1
  Nb  Nb133  1  -0.00937954  0.59599900  0.80180118  1
  Nb  Nb134  1  0.40112403  0.00398233  0.00160847  1
  Nb  Nb135  1  0.19701924  0.79702242  0.20552834  1
  Nb  Nb136  1  0.39902419  0.79582060  0.40491226  1
  Nb  Nb137  1  0.40631972  0.39689455  0.00215787  1
  Nb  Nb138  1  0.20367379  0.00030178  -0.00061503  1
  Nb  Nb139  1  0.80497372  0.60183896  0.80063241  1
  Nb  Nb140  1  0.00763341  0.80091652  0.39974383  1
  Nb  Nb141  1  -0.00218016  0.60184692  0.60976130  1
  Nb  Nb142  1  0.19973756  0.60070123  0.00112692  1
  Nb  Nb143  1  0.39272467  0.20206021  0.40451180  1
  Nb  Nb144  1  0.40041416  0.39726848  0.40902272  1
  Nb  Nb145  1  0.79997902  0.19819119  0.59985926  1
  Nb  Nb146  1  0.59641634  0.39851563  0.00311948  1
  Nb  Nb147  1  0.20458411  0.80066397  0.39704185  1
  Nb  Nb148  1  0.20087349  0.80810296  0.79743855  1
  Nb  Nb149  1  0.19327505  0.60071932  0.19349176  1
  Pd  Pd150  1  0.21067121  0.40372672  -0.00289336  1
  Pd  Pd151  1  0.59879412  0.79587516  0.19484546  1
  Pd  Pd152  1  -0.00147860  0.79515216  0.58832772  1
  Pd  Pd153  1  0.80018724  0.40750722  0.80220203  1
  Pd  Pd154  1  0.19978519  0.00922550  0.59584667  1
  Pd  Pd155  1  0.59482999  0.60561202  0.60957561  1
  Pd  Pd156  1  0.60475821  0.60767867  0.20029543  1
  Pd  Pd157  1  0.60697997  0.59501396  0.39917459  1
  Pd  Pd158  1  0.19372525  0.60992200  0.80798025  1
  Pd  Pd159  1  0.58794850  0.40731875  0.40321646  1
  Pd  Pd160  1  0.38977356  0.38999576  0.80320638  1
  Pd  Pd161  1  0.20915839  0.38506588  0.79624061  1
  Pd  Pd162  1  0.38874879  0.01046919  0.41390315  1
  Pd  Pd163  1  0.20668228  0.20100576  0.38904341  1
  Pd  Pd164  1  0.59848158  0.40426388  0.19727510  1
  Pd  Pd165  1  0.19273926  0.00160369  0.80787470  1
  Pd  Pd166  1  0.00941479  0.40784928  0.59990654  1
  Pd  Pd167  1  -0.00762284  -0.00446942  0.59645058  1
  Pd  Pd168  1  0.20508765  0.40170440  0.39906699  1
  Pd  Pd169  1  0.39790727  0.20037565  0.00675984  1
  Pd  Pd170  1  0.21309506  0.00129359  0.41308773  1
  Pd  Pd171  1  0.79379657  0.80201136  0.59176645  1
  Pd  Pd172  1  0.40064695  0.79470937  0.20771647  1
  Pd  Pd173  1  0.79661899  0.00301110  0.39109560  1
  Pd  Pd174  1  0.80224724  -0.00372036  0.80671982  1
  Pd  Pd175  1  0.39297365  0.59608159  0.39918953  1
  Pd  Pd176  1  0.00197672  0.60118373  -0.00804772  1
  Pd  Pd177  1  0.80258498  0.60712563  -0.00670565  1
  Pd  Pd178  1  -0.00485170  0.39217817  0.00448152  1
  Pd  Pd179  1  0.80785853  0.19374409  0.19205263  1
  Pd  Pd180  1  0.61287676  0.20727653  0.00281994  1
  Pd  Pd181  1  0.19044055  0.40236579  0.59787365  1
  Pd  Pd182  1  0.39553202  0.01254414  0.59402667  1
  Pd  Pd183  1  0.40480111  0.39785628  0.20292797  1
  Pd  Pd184  1  0.39352289  0.80182509  0.79258592  1
  Pd  Pd185  1  0.80226263  0.40709791  0.40425933  1
  Pd  Pd186  1  0.59340944  -0.00919292  0.79683950  1
  Pd  Pd187  1  0.80367102  0.20448880  0.40753704  1
  Pd  Pd188  1  0.80586237  0.59386521  0.59846020  1
  Pd  Pd189  1  0.20832964  0.79887824  0.60222320  1
  Pd  Pd190  1  0.00458265  0.19386342  0.79167184  1
  Pd  Pd191  1  0.60340636  0.00306378  0.19828025  1
  Pd  Pd192  1  -0.00584974  0.00210908  0.19780645  1
  Pd  Pd193  1  0.40231123  0.19966951  0.20093755  1
  Pd  Pd194  1  0.59090423  0.40306175  0.59815953  1
  Pd  Pd195  1  0.79730377  0.18775180  0.80115099  1
  Pd  Pd196  1  0.79268714  0.39172076  0.00015846  1
  Pd  Pd197  1  0.59082355  0.20009660  0.39959386  1
  Pd  Pd198  1  0.40926097  0.40062763  0.59611240  1
  Pd  Pd199  1  0.59121583  0.80546868  0.40435918  1
  Rh  Rh200  1  0.00586981  -0.00493364  -0.00074817  1
  Rh  Rh201  1  0.59225489  -0.00376852  0.00233747  1
  Rh  Rh202  1  0.80602462  0.59700658  0.20648968  1
  Rh  Rh203  1  0.80631534  0.79192240  0.39933277  1
  Rh  Rh204  1  0.00233568  0.80010587  0.80890996  1
  Rh  Rh205  1  0.19245569  0.20285998  0.20371998  1
  Rh  Rh206  1  0.79860575  0.38875079  0.59283723  1
  Rh  Rh207  1  0.80479695  0.80279339  0.81097309  1
  Rh  Rh208  1  0.40056741  0.79928739  0.59485089  1
  Rh  Rh209  1  0.00403458  0.39557073  0.39240908  1
  Rh  Rh210  1  0.41116688  0.00844590  0.18736569  1
  Rh  Rh211  1  0.80321725  0.80347277  0.00213122  1
  Rh  Rh212  1  0.80220296  0.80533290  0.19245661  1
  Rh  Rh213  1  0.18335687  0.19671242  0.61361689  1
  Rh  Rh214  1  0.40814467  0.19542768  0.59828820  1
  Rh  Rh215  1  0.20468663  0.80125507  -0.00109585  1
  Rh  Rh216  1  0.40290822  0.60444986  0.79638076  1
  Rh  Rh217  1  0.59545641  0.79665695  0.78672957  1
  Rh  Rh218  1  0.18920120  0.40632165  0.19482717  1
  Rh  Rh219  1  0.59980351  0.80069105  0.00975149  1
  Rh  Rh220  1  -0.00334182  0.19715685  0.60401218  1
  Rh  Rh221  1  0.38927073  0.20855168  0.79043752  1
  Rh  Rh222  1  0.20658018  0.59979931  0.39235648  1
  Rh  Rh223  1  0.40938390  0.80723402  0.00323957  1
  Rh  Rh224  1  0.00023843  0.58869383  0.18930671  1
  Rh  Rh225  1  0.20331447  0.19221249  -0.01023291  1
  Rh  Rh226  1  0.19081648  0.59139878  0.60674206  1
  Rh  Rh227  1  0.00156271  0.20878388  0.39006913  1
  Rh  Rh228  1  0.19688596  -0.00809180  0.18970307  1
  Rh  Rh229  1  -0.00781249  0.40222961  0.80053831  1
  Rh  Rh230  1  0.00065887  -0.00698529  0.80217418  1
  Rh  Rh231  1  0.60658568  -0.00011343  0.39114721  1
  Rh  Rh232  1  0.60639781  0.59920528  -0.00460233  1
  Rh  Rh233  1  -0.01111360  0.21207563  0.00600973  1
  Rh  Rh234  1  -0.01296245  0.60821239  0.41425662  1
  Rh  Rh235  1  0.40787958  -0.00631227  0.80749946  1
  Rh  Rh236  1  0.81084361  0.41169520  0.20347689  1
  Rh  Rh237  1  0.39120739  0.59261455  -0.00181874  1
  Rh  Rh238  1  0.60562789  0.41232150  0.80812809  1
  Rh  Rh239  1  0.59896884  -0.01123428  0.60497149  1
  Rh  Rh240  1  0.00177692  0.80455575  0.20574091  1
  Rh  Rh241  1  -0.00413529  -0.00780416  0.40575984  1
  Rh  Rh242  1  0.60132994  0.20057210  0.19859650  1
  Rh  Rh243  1  0.80330254  0.00140048  0.00102268  1
  Rh  Rh244  1  0.60495975  0.19684274  0.60615012  1
  Rh  Rh245  1  0.60716790  0.19145641  0.79745749  1
  Rh  Rh246  1  -0.00779148  0.80108300  -0.00150794  1
  Rh  Rh247  1  0.80334563  0.00306834  0.59921299  1
  Rh  Rh248  1  0.40093820  0.59859162  0.60809973  1
  Rh  Rh249  1  0.39748655  0.60195669  0.19858998  1
