# generated using pymatgen
data_ZrScNbPdRh
_symmetry_space_group_name_H-M   'P 1'
_cell_length_a   16.55273754
_cell_length_b   16.55644116
_cell_length_c   16.55411927
_cell_angle_alpha   90.04395132
_cell_angle_beta   89.96415626
_cell_angle_gamma   90.00788569
_symmetry_Int_Tables_number   1
_chemical_formula_structural   ZrScNbPdRh
_chemical_formula_sum   'Zr50 Sc50 Nb50 Pd50 Rh50'
_cell_volume   4536.72737577
_cell_formula_units_Z   50
loop_
 _symmetry_equiv_pos_site_id
 _symmetry_equiv_pos_as_xyz
  1  'x, y, z'
loop_
 _atom_site_type_symbol
 _atom_site_label
 _atom_site_symmetry_multiplicity
 _atom_site_fract_x
 _atom_site_fract_y
 _atom_site_fract_z
 _atom_site_occupancy
  Zr  Zr0  1  0.10147192  0.89012259  0.49967811  1
  Zr  Zr1  1  0.90354707  0.89790073  0.10037727  1
  Zr  Zr2  1  0.10849069  0.29040924  0.89887756  1
  Zr  Zr3  1  0.70082573  0.90205053  0.30484552  1
  Zr  Zr4  1  0.29675230  0.90330434  0.10074929  1
  Zr  Zr5  1  0.50428547  0.69034187  0.69595270  1
  Zr  Zr6  1  0.70074747  0.71107749  0.70073567  1
  Zr  Zr7  1  0.89791855  0.28798828  0.69954593  1
  Zr  Zr8  1  0.69861270  0.49871141  0.10451758  1
  Zr  Zr9  1  0.90224125  0.50963229  0.10231707  1
  Zr  Zr10  1  0.30137747  0.50060030  0.29699965  1
  Zr  Zr11  1  0.29316356  0.69755041  0.50111653  1
  Zr  Zr12  1  0.10267678  0.30737894  0.29568327  1
  Zr  Zr13  1  0.49582951  0.30256709  0.09700720  1
  Zr  Zr14  1  0.90632198  0.69589735  0.69649426  1
  Zr  Zr15  1  0.30113465  0.50181851  0.90403544  1
  Zr  Zr16  1  0.90376629  0.30700773  0.30438943  1
  Zr  Zr17  1  0.70679623  0.10304244  0.10517786  1
  Zr  Zr18  1  0.49755434  0.09356437  0.30177632  1
  Zr  Zr19  1  0.49669278  0.09548608  0.49803262  1
  Zr  Zr20  1  0.49950834  0.70145158  0.49584939  1
  Zr  Zr21  1  0.28895744  0.70046315  0.10685850  1
  Zr  Zr22  1  0.69534969  0.09801682  0.89913157  1
  Zr  Zr23  1  0.29242786  0.29748239  0.29145733  1
  Zr  Zr24  1  0.69736601  0.69025553  0.30552102  1
  Zr  Zr25  1  0.09888382  0.91487675  0.89837994  1
  Zr  Zr26  1  0.08613001  0.70628505  0.10975736  1
  Zr  Zr27  1  0.50521642  0.10091234  0.09696804  1
  Zr  Zr28  1  0.50487756  0.89928753  0.49483767  1
  Zr  Zr29  1  0.30385287  0.10396043  0.30451143  1
  Zr  Zr30  1  0.89903764  0.29466293  0.50379996  1
  Zr  Zr31  1  0.29707935  0.90722887  0.70256240  1
  Zr  Zr32  1  0.69321093  0.69865919  0.09827967  1
  Zr  Zr33  1  0.89698663  0.10013792  0.10130647  1
  Zr  Zr34  1  0.10613161  0.11300782  0.29533112  1
  Zr  Zr35  1  0.09668435  0.30236758  0.49726855  1
  Zr  Zr36  1  0.70166027  0.30518011  0.29754795  1
  Zr  Zr37  1  0.50175114  0.89995606  0.69986587  1
  Zr  Zr38  1  0.30376886  0.29839054  0.90032679  1
  Zr  Zr39  1  0.89703225  0.70899358  0.90025074  1
  Zr  Zr40  1  0.90256318  0.30115545  0.09799646  1
  Zr  Zr41  1  0.90948038  0.89417972  0.49773514  1
  Zr  Zr42  1  0.49291188  0.49718778  0.10241162  1
  Zr  Zr43  1  0.69937873  0.09853511  0.49691164  1
  Zr  Zr44  1  0.09773436  0.10018142  0.50073027  1
  Zr  Zr45  1  0.69710002  0.29720068  0.09875922  1
  Zr  Zr46  1  0.10871165  0.50245665  0.50844164  1
  Zr  Zr47  1  0.89819805  0.49357308  0.90656338  1
  Zr  Zr48  1  0.09922295  0.10257149  0.08789129  1
  Zr  Zr49  1  0.29950245  0.90341333  0.89909993  1
  Sc  Sc50  1  0.49688025  0.30493084  0.29553113  1
  Sc  Sc51  1  0.90343417  0.09477467  0.89894627  1
  Sc  Sc52  1  0.29671288  0.69890099  0.90082912  1
  Sc  Sc53  1  0.70567463  0.09731193  0.70677473  1
  Sc  Sc54  1  0.29687455  0.70445862  0.69705420  1
  Sc  Sc55  1  0.50489814  0.49913163  0.30280992  1
  Sc  Sc56  1  0.69179240  0.52326920  0.68827294  1
  Sc  Sc57  1  0.10774696  0.89203670  0.70373489  1
  Sc  Sc58  1  0.89946317  0.70072712  0.50311583  1
  Sc  Sc59  1  0.70272571  0.90491932  0.09727846  1
  Sc  Sc60  1  0.49319164  0.90202891  0.09271538  1
  Sc  Sc61  1  0.29964115  0.30366011  0.49434899  1
  Sc  Sc62  1  0.70518395  0.29355762  0.49973149  1
  Sc  Sc63  1  0.09580765  0.89479334  0.30159545  1
  Sc  Sc64  1  0.29664671  0.09962441  0.89180722  1
  Sc  Sc65  1  0.90015471  0.90314208  0.89680510  1
  Sc  Sc66  1  0.50008078  0.70365164  0.30201295  1
  Sc  Sc67  1  0.49763072  0.51475009  0.90211465  1
  Sc  Sc68  1  0.69949768  0.89519166  0.89259375  1
  Sc  Sc69  1  0.30155198  0.70426570  0.29715890  1
  Sc  Sc70  1  0.49616361  0.09401222  0.90082082  1
  Sc  Sc71  1  0.90675173  0.69263328  0.29471739  1
  Sc  Sc72  1  0.49908634  0.28557416  0.90107169  1
  Sc  Sc73  1  0.29880295  0.49921335  0.68933758  1
  Sc  Sc74  1  0.30454057  0.50895451  0.10209797  1
  Sc  Sc75  1  0.10384845  0.08956760  0.70281005  1
  Sc  Sc76  1  0.50872128  0.10136853  0.70825695  1
  Sc  Sc77  1  0.30466309  0.90232511  0.51382649  1
  Sc  Sc78  1  0.09646221  0.71091393  0.89040444  1
  Sc  Sc79  1  0.89673573  0.09544484  0.70026783  1
  Sc  Sc80  1  0.90166162  0.30106681  0.90413546  1
  Sc  Sc81  1  0.69575940  0.27975490  0.70416218  1
  Sc  Sc82  1  0.50086663  0.89533147  0.30452631  1
  Sc  Sc83  1  0.90082832  0.89801391  0.30646380  1
  Sc  Sc84  1  0.49306619  0.49825837  0.49875724  1
  Sc  Sc85  1  0.89448534  0.50038874  0.29831663  1
  Sc  Sc86  1  0.70795690  0.88929291  0.49496705  1
  Sc  Sc87  1  0.09357792  0.49190581  0.89701599  1
  Sc  Sc88  1  0.10529714  0.70605935  0.30254540  1
  Sc  Sc89  1  0.50745123  0.70192689  0.90665757  1
  Sc  Sc90  1  0.69725940  0.50813357  0.49091158  1
  Sc  Sc91  1  0.89443688  0.10339800  0.50308291  1
  Sc  Sc92  1  0.30277283  0.09230605  0.10672249  1
  Sc  Sc93  1  0.70579897  0.29369903  0.90143487  1
  Sc  Sc94  1  0.29433598  0.30123928  0.70474777  1
  Sc  Sc95  1  0.89437486  0.50566541  0.50060395  1
  Sc  Sc96  1  0.09880368  0.51022699  0.10125931  1
  Sc  Sc97  1  0.89126384  0.89850975  0.70446069  1
  Sc  Sc98  1  0.30241401  0.50207132  0.50119887  1
  Sc  Sc99  1  0.49762345  0.70277903  0.10389059  1
  Nb  Nb100  1  0.10789600  0.29291501  0.10163327  1
  Nb  Nb101  1  0.50469429  0.29739421  0.69818500  1
  Nb  Nb102  1  0.09874259  0.69290631  0.69082898  1
  Nb  Nb103  1  0.09209808  0.49349992  0.31031575  1
  Nb  Nb104  1  0.29676952  0.90713205  0.29006635  1
  Nb  Nb105  1  0.70071797  0.69373951  0.90185837  1
  Nb  Nb106  1  0.49738937  0.49786824  0.69746301  1
  Nb  Nb107  1  0.30506565  0.31223200  0.09919884  1
  Nb  Nb108  1  0.70216721  0.68903947  0.50381525  1
  Nb  Nb109  1  0.09809716  0.10106230  0.89924765  1
  Nb  Nb110  1  0.90218134  0.50215524  0.70392472  1
  Nb  Nb111  1  0.69741655  0.90372809  0.70228468  1
  Nb  Nb112  1  0.69933290  0.50091445  0.29870670  1
  Nb  Nb113  1  0.89917619  0.69961220  0.10321913  1
  Nb  Nb114  1  0.89212295  0.10145293  0.29597138  1
  Nb  Nb115  1  0.30039293  0.09402347  0.68950842  1
  Nb  Nb116  1  0.50729514  0.29486730  0.50647291  1
  Nb  Nb117  1  0.69910511  0.50124947  0.90382765  1
  Nb  Nb118  1  0.09622030  0.49901460  0.69875707  1
  Nb  Nb119  1  0.29999790  0.09865498  0.50325697  1
  Nb  Nb120  1  0.10137443  0.30011862  0.69827555  1
  Nb  Nb121  1  0.70666160  0.10117047  0.29824949  1
  Nb  Nb122  1  0.09854014  0.90464656  0.10070838  1
  Nb  Nb123  1  0.09714006  0.70093802  0.50819690  1
  Nb  Nb124  1  0.49243038  0.90541127  0.89560123  1
  Nb  Nb125  1  0.80010513  0.79352967  0.19663712  1
  Nb  Nb126  1  0.79236740  0.40817049  0.79186795  1
  Nb  Nb127  1  0.00059495  -0.00580583  0.59760911  1
  Nb  Nb128  1  0.59845670  0.40198045  -0.00605152  1
  Nb  Nb129  1  0.39941048  0.19867951  0.60047662  1
  Nb  Nb130  1  0.00914730  0.19841336  0.79977966  1
  Nb  Nb131  1  0.20473738  0.00165129  0.40042675  1
  Nb  Nb132  1  0.20358869  0.19649399  0.59988902  1
  Nb  Nb133  1  0.79894211  0.59897194  0.80471310  1
  Nb  Nb134  1  0.60440200  0.00463910  0.20354028  1
  Nb  Nb135  1  -0.00289915  0.20105990  0.39453373  1
  Nb  Nb136  1  0.60519074  -0.00535778  0.60064130  1
  Nb  Nb137  1  0.60003817  0.40395126  0.79711530  1
  Nb  Nb138  1  0.79908553  0.60437212  -0.00028857  1
  Nb  Nb139  1  -0.00115090  0.00505333  0.19977321  1
  Nb  Nb140  1  0.00948990  0.59714328  0.40472918  1
  Nb  Nb141  1  0.19064583  0.59742598  0.79117902  1
  Nb  Nb142  1  0.20318391  0.39487464  0.00502784  1
  Nb  Nb143  1  0.79607654  0.40317601  0.61088327  1
  Nb  Nb144  1  0.19319312  0.80633253  0.00577659  1
  Nb  Nb145  1  0.40437287  0.80266929  0.80126512  1
  Nb  Nb146  1  -0.00355560  0.40228328  0.60864991  1
  Nb  Nb147  1  0.60050312  0.19726830  0.39580785  1
  Nb  Nb148  1  0.41094777  0.40174311  0.79520608  1
  Nb  Nb149  1  0.59975804  0.39679765  0.60631232  1
  Pd  Pd150  1  0.00051453  0.60039320  0.80749898  1
  Pd  Pd151  1  0.79714296  0.40519684  0.40921942  1
  Pd  Pd152  1  0.39932854  0.39463647  0.39748561  1
  Pd  Pd153  1  0.80304832  0.39950619  0.19684523  1
  Pd  Pd154  1  0.18980052  0.00204397  0.20566941  1
  Pd  Pd155  1  0.00319172  0.40582175  0.19151565  1
  Pd  Pd156  1  0.60273569  0.59849678  0.80175281  1
  Pd  Pd157  1  0.80601988  0.00059605  0.40435917  1
  Pd  Pd158  1  0.38872674  0.60214557  0.79332425  1
  Pd  Pd159  1  0.39267137  0.79491823  -0.00446221  1
  Pd  Pd160  1  0.59441438  0.79936786  0.80709187  1
  Pd  Pd161  1  0.39298549  0.19073071  0.00509223  1
  Pd  Pd162  1  0.40059860  0.60085204  0.39611545  1
  Pd  Pd163  1  0.40026160  0.80390956  0.20168680  1
  Pd  Pd164  1  0.80010990  -0.00297628  -0.00702204  1
  Pd  Pd165  1  0.40009966  0.61166808  0.00548562  1
  Pd  Pd166  1  0.39833673  0.19980888  0.79027722  1
  Pd  Pd167  1  0.21064449  0.80893253  0.39935755  1
  Pd  Pd168  1  0.39732369  0.20084829  0.19404546  1
  Pd  Pd169  1  0.38910540  0.80615355  0.39847418  1
  Pd  Pd170  1  0.80533550  0.19739425  -0.00562872  1
  Pd  Pd171  1  0.00541321  0.80509152  -0.00347383  1
  Pd  Pd172  1  0.00344978  0.00977418  0.39579759  1
  Pd  Pd173  1  0.80008817  -0.00486069  0.59742795  1
  Pd  Pd174  1  0.80525038  0.78625419  0.39302340  1
  Pd  Pd175  1  0.79576777  0.79954453  0.00418770  1
  Pd  Pd176  1  0.21445728  0.19883839  0.00644280  1
  Pd  Pd177  1  0.60086646  -0.00501205  0.00169465  1
  Pd  Pd178  1  0.60465505  0.80992897  0.19960409  1
  Pd  Pd179  1  0.19202678  0.59680792  0.21013619  1
  Pd  Pd180  1  0.01412457  0.39366084  0.00808998  1
  Pd  Pd181  1  0.59143030  0.59796130  0.20197412  1
  Pd  Pd182  1  0.19692233  0.60027718  0.39523575  1
  Pd  Pd183  1  0.80192722  0.80036502  0.60084797  1
  Pd  Pd184  1  0.59768016  0.19728404  0.20802013  1
  Pd  Pd185  1  0.60523514  0.80277980  0.59220965  1
  Pd  Pd186  1  0.18569909  0.60441065  -0.01186642  1
  Pd  Pd187  1  -0.00682253  0.38929055  0.79597533  1
  Pd  Pd188  1  0.19725206  0.41188585  0.19039080  1
  Pd  Pd189  1  -0.00462368  0.19915030  0.20171547  1
  Pd  Pd190  1  0.00056493  0.60592568  -0.00938648  1
  Pd  Pd191  1  0.00000943  0.80725958  0.79250087  1
  Pd  Pd192  1  0.59941512  0.80858418  -0.00387216  1
  Pd  Pd193  1  0.20677099  0.40778386  0.80208005  1
  Pd  Pd194  1  0.40179015  0.39092696  0.60229652  1
  Pd  Pd195  1  0.20760364  0.40372359  0.40190752  1
  Pd  Pd196  1  0.40493255  0.21013812  0.40514467  1
  Pd  Pd197  1  0.39019064  -0.01183005  0.39953111  1
  Pd  Pd198  1  0.39921560  0.79638200  0.60521155  1
  Pd  Pd199  1  0.60209722  0.39496816  0.40882547  1
  Rh  Rh200  1  0.59982922  0.59458900  0.00663836  1
  Rh  Rh201  1  0.19973371  0.79789389  0.60166602  1
  Rh  Rh202  1  0.80320504  0.60041392  0.60454505  1
  Rh  Rh203  1  0.00080486  0.80543771  0.60710072  1
  Rh  Rh204  1  0.58994642  0.59497569  0.58558942  1
  Rh  Rh205  1  0.80104921  0.20081930  0.39177822  1
  Rh  Rh206  1  0.59941467  0.19798680  0.80871293  1
  Rh  Rh207  1  -0.00092595  0.00370617  0.79175021  1
  Rh  Rh208  1  0.20761473  0.79131413  0.80363256  1
  Rh  Rh209  1  0.19689311  0.80396121  0.19607251  1
  Rh  Rh210  1  -0.00315708  0.20172270  -0.00641214  1
  Rh  Rh211  1  -0.00258922  0.59305083  0.59191173  1
  Rh  Rh212  1  -0.00564570  0.40405899  0.41238736  1
  Rh  Rh213  1  0.60173977  -0.00128834  0.79825870  1
  Rh  Rh214  1  0.40357374  0.60342590  0.20479681  1
  Rh  Rh215  1  0.19617341  0.19140557  0.78924589  1
  Rh  Rh216  1  0.60075293  0.20397211  -0.00373262  1
  Rh  Rh217  1  0.79852376  0.79698299  0.79870880  1
  Rh  Rh218  1  0.39624177  0.00558184  -0.00179669  1
  Rh  Rh219  1  0.00732454  0.59487691  0.21381691  1
  Rh  Rh220  1  0.18980083  -0.00029533  0.59144526  1
  Rh  Rh221  1  0.20111990  0.00611139  0.80096416  1
  Rh  Rh222  1  0.40307455  0.40084385  -0.01327993  1
  Rh  Rh223  1  0.19559298  0.19700131  0.40881221  1
  Rh  Rh224  1  0.79833155  -0.00151308  0.80451538  1
  Rh  Rh225  1  0.20415375  0.60156717  0.60553176  1
  Rh  Rh226  1  0.79552383  0.60434507  0.19690286  1
  Rh  Rh227  1  0.39894607  0.40301352  0.20769405  1
  Rh  Rh228  1  0.21013113  0.19886159  0.18753125  1
  Rh  Rh229  1  0.19602265  0.39262152  0.59983231  1
  Rh  Rh230  1  0.20273010  0.00024130  -0.00327198  1
  Rh  Rh231  1  0.60652716  0.79078502  0.40480787  1
  Rh  Rh232  1  0.79207948  0.19841011  0.60309781  1
  Rh  Rh233  1  -0.00371950  0.00166295  0.00457975  1
  Rh  Rh234  1  0.01178673  0.19482472  0.60489606  1
  Rh  Rh235  1  0.79083636  0.40407078  0.00004235  1
  Rh  Rh236  1  0.81119279  0.19845122  0.80724350  1
  Rh  Rh237  1  0.80642465  0.60025688  0.39614017  1
  Rh  Rh238  1  0.80260754  -0.01188773  0.20612855  1
  Rh  Rh239  1  -0.00643042  0.80821505  0.20589991  1
  Rh  Rh240  1  0.41375571  0.00667240  0.60668957  1
  Rh  Rh241  1  0.80527383  0.21136342  0.20327124  1
  Rh  Rh242  1  0.59569038  0.59932216  0.40113817  1
  Rh  Rh243  1  0.59791427  0.40175691  0.19538448  1
  Rh  Rh244  1  0.59898601  0.19147002  0.59321613  1
  Rh  Rh245  1  0.39878830  0.60328077  0.59767302  1
  Rh  Rh246  1  0.60510584  0.00429721  0.39886497  1
  Rh  Rh247  1  0.39984896  -0.00038240  0.79582688  1
  Rh  Rh248  1  0.41149624  -0.00597019  0.20015864  1
  Rh  Rh249  1  -0.00186175  0.78306789  0.39929767  1
