# generated using pymatgen
data_ZrScNbPdRh
_symmetry_space_group_name_H-M   'P 1'
_cell_length_a   16.55842640
_cell_length_b   16.55909862
_cell_length_c   16.55344435
_cell_angle_alpha   90.01152546
_cell_angle_beta   90.03781511
_cell_angle_gamma   90.01790007
_symmetry_Int_Tables_number   1
_chemical_formula_structural   ZrScNbPdRh
_chemical_formula_sum   'Zr50 Sc50 Nb50 Pd50 Rh50'
_cell_volume   4538.83090388
_cell_formula_units_Z   50
loop_
 _symmetry_equiv_pos_site_id
 _symmetry_equiv_pos_as_xyz
  1  'x, y, z'
loop_
 _atom_site_type_symbol
 _atom_site_label
 _atom_site_symmetry_multiplicity
 _atom_site_fract_x
 _atom_site_fract_y
 _atom_site_fract_z
 _atom_site_occupancy
  Zr  Zr0  1  0.09669815  0.29964002  0.70755762  1
  Zr  Zr1  1  0.69716732  0.50058425  0.69884165  1
  Zr  Zr2  1  0.49499836  0.10427835  0.49566176  1
  Zr  Zr3  1  0.29823941  0.09989342  0.70923534  1
  Zr  Zr4  1  0.49946362  0.50006879  0.89915991  1
  Zr  Zr5  1  0.10163857  0.70504526  0.49044538  1
  Zr  Zr6  1  0.90303454  0.90227045  0.70018026  1
  Zr  Zr7  1  0.49570269  0.69762209  0.89770080  1
  Zr  Zr8  1  0.90624555  0.29797318  0.70315200  1
  Zr  Zr9  1  0.70179965  0.69372242  0.70116603  1
  Zr  Zr10  1  0.90301669  0.49949564  0.09646463  1
  Zr  Zr11  1  0.50121192  0.70076927  0.29925833  1
  Zr  Zr12  1  0.69713300  0.49370711  0.29820406  1
  Zr  Zr13  1  0.89483559  0.29134593  0.49697423  1
  Zr  Zr14  1  0.91330751  0.90957935  0.28370840  1
  Zr  Zr15  1  0.48924466  0.70675578  0.49726756  1
  Zr  Zr16  1  0.70303074  0.30242065  0.29743696  1
  Zr  Zr17  1  0.50375589  0.90065733  0.91274436  1
  Zr  Zr18  1  0.70628301  0.09208907  0.71036062  1
  Zr  Zr19  1  0.49720823  0.09137303  0.90192127  1
  Zr  Zr20  1  0.09453745  0.30543784  0.89878974  1
  Zr  Zr21  1  0.49653989  0.69809183  0.69574276  1
  Zr  Zr22  1  0.89957765  0.70431869  0.90608294  1
  Zr  Zr23  1  0.10761049  0.89696708  0.49646971  1
  Zr  Zr24  1  0.90038716  0.10511784  0.29741222  1
  Zr  Zr25  1  0.89504718  0.50571937  0.68812386  1
  Zr  Zr26  1  0.49336831  0.09508505  0.70234806  1
  Zr  Zr27  1  0.30416942  0.50174465  0.90823539  1
  Zr  Zr28  1  0.49509884  0.29599447  0.91069875  1
  Zr  Zr29  1  0.90001552  0.30414196  0.90078907  1
  Zr  Zr30  1  0.89538281  0.10445596  0.69989742  1
  Zr  Zr31  1  0.69959458  0.09979750  0.11025248  1
  Zr  Zr32  1  0.49657088  0.89644039  0.30276847  1
  Zr  Zr33  1  0.09902169  0.09137941  0.30077125  1
  Zr  Zr34  1  0.70338201  0.89679198  0.69888568  1
  Zr  Zr35  1  0.29943737  0.69323831  0.89598350  1
  Zr  Zr36  1  0.29295195  0.29234876  0.90459805  1
  Zr  Zr37  1  0.70391343  0.89543228  0.49779675  1
  Zr  Zr38  1  0.90572536  0.69065036  0.48728959  1
  Zr  Zr39  1  0.30245105  0.70170997  0.69352241  1
  Zr  Zr40  1  0.30073838  0.90505126  0.91451433  1
  Zr  Zr41  1  0.09947198  0.50560277  0.49442732  1
  Zr  Zr42  1  0.09304783  0.49293156  0.69569502  1
  Zr  Zr43  1  0.49722415  0.49598530  0.09047307  1
  Zr  Zr44  1  0.69835294  0.70633365  0.29938245  1
  Zr  Zr45  1  0.30255119  0.89820601  0.48960294  1
  Zr  Zr46  1  0.70146977  0.49276822  0.10202910  1
  Zr  Zr47  1  0.50538961  0.70722912  0.10095797  1
  Zr  Zr48  1  0.71000739  0.49475852  0.50282318  1
  Zr  Zr49  1  0.30753406  0.10214077  0.50855898  1
  Sc  Sc50  1  0.50140303  0.89184970  0.70475607  1
  Sc  Sc51  1  0.29688933  0.69846652  0.50211180  1
  Sc  Sc52  1  0.90983057  0.69801377  0.69615958  1
  Sc  Sc53  1  0.91200208  0.89642074  0.90949975  1
  Sc  Sc54  1  0.50450909  0.10440482  0.09904237  1
  Sc  Sc55  1  0.88436235  0.31133549  0.09667212  1
  Sc  Sc56  1  0.09435659  0.70092649  0.90324964  1
  Sc  Sc57  1  0.69838899  0.10675949  0.29321181  1
  Sc  Sc58  1  0.69783624  0.30021405  0.49485078  1
  Sc  Sc59  1  0.10220491  0.89764116  0.10257072  1
  Sc  Sc60  1  0.49083505  0.49620898  0.50002386  1
  Sc  Sc61  1  0.10154181  0.49267837  0.90028796  1
  Sc  Sc62  1  0.50555054  0.30379543  0.69888343  1
  Sc  Sc63  1  0.29813726  0.90050842  0.69014137  1
  Sc  Sc64  1  0.90549253  0.50030875  0.90592824  1
  Sc  Sc65  1  0.49482901  0.29665280  0.49524279  1
  Sc  Sc66  1  0.11068283  0.29762996  0.29934006  1
  Sc  Sc67  1  0.69617789  0.90419095  0.90094092  1
  Sc  Sc68  1  0.89434862  0.50650393  0.30625159  1
  Sc  Sc69  1  0.29758264  0.71115401  0.10365999  1
  Sc  Sc70  1  0.09971412  0.09609495  0.70369211  1
  Sc  Sc71  1  0.69942467  0.90392065  0.29419668  1
  Sc  Sc72  1  0.70315892  0.70411278  0.90527028  1
  Sc  Sc73  1  0.10460938  0.09243112  0.90055458  1
  Sc  Sc74  1  0.69278334  0.30259292  0.10593177  1
  Sc  Sc75  1  0.10037498  0.90215588  0.90579799  1
  Sc  Sc76  1  0.10890870  0.09868286  0.10332140  1
  Sc  Sc77  1  0.09286718  0.09369256  0.49747317  1
  Sc  Sc78  1  0.10609850  0.69259191  0.69807560  1
  Sc  Sc79  1  0.69113342  0.90156389  0.09301887  1
  Sc  Sc80  1  0.71001241  0.11151432  0.49949967  1
  Sc  Sc81  1  0.09601713  0.89780099  0.69388506  1
  Sc  Sc82  1  0.50172142  0.29598228  0.30519249  1
  Sc  Sc83  1  0.29345716  0.09976867  0.29505001  1
  Sc  Sc84  1  0.28814149  0.28747080  0.70028223  1
  Sc  Sc85  1  0.11321931  0.30263152  0.09460093  1
  Sc  Sc86  1  0.29492754  0.70381510  0.30435807  1
  Sc  Sc87  1  0.90594273  0.89376353  0.50786102  1
  Sc  Sc88  1  0.91240043  0.70421714  0.09183813  1
  Sc  Sc89  1  0.29606704  0.50575757  0.49590148  1
  Sc  Sc90  1  0.70819222  0.70925206  0.49624873  1
  Sc  Sc91  1  0.69847801  0.30451524  0.69376831  1
  Sc  Sc92  1  0.30524977  0.29772319  0.30293129  1
  Sc  Sc93  1  0.28675521  0.51337517  0.70051137  1
  Sc  Sc94  1  0.51014271  0.49602938  0.69997045  1
  Sc  Sc95  1  0.29153464  0.49571851  0.30554888  1
  Sc  Sc96  1  0.70775930  0.29486095  0.90845753  1
  Sc  Sc97  1  0.49785910  0.49025014  0.30071616  1
  Sc  Sc98  1  0.50462550  0.10484181  0.29594598  1
  Sc  Sc99  1  0.09868061  0.30429507  0.51276152  1
  Nb  Nb100  1  0.11126476  0.90086077  0.29991382  1
  Nb  Nb101  1  0.29686698  0.10409268  0.09643052  1
  Nb  Nb102  1  0.50030993  0.90120345  0.49452008  1
  Nb  Nb103  1  0.29863075  0.90356495  0.10477787  1
  Nb  Nb104  1  0.90216860  0.70490543  0.29354611  1
  Nb  Nb105  1  0.10503700  0.49965845  0.10848138  1
  Nb  Nb106  1  0.89646638  0.10485068  0.49413914  1
  Nb  Nb107  1  0.89997898  0.09533376  0.10992048  1
  Nb  Nb108  1  0.70307693  0.09886586  0.89970716  1
  Nb  Nb109  1  0.30205676  0.29250293  0.09898465  1
  Nb  Nb110  1  0.90151301  0.30245259  0.29898783  1
  Nb  Nb111  1  0.30517902  0.29534286  0.50186708  1
  Nb  Nb112  1  0.10108257  0.69464505  0.11100312  1
  Nb  Nb113  1  0.28928770  0.90266495  0.29569617  1
  Nb  Nb114  1  0.89998508  0.90421633  0.09825612  1
  Nb  Nb115  1  0.08977788  0.70363360  0.29405561  1
  Nb  Nb116  1  0.90360688  0.49687177  0.49624022  1
  Nb  Nb117  1  0.49563017  0.90627231  0.09857578  1
  Nb  Nb118  1  0.69632582  0.50784734  0.89163014  1
  Nb  Nb119  1  0.88837274  0.11040669  0.90101928  1
  Nb  Nb120  1  0.10174572  0.50175887  0.29705978  1
  Nb  Nb121  1  0.70411474  0.70121983  0.09896335  1
  Nb  Nb122  1  0.30326485  0.09876138  0.90318486  1
  Nb  Nb123  1  0.49476010  0.30113422  0.09821260  1
  Nb  Nb124  1  0.29910206  0.49798735  0.09987795  1
  Nb  Nb125  1  -0.00858356  0.19556559  0.00614150  1
  Nb  Nb126  1  0.39747917  0.59402095  0.19521004  1
  Nb  Nb127  1  0.59818386  0.19016821  0.60463605  1
  Nb  Nb128  1  0.60015363  0.60099299  0.40377471  1
  Nb  Nb129  1  0.39068527  0.39695304  0.60524390  1
  Nb  Nb130  1  0.19721825  0.59715942  0.01323010  1
  Nb  Nb131  1  0.60182519  0.19302510  0.80257839  1
  Nb  Nb132  1  0.20413196  0.79915158  0.80256326  1
  Nb  Nb133  1  0.39582606  0.39795103  0.18874731  1
  Nb  Nb134  1  0.39471227  -0.00501934  0.19365507  1
  Nb  Nb135  1  0.79772450  0.40697185  0.80027805  1
  Nb  Nb136  1  -0.00294962  0.20674704  0.19533738  1
  Nb  Nb137  1  0.60173799  0.60178463  0.59097974  1
  Nb  Nb138  1  0.80572545  0.79828476  0.19217143  1
  Nb  Nb139  1  0.39535257  0.39781280  0.79953339  1
  Nb  Nb140  1  0.80449277  0.00364514  0.39888418  1
  Nb  Nb141  1  0.79958447  0.60954984  0.19723230  1
  Nb  Nb142  1  0.80577913  0.00898023  0.00257371  1
  Nb  Nb143  1  0.59970449  -0.00033540  0.59418063  1
  Nb  Nb144  1  0.00007359  0.40173480  0.39647311  1
  Nb  Nb145  1  0.60340433  0.00032388  0.40709581  1
  Nb  Nb146  1  0.80547231  0.80062359  0.80072555  1
  Nb  Nb147  1  0.20360492  0.19883623  0.40881675  1
  Nb  Nb148  1  0.60388340  0.59995147  0.00192028  1
  Nb  Nb149  1  0.00437273  0.40151665  0.20449554  1
  Pd  Pd150  1  0.59828489  0.59464173  0.20016399  1
  Pd  Pd151  1  -0.00654799  -0.00784262  0.40596037  1
  Pd  Pd152  1  0.80866251  0.60248895  0.80434661  1
  Pd  Pd153  1  -0.00290117  0.80983935  0.39454285  1
  Pd  Pd154  1  0.59530861  0.40280090  0.40584323  1
  Pd  Pd155  1  -0.00807461  0.59402076  0.20459085  1
  Pd  Pd156  1  0.40162989  0.19782997  0.20045867  1
  Pd  Pd157  1  0.60668939  0.79702086  0.80652685  1
  Pd  Pd158  1  0.39624624  -0.01311872  0.80117872  1
  Pd  Pd159  1  0.40616187  -0.00976436  0.60138536  1
  Pd  Pd160  1  0.19098288  0.19163554  0.59703453  1
  Pd  Pd161  1  0.20749997  0.40359506  0.59924444  1
  Pd  Pd162  1  0.80549001  0.39139083  0.60191139  1
  Pd  Pd163  1  0.40488478  0.20803160  0.79754221  1
  Pd  Pd164  1  0.39139717  0.80967004  0.80238251  1
  Pd  Pd165  1  0.20184933  -0.01098748  0.79989336  1
  Pd  Pd166  1  0.60568396  0.80950493  0.19615033  1
  Pd  Pd167  1  0.81069599  0.79048993  0.60502921  1
  Pd  Pd168  1  0.40009263  0.00674113  0.38640176  1
  Pd  Pd169  1  0.79892262  0.00418534  0.59055461  1
  Pd  Pd170  1  0.00472725  0.18967612  0.81090685  1
  Pd  Pd171  1  0.40171882  0.59547849  0.38967037  1
  Pd  Pd172  1  0.00416200  0.19308912  0.59876269  1
  Pd  Pd173  1  0.39504562  0.80046887  0.20540919  1
  Pd  Pd174  1  0.19392519  0.79308894  -0.00082287  1
  Pd  Pd175  1  0.80033881  0.19647486  0.01463078  1
  Pd  Pd176  1  0.19085177  0.19376337  -0.00485659  1
  Pd  Pd177  1  0.79479711  0.59597198  0.00377656  1
  Pd  Pd178  1  0.60774146  0.40207469  -0.00718000  1
  Pd  Pd179  1  -0.00267701  0.00513433  0.59707411  1
  Pd  Pd180  1  0.39732717  0.79646870  0.00209141  1
  Pd  Pd181  1  0.40323900  0.58883383  0.78845459  1
  Pd  Pd182  1  0.20547602  0.39253653  0.20047797  1
  Pd  Pd183  1  0.01086807  0.20905008  0.39517016  1
  Pd  Pd184  1  -0.00229472  0.00916387  0.00379588  1
  Pd  Pd185  1  0.01242291  0.59674848  -0.00065075  1
  Pd  Pd186  1  0.20832864  0.40199938  0.79869443  1
  Pd  Pd187  1  0.00188858  0.59573623  0.80371150  1
  Pd  Pd188  1  0.59673275  0.79879167  0.59461700  1
  Pd  Pd189  1  0.20942868  0.60523824  0.20324810  1
  Pd  Pd190  1  0.19696815  0.39135812  0.40619108  1
  Pd  Pd191  1  0.60283581  0.19512656  -0.00124755  1
  Pd  Pd192  1  0.81369907  0.81431420  0.38609046  1
  Pd  Pd193  1  0.81174909  -0.01281250  0.81448342  1
  Pd  Pd194  1  0.00533110  0.60402643  0.59559496  1
  Pd  Pd195  1  0.60332594  0.38583441  0.81094315  1
  Pd  Pd196  1  0.79319959  0.60099489  0.39496860  1
  Pd  Pd197  1  0.19853257  0.00234469  0.59747017  1
  Pd  Pd198  1  -0.00566409  0.00463425  0.80625741  1
  Pd  Pd199  1  0.00605281  0.79954436  0.79777354  1
  Rh  Rh200  1  0.59618152  0.00113876  0.79815462  1
  Rh  Rh201  1  0.39815568  0.19174036  0.00334005  1
  Rh  Rh202  1  0.60443839  0.19455762  0.40516773  1
  Rh  Rh203  1  0.58845110  -0.00394316  0.20466617  1
  Rh  Rh204  1  0.39249065  0.80011491  0.39552196  1
  Rh  Rh205  1  0.19434320  0.79880279  0.20371077  1
  Rh  Rh206  1  0.00483117  0.79303557  0.59788266  1
  Rh  Rh207  1  0.79579420  0.20228767  0.60618534  1
  Rh  Rh208  1  0.19761363  0.19946016  0.20602091  1
  Rh  Rh209  1  0.20291695  0.00237308  0.00530774  1
  Rh  Rh210  1  0.20248970  -0.00022467  0.19469348  1
  Rh  Rh211  1  0.00425564  0.59501203  0.38957111  1
  Rh  Rh212  1  0.80506712  0.20956702  0.19888960  1
  Rh  Rh213  1  0.39767363  0.61330664  0.01319214  1
  Rh  Rh214  1  0.01035504  0.80030924  0.00856658  1
  Rh  Rh215  1  0.38877923  0.38999019  -0.00085973  1
  Rh  Rh216  1  0.39131294  0.19538191  0.39274495  1
  Rh  Rh217  1  0.79380062  -0.00991557  0.19685119  1
  Rh  Rh218  1  -0.01188178  0.41118719  0.79448757  1
  Rh  Rh219  1  0.20303822  0.40420421  0.00146430  1
  Rh  Rh220  1  0.59581358  0.20904294  0.19865107  1
  Rh  Rh221  1  0.59962734  0.79510044  -0.00166649  1
  Rh  Rh222  1  0.59598290  0.60950765  0.80034017  1
  Rh  Rh223  1  0.39781867  0.80686008  0.59460701  1
  Rh  Rh224  1  0.19468260  0.60148278  0.59227164  1
  Rh  Rh225  1  0.39603614  0.00851818  0.01089552  1
  Rh  Rh226  1  0.80852038  0.40849740  0.20703204  1
  Rh  Rh227  1  0.80165688  0.81396081  -0.00010301  1
  Rh  Rh228  1  0.60729477  0.00791446  0.00315760  1
  Rh  Rh229  1  0.40558588  0.58903497  0.60458524  1
  Rh  Rh230  1  0.80813017  0.39657270  0.39922047  1
  Rh  Rh231  1  0.19338236  0.19310092  0.80688441  1
  Rh  Rh232  1  -0.00645403  0.39969393  0.59259788  1
  Rh  Rh233  1  0.20007282  0.79725470  0.39269784  1
  Rh  Rh234  1  0.79574668  0.19787195  0.38910444  1
  Rh  Rh235  1  0.00671748  0.39282388  0.01352118  1
  Rh  Rh236  1  0.79821332  0.60693554  0.58850822  1
  Rh  Rh237  1  0.18996834  0.60497330  0.81237243  1
  Rh  Rh238  1  0.59740471  0.80077066  0.40121885  1
  Rh  Rh239  1  0.39285659  0.39759563  0.40243272  1
  Rh  Rh240  1  0.00336180  0.80412216  0.19471607  1
  Rh  Rh241  1  0.40563871  0.21164248  0.61046081  1
  Rh  Rh242  1  0.19341639  0.60737592  0.39319163  1
  Rh  Rh243  1  0.01311974  0.00354455  0.19224805  1
  Rh  Rh244  1  0.58462404  0.39277132  0.20054419  1
  Rh  Rh245  1  0.79087176  0.21260252  0.79362637  1
  Rh  Rh246  1  0.20588167  0.00766998  0.40553514  1
  Rh  Rh247  1  0.19868804  0.79727789  0.60387213  1
  Rh  Rh248  1  0.59014044  0.39902396  0.58918364  1
  Rh  Rh249  1  0.79105157  0.41104422  -0.01329434  1
