# generated using pymatgen
data_ZrScNbPdRh
_symmetry_space_group_name_H-M   'P 1'
_cell_length_a   16.55665358
_cell_length_b   16.55947228
_cell_length_c   16.55592994
_cell_angle_alpha   90.04436563
_cell_angle_beta   89.97257696
_cell_angle_gamma   89.99724504
_symmetry_Int_Tables_number   1
_chemical_formula_structural   ZrScNbPdRh
_chemical_formula_sum   'Zr50 Sc50 Nb50 Pd50 Rh50'
_cell_volume   4539.12825176
_cell_formula_units_Z   50
loop_
 _symmetry_equiv_pos_site_id
 _symmetry_equiv_pos_as_xyz
  1  'x, y, z'
loop_
 _atom_site_type_symbol
 _atom_site_label
 _atom_site_symmetry_multiplicity
 _atom_site_fract_x
 _atom_site_fract_y
 _atom_site_fract_z
 _atom_site_occupancy
  Zr  Zr0  1  0.90176245  0.10044310  0.30554852  1
  Zr  Zr1  1  0.30707172  0.91068177  0.09972522  1
  Zr  Zr2  1  0.49876046  0.50082410  0.09697114  1
  Zr  Zr3  1  0.89548774  0.50281018  0.49768142  1
  Zr  Zr4  1  0.28960970  0.90056075  0.89640153  1
  Zr  Zr5  1  0.30587087  0.50749657  0.09454467  1
  Zr  Zr6  1  0.29894508  0.10089453  0.30090684  1
  Zr  Zr7  1  0.10106356  0.70473375  0.08695858  1
  Zr  Zr8  1  0.70592248  0.49322442  0.69550395  1
  Zr  Zr9  1  0.28348097  0.69815815  0.90355657  1
  Zr  Zr10  1  0.69709353  0.09269939  0.10159331  1
  Zr  Zr11  1  0.10353692  0.90987770  0.49784278  1
  Zr  Zr12  1  0.90067359  0.70501190  0.09335316  1
  Zr  Zr13  1  0.69745382  0.30399093  0.50903882  1
  Zr  Zr14  1  0.09661232  0.09364138  0.31049199  1
  Zr  Zr15  1  0.89626368  0.89713854  0.70222364  1
  Zr  Zr16  1  0.90322216  0.30336099  0.90280570  1
  Zr  Zr17  1  0.10228983  0.30002427  0.89829619  1
  Zr  Zr18  1  0.30545718  0.69992246  0.29756197  1
  Zr  Zr19  1  0.27981970  0.49599462  0.30479654  1
  Zr  Zr20  1  0.10233089  0.70037055  0.51046362  1
  Zr  Zr21  1  0.69607939  0.51549318  0.90659881  1
  Zr  Zr22  1  0.29999989  0.08791855  0.69764386  1
  Zr  Zr23  1  0.49750928  0.69127750  0.50478562  1
  Zr  Zr24  1  0.10039327  0.69201289  0.70149645  1
  Zr  Zr25  1  0.50313103  0.29814730  0.48930761  1
  Zr  Zr26  1  0.89893663  0.90386786  0.09946748  1
  Zr  Zr27  1  0.30146928  0.10415934  0.09934061  1
  Zr  Zr28  1  0.09751428  0.09777286  0.68070481  1
  Zr  Zr29  1  0.70233357  0.09690779  0.69895697  1
  Zr  Zr30  1  0.10127950  0.29200268  0.10023601  1
  Zr  Zr31  1  0.49585870  0.10225046  0.70054529  1
  Zr  Zr32  1  0.69993969  0.90230896  0.50020094  1
  Zr  Zr33  1  0.10455062  0.50368687  0.88303970  1
  Zr  Zr34  1  0.30418897  0.29918873  0.29361704  1
  Zr  Zr35  1  0.10620528  0.30487054  0.29473305  1
  Zr  Zr36  1  0.10141388  0.89178166  0.90407861  1
  Zr  Zr37  1  0.69964653  0.90026658  0.29266646  1
  Zr  Zr38  1  0.30395741  0.49821635  0.49778459  1
  Zr  Zr39  1  0.50665897  0.10366439  0.90231026  1
  Zr  Zr40  1  0.50198549  0.09638860  0.08793682  1
  Zr  Zr41  1  0.70320393  0.69565915  0.09681874  1
  Zr  Zr42  1  0.49672517  0.90277781  0.49469693  1
  Zr  Zr43  1  0.70691120  0.69812303  0.48953115  1
  Zr  Zr44  1  0.70682168  0.49955731  0.30036450  1
  Zr  Zr45  1  0.89315963  0.31474630  0.70412452  1
  Zr  Zr46  1  0.10279688  0.90105762  0.29994301  1
  Zr  Zr47  1  0.10683318  0.69443461  0.29906945  1
  Zr  Zr48  1  0.90188170  0.49089776  0.29512178  1
  Zr  Zr49  1  0.30468500  0.90298598  0.30407778  1
  Sc  Sc50  1  0.90013199  0.90443033  0.89641941  1
  Sc  Sc51  1  0.49772331  0.28984378  0.89843851  1
  Sc  Sc52  1  0.70612252  0.10170730  0.49443472  1
  Sc  Sc53  1  0.70191662  0.89136678  0.88770862  1
  Sc  Sc54  1  0.09860178  0.89988534  0.70236866  1
  Sc  Sc55  1  0.89914948  0.08369730  0.69863706  1
  Sc  Sc56  1  0.68664270  0.28731147  0.90133566  1
  Sc  Sc57  1  0.09773521  0.09541078  0.91627136  1
  Sc  Sc58  1  0.90896100  0.30287126  0.11215488  1
  Sc  Sc59  1  0.09184543  0.90276906  0.09855024  1
  Sc  Sc60  1  0.50098837  0.29811203  0.69586920  1
  Sc  Sc61  1  0.30107101  0.30489967  0.89585826  1
  Sc  Sc62  1  0.50798771  0.49587070  0.30833510  1
  Sc  Sc63  1  0.69443766  0.49784893  0.49403672  1
  Sc  Sc64  1  0.30603675  0.29926782  0.49163789  1
  Sc  Sc65  1  0.89434521  0.29069288  0.49874425  1
  Sc  Sc66  1  0.49450415  0.90301418  0.69348275  1
  Sc  Sc67  1  0.90606890  0.50571200  0.70442442  1
  Sc  Sc68  1  0.70419449  0.69986643  0.90175310  1
  Sc  Sc69  1  0.30527628  0.30007699  0.70263655  1
  Sc  Sc70  1  0.09892111  0.30003676  0.70303618  1
  Sc  Sc71  1  0.69045197  0.30282797  0.11611244  1
  Sc  Sc72  1  0.50582274  0.49650129  0.50891487  1
  Sc  Sc73  1  0.09776720  0.69872303  0.89740847  1
  Sc  Sc74  1  0.50250972  0.90309252  0.89944762  1
  Sc  Sc75  1  0.29575179  0.09936904  0.49972239  1
  Sc  Sc76  1  0.69829482  0.29865737  0.69815388  1
  Sc  Sc77  1  0.69954026  0.90416396  0.10650811  1
  Sc  Sc78  1  0.50090838  0.10105067  0.50030641  1
  Sc  Sc79  1  0.49241901  0.51108857  0.90151899  1
  Sc  Sc80  1  0.30000507  0.50339710  0.89955502  1
  Sc  Sc81  1  0.89861163  0.70040778  0.89769390  1
  Sc  Sc82  1  0.89339403  0.89093742  0.51329279  1
  Sc  Sc83  1  0.48939994  0.69480600  0.10769627  1
  Sc  Sc84  1  0.50384114  0.10545557  0.30757553  1
  Sc  Sc85  1  0.69220202  0.30287608  0.30535495  1
  Sc  Sc86  1  0.69487690  0.70701605  0.71369807  1
  Sc  Sc87  1  0.88506499  0.70064532  0.29630995  1
  Sc  Sc88  1  0.30454625  0.50082939  0.70818606  1
  Sc  Sc89  1  0.30312292  0.09220933  0.90619415  1
  Sc  Sc90  1  0.11225962  0.50827734  0.49505321  1
  Sc  Sc91  1  0.51351284  0.69719999  0.88819335  1
  Sc  Sc92  1  0.89838224  0.50338270  0.89227540  1
  Sc  Sc93  1  0.70927263  0.89939376  0.69768944  1
  Sc  Sc94  1  0.69292583  0.09754886  0.90762312  1
  Sc  Sc95  1  0.09367381  0.09864719  0.10337358  1
  Sc  Sc96  1  0.89848792  0.90035418  0.28998505  1
  Sc  Sc97  1  0.30056652  0.89697116  0.50409702  1
  Sc  Sc98  1  0.89740066  0.50253443  0.10602110  1
  Sc  Sc99  1  0.09616893  0.50663998  0.11232850  1
  Nb  Nb100  1  0.90214277  0.10007168  0.09710911  1
  Nb  Nb101  1  0.49593197  0.69846048  0.69624009  1
  Nb  Nb102  1  0.09986351  0.49773286  0.69783798  1
  Nb  Nb103  1  0.29755393  0.69824073  0.09312533  1
  Nb  Nb104  1  0.50151170  0.70185597  0.30031066  1
  Nb  Nb105  1  0.90310134  0.30160026  0.29513594  1
  Nb  Nb106  1  0.90402814  0.70139651  0.50192619  1
  Nb  Nb107  1  0.30590117  0.70673565  0.68908748  1
  Nb  Nb108  1  0.09949014  0.50039478  0.30668061  1
  Nb  Nb109  1  0.09945327  0.29229976  0.50582359  1
  Nb  Nb110  1  0.69729384  0.49888723  0.09955329  1
  Nb  Nb111  1  0.50026696  0.88753470  0.29162615  1
  Nb  Nb112  1  0.50420905  0.51015430  0.70171092  1
  Nb  Nb113  1  0.50363246  0.29884311  0.29476835  1
  Nb  Nb114  1  0.29902836  0.89960466  0.70242003  1
  Nb  Nb115  1  0.30118613  0.30797272  0.10649687  1
  Nb  Nb116  1  0.09148115  0.10366513  0.50068533  1
  Nb  Nb117  1  0.30233090  0.69728318  0.50643429  1
  Nb  Nb118  1  0.90750224  0.70725939  0.68235417  1
  Nb  Nb119  1  0.70690437  0.09685390  0.29870954  1
  Nb  Nb120  1  0.89908818  0.10181414  0.90621230  1
  Nb  Nb121  1  0.69322402  0.70010550  0.29953249  1
  Nb  Nb122  1  0.91342911  0.09797558  0.50126923  1
  Nb  Nb123  1  0.50377503  0.89947083  0.10089413  1
  Nb  Nb124  1  0.49476515  0.30397612  0.10924872  1
  Nb  Nb125  1  -0.00187418  0.60125088  0.39920476  1
  Nb  Nb126  1  0.20610056  0.79958140  0.19556182  1
  Nb  Nb127  1  0.80667382  0.19483537  0.80765051  1
  Nb  Nb128  1  0.59549445  0.79891714  0.39558557  1
  Nb  Nb129  1  0.59750798  0.40119103  0.00196617  1
  Nb  Nb130  1  0.39389584  0.79794072  0.79669017  1
  Nb  Nb131  1  0.59655064  0.79608821  0.59482657  1
  Nb  Nb132  1  0.59852006  0.00324632  0.79554274  1
  Nb  Nb133  1  0.19454215  0.19218408  0.79847305  1
  Nb  Nb134  1  0.80233680  0.20192619  0.00794347  1
  Nb  Nb135  1  0.19573412  0.39847783  0.59941365  1
  Nb  Nb136  1  0.00708383  0.40161951  0.59299707  1
  Nb  Nb137  1  0.80344704  0.60769442  0.59874296  1
  Nb  Nb138  1  0.00405731  0.40210862  -0.00081855  1
  Nb  Nb139  1  0.79452950  0.39750339  0.00473762  1
  Nb  Nb140  1  -0.00288579  0.19402742  0.80140652  1
  Nb  Nb141  1  0.59619647  0.40873301  0.80384200  1
  Nb  Nb142  1  -0.00081423  0.79334893  0.40225623  1
  Nb  Nb143  1  0.00615746  0.39919309  0.40147612  1
  Nb  Nb144  1  0.80239522  0.19523565  0.20363970  1
  Nb  Nb145  1  0.60312952  0.60098066  0.20325682  1
  Nb  Nb146  1  0.59317940  0.80100197  0.00886993  1
  Nb  Nb147  1  0.39783349  0.60268296  0.40151508  1
  Nb  Nb148  1  0.19821319  0.40008668  0.00604718  1
  Nb  Nb149  1  0.40062355  0.79961462  -0.00343575  1
  Pd  Pd150  1  0.00493648  0.79537903  0.20515848  1
  Pd  Pd151  1  0.58974316  0.00507729  0.20774382  1
  Pd  Pd152  1  0.19641321  0.19236659  0.20194633  1
  Pd  Pd153  1  0.40248164  0.79379927  0.40620830  1
  Pd  Pd154  1  0.79764321  0.60052696  0.19803425  1
  Pd  Pd155  1  0.40074233  0.00454314  0.39987342  1
  Pd  Pd156  1  0.20033249  0.20133345  0.40147477  1
  Pd  Pd157  1  0.20077841  0.60387038  0.19223248  1
  Pd  Pd158  1  0.60145910  0.19223253  0.20248129  1
  Pd  Pd159  1  0.41159170  0.40234842  0.80019220  1
  Pd  Pd160  1  0.59817890  -0.00307521  0.39166488  1
  Pd  Pd161  1  -0.00562565  0.60895102  0.20614631  1
  Pd  Pd162  1  0.40034012  0.41171956  0.21068887  1
  Pd  Pd163  1  0.38994355  0.19528614  0.80302445  1
  Pd  Pd164  1  0.40475262  0.40438299  0.39273080  1
  Pd  Pd165  1  0.39905186  0.40235543  0.60652933  1
  Pd  Pd166  1  0.80883083  0.19297693  0.60815833  1
  Pd  Pd167  1  0.80762047  -0.00721071  0.40413033  1
  Pd  Pd168  1  0.00266632  0.21019284  0.39578631  1
  Pd  Pd169  1  -0.01403177  0.20766730  0.61107392  1
  Pd  Pd170  1  0.18676038  0.00766324  0.79994170  1
  Pd  Pd171  1  0.20909386  0.20638765  0.60474573  1
  Pd  Pd172  1  0.19635331  -0.00139810  0.19581454  1
  Pd  Pd173  1  0.59820025  0.19722979  0.59658459  1
  Pd  Pd174  1  0.40472861  0.58878464  0.21333304  1
  Pd  Pd175  1  0.21172485  0.20514657  -0.00561837  1
  Pd  Pd176  1  0.39465190  0.79997081  0.19037786  1
  Pd  Pd177  1  0.80326356  0.80660737  0.39453392  1
  Pd  Pd178  1  0.41119905  0.00840903  0.20605799  1
  Pd  Pd179  1  0.79497748  -0.00207270  -0.00589327  1
  Pd  Pd180  1  -0.01340396  -0.01561055  0.40533398  1
  Pd  Pd181  1  0.40739794  0.19346789  0.19884841  1
  Pd  Pd182  1  0.19621419  0.80736004  0.60527299  1
  Pd  Pd183  1  0.21019410  0.59125401  0.60781775  1
  Pd  Pd184  1  0.80250489  0.39030608  0.40197154  1
  Pd  Pd185  1  0.40113905  0.39259416  -0.00500965  1
  Pd  Pd186  1  0.39632629  0.19975062  0.59391618  1
  Pd  Pd187  1  0.39503635  0.20881738  0.00137151  1
  Pd  Pd188  1  0.61450256  0.60642965  0.60622059  1
  Pd  Pd189  1  0.00797914  0.00641260  0.80452068  1
  Pd  Pd190  1  0.78134265  0.39361734  0.81716937  1
  Pd  Pd191  1  0.60089534  -0.00400558  0.60430070  1
  Pd  Pd192  1  0.79294100  0.80733887  -0.00184416  1
  Pd  Pd193  1  0.19911862  0.79697927  0.39913686  1
  Pd  Pd194  1  0.80566649  0.60974113  0.78891453  1
  Pd  Pd195  1  -0.00253479  0.79483997  0.80077940  1
  Pd  Pd196  1  0.40619296  -0.00515037  0.80456996  1
  Pd  Pd197  1  0.39305716  0.61116182  0.80215092  1
  Pd  Pd198  1  -0.00078213  0.59111465  -0.00585646  1
  Pd  Pd199  1  0.79519761  0.20556609  0.39536297  1
  Rh  Rh200  1  0.79782742  0.39128924  0.19619843  1
  Rh  Rh201  1  -0.00662419  0.80332585  -0.00630539  1
  Rh  Rh202  1  0.80534027  0.59995333  0.39974114  1
  Rh  Rh203  1  0.60656061  0.20018851  0.39964664  1
  Rh  Rh204  1  0.60003921  0.21312214  0.01733934  1
  Rh  Rh205  1  0.59459181  0.39956949  0.60817530  1
  Rh  Rh206  1  0.20620433  0.60419229  0.78997976  1
  Rh  Rh207  1  -0.00421507  0.60666109  0.79509353  1
  Rh  Rh208  1  0.60042699  0.39629082  0.40097626  1
  Rh  Rh209  1  -0.00287393  0.00526995  0.19976683  1
  Rh  Rh210  1  0.78693017  0.78920695  0.60473957  1
  Rh  Rh211  1  0.20377192  0.79342135  0.78874196  1
  Rh  Rh212  1  0.60387660  0.59514001  0.79331419  1
  Rh  Rh213  1  -0.00795346  0.20452594  0.00081734  1
  Rh  Rh214  1  0.20324344  0.39470451  0.79572580  1
  Rh  Rh215  1  0.40061658  0.20156997  0.39599806  1
  Rh  Rh216  1  0.60746695  -0.01564108  -0.00900697  1
  Rh  Rh217  1  0.20661923  0.81142884  0.01193843  1
  Rh  Rh218  1  0.59293321  0.60669803  0.01011165  1
  Rh  Rh219  1  0.19195741  0.38712650  0.41084996  1
  Rh  Rh220  1  0.40430224  0.80480009  0.60234350  1
  Rh  Rh221  1  0.81065722  0.59279254  0.00218372  1
  Rh  Rh222  1  0.58581907  0.81082754  0.79144645  1
  Rh  Rh223  1  0.60219006  0.79088258  0.19666032  1
  Rh  Rh224  1  0.40440096  -0.00569374  -0.00465411  1
  Rh  Rh225  1  0.80568638  0.40765923  0.59426604  1
  Rh  Rh226  1  0.19579305  -0.00172013  0.00691987  1
  Rh  Rh227  1  0.59319520  0.60366065  0.39355336  1
  Rh  Rh228  1  0.19891289  0.40547975  0.19012595  1
  Rh  Rh229  1  0.00784007  0.40126676  0.19994025  1
  Rh  Rh230  1  0.80524847  0.00717255  0.58870225  1
  Rh  Rh231  1  0.40330802  0.61622008  -0.01033015  1
  Rh  Rh232  1  -0.00377247  -0.00854127  0.59442648  1
  Rh  Rh233  1  0.00969615  0.80868959  0.59613975  1
  Rh  Rh234  1  0.78947860  0.00690333  0.80843074  1
  Rh  Rh235  1  0.20466721  0.00565616  0.40505731  1
  Rh  Rh236  1  0.39646200  0.59065043  0.59849351  1
  Rh  Rh237  1  0.79550105  0.79933793  0.19523222  1
  Rh  Rh238  1  0.20434696  0.61115439  0.40522426  1
  Rh  Rh239  1  -0.00224625  0.19277000  0.20753660  1
  Rh  Rh240  1  -0.00185040  -0.00525822  -0.00052112  1
  Rh  Rh241  1  -0.00395990  0.59062970  0.59584430  1
  Rh  Rh242  1  0.59416346  0.40921688  0.19848452  1
  Rh  Rh243  1  0.81049336  0.79422926  0.79680313  1
  Rh  Rh244  1  0.20208904  -0.00281938  0.59602922  1
  Rh  Rh245  1  0.00568868  0.39848396  0.79777735  1
  Rh  Rh246  1  0.19069698  0.58703711  0.00182365  1
  Rh  Rh247  1  0.60597619  0.19634550  0.78950013  1
  Rh  Rh248  1  0.39538851  -0.00125266  0.59384112  1
  Rh  Rh249  1  0.80693476  0.00830111  0.20030053  1
