# generated using pymatgen
data_ZrScNbPdRh
_symmetry_space_group_name_H-M   'P 1'
_cell_length_a   16.55400729
_cell_length_b   16.55767754
_cell_length_c   16.55823807
_cell_angle_alpha   90.01763395
_cell_angle_beta   89.98593163
_cell_angle_gamma   90.02242594
_symmetry_Int_Tables_number   1
_chemical_formula_structural   ZrScNbPdRh
_chemical_formula_sum   'Zr50 Sc50 Nb50 Pd50 Rh50'
_cell_volume   4538.54471052
_cell_formula_units_Z   50
loop_
 _symmetry_equiv_pos_site_id
 _symmetry_equiv_pos_as_xyz
  1  'x, y, z'
loop_
 _atom_site_type_symbol
 _atom_site_label
 _atom_site_symmetry_multiplicity
 _atom_site_fract_x
 _atom_site_fract_y
 _atom_site_fract_z
 _atom_site_occupancy
  Zr  Zr0  1  0.48672301  0.29309259  0.50568680  1
  Zr  Zr1  1  0.09988951  0.90257069  0.89582065  1
  Zr  Zr2  1  0.29903915  0.50244529  0.09357539  1
  Zr  Zr3  1  0.89476116  0.50152559  0.89553565  1
  Zr  Zr4  1  0.10737022  0.29896301  0.48983684  1
  Zr  Zr5  1  0.70057003  0.09842710  0.89859082  1
  Zr  Zr6  1  0.29889584  0.48960846  0.29372584  1
  Zr  Zr7  1  0.09034726  0.69191807  0.10642334  1
  Zr  Zr8  1  0.10435243  0.10714943  0.29840066  1
  Zr  Zr9  1  0.50203657  0.90280645  0.50997512  1
  Zr  Zr10  1  0.90369734  0.68955811  0.70317639  1
  Zr  Zr11  1  0.09744862  0.10202294  0.49242893  1
  Zr  Zr12  1  0.30112911  0.90519420  0.10149036  1
  Zr  Zr13  1  0.30124297  0.70313086  0.10334011  1
  Zr  Zr14  1  0.10376689  0.09762576  0.10180759  1
  Zr  Zr15  1  0.90481297  0.89590419  0.49129756  1
  Zr  Zr16  1  0.89934035  0.10228887  0.09956044  1
  Zr  Zr17  1  0.49447065  0.49933577  0.50043361  1
  Zr  Zr18  1  0.30735365  0.30529948  0.10509341  1
  Zr  Zr19  1  0.49262791  0.89851371  0.10219060  1
  Zr  Zr20  1  0.09356882  0.69664464  0.50196939  1
  Zr  Zr21  1  0.90063458  0.49509179  0.69982493  1
  Zr  Zr22  1  0.90410435  0.70171346  0.50308097  1
  Zr  Zr23  1  0.91041650  0.50459571  0.49527947  1
  Zr  Zr24  1  0.49598371  0.10607867  0.10209089  1
  Zr  Zr25  1  0.49759311  0.89834430  0.69865724  1
  Zr  Zr26  1  0.49855026  0.50418242  0.30433730  1
  Zr  Zr27  1  0.30298122  0.88967443  0.29275709  1
  Zr  Zr28  1  0.70114733  0.90019618  0.89504452  1
  Zr  Zr29  1  0.50763900  0.29240031  0.09819818  1
  Zr  Zr30  1  0.90385784  0.71501137  0.29948200  1
  Zr  Zr31  1  0.89650408  0.89137758  0.10605772  1
  Zr  Zr32  1  0.90654567  0.30290930  0.90081997  1
  Zr  Zr33  1  0.10107632  0.30141676  0.70786594  1
  Zr  Zr34  1  0.49799424  0.10705911  0.90645676  1
  Zr  Zr35  1  0.89759065  0.10659049  0.89484588  1
  Zr  Zr36  1  0.29667421  0.30314802  0.89989778  1
  Zr  Zr37  1  0.90401556  0.50692341  0.09959682  1
  Zr  Zr38  1  0.10504361  0.90061618  0.10287243  1
  Zr  Zr39  1  0.89680794  0.29425779  0.10061473  1
  Zr  Zr40  1  0.30368181  0.89949987  0.69957265  1
  Zr  Zr41  1  0.69174077  0.90058444  0.70131398  1
  Zr  Zr42  1  0.10128733  0.69762238  0.69877986  1
  Zr  Zr43  1  0.90139843  0.89077061  0.89866647  1
  Zr  Zr44  1  0.29887178  0.49987225  0.90058568  1
  Zr  Zr45  1  0.49884968  0.29925942  0.70438090  1
  Zr  Zr46  1  0.09887181  0.89770736  0.29797418  1
  Zr  Zr47  1  0.90649558  0.90266477  0.70192829  1
  Zr  Zr48  1  0.30313717  0.89663302  0.50216872  1
  Zr  Zr49  1  0.69702878  0.50189413  0.29994549  1
  Sc  Sc50  1  0.30821941  0.68397041  0.90233630  1
  Sc  Sc51  1  0.48416256  0.29756415  0.29204311  1
  Sc  Sc52  1  0.49388849  0.09684411  0.70117181  1
  Sc  Sc53  1  0.69125081  0.90251099  0.49319224  1
  Sc  Sc54  1  0.30153158  0.70129082  0.50138219  1
  Sc  Sc55  1  0.10181644  0.09576335  0.70436118  1
  Sc  Sc56  1  0.69323298  0.29985630  0.89602343  1
  Sc  Sc57  1  0.09500745  0.29363513  0.09640841  1
  Sc  Sc58  1  0.09805221  0.29813506  0.89786469  1
  Sc  Sc59  1  0.29637047  0.50964615  0.70842360  1
  Sc  Sc60  1  0.29790881  0.29784095  0.69780711  1
  Sc  Sc61  1  0.49764206  0.10407487  0.29246561  1
  Sc  Sc62  1  0.69383163  0.69729795  0.09307920  1
  Sc  Sc63  1  0.30326797  0.91023769  0.90375076  1
  Sc  Sc64  1  0.30234053  0.49912339  0.49916125  1
  Sc  Sc65  1  0.10672788  0.10512326  0.89620401  1
  Sc  Sc66  1  0.30272563  0.11071085  0.50847540  1
  Sc  Sc67  1  0.50018396  0.90129078  0.89540032  1
  Sc  Sc68  1  0.29699129  0.10062399  0.90294389  1
  Sc  Sc69  1  0.89126381  0.30206973  0.70494175  1
  Sc  Sc70  1  0.10066725  0.49331029  0.90244830  1
  Sc  Sc71  1  0.71391939  0.49942395  0.70117443  1
  Sc  Sc72  1  0.30075471  0.09561548  0.09655594  1
  Sc  Sc73  1  0.71129249  0.29753283  0.29795169  1
  Sc  Sc74  1  0.50460041  0.70131908  0.09746871  1
  Sc  Sc75  1  0.50393056  0.89041891  0.29866872  1
  Sc  Sc76  1  0.49565506  0.50443540  0.70060252  1
  Sc  Sc77  1  0.70328261  0.89257416  0.29988534  1
  Sc  Sc78  1  0.29736021  0.29969689  0.49955136  1
  Sc  Sc79  1  0.49583105  0.70533692  0.69457229  1
  Sc  Sc80  1  0.70216420  0.11799355  0.10285759  1
  Sc  Sc81  1  0.90450025  0.09997875  0.30070758  1
  Sc  Sc82  1  0.50063774  0.69670686  0.49914359  1
  Sc  Sc83  1  0.89736547  0.90425113  0.29811487  1
  Sc  Sc84  1  0.70578747  0.09512020  0.30044062  1
  Sc  Sc85  1  0.70580908  0.10128914  0.70823801  1
  Sc  Sc86  1  0.89806017  0.10364974  0.48988472  1
  Sc  Sc87  1  0.09950184  0.90234710  0.69856170  1
  Sc  Sc88  1  0.50183914  0.69958721  0.90534070  1
  Sc  Sc89  1  0.10708247  0.50268343  0.70402326  1
  Sc  Sc90  1  0.89868823  0.29627751  0.49096851  1
  Sc  Sc91  1  0.49631767  0.50484525  0.90149956  1
  Sc  Sc92  1  0.29943411  0.10377018  0.28774706  1
  Sc  Sc93  1  0.70265041  0.89115683  0.10385917  1
  Sc  Sc94  1  0.71539470  0.29218793  0.49936437  1
  Sc  Sc95  1  0.49825725  0.30054534  0.89908301  1
  Sc  Sc96  1  0.70523954  0.50608157  0.50682523  1
  Sc  Sc97  1  0.69662613  0.50061100  0.90254973  1
  Sc  Sc98  1  0.09628651  0.89744030  0.50436247  1
  Sc  Sc99  1  0.08494471  0.69811132  0.89929287  1
  Nb  Nb100  1  0.70240215  0.69860513  0.69352288  1
  Nb  Nb101  1  0.29658211  0.69975543  0.70695808  1
  Nb  Nb102  1  0.10840372  0.70300114  0.29740474  1
  Nb  Nb103  1  0.89759735  0.49609752  0.30391353  1
  Nb  Nb104  1  0.09845249  0.49698019  0.30284553  1
  Nb  Nb105  1  0.70353423  0.69940759  0.89732487  1
  Nb  Nb106  1  0.50301187  0.10002555  0.49743278  1
  Nb  Nb107  1  0.69091740  0.69744675  0.30321182  1
  Nb  Nb108  1  0.70003143  0.30333247  0.10012428  1
  Nb  Nb109  1  0.89270745  0.69790429  0.90751121  1
  Nb  Nb110  1  0.69903465  0.10165039  0.49969056  1
  Nb  Nb111  1  0.09657012  0.50525847  0.10775796  1
  Nb  Nb112  1  0.50268557  0.69284336  0.29799254  1
  Nb  Nb113  1  0.69368429  0.49984555  0.10361313  1
  Nb  Nb114  1  0.90451846  0.30808758  0.30389469  1
  Nb  Nb115  1  0.89832186  0.10330930  0.69803498  1
  Nb  Nb116  1  0.10839183  0.30295008  0.30424525  1
  Nb  Nb117  1  0.28603910  0.29876103  0.29853410  1
  Nb  Nb118  1  0.30389537  0.70030161  0.30103997  1
  Nb  Nb119  1  0.50584904  0.50262485  0.10386926  1
  Nb  Nb120  1  0.29255427  0.09720167  0.70607353  1
  Nb  Nb121  1  0.69808060  0.30230652  0.69232422  1
  Nb  Nb122  1  0.70423659  0.70268975  0.50318802  1
  Nb  Nb123  1  0.09980309  0.49904306  0.49160928  1
  Nb  Nb124  1  0.89915884  0.69875202  0.09251310  1
  Nb  Nb125  1  0.79570355  0.39951890  0.00858339  1
  Nb  Nb126  1  0.60377089  0.00249626  0.00551492  1
  Nb  Nb127  1  0.60196421  0.39974929  0.20069427  1
  Nb  Nb128  1  0.20814052  -0.00205554  0.39901870  1
  Nb  Nb129  1  0.59728580  0.39160959  0.40416339  1
  Nb  Nb130  1  0.19913395  0.79694485  -0.00270337  1
  Nb  Nb131  1  0.80076367  0.60697456  0.39293351  1
  Nb  Nb132  1  0.00141203  0.40382692  0.20885514  1
  Nb  Nb133  1  0.79918893  0.79004696  0.79701373  1
  Nb  Nb134  1  0.80093858  -0.00078489  0.00093718  1
  Nb  Nb135  1  0.40197907  0.60041765  0.20355238  1
  Nb  Nb136  1  0.00622236  0.39694040  0.59404526  1
  Nb  Nb137  1  0.19543168  0.59940695  0.39188207  1
  Nb  Nb138  1  0.80029148  0.60206457  0.20309227  1
  Nb  Nb139  1  0.80044210  0.00029259  0.59893959  1
  Nb  Nb140  1  0.60887845  0.60873584  0.79614663  1
  Nb  Nb141  1  0.59797498  0.20037824  0.40523931  1
  Nb  Nb142  1  0.60282620  0.19984844  0.59685228  1
  Nb  Nb143  1  0.40002776  0.00038414  0.40212538  1
  Nb  Nb144  1  0.60156821  0.39233884  0.59734106  1
  Nb  Nb145  1  0.79729758  0.80281543  0.60259244  1
  Nb  Nb146  1  0.20409649  0.79567701  0.80401770  1
  Nb  Nb147  1  0.60090066  0.00057291  0.19310673  1
  Nb  Nb148  1  -0.00213566  0.20329151  0.60228853  1
  Nb  Nb149  1  -0.00490194  0.00006656  0.00059357  1
  Pd  Pd150  1  0.79909963  -0.00166915  0.40290376  1
  Pd  Pd151  1  0.59999617  0.19612187  0.79338736  1
  Pd  Pd152  1  0.60371915  0.41273921  0.79134487  1
  Pd  Pd153  1  0.20617769  0.60044943  0.20540336  1
  Pd  Pd154  1  0.79244578  0.59458026  0.00610546  1
  Pd  Pd155  1  0.00362029  0.59216288  0.80423609  1
  Pd  Pd156  1  0.59954188  0.79183757  0.79847675  1
  Pd  Pd157  1  0.19838178  0.40616350  0.60075274  1
  Pd  Pd158  1  0.19124277  0.39779390  0.00726477  1
  Pd  Pd159  1  0.39777753  0.39307194  0.39766742  1
  Pd  Pd160  1  0.60479695  0.59711689  0.41195799  1
  Pd  Pd161  1  0.41034844  0.80079787  0.40311948  1
  Pd  Pd162  1  0.39351344  0.60479494  0.60338152  1
  Pd  Pd163  1  0.39585178  0.40479843  0.79658806  1
  Pd  Pd164  1  0.20289477  0.20340020  0.00351491  1
  Pd  Pd165  1  0.20277580  0.59665629  0.59121840  1
  Pd  Pd166  1  0.60665100  0.01078050  0.60691309  1
  Pd  Pd167  1  0.39372971  0.79444524  0.80743352  1
  Pd  Pd168  1  0.39474600  0.19372629  0.39283084  1
  Pd  Pd169  1  0.59527709  0.79672763  0.40321865  1
  Pd  Pd170  1  0.60087628  0.59393491  0.60516315  1
  Pd  Pd171  1  0.40860204  0.40033158  -0.00012133  1
  Pd  Pd172  1  0.20081474  0.00333875  0.59416330  1
  Pd  Pd173  1  0.19313374  0.19701194  0.60545610  1
  Pd  Pd174  1  0.39530382  0.40321046  0.60974898  1
  Pd  Pd175  1  0.00054849  0.00823622  0.80569328  1
  Pd  Pd176  1  0.80163413  0.40531953  0.19533759  1
  Pd  Pd177  1  0.80427278  0.19834977  0.20856695  1
  Pd  Pd178  1  0.00504700  0.80187270  0.00528788  1
  Pd  Pd179  1  0.18947541  0.60577211  -0.00556186  1
  Pd  Pd180  1  0.39596495  0.00785719  0.59726472  1
  Pd  Pd181  1  0.39934273  0.00503156  0.80445768  1
  Pd  Pd182  1  0.59269354  0.00588109  0.38683054  1
  Pd  Pd183  1  0.79306660  0.40651605  0.40737418  1
  Pd  Pd184  1  0.19997461  0.79940533  0.60590896  1
  Pd  Pd185  1  0.39171528  0.19762215  0.79929283  1
  Pd  Pd186  1  -0.00078609  0.40405749  0.00765258  1
  Pd  Pd187  1  0.59935701  0.40165766  0.00224499  1
  Pd  Pd188  1  -0.00818863  0.59910185  0.21287765  1
  Pd  Pd189  1  0.19599282  0.79871883  0.40480608  1
  Pd  Pd190  1  0.39321429  0.80008210  -0.00757228  1
  Pd  Pd191  1  0.60169079  0.80599933  -0.00072034  1
  Pd  Pd192  1  0.18910527  0.39590095  0.18961102  1
  Pd  Pd193  1  0.00179729  0.20900488  0.20864094  1
  Pd  Pd194  1  -0.00712177  0.01075501  0.59407856  1
  Pd  Pd195  1  0.79030702  0.78712231  0.19901161  1
  Pd  Pd196  1  0.80578956  0.39839663  0.59108330  1
  Pd  Pd197  1  0.79641657  0.20969200  0.80035906  1
  Pd  Pd198  1  -0.00212992  -0.00052974  0.19840714  1
  Pd  Pd199  1  0.00077285  0.60745287  0.38761229  1
  Rh  Rh200  1  0.58915452  0.00730934  0.80570275  1
  Rh  Rh201  1  0.00831149  -0.00192692  0.39656575  1
  Rh  Rh202  1  0.00404573  0.19004290  -0.00535765  1
  Rh  Rh203  1  0.20492828  -0.00127687  0.20765241  1
  Rh  Rh204  1  -0.00089923  0.20560842  0.39747865  1
  Rh  Rh205  1  0.40872414  0.59646904  0.01104897  1
  Rh  Rh206  1  0.20495902  -0.00717514  0.79875150  1
  Rh  Rh207  1  0.20359538  0.40019328  0.80245055  1
  Rh  Rh208  1  0.40124726  0.19400295  0.61056786  1
  Rh  Rh209  1  0.79238709  0.00155457  0.19228008  1
  Rh  Rh210  1  0.79527984  0.60265699  0.80170867  1
  Rh  Rh211  1  0.59978326  0.59885485  -0.00793614  1
  Rh  Rh212  1  0.60023093  0.80041753  0.20024968  1
  Rh  Rh213  1  0.20663839  0.40703978  0.40274244  1
  Rh  Rh214  1  0.40622260  -0.00227808  0.20742830  1
  Rh  Rh215  1  0.59892418  0.60072131  0.19699433  1
  Rh  Rh216  1  -0.00348920  0.79937455  0.60525849  1
  Rh  Rh217  1  0.80460627  0.60449943  0.59169039  1
  Rh  Rh218  1  0.00824312  0.80228450  0.39662812  1
  Rh  Rh219  1  0.79949892  0.19609476  0.39184201  1
  Rh  Rh220  1  0.60348030  0.79752283  0.59433058  1
  Rh  Rh221  1  0.79514752  0.79633614  0.40453969  1
  Rh  Rh222  1  0.39101563  0.20159098  0.19650807  1
  Rh  Rh223  1  0.20376850  0.20067658  0.79874434  1
  Rh  Rh224  1  0.79438117  0.39534386  0.81079145  1
  Rh  Rh225  1  0.38986740  0.60196757  0.39326883  1
  Rh  Rh226  1  0.19639709  0.60700772  0.80872405  1
  Rh  Rh227  1  0.60535672  0.19905171  -0.00447772  1
  Rh  Rh228  1  0.79669963  0.80118059  -0.00374844  1
  Rh  Rh229  1  0.39238051  0.20493398  0.00030381  1
  Rh  Rh230  1  0.40803220  0.00337226  -0.00120076  1
  Rh  Rh231  1  0.40888467  0.40644590  0.19482969  1
  Rh  Rh232  1  0.40870384  0.78877099  0.20239205  1
  Rh  Rh233  1  0.20127826  0.20571358  0.19205540  1
  Rh  Rh234  1  0.60665635  0.20485711  0.21236387  1
  Rh  Rh235  1  0.00546795  0.58791879  0.60629316  1
  Rh  Rh236  1  0.80232801  0.19104367  0.60065134  1
  Rh  Rh237  1  0.00159416  0.79940418  0.19784618  1
  Rh  Rh238  1  0.00078759  0.40197364  0.79290312  1
  Rh  Rh239  1  0.00047575  0.19907323  0.79177524  1
  Rh  Rh240  1  0.79600302  0.20739585  -0.00745260  1
  Rh  Rh241  1  0.39916259  0.79348890  0.59900796  1
  Rh  Rh242  1  0.80615101  -0.00730405  0.79721278  1
  Rh  Rh243  1  0.20885254  0.19202843  0.39726501  1
  Rh  Rh244  1  0.00430033  0.39342424  0.39960691  1
  Rh  Rh245  1  0.00063232  0.59550567  -0.00552161  1
  Rh  Rh246  1  -0.00075627  0.79281512  0.79365666  1
  Rh  Rh247  1  0.19892813  0.79586921  0.19305151  1
  Rh  Rh248  1  0.19282200  -0.00335986  -0.00174817  1
  Rh  Rh249  1  0.41160827  0.60411663  0.79751299  1
