# generated using pymatgen
data_ZrScNbPdRh
_symmetry_space_group_name_H-M   'P 1'
_cell_length_a   16.55280581
_cell_length_b   16.55392783
_cell_length_c   16.55061350
_cell_angle_alpha   90.00791810
_cell_angle_beta   89.99773874
_cell_angle_gamma   90.01375454
_symmetry_Int_Tables_number   1
_chemical_formula_structural   ZrScNbPdRh
_chemical_formula_sum   'Zr50 Sc50 Nb50 Pd50 Rh50'
_cell_volume   4535.09884763
_cell_formula_units_Z   50
loop_
 _symmetry_equiv_pos_site_id
 _symmetry_equiv_pos_as_xyz
  1  'x, y, z'
loop_
 _atom_site_type_symbol
 _atom_site_label
 _atom_site_symmetry_multiplicity
 _atom_site_fract_x
 _atom_site_fract_y
 _atom_site_fract_z
 _atom_site_occupancy
  Zr  Zr0  1  0.89826360  0.29987824  0.09749506  1
  Zr  Zr1  1  0.68898490  0.29950997  0.69343691  1
  Zr  Zr2  1  0.49799481  0.30138464  0.90838401  1
  Zr  Zr3  1  0.30157064  0.69666822  0.30232511  1
  Zr  Zr4  1  0.50361853  0.89935289  0.10573866  1
  Zr  Zr5  1  0.30363893  0.49964398  0.70963327  1
  Zr  Zr6  1  0.30317991  0.09934799  0.90249412  1
  Zr  Zr7  1  0.49818813  0.69781680  0.69886864  1
  Zr  Zr8  1  0.70791578  0.90043340  0.50340117  1
  Zr  Zr9  1  0.89733534  0.29774950  0.90455567  1
  Zr  Zr10  1  0.90262628  0.68876672  0.10272138  1
  Zr  Zr11  1  0.50448137  0.29792312  0.51226739  1
  Zr  Zr12  1  0.49671059  0.29942140  0.30458862  1
  Zr  Zr13  1  0.90455740  0.10314404  0.09413099  1
  Zr  Zr14  1  0.30217496  0.70182037  0.10908188  1
  Zr  Zr15  1  0.89086956  0.50170157  0.70546854  1
  Zr  Zr16  1  0.50283300  0.49968532  0.30045776  1
  Zr  Zr17  1  0.10311444  0.29715538  0.30606668  1
  Zr  Zr18  1  0.09930360  0.30413597  0.70469125  1
  Zr  Zr19  1  0.29606216  0.30989723  0.09654110  1
  Zr  Zr20  1  0.09350362  0.29586948  0.49714186  1
  Zr  Zr21  1  0.30473678  0.70653328  0.49794416  1
  Zr  Zr22  1  0.10387262  0.50100534  0.29599660  1
  Zr  Zr23  1  0.10848442  0.90679655  0.09978563  1
  Zr  Zr24  1  0.70203562  0.69938922  0.51057592  1
  Zr  Zr25  1  0.09033787  0.90126324  0.29606572  1
  Zr  Zr26  1  0.10519528  0.50677603  0.89706961  1
  Zr  Zr27  1  0.49689563  0.70073347  0.29797485  1
  Zr  Zr28  1  0.08718112  0.09463845  0.69241439  1
  Zr  Zr29  1  0.50224813  0.09786694  0.29460856  1
  Zr  Zr30  1  0.90244285  0.50432567  0.29462805  1
  Zr  Zr31  1  0.09718790  0.49672120  0.49910984  1
  Zr  Zr32  1  0.30334533  0.30157436  0.70088898  1
  Zr  Zr33  1  0.31067720  0.29665885  0.49690648  1
  Zr  Zr34  1  0.49572505  0.89141044  0.50950706  1
  Zr  Zr35  1  0.70270204  0.90004946  0.89996777  1
  Zr  Zr36  1  0.89593979  0.69766459  0.70078533  1
  Zr  Zr37  1  0.88599838  0.09689080  0.29294274  1
  Zr  Zr38  1  0.09926103  0.50562263  0.10258363  1
  Zr  Zr39  1  0.30033486  0.89440054  0.50017639  1
  Zr  Zr40  1  0.09410816  0.91551038  0.49199345  1
  Zr  Zr41  1  0.49892581  0.10074058  0.09312703  1
  Zr  Zr42  1  0.09018739  0.49920941  0.70199756  1
  Zr  Zr43  1  0.29311051  0.50317854  0.10055708  1
  Zr  Zr44  1  0.28880240  0.70197933  0.69246683  1
  Zr  Zr45  1  0.70483820  0.50051733  0.89081247  1
  Zr  Zr46  1  0.90539996  0.70394268  0.30611836  1
  Zr  Zr47  1  0.50142434  0.90850296  0.88658626  1
  Zr  Zr48  1  0.10393647  0.09710739  0.31085691  1
  Zr  Zr49  1  0.48892799  0.51122339  0.89527470  1
  Sc  Sc50  1  0.10749618  0.70453077  0.29645720  1
  Sc  Sc51  1  0.70100935  0.09991566  0.30289935  1
  Sc  Sc52  1  0.30616521  0.29719595  0.29957090  1
  Sc  Sc53  1  0.10415370  0.70136682  0.70255966  1
  Sc  Sc54  1  0.70043846  0.70309512  0.09505397  1
  Sc  Sc55  1  0.29675143  0.89872582  0.89717216  1
  Sc  Sc56  1  0.70670465  0.10368639  0.88841160  1
  Sc  Sc57  1  0.50629903  0.69777710  0.10397678  1
  Sc  Sc58  1  0.09675823  0.30850980  0.90154761  1
  Sc  Sc59  1  0.90180758  0.70048453  0.90087039  1
  Sc  Sc60  1  0.09693830  0.31494590  0.09575749  1
  Sc  Sc61  1  0.70430926  0.91431211  0.30203405  1
  Sc  Sc62  1  0.90005890  0.50288538  0.89466335  1
  Sc  Sc63  1  0.50019489  0.30724874  0.09883297  1
  Sc  Sc64  1  0.89901785  0.49235697  0.49780508  1
  Sc  Sc65  1  0.70415809  0.30574062  0.90375491  1
  Sc  Sc66  1  0.70008436  0.89788949  0.10566801  1
  Sc  Sc67  1  0.49261553  0.49523166  0.50390253  1
  Sc  Sc68  1  0.90159372  0.89171507  0.89132306  1
  Sc  Sc69  1  0.50035148  0.69657317  0.50329700  1
  Sc  Sc70  1  0.69312809  0.50721929  0.49892328  1
  Sc  Sc71  1  0.09855994  0.89447558  0.70201529  1
  Sc  Sc72  1  0.70294297  0.69840405  0.90472496  1
  Sc  Sc73  1  0.69821231  0.30640311  0.09847828  1
  Sc  Sc74  1  0.69709235  0.68649028  0.30937815  1
  Sc  Sc75  1  0.30386545  0.89905456  0.69780366  1
  Sc  Sc76  1  0.09930611  0.89210398  0.90199701  1
  Sc  Sc77  1  0.29931782  0.89958326  0.09987327  1
  Sc  Sc78  1  0.89941329  0.90884361  0.69780916  1
  Sc  Sc79  1  0.11949902  0.70151171  0.50192718  1
  Sc  Sc80  1  0.70674852  0.28952472  0.30373135  1
  Sc  Sc81  1  0.70159868  0.49893290  0.10209256  1
  Sc  Sc82  1  0.91262498  0.90647610  0.11003561  1
  Sc  Sc83  1  0.69994325  0.10114751  0.49149752  1
  Sc  Sc84  1  0.49825009  0.49934009  0.10151655  1
  Sc  Sc85  1  0.49831738  0.10086108  0.49370388  1
  Sc  Sc86  1  0.29275728  0.30942717  0.89751586  1
  Sc  Sc87  1  0.50041534  0.90171269  0.29645535  1
  Sc  Sc88  1  0.29712204  0.09226565  0.49674604  1
  Sc  Sc89  1  0.70908426  0.90270142  0.70471240  1
  Sc  Sc90  1  0.69811594  0.49498959  0.29877605  1
  Sc  Sc91  1  0.10280673  0.70304643  0.09444677  1
  Sc  Sc92  1  0.30313530  0.08790025  0.09995476  1
  Sc  Sc93  1  0.49926354  0.09048882  0.70176251  1
  Sc  Sc94  1  0.89500301  0.29956338  0.30137195  1
  Sc  Sc95  1  0.30915585  0.10176642  0.30269815  1
  Sc  Sc96  1  0.29895562  0.51279440  0.50009116  1
  Sc  Sc97  1  0.90274950  0.29965168  0.49203438  1
  Sc  Sc98  1  0.29783372  0.69315960  0.88975215  1
  Sc  Sc99  1  0.90316518  0.30791318  0.70377450  1
  Nb  Nb100  1  0.90218169  0.89785225  0.30937391  1
  Nb  Nb101  1  0.09771949  0.09262290  0.09894519  1
  Nb  Nb102  1  0.89745062  0.70451455  0.49865450  1
  Nb  Nb103  1  0.69683035  0.29463148  0.50061362  1
  Nb  Nb104  1  0.28946900  0.10559196  0.70334263  1
  Nb  Nb105  1  0.50123529  0.70244253  0.89927048  1
  Nb  Nb106  1  0.09708183  0.70478875  0.88890902  1
  Nb  Nb107  1  0.90031079  0.89592459  0.48875167  1
  Nb  Nb108  1  0.49803092  0.49046133  0.70084401  1
  Nb  Nb109  1  0.49473557  0.30475355  0.69716439  1
  Nb  Nb110  1  0.89249006  0.09732731  0.70381066  1
  Nb  Nb111  1  0.69983340  0.50318651  0.69810629  1
  Nb  Nb112  1  0.29977302  0.49950926  0.29944856  1
  Nb  Nb113  1  0.70553260  0.09450005  0.10879220  1
  Nb  Nb114  1  0.50718062  0.89564415  0.69886239  1
  Nb  Nb115  1  0.30586477  0.88892650  0.29393881  1
  Nb  Nb116  1  0.50236361  0.10214872  0.89804165  1
  Nb  Nb117  1  0.90182440  0.10331360  0.90106806  1
  Nb  Nb118  1  0.90861281  0.09165885  0.50993435  1
  Nb  Nb119  1  0.09603759  0.09896336  0.90807029  1
  Nb  Nb120  1  0.09766286  0.10326284  0.49975772  1
  Nb  Nb121  1  0.70735118  0.09407469  0.69959136  1
  Nb  Nb122  1  0.30060035  0.50039646  0.90158739  1
  Nb  Nb123  1  0.69984911  0.68903916  0.69510334  1
  Nb  Nb124  1  0.90694020  0.50326291  0.10924874  1
  Nb  Nb125  1  0.59917120  0.39137823  0.40638183  1
  Nb  Nb126  1  0.59326150  0.40169146  0.79387790  1
  Nb  Nb127  1  0.19492753  0.01007333  0.80079333  1
  Nb  Nb128  1  -0.00451828  0.60698689  0.59394793  1
  Nb  Nb129  1  0.60122700  0.80039464  0.40535106  1
  Nb  Nb130  1  0.80756316  0.79917184  0.20876190  1
  Nb  Nb131  1  0.59959752  0.19608989  0.19541542  1
  Nb  Nb132  1  0.60294624  -0.00441278  0.60449938  1
  Nb  Nb133  1  0.59258377  0.20210044  0.79717437  1
  Nb  Nb134  1  0.00124724  0.60626143  0.40533093  1
  Nb  Nb135  1  -0.00495482  0.79833287  0.58984978  1
  Nb  Nb136  1  0.59948994  0.79461445  0.79455162  1
  Nb  Nb137  1  0.19417483  0.19786836  0.59775362  1
  Nb  Nb138  1  0.00733149  0.19512710  0.19473710  1
  Nb  Nb139  1  0.19277528  0.19396128  0.00540460  1
  Nb  Nb140  1  0.78955313  0.39555472  0.59857669  1
  Nb  Nb141  1  0.60471153  0.00633006  -0.00352781  1
  Nb  Nb142  1  0.40767386  0.79630893  -0.00601264  1
  Nb  Nb143  1  -0.00346222  0.19158121  0.80473865  1
  Nb  Nb144  1  0.40423212  0.20002496  0.79958264  1
  Nb  Nb145  1  0.19478169  0.19665351  0.19226049  1
  Nb  Nb146  1  0.80155528  0.00355598  -0.00047989  1
  Nb  Nb147  1  0.80115600  0.19756814  0.60083570  1
  Nb  Nb148  1  0.20076605  0.39566540  0.59711074  1
  Nb  Nb149  1  0.20499151  0.40138707  0.40143454  1
  Pd  Pd150  1  0.79736561  0.39692691  0.20041474  1
  Pd  Pd151  1  0.39838128  0.20055942  0.18930011  1
  Pd  Pd152  1  0.39146284  0.00535759  0.79175784  1
  Pd  Pd153  1  0.79025450  0.40212709  0.40543716  1
  Pd  Pd154  1  -0.00689470  0.20572552  0.60729727  1
  Pd  Pd155  1  0.39907659  0.59883862  0.60397042  1
  Pd  Pd156  1  0.59623123  -0.00789581  0.40882561  1
  Pd  Pd157  1  0.20844729  0.00286076  0.20899734  1
  Pd  Pd158  1  0.19909780  -0.00015344  0.60537227  1
  Pd  Pd159  1  0.20013394  0.60979107  -0.00392541  1
  Pd  Pd160  1  0.59738962  0.41250569  -0.00799651  1
  Pd  Pd161  1  0.21166146  -0.00709291  0.39073148  1
  Pd  Pd162  1  -0.00583582  0.41304849  -0.00447291  1
  Pd  Pd163  1  0.61194240  0.19383662  -0.00115175  1
  Pd  Pd164  1  0.78894628  0.19419998  0.00319005  1
  Pd  Pd165  1  0.20999923  0.79321323  -0.00539728  1
  Pd  Pd166  1  0.40390586  0.59808334  0.40055214  1
  Pd  Pd167  1  0.00071130  0.79490289  0.19314874  1
  Pd  Pd168  1  0.80481046  0.80493380  0.60868058  1
  Pd  Pd169  1  0.79943278  0.20804548  0.79276427  1
  Pd  Pd170  1  0.59454306  0.80721835  -0.00794228  1
  Pd  Pd171  1  0.59116268  0.59183030  0.59938031  1
  Pd  Pd172  1  0.39981654  0.79529629  0.79967385  1
  Pd  Pd173  1  0.39866880  0.40411783  0.19881814  1
  Pd  Pd174  1  0.39565152  0.18592169  0.60477811  1
  Pd  Pd175  1  0.19189948  0.19655927  0.80516327  1
  Pd  Pd176  1  0.38921217  0.20583988  -0.00099942  1
  Pd  Pd177  1  0.19580280  0.80781674  0.39620442  1
  Pd  Pd178  1  0.00153122  -0.00059571  0.80631494  1
  Pd  Pd179  1  0.39861512  0.60760223  0.00577268  1
  Pd  Pd180  1  0.60088444  0.60100027  0.79882657  1
  Pd  Pd181  1  0.79206092  0.60645948  0.19977741  1
  Pd  Pd182  1  0.80210714  0.59386892  -0.00045526  1
  Pd  Pd183  1  0.60194758  0.18223085  0.60609268  1
  Pd  Pd184  1  0.61538006  0.79894000  0.21475763  1
  Pd  Pd185  1  -0.00321680  0.80152723  0.00427726  1
  Pd  Pd186  1  -0.00216894  0.39088482  0.20489741  1
  Pd  Pd187  1  0.60180093  0.59451859  0.00141825  1
  Pd  Pd188  1  0.00108424  0.60017319  -0.00655626  1
  Pd  Pd189  1  0.80723263  0.41242568  0.00558377  1
  Pd  Pd190  1  0.60519078  0.59963724  0.19608488  1
  Pd  Pd191  1  0.40045559  -0.00734616  0.39622456  1
  Pd  Pd192  1  0.80535498  0.59331107  0.40564598  1
  Pd  Pd193  1  0.78698315  0.79826499  0.39203696  1
  Pd  Pd194  1  0.40611142  -0.01141406  -0.00071223  1
  Pd  Pd195  1  -0.01307671  0.19092467  0.39141612  1
  Pd  Pd196  1  -0.00604630  -0.01134472  -0.00922605  1
  Pd  Pd197  1  0.81315509  0.80996797  0.01508034  1
  Pd  Pd198  1  0.40147868  0.00375198  0.60457177  1
  Pd  Pd199  1  0.79344672  0.79307678  0.79481226  1
  Rh  Rh200  1  -0.00990597  0.00956534  0.39499925  1
  Rh  Rh201  1  0.20003156  0.00160761  -0.00817904  1
  Rh  Rh202  1  0.19324380  0.81267770  0.59690971  1
  Rh  Rh203  1  0.59830267  0.00672612  0.19464646  1
  Rh  Rh204  1  0.40835413  0.80199474  0.39644245  1
  Rh  Rh205  1  0.00052447  0.60684346  0.79700834  1
  Rh  Rh206  1  0.19831867  0.40234055  -0.00503718  1
  Rh  Rh207  1  0.19883627  0.40802049  0.79847374  1
  Rh  Rh208  1  0.39769273  0.60533245  0.79439077  1
  Rh  Rh209  1  0.39674395  0.40744582  -0.00191267  1
  Rh  Rh210  1  0.80726782  0.00686808  0.40712924  1
  Rh  Rh211  1  0.59693658  0.20354213  0.39064420  1
  Rh  Rh212  1  0.80572582  0.58965937  0.59425286  1
  Rh  Rh213  1  0.80751617  0.19292416  0.41260438  1
  Rh  Rh214  1  0.61013948  0.80576438  0.60388754  1
  Rh  Rh215  1  0.01241470  0.79263849  0.40934485  1
  Rh  Rh216  1  0.40021292  0.40469245  0.40179325  1
  Rh  Rh217  1  -0.00472617  0.39626512  0.80881023  1
  Rh  Rh218  1  0.80474421  -0.01140291  0.19394855  1
  Rh  Rh219  1  0.20498378  0.39263559  0.21057292  1
  Rh  Rh220  1  0.40021584  0.59427949  0.19991498  1
  Rh  Rh221  1  0.79901888  0.00496041  0.59255765  1
  Rh  Rh222  1  0.60718129  0.00201963  0.79725346  1
  Rh  Rh223  1  0.39659350  0.79564591  0.60625576  1
  Rh  Rh224  1  0.00822372  0.20517769  0.00015530  1
  Rh  Rh225  1  0.40427650  0.39449398  0.81012225  1
  Rh  Rh226  1  -0.00257007  0.00790477  0.21037790  1
  Rh  Rh227  1  0.00876504  0.60717761  0.20527370  1
  Rh  Rh228  1  0.60395263  0.40923729  0.59777477  1
  Rh  Rh229  1  0.19894371  0.59847952  0.79857614  1
  Rh  Rh230  1  0.19886138  0.80446360  0.20086278  1
  Rh  Rh231  1  0.19873878  0.59468045  0.39381606  1
  Rh  Rh232  1  0.80738332  -0.00016312  0.81060333  1
  Rh  Rh233  1  -0.00523316  -0.01045898  0.59819426  1
  Rh  Rh234  1  0.00011344  0.79571630  0.79011452  1
  Rh  Rh235  1  0.60565292  0.38712152  0.21217068  1
  Rh  Rh236  1  0.19346228  0.58801953  0.60975890  1
  Rh  Rh237  1  0.79657206  0.60883911  0.80452046  1
  Rh  Rh238  1  0.59204779  0.59781849  0.40344311  1
  Rh  Rh239  1  0.38876625  0.40753933  0.59665824  1
  Rh  Rh240  1  0.79037441  0.39411433  0.79284730  1
  Rh  Rh241  1  0.40176272  0.80078195  0.19362925  1
  Rh  Rh242  1  0.19981275  0.80745688  0.80066485  1
  Rh  Rh243  1  -0.00884384  0.40642410  0.60330087  1
  Rh  Rh244  1  0.20025872  0.60446931  0.20111679  1
  Rh  Rh245  1  0.00277896  0.40796146  0.38907896  1
  Rh  Rh246  1  0.39706673  -0.00523350  0.20207858  1
  Rh  Rh247  1  0.79733752  0.20587452  0.19219796  1
  Rh  Rh248  1  0.20757517  0.20312914  0.40341640  1
  Rh  Rh249  1  0.40373912  0.19510158  0.40336934  1
