# generated using pymatgen
data_ZrScNbPdRh
_symmetry_space_group_name_H-M   'P 1'
_cell_length_a   16.55203863
_cell_length_b   16.55038641
_cell_length_c   16.55099435
_cell_angle_alpha   89.99608015
_cell_angle_beta   90.01333833
_cell_angle_gamma   89.97320068
_symmetry_Int_Tables_number   1
_chemical_formula_structural   ZrScNbPdRh
_chemical_formula_sum   'Zr50 Sc50 Nb50 Pd50 Rh50'
_cell_volume   4534.02237827
_cell_formula_units_Z   50
loop_
 _symmetry_equiv_pos_site_id
 _symmetry_equiv_pos_as_xyz
  1  'x, y, z'
loop_
 _atom_site_type_symbol
 _atom_site_label
 _atom_site_symmetry_multiplicity
 _atom_site_fract_x
 _atom_site_fract_y
 _atom_site_fract_z
 _atom_site_occupancy
  Zr  Zr0  1  0.10310650  0.90414538  0.10481161  1
  Zr  Zr1  1  0.08796812  0.09878189  0.89804515  1
  Zr  Zr2  1  0.49821552  0.29932502  0.50156300  1
  Zr  Zr3  1  0.50710492  0.49204895  0.90649154  1
  Zr  Zr4  1  0.30269934  0.09079305  0.30218888  1
  Zr  Zr5  1  0.10370373  0.49869551  0.10109210  1
  Zr  Zr6  1  0.69891327  0.89432881  0.10342491  1
  Zr  Zr7  1  0.30846715  0.29358423  0.90334080  1
  Zr  Zr8  1  0.70385410  0.30360560  0.28832902  1
  Zr  Zr9  1  0.49527232  0.50918342  0.10539817  1
  Zr  Zr10  1  0.09776360  0.70646833  0.29999852  1
  Zr  Zr11  1  0.30145430  0.49670839  0.50547313  1
  Zr  Zr12  1  0.29772556  0.30592950  0.10305158  1
  Zr  Zr13  1  0.50407518  0.90159569  0.30342684  1
  Zr  Zr14  1  0.70106293  0.69918362  0.69072994  1
  Zr  Zr15  1  0.49360634  0.49916111  0.49283992  1
  Zr  Zr16  1  0.90371548  0.49287968  0.50724592  1
  Zr  Zr17  1  0.09813586  0.29624896  0.89360357  1
  Zr  Zr18  1  0.69952869  0.08870249  0.29845922  1
  Zr  Zr19  1  0.10628215  0.09330398  0.49172109  1
  Zr  Zr20  1  0.69863723  0.50260974  0.29356466  1
  Zr  Zr21  1  0.50249090  0.89941696  0.70495710  1
  Zr  Zr22  1  0.09624438  0.29590064  0.10189833  1
  Zr  Zr23  1  0.89590892  0.29613307  0.10123620  1
  Zr  Zr24  1  0.30525232  0.29999327  0.50450153  1
  Zr  Zr25  1  0.49731529  0.09018194  0.30275240  1
  Zr  Zr26  1  0.90124833  0.70021202  0.09943287  1
  Zr  Zr27  1  0.90239896  0.08876938  0.29646339  1
  Zr  Zr28  1  0.89633217  0.30905005  0.31014013  1
  Zr  Zr29  1  0.30228633  0.69874993  0.09654941  1
  Zr  Zr30  1  0.29491663  0.50273465  0.69871911  1
  Zr  Zr31  1  0.89301417  0.70240104  0.30019607  1
  Zr  Zr32  1  0.89221688  0.09504783  0.49294573  1
  Zr  Zr33  1  0.29475184  0.69818093  0.90186051  1
  Zr  Zr34  1  0.49831928  0.89802148  0.49626788  1
  Zr  Zr35  1  0.29801587  0.29823971  0.69656096  1
  Zr  Zr36  1  0.30961429  0.90116912  0.90817758  1
  Zr  Zr37  1  0.09653460  0.49695879  0.50465901  1
  Zr  Zr38  1  0.69410468  0.49406741  0.09213949  1
  Zr  Zr39  1  0.10009686  0.09524368  0.29392107  1
  Zr  Zr40  1  0.51284005  0.69689986  0.50778200  1
  Zr  Zr41  1  0.69543496  0.30867382  0.90902057  1
  Zr  Zr42  1  0.70153117  0.30191728  0.69937300  1
  Zr  Zr43  1  0.70257586  0.09874519  0.90393178  1
  Zr  Zr44  1  0.49902449  0.29506240  0.69462000  1
  Zr  Zr45  1  0.29907899  0.09944107  0.49930405  1
  Zr  Zr46  1  0.29814902  0.89525480  0.10421666  1
  Zr  Zr47  1  0.89081881  0.70138600  0.50039281  1
  Zr  Zr48  1  0.10937052  0.29854145  0.29759322  1
  Zr  Zr49  1  0.89961526  0.50514003  0.30804180  1
  Sc  Sc50  1  0.30144097  0.08917075  0.10446801  1
  Sc  Sc51  1  0.28977310  0.89230527  0.49631076  1
  Sc  Sc52  1  0.71504085  0.29167628  0.50268085  1
  Sc  Sc53  1  0.89790232  0.08989690  0.70619350  1
  Sc  Sc54  1  0.90106112  0.89681199  0.70054630  1
  Sc  Sc55  1  0.69947888  0.89667543  0.89603328  1
  Sc  Sc56  1  0.90648409  0.30528130  0.89969480  1
  Sc  Sc57  1  0.89899942  0.90595772  0.89909405  1
  Sc  Sc58  1  0.10295230  0.10171804  0.70384286  1
  Sc  Sc59  1  0.70113624  0.09643981  0.50731085  1
  Sc  Sc60  1  0.30888235  0.51142905  0.30901121  1
  Sc  Sc61  1  0.69953335  0.89816351  0.49480044  1
  Sc  Sc62  1  0.90897989  0.70442469  0.89407958  1
  Sc  Sc63  1  0.29766094  0.10139794  0.69986438  1
  Sc  Sc64  1  0.89964749  0.89373498  0.49376202  1
  Sc  Sc65  1  0.09057801  0.50991726  0.89767862  1
  Sc  Sc66  1  0.49669788  0.29615729  0.09248620  1
  Sc  Sc67  1  0.50168918  0.09947857  0.49981704  1
  Sc  Sc68  1  0.70183822  0.70727252  0.89449261  1
  Sc  Sc69  1  0.50497498  0.69982748  0.09902621  1
  Sc  Sc70  1  0.70736264  0.10974521  0.10128093  1
  Sc  Sc71  1  0.30064845  0.50897483  0.91006144  1
  Sc  Sc72  1  0.29389423  0.89845222  0.68997488  1
  Sc  Sc73  1  0.09857406  0.89874582  0.69273588  1
  Sc  Sc74  1  0.29396545  0.69786872  0.69301477  1
  Sc  Sc75  1  0.50272933  0.50245888  0.68933584  1
  Sc  Sc76  1  0.09918687  0.89889447  0.30232802  1
  Sc  Sc77  1  0.50034947  0.10654224  0.10298324  1
  Sc  Sc78  1  0.89760814  0.89931853  0.30119135  1
  Sc  Sc79  1  0.10135696  0.30608302  0.50454715  1
  Sc  Sc80  1  0.09538709  0.70354828  0.09122930  1
  Sc  Sc81  1  0.50955533  0.71342663  0.90546966  1
  Sc  Sc82  1  0.49486578  0.30053112  0.29544707  1
  Sc  Sc83  1  0.90213619  0.70180738  0.69887794  1
  Sc  Sc84  1  0.29560146  0.70358431  0.30908445  1
  Sc  Sc85  1  0.29511947  0.70155843  0.50010171  1
  Sc  Sc86  1  0.09207809  0.50441595  0.70080473  1
  Sc  Sc87  1  0.70116037  0.70443665  0.10075117  1
  Sc  Sc88  1  0.90688722  0.50510758  0.09369811  1
  Sc  Sc89  1  0.09493271  0.70859788  0.50273519  1
  Sc  Sc90  1  0.70519576  0.51605318  0.50598891  1
  Sc  Sc91  1  0.09852650  0.30132945  0.70163984  1
  Sc  Sc92  1  0.90108109  0.89630541  0.09657335  1
  Sc  Sc93  1  0.09033550  0.90009118  0.90916321  1
  Sc  Sc94  1  0.30916420  0.09895313  0.89938043  1
  Sc  Sc95  1  0.09956580  0.50228537  0.30532467  1
  Sc  Sc96  1  0.49937628  0.89297011  0.09621347  1
  Sc  Sc97  1  0.89684771  0.31386939  0.69759192  1
  Sc  Sc98  1  0.30024104  0.29351318  0.30144804  1
  Sc  Sc99  1  0.50346907  0.09291535  0.70162481  1
  Nb  Nb100  1  0.70410971  0.70233529  0.30625526  1
  Nb  Nb101  1  0.69578665  0.10206548  0.70219141  1
  Nb  Nb102  1  0.91178309  0.10075813  0.09446166  1
  Nb  Nb103  1  0.50050831  0.10100768  0.90186279  1
  Nb  Nb104  1  0.29920685  0.50318338  0.10011279  1
  Nb  Nb105  1  0.50466032  0.70162880  0.70352727  1
  Nb  Nb106  1  0.49653738  0.29089629  0.90164640  1
  Nb  Nb107  1  0.09631053  0.89933172  0.50265264  1
  Nb  Nb108  1  0.71125742  0.49801774  0.70665232  1
  Nb  Nb109  1  0.70563877  0.70109408  0.49770178  1
  Nb  Nb110  1  0.09003140  0.09873779  0.09957166  1
  Nb  Nb111  1  0.69955734  0.89815252  0.29722836  1
  Nb  Nb112  1  0.69285722  0.91249799  0.70508704  1
  Nb  Nb113  1  0.49817482  0.50476959  0.30142181  1
  Nb  Nb114  1  0.30337091  0.89737447  0.29324025  1
  Nb  Nb115  1  0.70420530  0.49940448  0.89114833  1
  Nb  Nb116  1  0.09969739  0.69551799  0.89350315  1
  Nb  Nb117  1  0.90229134  0.09696962  0.90292548  1
  Nb  Nb118  1  0.89389378  0.50396570  0.88612573  1
  Nb  Nb119  1  0.88973267  0.50095833  0.70729461  1
  Nb  Nb120  1  0.90542065  0.30034983  0.49969370  1
  Nb  Nb121  1  0.70187834  0.29831040  0.10085166  1
  Nb  Nb122  1  0.49698962  0.68512554  0.30239633  1
  Nb  Nb123  1  0.09908848  0.70153133  0.70921681  1
  Nb  Nb124  1  0.50123502  0.90780250  0.89419691  1
  Nb  Nb125  1  0.19457262  0.19805627  0.00303356  1
  Nb  Nb126  1  0.60286030  0.59646111  0.79686442  1
  Nb  Nb127  1  0.39737291  0.41160638  0.19871504  1
  Nb  Nb128  1  0.00200064  0.00298766  0.59170616  1
  Nb  Nb129  1  0.19846521  0.79947141  0.80341447  1
  Nb  Nb130  1  0.20002416  0.39730002  -0.00253550  1
  Nb  Nb131  1  0.40914816  0.60422634  0.79930524  1
  Nb  Nb132  1  -0.00193144  0.20054295  0.40323155  1
  Nb  Nb133  1  0.60163207  0.39938488  0.40004261  1
  Nb  Nb134  1  0.39897161  -0.00489658  0.59674458  1
  Nb  Nb135  1  0.20342706  0.60220724  0.19693914  1
  Nb  Nb136  1  0.79534016  0.19708421  0.80354600  1
  Nb  Nb137  1  0.20033190  -0.00726589  0.80547574  1
  Nb  Nb138  1  0.40048161  0.40290385  0.80258855  1
  Nb  Nb139  1  0.60127221  0.19922198  0.80601125  1
  Nb  Nb140  1  0.20627003  0.40156877  0.40320147  1
  Nb  Nb141  1  0.39849247  0.79843119  0.79895358  1
  Nb  Nb142  1  0.40195553  0.79570476  0.20847479  1
  Nb  Nb143  1  0.60661948  0.40190659  0.59506609  1
  Nb  Nb144  1  0.59791881  0.00226159  -0.00501014  1
  Nb  Nb145  1  0.20573928  0.40152980  0.80655618  1
  Nb  Nb146  1  0.79923327  0.59519584  -0.01208200  1
  Nb  Nb147  1  -0.00686901  0.19643807  0.59277700  1
  Nb  Nb148  1  0.60433192  0.20299640  0.39530041  1
  Nb  Nb149  1  -0.00044094  0.39911970  0.20302562  1
  Pd  Pd150  1  0.79473953  0.81050659  0.60359346  1
  Pd  Pd151  1  0.59192941  0.39935341  0.79115672  1
  Pd  Pd152  1  0.80777953  0.20263484  -0.00689836  1
  Pd  Pd153  1  0.80412942  -0.00802074  0.60178834  1
  Pd  Pd154  1  0.60581751  0.59641869  0.39979792  1
  Pd  Pd155  1  0.40505312  0.19709566  0.79248418  1
  Pd  Pd156  1  0.79882003  -0.00060680  0.80060552  1
  Pd  Pd157  1  0.40246413  0.79346129  0.39814552  1
  Pd  Pd158  1  -0.00302090  0.80542882  0.19975121  1
  Pd  Pd159  1  0.19061216  0.19997618  0.59842943  1
  Pd  Pd160  1  0.58893207  0.39637068  0.19797819  1
  Pd  Pd161  1  0.39719824  0.20269587  0.19794713  1
  Pd  Pd162  1  0.00738804  0.59728816  0.20103851  1
  Pd  Pd163  1  0.60734666  0.60814079  0.19956870  1
  Pd  Pd164  1  0.80947016  0.41162613  0.19064123  1
  Pd  Pd165  1  0.79852675  0.80183441  0.79512674  1
  Pd  Pd166  1  -0.00873516  0.20559248  0.21064092  1
  Pd  Pd167  1  0.00568632  0.80772287  0.80015918  1
  Pd  Pd168  1  0.60193551  0.79479671  0.39583161  1
  Pd  Pd169  1  -0.00121843  0.60832215  0.40669911  1
  Pd  Pd170  1  0.59732360  0.20096714  0.20280879  1
  Pd  Pd171  1  0.80416747  0.79342447  -0.00560334  1
  Pd  Pd172  1  0.80737044  0.40586259  -0.00124631  1
  Pd  Pd173  1  0.00217005  0.40428704  -0.00036574  1
  Pd  Pd174  1  0.59562291  -0.00242493  0.59461494  1
  Pd  Pd175  1  0.60847142  0.80747999  0.60169451  1
  Pd  Pd176  1  0.19044772  0.60615285  0.59784886  1
  Pd  Pd177  1  0.39842079  0.80066032  0.60399233  1
  Pd  Pd178  1  0.59648204  -0.00002451  0.18678367  1
  Pd  Pd179  1  0.40638670  0.19815103  0.39812871  1
  Pd  Pd180  1  0.59358697  0.79067412  0.20792883  1
  Pd  Pd181  1  0.20615295  0.18780299  0.19305082  1
  Pd  Pd182  1  0.41001385  0.60738885  -0.00843000  1
  Pd  Pd183  1  0.19649492  0.00969568  -0.00486584  1
  Pd  Pd184  1  0.59220274  0.39394592  0.00977153  1
  Pd  Pd185  1  -0.00478402  0.60397926  0.60546720  1
  Pd  Pd186  1  0.78749255  0.40838096  0.41023413  1
  Pd  Pd187  1  0.80941259  0.19576985  0.61203922  1
  Pd  Pd188  1  0.40110717  0.60618026  0.60171074  1
  Pd  Pd189  1  0.79809742  0.19525944  0.39227243  1
  Pd  Pd190  1  0.60925849  0.60638354  -0.00948822  1
  Pd  Pd191  1  0.20345772  -0.01178690  0.39386679  1
  Pd  Pd192  1  0.19683078  0.59813608  0.40004226  1
  Pd  Pd193  1  0.79675489  -0.00182792  0.00750494  1
  Pd  Pd194  1  -0.01461970  0.20117783  0.78810900  1
  Pd  Pd195  1  0.19199276  0.79941511  -0.00457873  1
  Pd  Pd196  1  0.41019451  0.00360379  0.00920957  1
  Pd  Pd197  1  0.80763237  0.19466058  0.20488404  1
  Pd  Pd198  1  0.79574609  0.59746350  0.18918749  1
  Pd  Pd199  1  0.80562453  -0.00374638  0.18947643  1
  Rh  Rh200  1  0.60005376  0.19718721  -0.00099134  1
  Rh  Rh201  1  0.20683533  0.79293407  0.20255379  1
  Rh  Rh202  1  0.60357831  0.00660584  0.80707096  1
  Rh  Rh203  1  0.60245845  0.81058656  -0.00279641  1
  Rh  Rh204  1  0.19059469  0.79346567  0.60407904  1
  Rh  Rh205  1  0.60165742  0.20350717  0.59819780  1
  Rh  Rh206  1  0.40592620  0.40283115  0.60878550  1
  Rh  Rh207  1  0.80622612  0.59972362  0.60343391  1
  Rh  Rh208  1  0.19040731  0.59718817  0.00416615  1
  Rh  Rh209  1  0.19723577  0.20846582  0.40605778  1
  Rh  Rh210  1  0.79823188  0.59939891  0.40077234  1
  Rh  Rh211  1  0.19459773  0.40007710  0.60424811  1
  Rh  Rh212  1  0.39848355  0.40174973  0.00203306  1
  Rh  Rh213  1  0.00670566  -0.00321821  0.79225689  1
  Rh  Rh214  1  0.79739790  0.61110653  0.80127024  1
  Rh  Rh215  1  -0.00004250  0.80368837  0.59864812  1
  Rh  Rh216  1  0.40612569  -0.01145060  0.19730457  1
  Rh  Rh217  1  0.39839028  0.39786173  0.38756216  1
  Rh  Rh218  1  0.20247409  0.19439523  0.81176699  1
  Rh  Rh219  1  0.60651936  0.00470210  0.40439142  1
  Rh  Rh220  1  -0.00054771  0.79944995  -0.00239460  1
  Rh  Rh221  1  -0.00128720  0.39768742  0.60876876  1
  Rh  Rh222  1  -0.00295046  -0.00702168  0.19502553  1
  Rh  Rh223  1  -0.00139804  0.19958604  -0.00240131  1
  Rh  Rh224  1  0.40293934  0.18329849  0.60254888  1
  Rh  Rh225  1  0.38907850  -0.00913150  0.78897189  1
  Rh  Rh226  1  -0.00498771  -0.00457652  0.00443647  1
  Rh  Rh227  1  0.39315673  0.60518226  0.20323577  1
  Rh  Rh228  1  0.39206378  -0.00690740  0.40867301  1
  Rh  Rh229  1  0.00056855  -0.00105539  0.40374460  1
  Rh  Rh230  1  0.40636941  0.79810073  -0.00015641  1
  Rh  Rh231  1  -0.00706995  0.59932284  0.79489756  1
  Rh  Rh232  1  0.19433901  0.80446581  0.39880442  1
  Rh  Rh233  1  0.19780931  0.00049700  0.20144937  1
  Rh  Rh234  1  0.80340494  0.38973772  0.80744692  1
  Rh  Rh235  1  0.01255126  0.39257560  0.39425948  1
  Rh  Rh236  1  0.40101719  0.61040351  0.41151059  1
  Rh  Rh237  1  0.79800350  0.80173992  0.20494864  1
  Rh  Rh238  1  0.20307710  0.60017237  0.79997782  1
  Rh  Rh239  1  0.20438961  0.41633608  0.20831357  1
  Rh  Rh240  1  0.79536809  0.80368938  0.39571492  1
  Rh  Rh241  1  0.79264771  -0.00833813  0.39776206  1
  Rh  Rh242  1  -0.00204930  0.79930111  0.40015393  1
  Rh  Rh243  1  0.39305007  0.19157168  0.00706053  1
  Rh  Rh244  1  -0.00754318  0.60386254  -0.00835124  1
  Rh  Rh245  1  0.00440888  0.40696727  0.79676203  1
  Rh  Rh246  1  0.19819521  0.00082007  0.60481421  1
  Rh  Rh247  1  0.79658236  0.40475908  0.59432543  1
  Rh  Rh248  1  0.60630989  0.59536882  0.60570809  1
  Rh  Rh249  1  0.60008796  0.79842895  0.79608254  1
