# generated using pymatgen
data_ZrScNbPdRh
_symmetry_space_group_name_H-M   'P 1'
_cell_length_a   16.55976904
_cell_length_b   16.56141948
_cell_length_c   16.55767711
_cell_angle_alpha   89.96975454
_cell_angle_beta   90.01274259
_cell_angle_gamma   90.03020689
_symmetry_Int_Tables_number   1
_chemical_formula_structural   ZrScNbPdRh
_chemical_formula_sum   'Zr50 Sc50 Nb50 Pd50 Rh50'
_cell_volume   4540.99590778
_cell_formula_units_Z   50
loop_
 _symmetry_equiv_pos_site_id
 _symmetry_equiv_pos_as_xyz
  1  'x, y, z'
loop_
 _atom_site_type_symbol
 _atom_site_label
 _atom_site_symmetry_multiplicity
 _atom_site_fract_x
 _atom_site_fract_y
 _atom_site_fract_z
 _atom_site_occupancy
  Zr  Zr0  1  0.50153983  0.89957673  0.90167075  1
  Zr  Zr1  1  0.50483681  0.89076067  0.69880625  1
  Zr  Zr2  1  0.29722057  0.10371053  0.30416321  1
  Zr  Zr3  1  0.29305972  0.50919858  0.09268533  1
  Zr  Zr4  1  0.90357242  0.90459813  0.69255896  1
  Zr  Zr5  1  0.11010179  0.29435563  0.31023137  1
  Zr  Zr6  1  0.29497663  0.70380461  0.09995271  1
  Zr  Zr7  1  0.69901328  0.50283763  0.89191403  1
  Zr  Zr8  1  0.10129579  0.49614507  0.49856572  1
  Zr  Zr9  1  0.50802993  0.69059267  0.30290809  1
  Zr  Zr10  1  0.51032521  0.30175991  0.10030992  1
  Zr  Zr11  1  0.70942713  0.10033317  0.30407482  1
  Zr  Zr12  1  0.30287366  0.51202879  0.49638545  1
  Zr  Zr13  1  0.09267574  0.89783674  0.50612880  1
  Zr  Zr14  1  0.70108801  0.10000048  0.10013023  1
  Zr  Zr15  1  0.10403550  0.31044971  0.09684494  1
  Zr  Zr16  1  0.90353765  0.09439068  0.30364250  1
  Zr  Zr17  1  0.70165168  0.30668235  0.29957516  1
  Zr  Zr18  1  0.49851384  0.31186237  0.29030573  1
  Zr  Zr19  1  0.09790332  0.70758545  0.29711415  1
  Zr  Zr20  1  0.29315572  0.70000158  0.69948854  1
  Zr  Zr21  1  0.89299822  0.89945844  0.10923213  1
  Zr  Zr22  1  0.88915029  0.49980864  0.30040022  1
  Zr  Zr23  1  0.29881469  0.69592172  0.90738536  1
  Zr  Zr24  1  0.31363394  0.29722250  0.88826993  1
  Zr  Zr25  1  0.30090348  0.09887573  0.10156459  1
  Zr  Zr26  1  0.70296478  0.09768267  0.89824057  1
  Zr  Zr27  1  0.89761009  0.50090939  0.49747299  1
  Zr  Zr28  1  0.09683632  0.68768116  0.10435423  1
  Zr  Zr29  1  0.09528922  0.49444287  0.91527753  1
  Zr  Zr30  1  0.09681849  0.09137738  0.89760630  1
  Zr  Zr31  1  0.50996740  0.89735241  0.30080870  1
  Zr  Zr32  1  0.09822795  0.29538090  0.69520596  1
  Zr  Zr33  1  0.70262822  0.69785052  0.90177358  1
  Zr  Zr34  1  0.30140338  0.09937930  0.89398996  1
  Zr  Zr35  1  0.09515542  0.89238108  0.70297504  1
  Zr  Zr36  1  0.30906815  0.10800595  0.50589416  1
  Zr  Zr37  1  0.89521399  0.30484865  0.50093296  1
  Zr  Zr38  1  0.50572162  0.10209769  0.10120070  1
  Zr  Zr39  1  0.70349208  0.89481641  0.29727868  1
  Zr  Zr40  1  0.30088627  0.30291339  0.30626165  1
  Zr  Zr41  1  0.70448727  0.29949340  0.69056097  1
  Zr  Zr42  1  0.50090385  0.50022064  0.10816556  1
  Zr  Zr43  1  0.28862023  0.90291588  0.69434881  1
  Zr  Zr44  1  0.09549954  0.09576547  0.10105530  1
  Zr  Zr45  1  0.69415485  0.89932353  0.90349104  1
  Zr  Zr46  1  0.09437561  0.29824017  0.90215164  1
  Zr  Zr47  1  0.50215122  0.90167115  0.09992185  1
  Zr  Zr48  1  0.30024182  0.09885637  0.69905524  1
  Zr  Zr49  1  0.90366784  0.10197139  0.70383694  1
  Sc  Sc50  1  0.29508221  0.90679091  0.50621911  1
  Sc  Sc51  1  0.49306597  0.69619468  0.09480353  1
  Sc  Sc52  1  0.89429935  0.90145922  0.30883779  1
  Sc  Sc53  1  0.90175851  0.50883615  0.10070396  1
  Sc  Sc54  1  0.30333780  0.51279880  0.70285497  1
  Sc  Sc55  1  0.89648687  0.29904275  0.10043473  1
  Sc  Sc56  1  0.70349233  0.10037687  0.68922340  1
  Sc  Sc57  1  0.69554019  0.49801055  0.70340679  1
  Sc  Sc58  1  0.90359864  0.89059827  0.90219153  1
  Sc  Sc59  1  0.89450896  0.09815984  0.10256202  1
  Sc  Sc60  1  0.51020005  0.90023713  0.49830900  1
  Sc  Sc61  1  0.30686616  0.30511989  0.11142787  1
  Sc  Sc62  1  0.29398623  0.69333308  0.29665061  1
  Sc  Sc63  1  0.88784671  0.29333312  0.29955666  1
  Sc  Sc64  1  0.69351817  0.69900878  0.70035815  1
  Sc  Sc65  1  0.69912105  0.90038534  0.10259616  1
  Sc  Sc66  1  0.89262787  0.09312981  0.49176333  1
  Sc  Sc67  1  0.29550786  0.90830078  0.29969959  1
  Sc  Sc68  1  0.89121409  0.69830655  0.09982554  1
  Sc  Sc69  1  0.89769032  0.89237614  0.49965814  1
  Sc  Sc70  1  0.09509551  0.90436697  0.10230652  1
  Sc  Sc71  1  0.30199475  0.50572617  0.90004594  1
  Sc  Sc72  1  0.70350997  0.89277309  0.49720999  1
  Sc  Sc73  1  0.70328910  0.50129555  0.11135408  1
  Sc  Sc74  1  0.49428522  0.70453521  0.89920533  1
  Sc  Sc75  1  0.29019257  0.90170469  0.10582397  1
  Sc  Sc76  1  0.30310297  0.50272444  0.29843475  1
  Sc  Sc77  1  0.50571384  0.30135815  0.89510094  1
  Sc  Sc78  1  0.89297712  0.69969662  0.90678884  1
  Sc  Sc79  1  0.09495651  0.90915113  0.30361723  1
  Sc  Sc80  1  0.50863447  0.51102944  0.50047331  1
  Sc  Sc81  1  0.10296192  0.09115433  0.70463046  1
  Sc  Sc82  1  0.50996480  0.29361154  0.50065712  1
  Sc  Sc83  1  0.50409332  0.10520276  0.89984665  1
  Sc  Sc84  1  0.89614538  0.30339123  0.70269330  1
  Sc  Sc85  1  0.90197858  0.29834607  0.89315785  1
  Sc  Sc86  1  0.51011845  0.69633119  0.49965975  1
  Sc  Sc87  1  0.70057344  0.89064963  0.69369779  1
  Sc  Sc88  1  0.29996734  0.89274688  0.89956664  1
  Sc  Sc89  1  0.49751017  0.30775960  0.70656381  1
  Sc  Sc90  1  0.50477512  0.09758137  0.68446518  1
  Sc  Sc91  1  0.50070290  0.09638046  0.30541020  1
  Sc  Sc92  1  0.30294698  0.28752454  0.69811306  1
  Sc  Sc93  1  0.09458569  0.70290608  0.50242250  1
  Sc  Sc94  1  0.70005799  0.70030717  0.30056246  1
  Sc  Sc95  1  0.90331579  0.10653043  0.89961545  1
  Sc  Sc96  1  0.89503486  0.71119705  0.70280334  1
  Sc  Sc97  1  0.70323463  0.30364199  0.89321503  1
  Sc  Sc98  1  0.10385007  0.51103582  0.29822687  1
  Sc  Sc99  1  0.89672167  0.69940236  0.30778067  1
  Nb  Nb100  1  0.89765272  0.70021178  0.50030468  1
  Nb  Nb101  1  0.10462122  0.29788109  0.49626021  1
  Nb  Nb102  1  0.50890402  0.50213529  0.30018954  1
  Nb  Nb103  1  0.09217642  0.70503723  0.89436708  1
  Nb  Nb104  1  0.70431908  0.30094549  0.50058063  1
  Nb  Nb105  1  0.90151934  0.49677555  0.69979696  1
  Nb  Nb106  1  0.29681288  0.30745887  0.50118420  1
  Nb  Nb107  1  0.09396898  0.10419306  0.30686470  1
  Nb  Nb108  1  0.09923521  0.49974482  0.70022763  1
  Nb  Nb109  1  0.70490066  0.30076743  0.10590796  1
  Nb  Nb110  1  0.09736222  0.69774856  0.70385024  1
  Nb  Nb111  1  0.50545951  0.49148139  0.89045533  1
  Nb  Nb112  1  0.69330770  0.50101439  0.30541702  1
  Nb  Nb113  1  0.30680460  0.70048681  0.49970296  1
  Nb  Nb114  1  0.70778387  0.49195283  0.49421832  1
  Nb  Nb115  1  0.70604674  0.69834857  0.50017626  1
  Nb  Nb116  1  0.49807134  0.69164383  0.69363840  1
  Nb  Nb117  1  0.68665505  0.11462702  0.49884521  1
  Nb  Nb118  1  0.70373271  0.69648860  0.09551607  1
  Nb  Nb119  1  0.50038734  0.50450123  0.70571677  1
  Nb  Nb120  1  0.09480979  0.89569851  0.89817807  1
  Nb  Nb121  1  0.50962478  0.09965651  0.49872379  1
  Nb  Nb122  1  0.89459651  0.49614744  0.89722797  1
  Nb  Nb123  1  0.09390852  0.11108210  0.48281903  1
  Nb  Nb124  1  0.09521157  0.49799488  0.10093169  1
  Nb  Nb125  1  -0.00320316  0.79939320  0.20162137  1
  Nb  Nb126  1  0.39971842  0.79304226  0.59798880  1
  Nb  Nb127  1  0.20321968  0.40056267  0.60182453  1
  Nb  Nb128  1  0.60112110  0.59456761  -0.00257465  1
  Nb  Nb129  1  0.20186981  0.19969008  -0.00118922  1
  Nb  Nb130  1  0.40131222  0.80083699  0.20772187  1
  Nb  Nb131  1  0.40116186  0.00102732  -0.00201872  1
  Nb  Nb132  1  0.80462770  0.59762652  0.59651362  1
  Nb  Nb133  1  -0.00367561  0.59814456  0.60813566  1
  Nb  Nb134  1  0.00267347  0.39892875  0.20441125  1
  Nb  Nb135  1  0.00003931  0.59627597  0.79832117  1
  Nb  Nb136  1  0.60622003  0.19914762  0.79259154  1
  Nb  Nb137  1  0.40395207  0.40395498  0.40470333  1
  Nb  Nb138  1  0.00638915  0.20225071  0.20646224  1
  Nb  Nb139  1  0.39660151  0.79715722  0.40079207  1
  Nb  Nb140  1  0.19684505  0.40204349  0.79442823  1
  Nb  Nb141  1  0.00396993  0.19969945  0.59047643  1
  Nb  Nb142  1  0.39764929  0.40606853  0.59640715  1
  Nb  Nb143  1  0.40272412  -0.00259097  0.79775101  1
  Nb  Nb144  1  0.79984302  -0.00277877  0.79826496  1
  Nb  Nb145  1  0.00188324  0.39641404  0.39510487  1
  Nb  Nb146  1  0.40776801  0.40373080  -0.00123988  1
  Nb  Nb147  1  0.18629441  0.79670581  -0.00389946  1
  Nb  Nb148  1  0.20413490  0.80010143  0.40454863  1
  Nb  Nb149  1  0.79945092  0.40519818  -0.00191193  1
  Pd  Pd150  1  0.60959816  0.20511258  -0.00902012  1
  Pd  Pd151  1  0.79768564  0.20929297  -0.00240137  1
  Pd  Pd152  1  0.79672154  0.60492937  0.20549420  1
  Pd  Pd153  1  0.00366380  0.01210974  0.59155039  1
  Pd  Pd154  1  0.40180253  -0.00397594  0.19868893  1
  Pd  Pd155  1  0.61000741  -0.00695563  0.59692837  1
  Pd  Pd156  1  0.19969392  0.80077678  0.80532172  1
  Pd  Pd157  1  0.60211246  0.00720032  0.79054958  1
  Pd  Pd158  1  0.59883561  0.20695647  0.38966008  1
  Pd  Pd159  1  0.19209760  0.00437597  0.20782922  1
  Pd  Pd160  1  0.60880609  -0.00060702  0.40140278  1
  Pd  Pd161  1  0.40692124  -0.00995662  0.59859602  1
  Pd  Pd162  1  0.19556138  0.60990734  0.40172012  1
  Pd  Pd163  1  0.59938794  0.79106634  0.79952653  1
  Pd  Pd164  1  0.19878478  -0.00029928  0.40711101  1
  Pd  Pd165  1  0.00107844  0.20192028  0.00931218  1
  Pd  Pd166  1  0.19568713  0.19734914  0.19379757  1
  Pd  Pd167  1  0.59416293  0.40392156  0.59997046  1
  Pd  Pd168  1  0.60300389  0.19580257  0.20933082  1
  Pd  Pd169  1  0.39742992  0.20453427  0.00430839  1
  Pd  Pd170  1  0.19358593  0.20396767  0.80504618  1
  Pd  Pd171  1  0.00344927  0.39724513  0.59450119  1
  Pd  Pd172  1  0.39573823  0.80130073  0.78972530  1
  Pd  Pd173  1  0.79902242  0.80725597  0.80077492  1
  Pd  Pd174  1  0.21751749  0.39080371  -0.00960476  1
  Pd  Pd175  1  0.39731374  0.60263334  0.20352185  1
  Pd  Pd176  1  0.40441879  0.60264991  0.80554528  1
  Pd  Pd177  1  0.00262018  0.40195941  0.80071437  1
  Pd  Pd178  1  0.61243509  0.59508089  0.59879040  1
  Pd  Pd179  1  0.80624998  -0.00552485  -0.00801584  1
  Pd  Pd180  1  0.59700672  0.78958220  0.19115601  1
  Pd  Pd181  1  0.00088388  0.59755087  0.40106166  1
  Pd  Pd182  1  0.40645431  0.20783372  0.40223944  1
  Pd  Pd183  1  0.40256884  -0.00709175  0.40750396  1
  Pd  Pd184  1  0.18776735  0.01507863  0.58874579  1
  Pd  Pd185  1  -0.01078181  -0.00280284  -0.00310544  1
  Pd  Pd186  1  0.41013314  0.20932014  0.60051240  1
  Pd  Pd187  1  0.19016260  0.59354058  0.81027932  1
  Pd  Pd188  1  0.80962567  0.19375727  0.59419056  1
  Pd  Pd189  1  0.00082831  0.79729958  0.01198423  1
  Pd  Pd190  1  0.60163842  0.79059488  0.00638749  1
  Pd  Pd191  1  0.80743612  0.60159026  0.78962848  1
  Pd  Pd192  1  0.60599800  0.40506856  0.00275921  1
  Pd  Pd193  1  0.40352903  0.19872038  0.20382723  1
  Pd  Pd194  1  0.19256184  0.60122870  0.59692878  1
  Pd  Pd195  1  0.19813700  0.40931092  0.20584359  1
  Pd  Pd196  1  -0.00638912  0.60195989  -0.00546325  1
  Pd  Pd197  1  0.20465887  -0.00458396  -0.00700038  1
  Pd  Pd198  1  0.59554972  0.39966910  0.40626866  1
  Pd  Pd199  1  0.79420676  0.00055033  0.59590963  1
  Rh  Rh200  1  0.80326791  0.79431748  0.20136360  1
  Rh  Rh201  1  0.79709670  0.00048539  0.20364208  1
  Rh  Rh202  1  0.60531750  0.60330386  0.19393881  1
  Rh  Rh203  1  0.59070566  0.60692922  0.80543779  1
  Rh  Rh204  1  0.79958904  0.79277990  0.59723126  1
  Rh  Rh205  1  0.79187451  0.60248104  0.40375743  1
  Rh  Rh206  1  0.18864771  0.60654687  -0.00460811  1
  Rh  Rh207  1  0.00261182  0.80328525  0.39585675  1
  Rh  Rh208  1  0.38696502  0.81230711  0.01441736  1
  Rh  Rh209  1  -0.00224685  0.79040072  0.60410797  1
  Rh  Rh210  1  0.80095992  0.39741340  0.39627970  1
  Rh  Rh211  1  0.80349848  0.19619089  0.19756729  1
  Rh  Rh212  1  0.40697427  0.59940642  0.39527508  1
  Rh  Rh213  1  0.20225150  -0.00951367  0.80466648  1
  Rh  Rh214  1  0.60927500  0.40346100  0.20007126  1
  Rh  Rh215  1  -0.00619256  0.79647867  0.79820300  1
  Rh  Rh216  1  0.19474397  0.80409434  0.20268008  1
  Rh  Rh217  1  -0.01688912  0.40132899  0.01062429  1
  Rh  Rh218  1  0.00347226  0.19950301  0.79052774  1
  Rh  Rh219  1  0.39260466  0.40906876  0.79625781  1
  Rh  Rh220  1  0.79217027  0.59068038  -0.00058837  1
  Rh  Rh221  1  0.20128819  0.79051479  0.59340269  1
  Rh  Rh222  1  0.60613755  0.39156082  0.79054485  1
  Rh  Rh223  1  0.59636737  0.79366322  0.59600543  1
  Rh  Rh224  1  0.41811573  0.18562595  0.78712396  1
  Rh  Rh225  1  0.60631920  0.00576424  0.20320685  1
  Rh  Rh226  1  0.61052851  0.59899332  0.40377313  1
  Rh  Rh227  1  0.79544377  0.40897639  0.60425203  1
  Rh  Rh228  1  0.59547069  0.00224245  0.00405650  1
  Rh  Rh229  1  0.79922063  0.79525903  0.40027536  1
  Rh  Rh230  1  -0.01221350  0.20990456  0.39924180  1
  Rh  Rh231  1  -0.00257783  0.00030986  0.20474303  1
  Rh  Rh232  1  0.40428726  0.60033348  0.60172609  1
  Rh  Rh233  1  0.20000449  0.59471019  0.19909459  1
  Rh  Rh234  1  0.79419142  0.80440301  0.00351312  1
  Rh  Rh235  1  0.21268049  0.19484695  0.40755603  1
  Rh  Rh236  1  0.79578972  0.19971393  0.40668116  1
  Rh  Rh237  1  0.79063694  -0.00036472  0.40801998  1
  Rh  Rh238  1  0.20351769  0.40646584  0.40307834  1
  Rh  Rh239  1  0.80243896  0.40199709  0.19456799  1
  Rh  Rh240  1  0.79960845  0.39964749  0.80095776  1
  Rh  Rh241  1  0.59726513  0.20624436  0.60392599  1
  Rh  Rh242  1  0.39765602  0.40960890  0.20059998  1
  Rh  Rh243  1  0.19378394  0.19850004  0.59160826  1
  Rh  Rh244  1  0.41634681  0.58635774  -0.00922460  1
  Rh  Rh245  1  0.60171640  0.79382159  0.40385676  1
  Rh  Rh246  1  0.79504031  0.19268752  0.79833466  1
  Rh  Rh247  1  -0.00186956  -0.00697313  0.40465035  1
  Rh  Rh248  1  -0.00829840  -0.00722151  0.80597221  1
  Rh  Rh249  1  -0.00518739  0.59998836  0.20437644  1
