# generated using pymatgen
data_ZrScNbPdRh
_symmetry_space_group_name_H-M   'P 1'
_cell_length_a   16.55755891
_cell_length_b   16.55660132
_cell_length_c   16.55526682
_cell_angle_alpha   89.97927573
_cell_angle_beta   89.98763919
_cell_angle_gamma   90.01698706
_symmetry_Int_Tables_number   1
_chemical_formula_structural   ZrScNbPdRh
_chemical_formula_sum   'Zr50 Sc50 Nb50 Pd50 Rh50'
_cell_volume   4538.40895087
_cell_formula_units_Z   50
loop_
 _symmetry_equiv_pos_site_id
 _symmetry_equiv_pos_as_xyz
  1  'x, y, z'
loop_
 _atom_site_type_symbol
 _atom_site_label
 _atom_site_symmetry_multiplicity
 _atom_site_fract_x
 _atom_site_fract_y
 _atom_site_fract_z
 _atom_site_occupancy
  Zr  Zr0  1  0.88511417  0.50295448  0.09663619  1
  Zr  Zr1  1  0.29312943  0.89941744  0.09926604  1
  Zr  Zr2  1  0.50086028  0.10303814  0.89434755  1
  Zr  Zr3  1  0.09189691  0.90169283  0.09701491  1
  Zr  Zr4  1  0.10489391  0.29665604  0.91039523  1
  Zr  Zr5  1  0.29045725  0.09844439  0.49250490  1
  Zr  Zr6  1  0.09617323  0.09691677  0.69178922  1
  Zr  Zr7  1  0.70017927  0.69335099  0.08759690  1
  Zr  Zr8  1  0.09936220  0.10360025  0.90033919  1
  Zr  Zr9  1  0.10109661  0.29995675  0.10257580  1
  Zr  Zr10  1  0.90334035  0.29762197  0.30199510  1
  Zr  Zr11  1  0.50717374  0.50173497  0.30074953  1
  Zr  Zr12  1  0.50581727  0.10086305  0.09151025  1
  Zr  Zr13  1  0.50027152  0.68610374  0.69987734  1
  Zr  Zr14  1  0.89336332  0.30512810  0.69549154  1
  Zr  Zr15  1  0.89970391  0.69727967  0.09814708  1
  Zr  Zr16  1  0.90479288  0.89648170  0.29899760  1
  Zr  Zr17  1  0.90294908  0.50382813  0.89794747  1
  Zr  Zr18  1  0.49413486  0.89027263  0.49390136  1
  Zr  Zr19  1  0.30767878  0.91341979  0.30187834  1
  Zr  Zr20  1  0.09439384  0.89080322  0.70233094  1
  Zr  Zr21  1  0.29972861  0.88982320  0.69293876  1
  Zr  Zr22  1  0.30556715  0.10291137  0.11795022  1
  Zr  Zr23  1  0.50251661  0.69977664  0.30330484  1
  Zr  Zr24  1  0.30257503  0.89318354  0.90291191  1
  Zr  Zr25  1  0.90199301  0.69499986  0.70850636  1
  Zr  Zr26  1  0.89567048  0.30554754  0.89473996  1
  Zr  Zr27  1  0.10453753  0.70409708  0.10036201  1
  Zr  Zr28  1  0.50334126  0.50422758  0.10604829  1
  Zr  Zr29  1  0.10612125  0.50221186  0.90134470  1
  Zr  Zr30  1  0.89471914  0.09841962  0.69812509  1
  Zr  Zr31  1  0.10283326  0.10606054  0.09767937  1
  Zr  Zr32  1  0.89270662  0.49995208  0.70481175  1
  Zr  Zr33  1  0.90348759  0.89731756  0.50259994  1
  Zr  Zr34  1  0.50208550  0.30366380  0.69612701  1
  Zr  Zr35  1  0.89807262  0.30600510  0.10645740  1
  Zr  Zr36  1  0.09948400  0.89016634  0.29876836  1
  Zr  Zr37  1  0.10149107  0.29682582  0.69969974  1
  Zr  Zr38  1  0.89635080  0.89198092  0.90907679  1
  Zr  Zr39  1  0.30159600  0.68909345  0.69861490  1
  Zr  Zr40  1  0.09134405  0.69997025  0.30265104  1
  Zr  Zr41  1  0.70514634  0.31025757  0.70213192  1
  Zr  Zr42  1  0.49867212  0.90805281  0.68917135  1
  Zr  Zr43  1  0.69361560  0.88975734  0.71403732  1
  Zr  Zr44  1  0.09562112  0.89825162  0.90247093  1
  Zr  Zr45  1  0.51632234  0.90039638  0.89265921  1
  Zr  Zr46  1  0.89142899  0.69531610  0.90608799  1
  Zr  Zr47  1  0.29501632  0.70540342  0.30690978  1
  Zr  Zr48  1  0.49614199  0.30438858  0.30987037  1
  Zr  Zr49  1  0.90774834  0.89423168  0.70137333  1
  Sc  Sc50  1  0.50193418  0.49031423  0.50282478  1
  Sc  Sc51  1  0.69611364  0.30647198  0.89706180  1
  Sc  Sc52  1  0.29738309  0.50259039  0.51390493  1
  Sc  Sc53  1  0.70292695  0.69275690  0.31707054  1
  Sc  Sc54  1  0.89874754  0.10702400  0.50052962  1
  Sc  Sc55  1  0.50170951  0.30962838  0.09527483  1
  Sc  Sc56  1  0.70556380  0.29915703  0.29996720  1
  Sc  Sc57  1  0.08835349  0.29908751  0.49870866  1
  Sc  Sc58  1  0.71062822  0.89966041  0.30310363  1
  Sc  Sc59  1  0.89532420  0.09182033  0.10840430  1
  Sc  Sc60  1  0.69818692  0.50670178  0.50024880  1
  Sc  Sc61  1  0.90172147  0.69934449  0.49047133  1
  Sc  Sc62  1  0.30630465  0.30299055  0.49653555  1
  Sc  Sc63  1  0.50165945  0.69399989  0.09504697  1
  Sc  Sc64  1  0.30613316  0.89824663  0.50141362  1
  Sc  Sc65  1  0.30231746  0.50202718  0.90283319  1
  Sc  Sc66  1  0.90301018  0.49769114  0.50853313  1
  Sc  Sc67  1  0.47164881  0.10105519  0.28350004  1
  Sc  Sc68  1  0.49831904  0.89139406  0.08712198  1
  Sc  Sc69  1  0.69558219  0.30298966  0.50250262  1
  Sc  Sc70  1  0.29342202  0.30975109  0.09934215  1
  Sc  Sc71  1  0.10489374  0.11117058  0.30058720  1
  Sc  Sc72  1  0.71790158  0.10372523  0.29636546  1
  Sc  Sc73  1  0.69759881  0.50250551  0.89703410  1
  Sc  Sc74  1  0.90411511  0.10937304  0.30082215  1
  Sc  Sc75  1  0.70773532  0.89876029  0.49144521  1
  Sc  Sc76  1  0.50326494  0.08678333  0.51458854  1
  Sc  Sc77  1  0.49894067  0.50266419  0.89754063  1
  Sc  Sc78  1  0.10115856  0.89726821  0.51352615  1
  Sc  Sc79  1  0.49854067  0.49851651  0.70204989  1
  Sc  Sc80  1  0.30313666  0.29062341  0.29660997  1
  Sc  Sc81  1  0.69790923  0.09728421  0.69409260  1
  Sc  Sc82  1  0.09983242  0.50185486  0.50055472  1
  Sc  Sc83  1  0.30661092  0.49780886  0.29178970  1
  Sc  Sc84  1  0.29867057  0.68924148  0.90317653  1
  Sc  Sc85  1  0.09765507  0.69453173  0.89982699  1
  Sc  Sc86  1  0.09297800  0.30394183  0.29216834  1
  Sc  Sc87  1  0.89597869  0.09912420  0.90251890  1
  Sc  Sc88  1  0.09899466  0.50139498  0.29667772  1
  Sc  Sc89  1  0.90037109  0.50693149  0.28887607  1
  Sc  Sc90  1  0.10735274  0.49089612  0.09980516  1
  Sc  Sc91  1  0.29290488  0.11269441  0.89286286  1
  Sc  Sc92  1  0.30377666  0.30122357  0.69988385  1
  Sc  Sc93  1  0.49689879  0.31152110  0.89529404  1
  Sc  Sc94  1  0.69091676  0.08816141  0.90986807  1
  Sc  Sc95  1  0.70762565  0.09878192  0.49748724  1
  Sc  Sc96  1  0.30622830  0.50110104  0.09560248  1
  Sc  Sc97  1  0.09675388  0.50881479  0.69784003  1
  Sc  Sc98  1  0.29578418  0.11013715  0.69915617  1
  Sc  Sc99  1  0.10195802  0.69817725  0.49514571  1
  Nb  Nb100  1  0.29356701  0.10155635  0.29987371  1
  Nb  Nb101  1  0.50481729  0.70774146  0.90444917  1
  Nb  Nb102  1  0.09680494  0.09891238  0.49898791  1
  Nb  Nb103  1  0.70018927  0.69020305  0.70089134  1
  Nb  Nb104  1  0.30651580  0.70074555  0.10117699  1
  Nb  Nb105  1  0.69518716  0.71176960  0.88982948  1
  Nb  Nb106  1  0.50266072  0.69662718  0.49760787  1
  Nb  Nb107  1  0.29806769  0.29937909  0.89774994  1
  Nb  Nb108  1  0.49849726  0.09970966  0.70179215  1
  Nb  Nb109  1  0.70027397  0.09983706  0.10084470  1
  Nb  Nb110  1  0.71014425  0.90913412  0.09560414  1
  Nb  Nb111  1  0.50168546  0.29850115  0.49984466  1
  Nb  Nb112  1  0.69736081  0.51036417  0.70067880  1
  Nb  Nb113  1  0.30070290  0.50332626  0.70302381  1
  Nb  Nb114  1  0.09802598  0.70535267  0.70424975  1
  Nb  Nb115  1  0.70235693  0.89360250  0.90394954  1
  Nb  Nb116  1  0.89540899  0.89767335  0.10179596  1
  Nb  Nb117  1  0.89375543  0.30531288  0.49496767  1
  Nb  Nb118  1  0.69662707  0.69702033  0.50418732  1
  Nb  Nb119  1  0.50132313  0.89934907  0.29611215  1
  Nb  Nb120  1  0.31475744  0.70074695  0.50304422  1
  Nb  Nb121  1  0.69731651  0.49503368  0.30319033  1
  Nb  Nb122  1  0.90412366  0.70741639  0.29760881  1
  Nb  Nb123  1  0.70198997  0.30106219  0.10339648  1
  Nb  Nb124  1  0.69970188  0.49226719  0.11114633  1
  Nb  Nb125  1  0.59397286  0.00546191  0.38552524  1
  Nb  Nb126  1  0.59745001  0.20067779  0.79429700  1
  Nb  Nb127  1  0.79997617  0.79718814  0.19734948  1
  Nb  Nb128  1  0.20276784  0.40111777  0.79890834  1
  Nb  Nb129  1  0.40788107  0.20122372  0.59790768  1
  Nb  Nb130  1  0.80234596  0.40290761  0.39907264  1
  Nb  Nb131  1  0.39852418  0.00537001  -0.00688857  1
  Nb  Nb132  1  0.40551875  0.79775722  0.80056043  1
  Nb  Nb133  1  0.60590652  0.80520555  0.19972990  1
  Nb  Nb134  1  0.19989455  0.40058701  0.39806223  1
  Nb  Nb135  1  0.79398599  0.78945547  0.60397820  1
  Nb  Nb136  1  0.59230329  0.19277068  0.39507709  1
  Nb  Nb137  1  0.79725492  -0.00942792  0.80440681  1
  Nb  Nb138  1  0.20505621  0.60744494  0.19816579  1
  Nb  Nb139  1  0.79071951  0.20251261  0.00793136  1
  Nb  Nb140  1  0.60152221  0.19650128  0.19957331  1
  Nb  Nb141  1  0.19928620  -0.00549284  0.79812801  1
  Nb  Nb142  1  0.40248510  0.79896778  0.20136252  1
  Nb  Nb143  1  0.40135511  0.60338360  0.40449377  1
  Nb  Nb144  1  -0.00359469  0.20236980  0.79812473  1
  Nb  Nb145  1  0.39751566  0.20254808  -0.00321956  1
  Nb  Nb146  1  0.39500716  -0.00268373  0.79885848  1
  Nb  Nb147  1  0.00679058  0.00279651  0.40428897  1
  Nb  Nb148  1  0.60255610  -0.00087414  0.19994402  1
  Nb  Nb149  1  0.60327269  0.78970037  0.59742878  1
  Pd  Pd150  1  0.79578088  0.20512997  0.59352483  1
  Pd  Pd151  1  0.40722001  0.00916267  0.40432160  1
  Pd  Pd152  1  0.60009011  0.39023650  0.20592963  1
  Pd  Pd153  1  0.00112716  0.40149714  0.60260690  1
  Pd  Pd154  1  0.80581225  0.60259845  0.59596261  1
  Pd  Pd155  1  0.79442765  -0.01329841  0.60883529  1
  Pd  Pd156  1  0.60217823  0.59342717  -0.00701996  1
  Pd  Pd157  1  0.00016642  0.60553533  0.59884949  1
  Pd  Pd158  1  0.20864477  0.00967979  -0.00654178  1
  Pd  Pd159  1  0.20688009  0.20827552  0.59089769  1
  Pd  Pd160  1  0.20300687  -0.00139161  0.60532189  1
  Pd  Pd161  1  -0.00321174  0.00540930  0.80359581  1
  Pd  Pd162  1  0.81010151  0.00477623  0.39545579  1
  Pd  Pd163  1  0.39335167  0.40448538  0.79878696  1
  Pd  Pd164  1  0.20280093  0.80781194  0.41148742  1
  Pd  Pd165  1  0.78861677  0.18781241  0.81201914  1
  Pd  Pd166  1  -0.00199064  0.40501920  0.00363951  1
  Pd  Pd167  1  0.20563125  0.79863323  0.20151631  1
  Pd  Pd168  1  0.19470957  0.60697572  0.60051390  1
  Pd  Pd169  1  0.19939319  0.79139986  -0.00664953  1
  Pd  Pd170  1  0.19105500  -0.00739119  0.40012117  1
  Pd  Pd171  1  0.59952295  0.19787594  0.59793487  1
  Pd  Pd172  1  -0.00771718  0.20251414  0.60004640  1
  Pd  Pd173  1  0.00783412  0.59565014  0.19107573  1
  Pd  Pd174  1  0.19957800  0.39589802  0.59937072  1
  Pd  Pd175  1  0.40028793  0.39590057  0.19746072  1
  Pd  Pd176  1  0.79094819  0.60780750  0.20735204  1
  Pd  Pd177  1  -0.01614564  0.19821549  0.00195193  1
  Pd  Pd178  1  0.00623424  0.00656309  0.20910558  1
  Pd  Pd179  1  0.61178748  0.60818584  0.20395027  1
  Pd  Pd180  1  0.79255406  0.39951807  -0.00444105  1
  Pd  Pd181  1  0.60552845  0.40816532  0.60092087  1
  Pd  Pd182  1  0.40469773  0.59920134  -0.00307299  1
  Pd  Pd183  1  0.40747617  0.18739631  0.41047089  1
  Pd  Pd184  1  0.39107255  0.41218437  0.40542837  1
  Pd  Pd185  1  -0.00710346  0.59232189  0.39997172  1
  Pd  Pd186  1  0.21018880  0.58904946  0.39571545  1
  Pd  Pd187  1  0.19215442  0.21340970  0.39920913  1
  Pd  Pd188  1  0.80832210  0.59258861  0.39983142  1
  Pd  Pd189  1  -0.00091150  0.40809904  0.39656627  1
  Pd  Pd190  1  0.18924441  0.00205654  0.20512846  1
  Pd  Pd191  1  0.60025614  0.21310435  -0.00407796  1
  Pd  Pd192  1  0.60165171  0.40697265  0.00047232  1
  Pd  Pd193  1  -0.00826833  0.00495720  0.00261909  1
  Pd  Pd194  1  0.61231914  -0.01214643  0.58910974  1
  Pd  Pd195  1  0.00906203  0.39695318  0.79832598  1
  Pd  Pd196  1  0.60706537  0.80662519  0.39832473  1
  Pd  Pd197  1  0.19998903  0.78827667  0.59281459  1
  Pd  Pd198  1  0.20448745  0.79532212  0.80520699  1
  Pd  Pd199  1  0.00583591  0.59497315  0.00779596  1
  Rh  Rh200  1  0.60003921  0.60155942  0.80675236  1
  Rh  Rh201  1  0.20216864  0.60044630  0.01154351  1
  Rh  Rh202  1  0.40301209  0.60376383  0.80720834  1
  Rh  Rh203  1  -0.00280370  0.79108307  0.81114156  1
  Rh  Rh204  1  -0.00100207  0.19716243  0.19361019  1
  Rh  Rh205  1  0.79470124  0.79842808  0.00635363  1
  Rh  Rh206  1  0.19763145  0.59428955  0.79442794  1
  Rh  Rh207  1  0.40567802  0.59176104  0.59298572  1
  Rh  Rh208  1  0.00384329  0.60227396  0.80068542  1
  Rh  Rh209  1  0.19961141  0.20602496  0.20144729  1
  Rh  Rh210  1  0.59798210  -0.01070146  0.00713183  1
  Rh  Rh211  1  0.79912742  0.40215084  0.21032668  1
  Rh  Rh212  1  -0.00543513  0.78694384  0.59805711  1
  Rh  Rh213  1  0.39834732  0.79600479  0.39369015  1
  Rh  Rh214  1  0.59386363  0.59151645  0.40754178  1
  Rh  Rh215  1  0.60240516  0.40149312  0.79404446  1
  Rh  Rh216  1  0.79396217  0.40760218  0.59312772  1
  Rh  Rh217  1  0.60908111  0.80271370  0.00779542  1
  Rh  Rh218  1  0.60926651  0.39350298  0.39901531  1
  Rh  Rh219  1  0.38481431  0.01464586  0.60400530  1
  Rh  Rh220  1  0.41015453  0.78989001  0.60738818  1
  Rh  Rh221  1  0.80059316  -0.00551444  0.20512846  1
  Rh  Rh222  1  0.80170094  0.79347096  0.40102129  1
  Rh  Rh223  1  0.78860746  0.59326013  -0.00697438  1
  Rh  Rh224  1  0.79385874  0.21023121  0.40619444  1
  Rh  Rh225  1  0.40727261  -0.01444655  0.18525505  1
  Rh  Rh226  1  0.00359185  0.80613636  0.40749991  1
  Rh  Rh227  1  0.79414602  0.41113899  0.80134179  1
  Rh  Rh228  1  0.39906701  0.39715081  -0.00222274  1
  Rh  Rh229  1  0.39317561  0.61061052  0.20830296  1
  Rh  Rh230  1  0.20679706  0.40207808  -0.00838537  1
  Rh  Rh231  1  -0.00750941  0.79866371  0.19111499  1
  Rh  Rh232  1  0.00157143  0.19592801  0.40436799  1
  Rh  Rh233  1  0.79298978  0.59998110  0.80654421  1
  Rh  Rh234  1  0.39872823  0.39598722  0.60166125  1
  Rh  Rh235  1  0.39933885  0.79795811  -0.00179621  1
  Rh  Rh236  1  0.60560424  0.00909822  0.79602819  1
  Rh  Rh237  1  -0.00271512  0.00404138  0.59111235  1
  Rh  Rh238  1  0.20204339  0.40618605  0.20916345  1
  Rh  Rh239  1  0.59513399  0.59717783  0.59569745  1
  Rh  Rh240  1  0.80342024  0.00481210  -0.00511802  1
  Rh  Rh241  1  -0.00022379  0.79618969  0.00194281  1
  Rh  Rh242  1  0.58996710  0.78812061  0.78988294  1
  Rh  Rh243  1  0.40545280  0.21436878  0.18761037  1
  Rh  Rh244  1  -0.00442519  0.40637474  0.19507863  1
  Rh  Rh245  1  0.21193543  0.19811054  0.00981478  1
  Rh  Rh246  1  0.80590215  0.79947063  0.79627611  1
  Rh  Rh247  1  0.79939283  0.20260859  0.19289451  1
  Rh  Rh248  1  0.18902170  0.20223553  0.79779587  1
  Rh  Rh249  1  0.40755842  0.20090834  0.79735506  1
