# generated using pymatgen
data_ZrScNbPdRh
_symmetry_space_group_name_H-M   'P 1'
_cell_length_a   16.55932278
_cell_length_b   16.55753499
_cell_length_c   16.55785272
_cell_angle_alpha   90.01363662
_cell_angle_beta   90.00280445
_cell_angle_gamma   89.98308099
_symmetry_Int_Tables_number   1
_chemical_formula_structural   ZrScNbPdRh
_chemical_formula_sum   'Zr50 Sc50 Nb50 Pd50 Rh50'
_cell_volume   4539.85766317
_cell_formula_units_Z   50
loop_
 _symmetry_equiv_pos_site_id
 _symmetry_equiv_pos_as_xyz
  1  'x, y, z'
loop_
 _atom_site_type_symbol
 _atom_site_label
 _atom_site_symmetry_multiplicity
 _atom_site_fract_x
 _atom_site_fract_y
 _atom_site_fract_z
 _atom_site_occupancy
  Zr  Zr0  1  0.30131913  0.70303968  0.90042867  1
  Zr  Zr1  1  0.50091484  0.70777107  0.10066909  1
  Zr  Zr2  1  0.49888014  0.89739167  0.90083061  1
  Zr  Zr3  1  0.48819828  0.09694132  0.10237787  1
  Zr  Zr4  1  0.49820723  0.89629476  0.70314575  1
  Zr  Zr5  1  0.89820801  0.29670140  0.50051792  1
  Zr  Zr6  1  0.69874071  0.10018703  0.50956862  1
  Zr  Zr7  1  0.49914642  0.50623375  0.89209753  1
  Zr  Zr8  1  0.69895210  0.50295662  0.10114235  1
  Zr  Zr9  1  0.69127625  0.50328749  0.90304127  1
  Zr  Zr10  1  0.69896290  0.70262685  0.49563328  1
  Zr  Zr11  1  0.10109972  0.50610560  0.49560445  1
  Zr  Zr12  1  0.90098638  0.70511922  0.10734970  1
  Zr  Zr13  1  0.49500878  0.30969299  0.69611500  1
  Zr  Zr14  1  0.10355729  0.30187958  0.50041874  1
  Zr  Zr15  1  0.09955066  0.70171872  0.10272450  1
  Zr  Zr16  1  0.49965756  0.69130546  0.70427221  1
  Zr  Zr17  1  0.30857214  0.10018487  0.69280978  1
  Zr  Zr18  1  0.29182549  0.49816907  0.90019748  1
  Zr  Zr19  1  0.89438254  0.09543060  0.70109737  1
  Zr  Zr20  1  0.89280837  0.10154638  0.49806498  1
  Zr  Zr21  1  0.31381054  0.50123118  0.69976024  1
  Zr  Zr22  1  0.29230922  0.09515940  0.29488058  1
  Zr  Zr23  1  0.50556604  0.70237535  0.89908046  1
  Zr  Zr24  1  0.69974066  0.30083527  0.89757246  1
  Zr  Zr25  1  0.90604059  0.89575762  0.70412665  1
  Zr  Zr26  1  0.09505066  0.29399838  0.69985424  1
  Zr  Zr27  1  0.89979090  0.30256802  0.89873348  1
  Zr  Zr28  1  0.09988082  0.30320292  0.10120272  1
  Zr  Zr29  1  0.10003364  0.09353077  0.49365667  1
  Zr  Zr30  1  0.90361749  0.50195903  0.50168659  1
  Zr  Zr31  1  0.89211936  0.29142793  0.29732783  1
  Zr  Zr32  1  0.69996576  0.30240588  0.49760458  1
  Zr  Zr33  1  0.10267361  0.30255102  0.89622775  1
  Zr  Zr34  1  0.50092929  0.29943312  0.90198864  1
  Zr  Zr35  1  0.89264823  0.50448746  0.69643596  1
  Zr  Zr36  1  0.28838819  0.69721993  0.49513350  1
  Zr  Zr37  1  0.89307867  0.09936465  0.10553035  1
  Zr  Zr38  1  0.09683453  0.70386327  0.69831039  1
  Zr  Zr39  1  0.10840323  0.70431514  0.89634536  1
  Zr  Zr40  1  0.50941588  0.50471054  0.09578258  1
  Zr  Zr41  1  0.90119914  0.70329475  0.69762671  1
  Zr  Zr42  1  0.09487322  0.09919833  0.69956995  1
  Zr  Zr43  1  0.09819682  0.09783426  0.90150784  1
  Zr  Zr44  1  0.09152647  0.09457393  0.10165473  1
  Zr  Zr45  1  0.48359718  0.10168367  0.30291363  1
  Zr  Zr46  1  0.69871355  0.90199713  0.10687051  1
  Zr  Zr47  1  0.89193098  0.89529411  0.10172400  1
  Zr  Zr48  1  0.70986619  0.10025617  0.90029358  1
  Zr  Zr49  1  0.29764455  0.69823855  0.29850552  1
  Sc  Sc50  1  0.09678947  0.70609525  0.30526357  1
  Sc  Sc51  1  0.29754787  0.70421271  0.69527184  1
  Sc  Sc52  1  0.11203422  0.49916065  0.69740729  1
  Sc  Sc53  1  0.30096417  0.29610739  0.30632160  1
  Sc  Sc54  1  0.29596128  0.09579170  0.09731053  1
  Sc  Sc55  1  0.70618548  0.30395963  0.10901539  1
  Sc  Sc56  1  0.70106764  0.70075232  0.70081830  1
  Sc  Sc57  1  0.10126690  0.89461605  0.69981621  1
  Sc  Sc58  1  0.30077104  0.70996226  0.09971140  1
  Sc  Sc59  1  0.90122851  0.09245886  0.90599646  1
  Sc  Sc60  1  0.69700597  0.70757158  0.90089210  1
  Sc  Sc61  1  0.30590658  0.10336071  0.48770015  1
  Sc  Sc62  1  0.10049284  0.49296448  0.30085477  1
  Sc  Sc63  1  0.29066062  0.90064466  0.29720985  1
  Sc  Sc64  1  0.90749459  0.49806722  0.30808511  1
  Sc  Sc65  1  0.50967476  0.49813104  0.50546614  1
  Sc  Sc66  1  0.30761972  0.90014536  0.89774718  1
  Sc  Sc67  1  0.49712060  0.30528723  0.49958661  1
  Sc  Sc68  1  0.09947247  0.69444860  0.49836507  1
  Sc  Sc69  1  0.89239191  0.89611303  0.49720799  1
  Sc  Sc70  1  0.70088857  0.71352175  0.09919465  1
  Sc  Sc71  1  0.70848763  0.89638057  0.70135010  1
  Sc  Sc72  1  0.89610417  0.30089744  0.70408689  1
  Sc  Sc73  1  0.69567304  0.70225001  0.30848800  1
  Sc  Sc74  1  0.10377288  0.29944868  0.29391084  1
  Sc  Sc75  1  0.90326260  0.69298090  0.49875072  1
  Sc  Sc76  1  0.49062486  0.10047247  0.89839473  1
  Sc  Sc77  1  0.50620702  0.11181848  0.69626926  1
  Sc  Sc78  1  0.50658471  0.70109217  0.29728915  1
  Sc  Sc79  1  0.30102084  0.29700900  0.89791655  1
  Sc  Sc80  1  0.89477536  0.90452561  0.89754540  1
  Sc  Sc81  1  0.91036463  0.49702825  0.11453912  1
  Sc  Sc82  1  0.10174065  0.89794649  0.48620900  1
  Sc  Sc83  1  0.30678402  0.09867598  0.90494287  1
  Sc  Sc84  1  0.51091192  0.70074429  0.50501130  1
  Sc  Sc85  1  0.70140688  0.49895593  0.49906889  1
  Sc  Sc86  1  0.90551567  0.29486798  0.10860078  1
  Sc  Sc87  1  0.29248375  0.89859570  0.50008645  1
  Sc  Sc88  1  0.51224160  0.50341707  0.30095727  1
  Sc  Sc89  1  0.29022418  0.49615498  0.50236440  1
  Sc  Sc90  1  0.30546686  0.30520364  0.50019080  1
  Sc  Sc91  1  0.89272194  0.49725015  0.88599309  1
  Sc  Sc92  1  0.69844888  0.89354501  0.50247632  1
  Sc  Sc93  1  0.71249344  0.09978938  0.29908735  1
  Sc  Sc94  1  0.30092364  0.90146493  0.09903514  1
  Sc  Sc95  1  0.29743308  0.49432004  0.30359351  1
  Sc  Sc96  1  0.29181952  0.29588370  0.10064969  1
  Sc  Sc97  1  0.30454951  0.30646080  0.69370791  1
  Sc  Sc98  1  0.09365827  0.90382866  0.89477796  1
  Sc  Sc99  1  0.49965239  0.90260111  0.29076607  1
  Nb  Nb100  1  0.50266244  0.29994461  0.30000960  1
  Nb  Nb101  1  0.50161968  0.90094223  0.09850304  1
  Nb  Nb102  1  0.90253778  0.89696152  0.29801234  1
  Nb  Nb103  1  0.69737515  0.89575240  0.30411387  1
  Nb  Nb104  1  0.69780835  0.90266121  0.90474034  1
  Nb  Nb105  1  0.09330912  0.08668669  0.30026462  1
  Nb  Nb106  1  0.10315770  0.50191996  0.90388656  1
  Nb  Nb107  1  0.69528008  0.10257452  0.70405811  1
  Nb  Nb108  1  0.69732596  0.49160935  0.70390283  1
  Nb  Nb109  1  0.90688393  0.09647837  0.30119260  1
  Nb  Nb110  1  0.50016351  0.09648467  0.49711669  1
  Nb  Nb111  1  0.90432762  0.70029032  0.90324487  1
  Nb  Nb112  1  0.68873174  0.28993883  0.70458595  1
  Nb  Nb113  1  0.69516141  0.30158081  0.30433380  1
  Nb  Nb114  1  0.30219452  0.90578007  0.69843210  1
  Nb  Nb115  1  0.50230690  0.89906816  0.49811443  1
  Nb  Nb116  1  0.09538001  0.90294775  0.10179584  1
  Nb  Nb117  1  0.90218024  0.70466054  0.29322555  1
  Nb  Nb118  1  0.69777563  0.09946417  0.10041586  1
  Nb  Nb119  1  0.09126964  0.91166259  0.29750241  1
  Nb  Nb120  1  0.69994751  0.49799706  0.30140146  1
  Nb  Nb121  1  0.50248865  0.50317287  0.70199275  1
  Nb  Nb122  1  0.50107166  0.29971454  0.09935145  1
  Nb  Nb123  1  0.29942347  0.49496960  0.10038741  1
  Nb  Nb124  1  0.10915855  0.49365853  0.09780817  1
  Nb  Nb125  1  0.40728786  -0.00297625  0.59449805  1
  Nb  Nb126  1  -0.00039123  0.79668187  0.00171009  1
  Nb  Nb127  1  0.59697447  0.20091348  0.20335055  1
  Nb  Nb128  1  0.60079592  0.19493888  0.00914620  1
  Nb  Nb129  1  0.00247609  0.40784805  -0.00417384  1
  Nb  Nb130  1  0.40680539  0.39807949  0.19613327  1
  Nb  Nb131  1  0.00197254  0.59636807  -0.00340411  1
  Nb  Nb132  1  -0.00013158  0.19255179  0.39496691  1
  Nb  Nb133  1  0.39880928  0.59626084  0.00333891  1
  Nb  Nb134  1  0.80865265  0.59969255  0.00461530  1
  Nb  Nb135  1  0.80515010  0.40648137  0.00193108  1
  Nb  Nb136  1  0.40162904  0.79713756  0.40270520  1
  Nb  Nb137  1  0.60140288  0.00183929  0.00174401  1
  Nb  Nb138  1  0.20005424  0.59521226  0.19395732  1
  Nb  Nb139  1  0.40078264  0.60439109  0.40134500  1
  Nb  Nb140  1  0.59760141  0.19736410  0.39572349  1
  Nb  Nb141  1  0.60567823  0.00216459  0.80266796  1
  Nb  Nb142  1  0.40236991  0.40374092  0.00564865  1
  Nb  Nb143  1  0.59721856  0.00270570  0.40216425  1
  Nb  Nb144  1  -0.00241439  0.00146646  0.59663595  1
  Nb  Nb145  1  0.80116469  0.60301951  0.20484268  1
  Nb  Nb146  1  0.00328103  0.60165484  0.80480361  1
  Nb  Nb147  1  0.19911576  0.19612031  0.59884709  1
  Nb  Nb148  1  -0.00051724  0.40134983  0.59859040  1
  Nb  Nb149  1  0.20625437  0.00189497  0.79380318  1
  Pd  Pd150  1  0.19568880  0.80185841  0.59841588  1
  Pd  Pd151  1  0.19391634  0.19305824  0.19959876  1
  Pd  Pd152  1  0.60938923  0.59556151  0.60344339  1
  Pd  Pd153  1  0.80459393  0.79669568  0.39720697  1
  Pd  Pd154  1  0.20444325  0.60401549  0.00828197  1
  Pd  Pd155  1  0.39482398  0.20787151  0.19722484  1
  Pd  Pd156  1  0.20040243  0.19784897  -0.00020302  1
  Pd  Pd157  1  0.39986045  0.80638183  0.20557421  1
  Pd  Pd158  1  -0.00928492  0.19360855  0.80652933  1
  Pd  Pd159  1  0.60368535  0.80092550  0.60639820  1
  Pd  Pd160  1  0.79377571  -0.00498926  0.39748249  1
  Pd  Pd161  1  0.39438016  0.59146366  0.20261921  1
  Pd  Pd162  1  0.21008197  0.19298680  0.79351878  1
  Pd  Pd163  1  0.80516525  0.19879678  0.79809799  1
  Pd  Pd164  1  0.59811060  0.39693013  0.20114167  1
  Pd  Pd165  1  0.00236010  0.80807827  0.58694017  1
  Pd  Pd166  1  0.79747446  0.20964402  0.00730823  1
  Pd  Pd167  1  0.39723520  -0.01385178  0.40205541  1
  Pd  Pd168  1  -0.00288943  0.79800105  0.40244174  1
  Pd  Pd169  1  0.80143728  -0.00718854  0.60386674  1
  Pd  Pd170  1  0.79759308  0.60638542  0.80596839  1
  Pd  Pd171  1  0.59920891  0.00843452  0.20619553  1
  Pd  Pd172  1  0.59364444  0.20785253  0.59167016  1
  Pd  Pd173  1  0.79912812  0.79905000  0.80650354  1
  Pd  Pd174  1  0.79571978  0.20553644  0.60896255  1
  Pd  Pd175  1  0.19296941  0.80054801  0.20519887  1
  Pd  Pd176  1  0.61115698  0.61046344  0.20013795  1
  Pd  Pd177  1  0.19558321  0.19985865  0.40119218  1
  Pd  Pd178  1  0.20055766  0.00289882  0.59919918  1
  Pd  Pd179  1  0.20170327  -0.00670662  -0.00898180  1
  Pd  Pd180  1  0.20131793  0.60231111  0.79237629  1
  Pd  Pd181  1  0.00693992  0.59503921  0.20421624  1
  Pd  Pd182  1  0.39553161  0.79503323  0.79566664  1
  Pd  Pd183  1  0.39909451  0.59756523  0.58830441  1
  Pd  Pd184  1  0.39918255  0.20241824  0.79751547  1
  Pd  Pd185  1  0.79087630  0.60325715  0.59800502  1
  Pd  Pd186  1  0.80206299  -0.00298044  0.20796642  1
  Pd  Pd187  1  0.80232603  0.60014352  0.39264603  1
  Pd  Pd188  1  0.80286770  0.40699395  0.20261279  1
  Pd  Pd189  1  0.39794491  0.80231176  0.59183389  1
  Pd  Pd190  1  0.79994806  0.40364459  0.39696690  1
  Pd  Pd191  1  0.19419554  0.81381384  -0.00252118  1
  Pd  Pd192  1  0.00398076  0.41111446  0.79549616  1
  Pd  Pd193  1  0.00101609  0.38948242  0.39987937  1
  Pd  Pd194  1  0.20398929  0.39739835  0.79373446  1
  Pd  Pd195  1  0.59665202  0.39999504  0.79732684  1
  Pd  Pd196  1  -0.00085271  0.20614341  -0.00052767  1
  Pd  Pd197  1  0.59709232  -0.00615722  0.60433775  1
  Pd  Pd198  1  0.79787395  0.39267737  0.60692592  1
  Pd  Pd199  1  0.40597039  0.41037747  0.39532790  1
  Rh  Rh200  1  0.00430528  -0.00061264  0.79387749  1
  Rh  Rh201  1  0.40507762  0.40993359  0.59595356  1
  Rh  Rh202  1  0.20767970  0.81230004  0.79836749  1
  Rh  Rh203  1  0.59801113  0.59610340  0.40357707  1
  Rh  Rh204  1  0.19563331  -0.00142291  0.19519589  1
  Rh  Rh205  1  0.60138737  0.80149244  0.20417323  1
  Rh  Rh206  1  0.79077732  0.79676874  0.21462911  1
  Rh  Rh207  1  0.00558543  0.19520677  0.20830529  1
  Rh  Rh208  1  0.40026883  0.20774200  0.00371977  1
  Rh  Rh209  1  0.00549173  0.19938236  0.58770019  1
  Rh  Rh210  1  0.79363556  0.19742249  0.20198957  1
  Rh  Rh211  1  0.40189494  0.79716261  0.00258781  1
  Rh  Rh212  1  0.20818496  0.40201526  0.20470954  1
  Rh  Rh213  1  -0.00981426  -0.00103260  0.40516930  1
  Rh  Rh214  1  0.19967091  0.80413822  0.39311467  1
  Rh  Rh215  1  0.20491920  -0.00330400  0.39551233  1
  Rh  Rh216  1  0.39155827  -0.00602041  0.19745624  1
  Rh  Rh217  1  0.60360574  0.39839527  0.60544178  1
  Rh  Rh218  1  0.59743730  0.19212467  0.81049712  1
  Rh  Rh219  1  0.59115954  0.81052934  0.39402997  1
  Rh  Rh220  1  0.79790804  0.19803575  0.39658041  1
  Rh  Rh221  1  -0.00663832  -0.00901493  0.00681633  1
  Rh  Rh222  1  0.78968612  0.39615411  0.79775233  1
  Rh  Rh223  1  0.40330159  -0.00625196  0.00376914  1
  Rh  Rh224  1  0.00051360  0.60496315  0.39253880  1
  Rh  Rh225  1  0.20111107  0.39615964  0.39752991  1
  Rh  Rh226  1  0.40269703  0.00410392  0.78877610  1
  Rh  Rh227  1  0.00496991  0.81111748  0.20002896  1
  Rh  Rh228  1  0.60906633  0.60214904  0.79314261  1
  Rh  Rh229  1  0.60393441  0.80576751  0.79665537  1
  Rh  Rh230  1  0.39583589  0.19563784  0.59094688  1
  Rh  Rh231  1  0.79433022  -0.00141689  0.79692640  1
  Rh  Rh232  1  0.20107508  0.59647738  0.38945458  1
  Rh  Rh233  1  0.20035759  0.60174743  0.60399830  1
  Rh  Rh234  1  0.60188934  0.61553662  0.00220301  1
  Rh  Rh235  1  0.79626969  -0.00404599  0.00410821  1
  Rh  Rh236  1  0.00602625  0.59200295  0.61014517  1
  Rh  Rh237  1  0.60406866  0.38768984  0.00130898  1
  Rh  Rh238  1  0.80175254  0.79340112  0.59664120  1
  Rh  Rh239  1  0.60136987  0.39887531  0.40099200  1
  Rh  Rh240  1  0.40171023  0.40087538  0.80603196  1
  Rh  Rh241  1  0.80443097  0.79941497  -0.00741754  1
  Rh  Rh242  1  0.00335457  0.39666658  0.19923741  1
  Rh  Rh243  1  -0.00102370  0.79625192  0.80874135  1
  Rh  Rh244  1  0.40565460  0.20791094  0.40445808  1
  Rh  Rh245  1  0.20166321  0.39073648  -0.00243113  1
  Rh  Rh246  1  0.59957735  0.80786242  0.00180772  1
  Rh  Rh247  1  -0.00919508  -0.00445947  0.19444478  1
  Rh  Rh248  1  0.39529195  0.60445004  0.80453314  1
  Rh  Rh249  1  0.19505256  0.39211937  0.60289273  1
