# generated using pymatgen
data_ZrScNbPdRh
_symmetry_space_group_name_H-M   'P 1'
_cell_length_a   16.55736488
_cell_length_b   16.55957480
_cell_length_c   16.55718250
_cell_angle_alpha   90.00025293
_cell_angle_beta   89.97684205
_cell_angle_gamma   90.00993108
_symmetry_Int_Tables_number   1
_chemical_formula_structural   ZrScNbPdRh
_chemical_formula_sum   'Zr50 Sc50 Nb50 Pd50 Rh50'
_cell_volume   4539.69624321
_cell_formula_units_Z   50
loop_
 _symmetry_equiv_pos_site_id
 _symmetry_equiv_pos_as_xyz
  1  'x, y, z'
loop_
 _atom_site_type_symbol
 _atom_site_label
 _atom_site_symmetry_multiplicity
 _atom_site_fract_x
 _atom_site_fract_y
 _atom_site_fract_z
 _atom_site_occupancy
  Zr  Zr0  1  0.30388936  0.09963600  0.10460471  1
  Zr  Zr1  1  0.89562181  0.29917811  0.09680121  1
  Zr  Zr2  1  0.29254533  0.90397348  0.89985060  1
  Zr  Zr3  1  0.70522394  0.69195032  0.89683603  1
  Zr  Zr4  1  0.70521339  0.10118059  0.49066545  1
  Zr  Zr5  1  0.10434947  0.49535337  0.10183784  1
  Zr  Zr6  1  0.70360910  0.89386128  0.69934546  1
  Zr  Zr7  1  0.49728717  0.69937886  0.90592531  1
  Zr  Zr8  1  0.08990761  0.90323917  0.10861444  1
  Zr  Zr9  1  0.09160987  0.70408272  0.29962328  1
  Zr  Zr10  1  0.90250934  0.10148583  0.09359133  1
  Zr  Zr11  1  0.90413312  0.29658384  0.70156282  1
  Zr  Zr12  1  0.29790274  0.09095823  0.90770761  1
  Zr  Zr13  1  0.29576017  0.30332875  0.69305841  1
  Zr  Zr14  1  0.70422545  0.50558267  0.49915615  1
  Zr  Zr15  1  0.49956762  0.30310734  0.70170388  1
  Zr  Zr16  1  0.51465208  0.50505768  0.10910834  1
  Zr  Zr17  1  0.09296448  0.10462024  0.69687450  1
  Zr  Zr18  1  0.28980448  0.89569277  0.29919229  1
  Zr  Zr19  1  0.90310676  0.89922244  0.29021646  1
  Zr  Zr20  1  0.30448697  0.90272981  0.10142230  1
  Zr  Zr21  1  0.49600668  0.69233787  0.29431289  1
  Zr  Zr22  1  0.89696247  0.69491855  0.49646478  1
  Zr  Zr23  1  0.29791382  0.69748694  0.90408738  1
  Zr  Zr24  1  0.30669625  0.10336267  0.29583969  1
  Zr  Zr25  1  0.70192251  0.89338191  0.49514704  1
  Zr  Zr26  1  0.30030179  0.89696509  0.49659083  1
  Zr  Zr27  1  0.50528815  0.10324055  0.48960838  1
  Zr  Zr28  1  0.10250785  0.89130025  0.49625323  1
  Zr  Zr29  1  0.69143642  0.89712506  0.10720004  1
  Zr  Zr30  1  0.70263060  0.50941302  0.69535237  1
  Zr  Zr31  1  0.09675026  0.69148234  0.89974744  1
  Zr  Zr32  1  0.09486867  0.70165685  0.49683412  1
  Zr  Zr33  1  0.89445509  0.89716221  0.09229161  1
  Zr  Zr34  1  0.09333756  0.69629613  0.70227206  1
  Zr  Zr35  1  0.69841663  0.49748076  0.90612546  1
  Zr  Zr36  1  0.90591916  0.89539520  0.51012242  1
  Zr  Zr37  1  0.70616191  0.30442058  0.09777771  1
  Zr  Zr38  1  0.69763158  0.70259753  0.51035534  1
  Zr  Zr39  1  0.29299400  0.10675982  0.49715156  1
  Zr  Zr40  1  0.90409708  0.69437445  0.29449943  1
  Zr  Zr41  1  0.49641728  0.08120149  0.10493713  1
  Zr  Zr42  1  0.29792381  0.31292351  0.89911258  1
  Zr  Zr43  1  0.50303710  0.88873390  0.50054928  1
  Zr  Zr44  1  0.10129793  0.49508187  0.90521578  1
  Zr  Zr45  1  0.09633697  0.89779726  0.90564679  1
  Zr  Zr46  1  0.30766874  0.70071475  0.10135108  1
  Zr  Zr47  1  0.50495626  0.89994934  0.70470421  1
  Zr  Zr48  1  0.30654935  0.70526542  0.49293841  1
  Zr  Zr49  1  0.71623288  0.29728249  0.29466055  1
  Sc  Sc50  1  0.10234662  0.09426458  0.30159425  1
  Sc  Sc51  1  0.30078718  0.49505010  0.69606566  1
  Sc  Sc52  1  0.90279720  0.29017504  0.90039891  1
  Sc  Sc53  1  0.50464902  0.49953219  0.49624040  1
  Sc  Sc54  1  0.89830082  0.70556815  0.89833200  1
  Sc  Sc55  1  0.30911204  0.49316406  0.50143859  1
  Sc  Sc56  1  0.69909779  0.30402177  0.71301717  1
  Sc  Sc57  1  0.70848204  0.09835423  0.09851418  1
  Sc  Sc58  1  0.09557893  0.30089873  0.69562089  1
  Sc  Sc59  1  0.70939997  0.89807903  0.90127928  1
  Sc  Sc60  1  0.70556421  0.70139312  0.30693110  1
  Sc  Sc61  1  0.51087524  0.09773978  0.71572749  1
  Sc  Sc62  1  0.50099370  0.90702476  0.90484383  1
  Sc  Sc63  1  0.49657460  0.50065633  0.68726585  1
  Sc  Sc64  1  0.50743043  0.31236968  0.89678339  1
  Sc  Sc65  1  0.51206507  0.89747757  0.28586839  1
  Sc  Sc66  1  0.90442513  0.30537905  0.48854012  1
  Sc  Sc67  1  0.89687687  0.50456284  0.30428283  1
  Sc  Sc68  1  0.09193037  0.89409036  0.69235589  1
  Sc  Sc69  1  0.09844225  0.09177784  0.90460010  1
  Sc  Sc70  1  0.89869118  0.70029346  0.70364780  1
  Sc  Sc71  1  0.09150911  0.49695585  0.69861785  1
  Sc  Sc72  1  0.50493087  0.30995886  0.10528946  1
  Sc  Sc73  1  0.89953415  0.49723956  0.89573257  1
  Sc  Sc74  1  0.09219685  0.09275674  0.09500886  1
  Sc  Sc75  1  0.29343748  0.51064244  0.90406524  1
  Sc  Sc76  1  0.69955025  0.10386737  0.71294844  1
  Sc  Sc77  1  0.90050294  0.49517784  0.69746605  1
  Sc  Sc78  1  0.09722858  0.70202050  0.10274314  1
  Sc  Sc79  1  0.50019773  0.30516583  0.30391388  1
  Sc  Sc80  1  0.70532483  0.69812196  0.09491113  1
  Sc  Sc81  1  0.90877773  0.10603445  0.50220780  1
  Sc  Sc82  1  0.29553125  0.31373160  0.11098182  1
  Sc  Sc83  1  0.70042771  0.10040868  0.89614093  1
  Sc  Sc84  1  0.29868058  0.90154385  0.70695006  1
  Sc  Sc85  1  0.29188491  0.09432050  0.70680629  1
  Sc  Sc86  1  0.50434282  0.50596494  0.90272751  1
  Sc  Sc87  1  0.90277194  0.10838746  0.70333657  1
  Sc  Sc88  1  0.09956299  0.31378408  0.31293842  1
  Sc  Sc89  1  0.30293256  0.30761921  0.30420570  1
  Sc  Sc90  1  0.69556176  0.50034779  0.30190575  1
  Sc  Sc91  1  0.29424999  0.30292212  0.50094553  1
  Sc  Sc92  1  0.89452322  0.10572906  0.30417275  1
  Sc  Sc93  1  0.70235728  0.09513893  0.30318341  1
  Sc  Sc94  1  0.30584511  0.69257680  0.69985973  1
  Sc  Sc95  1  0.49615766  0.31117115  0.49395114  1
  Sc  Sc96  1  0.70042372  0.31067767  0.48713767  1
  Sc  Sc97  1  0.89887832  0.49777850  0.50080956  1
  Sc  Sc98  1  0.10131108  0.30016871  0.50607444  1
  Sc  Sc99  1  0.49814514  0.69382550  0.69208775  1
  Nb  Nb100  1  0.09782618  0.50633041  0.29944087  1
  Nb  Nb101  1  0.50313503  0.88934601  0.10386930  1
  Nb  Nb102  1  0.89952104  0.89833650  0.70374200  1
  Nb  Nb103  1  0.89577544  0.50082822  0.10055405  1
  Nb  Nb104  1  0.49714103  0.49855870  0.30370735  1
  Nb  Nb105  1  0.69506042  0.29676505  0.90272452  1
  Nb  Nb106  1  0.09723472  0.30150537  0.91030549  1
  Nb  Nb107  1  0.70494258  0.89998767  0.29985281  1
  Nb  Nb108  1  0.50424320  0.71947790  0.10430104  1
  Nb  Nb109  1  0.09742466  0.49751171  0.49383644  1
  Nb  Nb110  1  0.71080071  0.49378844  0.09577669  1
  Nb  Nb111  1  0.49847819  0.10509468  0.90591278  1
  Nb  Nb112  1  0.49627338  0.69796840  0.50312795  1
  Nb  Nb113  1  0.49896398  0.10126638  0.29472775  1
  Nb  Nb114  1  0.09446066  0.30424252  0.09489872  1
  Nb  Nb115  1  0.90054347  0.10056200  0.89986565  1
  Nb  Nb116  1  0.29575526  0.50379157  0.28763347  1
  Nb  Nb117  1  0.09783848  0.09918161  0.50635669  1
  Nb  Nb118  1  0.90181621  0.30313830  0.29506314  1
  Nb  Nb119  1  0.89899917  0.89541585  0.89288700  1
  Nb  Nb120  1  0.09322377  0.89692668  0.29956128  1
  Nb  Nb121  1  0.30093119  0.69456992  0.30020672  1
  Nb  Nb122  1  0.29537036  0.50123403  0.10255309  1
  Nb  Nb123  1  0.69816916  0.69972702  0.69791809  1
  Nb  Nb124  1  0.89724941  0.68942839  0.10011773  1
  Nb  Nb125  1  0.60142081  0.19906317  0.59738316  1
  Nb  Nb126  1  0.20073235  0.20658828  0.00336917  1
  Nb  Nb127  1  0.79926560  0.00271129  0.60263088  1
  Nb  Nb128  1  0.19863991  0.20431111  0.80989923  1
  Nb  Nb129  1  0.00249127  0.20946424  0.19970425  1
  Nb  Nb130  1  0.40305396  0.00487402  0.59504852  1
  Nb  Nb131  1  -0.00269832  0.40091541  0.19928162  1
  Nb  Nb132  1  0.79357952  0.20098908  0.59822113  1
  Nb  Nb133  1  0.19582814  0.59894062  0.58803734  1
  Nb  Nb134  1  0.18969691  0.20723038  0.19584794  1
  Nb  Nb135  1  0.20192537  0.59726507  0.39420395  1
  Nb  Nb136  1  -0.00528356  0.59567629  0.00568447  1
  Nb  Nb137  1  0.40576422  0.19407987  0.60569370  1
  Nb  Nb138  1  0.19751800  0.00004151  0.59338041  1
  Nb  Nb139  1  0.59499994  0.19928400  0.00283404  1
  Nb  Nb140  1  0.60375172  0.00319396  0.59612734  1
  Nb  Nb141  1  0.39853911  0.40734718  0.00665135  1
  Nb  Nb142  1  0.40132244  0.20767299  -0.00017824  1
  Nb  Nb143  1  0.60287574  0.79197845  0.79867292  1
  Nb  Nb144  1  0.39588583  0.20135123  0.80598716  1
  Nb  Nb145  1  0.00604321  -0.00548045  0.40347809  1
  Nb  Nb146  1  -0.00863158  -0.00500767  0.80139149  1
  Nb  Nb147  1  0.59755167  0.19473033  0.19912361  1
  Nb  Nb148  1  0.19661678  0.79568471  0.80437129  1
  Nb  Nb149  1  0.40388646  0.00041789  0.39651761  1
  Pd  Pd150  1  0.20062874  0.59750173  0.78858670  1
  Pd  Pd151  1  0.79939812  0.39058091  0.59970656  1
  Pd  Pd152  1  0.61151589  0.60761812  0.19716000  1
  Pd  Pd153  1  0.39614962  0.80310522  0.61002479  1
  Pd  Pd154  1  0.80768813  0.59814974  0.79664467  1
  Pd  Pd155  1  0.20703029  0.79690718  0.61145607  1
  Pd  Pd156  1  0.79911673  -0.00112593  -0.00366994  1
  Pd  Pd157  1  0.60730428  0.79942152  -0.00933287  1
  Pd  Pd158  1  0.59552784  -0.00734394  0.39435310  1
  Pd  Pd159  1  0.39665214  0.59160521  0.40104831  1
  Pd  Pd160  1  0.40997497  0.80620044  0.38519442  1
  Pd  Pd161  1  0.79996539  0.00376609  0.20010392  1
  Pd  Pd162  1  0.60740333  0.39500253  0.59875686  1
  Pd  Pd163  1  0.19266412  0.20356811  0.39141105  1
  Pd  Pd164  1  0.40356366  0.21271226  0.19407591  1
  Pd  Pd165  1  0.40225390  0.59325183  0.79720101  1
  Pd  Pd166  1  0.40320784  0.40515257  0.20031793  1
  Pd  Pd167  1  0.39959383  0.20395995  0.40429962  1
  Pd  Pd168  1  0.79872533  0.79396284  0.19557703  1
  Pd  Pd169  1  0.19915862  0.79510464  0.19836501  1
  Pd  Pd170  1  0.59870001  0.60576626  0.40388823  1
  Pd  Pd171  1  0.81449766  -0.00384206  0.40628181  1
  Pd  Pd172  1  0.19478981  0.00626108  0.19730932  1
  Pd  Pd173  1  0.79982883  0.39547807  0.80575646  1
  Pd  Pd174  1  0.60302519  0.21005567  0.39321195  1
  Pd  Pd175  1  0.60188348  0.41325040  0.79556328  1
  Pd  Pd176  1  -0.00125096  0.59652340  0.59945831  1
  Pd  Pd177  1  0.59308609  0.60015307  0.79395163  1
  Pd  Pd178  1  0.00741102  0.19641699  0.39442625  1
  Pd  Pd179  1  0.20579188  0.40887454  0.40081642  1
  Pd  Pd180  1  0.79040755  0.59534232  0.20329240  1
  Pd  Pd181  1  0.80747305  0.80042640  0.39696056  1
  Pd  Pd182  1  0.19770213  0.79923391  0.00258493  1
  Pd  Pd183  1  0.19629271  0.60909949  0.19952428  1
  Pd  Pd184  1  0.19020740  0.39930269  0.79392515  1
  Pd  Pd185  1  -0.00719204  0.79156787  0.00459024  1
  Pd  Pd186  1  0.40240818  0.40957867  0.80637330  1
  Pd  Pd187  1  0.40413360  0.59775539  0.19185392  1
  Pd  Pd188  1  0.40003348  0.80797530  -0.00505281  1
  Pd  Pd189  1  0.59546040  0.79206042  0.39096475  1
  Pd  Pd190  1  0.80725261  0.39560398  -0.01170537  1
  Pd  Pd191  1  0.00174959  0.39621893  0.80226087  1
  Pd  Pd192  1  0.40720660  0.59445728  0.01275383  1
  Pd  Pd193  1  0.60157256  0.60472643  0.00955170  1
  Pd  Pd194  1  0.40265396  0.00619041  0.79849379  1
  Pd  Pd195  1  0.40033637  0.79723151  0.80211103  1
  Pd  Pd196  1  0.60790448  0.39484817  0.20797212  1
  Pd  Pd197  1  0.60487132  0.00261555  -0.00259782  1
  Pd  Pd198  1  0.19784155  0.00118315  0.40186034  1
  Pd  Pd199  1  0.80482498  0.00426223  0.79576720  1
  Rh  Rh200  1  0.80450109  0.41061003  0.20404715  1
  Rh  Rh201  1  -0.00716560  0.78961993  0.60374079  1
  Rh  Rh202  1  0.40170276  0.39218416  0.59668118  1
  Rh  Rh203  1  0.79422646  0.79381477  0.79790000  1
  Rh  Rh204  1  0.39708870  0.80122664  0.20572142  1
  Rh  Rh205  1  0.19154074  0.39729158  0.20673521  1
  Rh  Rh206  1  0.60837990  0.00496807  0.20330823  1
  Rh  Rh207  1  0.59804378  0.39835573  0.00180155  1
  Rh  Rh208  1  0.80446263  0.60222579  0.60289731  1
  Rh  Rh209  1  0.79178443  0.19923104  -0.00898942  1
  Rh  Rh210  1  0.59438185  0.20414720  0.80797366  1
  Rh  Rh211  1  0.60150144  0.40362496  0.39224053  1
  Rh  Rh212  1  0.80614195  0.59616354  -0.00317928  1
  Rh  Rh213  1  -0.00741128  0.79711683  0.19253814  1
  Rh  Rh214  1  0.20478220  0.19293766  0.60962765  1
  Rh  Rh215  1  -0.00544174  0.59492313  0.80870050  1
  Rh  Rh216  1  0.59532940  0.79832958  0.60759972  1
  Rh  Rh217  1  0.19358421  0.41131384  0.59810323  1
  Rh  Rh218  1  -0.00868314  0.20973400  0.59258235  1
  Rh  Rh219  1  0.39608747  0.40682772  0.39385096  1
  Rh  Rh220  1  -0.00422981  0.01190650  0.21053573  1
  Rh  Rh221  1  0.39496539  0.59927861  0.59113913  1
  Rh  Rh222  1  0.80088659  0.79721845  0.00092590  1
  Rh  Rh223  1  -0.01124746  -0.00474948  -0.00958707  1
  Rh  Rh224  1  0.61108125  0.79137468  0.20622088  1
  Rh  Rh225  1  0.80258855  0.19339686  0.19877100  1
  Rh  Rh226  1  0.17893885  -0.00787736  0.78701014  1
  Rh  Rh227  1  0.80480405  0.20504734  0.40435114  1
  Rh  Rh228  1  0.00534095  0.19592485  0.00095979  1
  Rh  Rh229  1  0.80625476  0.79809463  0.60441281  1
  Rh  Rh230  1  0.60486573  -0.01081193  0.80563070  1
  Rh  Rh231  1  0.20782695  0.39984483  0.00351130  1
  Rh  Rh232  1  0.00406593  0.80499649  0.79923521  1
  Rh  Rh233  1  0.80021894  0.20436154  0.80025465  1
  Rh  Rh234  1  0.00912757  0.19312766  0.81244354  1
  Rh  Rh235  1  -0.00935793  0.80552795  0.39600151  1
  Rh  Rh236  1  0.40128647  -0.01407002  0.20991940  1
  Rh  Rh237  1  -0.00925523  0.40735301  0.00273489  1
  Rh  Rh238  1  0.80269382  0.40553317  0.39500729  1
  Rh  Rh239  1  0.59634042  0.60037441  0.59383794  1
  Rh  Rh240  1  0.00114563  0.59515788  0.40074798  1
  Rh  Rh241  1  0.79827345  0.59962160  0.40202249  1
  Rh  Rh242  1  0.19857160  0.78896341  0.38964664  1
  Rh  Rh243  1  -0.00087827  0.00094350  0.60133387  1
  Rh  Rh244  1  0.19930425  0.00023152  0.01374085  1
  Rh  Rh245  1  0.40307675  -0.00656233  0.00162501  1
  Rh  Rh246  1  -0.00363484  0.40852285  0.39587957  1
  Rh  Rh247  1  0.19290540  0.60341443  0.00979991  1
  Rh  Rh248  1  -0.00078286  0.59236021  0.19318717  1
  Rh  Rh249  1  -0.00068187  0.39860181  0.59377291  1
