# generated using pymatgen
data_ZrScNbPdRh
_symmetry_space_group_name_H-M   'P 1'
_cell_length_a   16.56257228
_cell_length_b   16.56200994
_cell_length_c   16.56041745
_cell_angle_alpha   90.01267526
_cell_angle_beta   90.00634509
_cell_angle_gamma   90.01342086
_symmetry_Int_Tables_number   1
_chemical_formula_structural   ZrScNbPdRh
_chemical_formula_sum   'Zr50 Sc50 Nb50 Pd50 Rh50'
_cell_volume   4542.67934938
_cell_formula_units_Z   50
loop_
 _symmetry_equiv_pos_site_id
 _symmetry_equiv_pos_as_xyz
  1  'x, y, z'
loop_
 _atom_site_type_symbol
 _atom_site_label
 _atom_site_symmetry_multiplicity
 _atom_site_fract_x
 _atom_site_fract_y
 _atom_site_fract_z
 _atom_site_occupancy
  Zr  Zr0  1  0.69549791  0.50795851  0.30695436  1
  Zr  Zr1  1  0.49323147  0.10653638  0.89900328  1
  Zr  Zr2  1  0.09677235  0.89404625  0.29811026  1
  Zr  Zr3  1  0.70854197  0.89746432  0.50943186  1
  Zr  Zr4  1  0.50928421  0.90378194  0.90248582  1
  Zr  Zr5  1  0.90039304  0.29908519  0.49932602  1
  Zr  Zr6  1  0.10065272  0.10083913  0.09649203  1
  Zr  Zr7  1  0.10535839  0.49256200  0.30047577  1
  Zr  Zr8  1  0.69373705  0.49762801  0.69884164  1
  Zr  Zr9  1  0.30991370  0.69648040  0.69785689  1
  Zr  Zr10  1  0.50569470  0.10882456  0.49741441  1
  Zr  Zr11  1  0.09711338  0.09862820  0.90624470  1
  Zr  Zr12  1  0.09301022  0.69845468  0.50041209  1
  Zr  Zr13  1  0.09546624  0.49704039  0.69228612  1
  Zr  Zr14  1  0.89071016  0.10207622  0.70991477  1
  Zr  Zr15  1  0.30514942  0.89972848  0.09930661  1
  Zr  Zr16  1  0.89637664  0.90082874  0.90353990  1
  Zr  Zr17  1  0.70474176  0.48699856  0.10755290  1
  Zr  Zr18  1  0.89621276  0.09865298  0.09927930  1
  Zr  Zr19  1  0.51020301  0.69536432  0.29460928  1
  Zr  Zr20  1  0.70071275  0.89590910  0.29347615  1
  Zr  Zr21  1  0.30736010  0.90000254  0.29343409  1
  Zr  Zr22  1  0.29675572  0.10047926  0.90094445  1
  Zr  Zr23  1  0.70303664  0.29758265  0.50042200  1
  Zr  Zr24  1  0.09834004  0.49886259  0.90629924  1
  Zr  Zr25  1  0.89741942  0.30395549  0.69627665  1
  Zr  Zr26  1  0.89048627  0.30038543  0.09959413  1
  Zr  Zr27  1  0.28934656  0.30193304  0.69522375  1
  Zr  Zr28  1  0.09438949  0.69655815  0.30194321  1
  Zr  Zr29  1  0.09005505  0.70359154  0.89514870  1
  Zr  Zr30  1  0.50497136  0.89363626  0.50590792  1
  Zr  Zr31  1  0.49786320  0.30176630  0.70457914  1
  Zr  Zr32  1  0.30494901  0.89858863  0.50360078  1
  Zr  Zr33  1  0.69380477  0.90447964  0.70341900  1
  Zr  Zr34  1  0.10377325  0.29357051  0.29877133  1
  Zr  Zr35  1  0.50218188  0.49129483  0.90221230  1
  Zr  Zr36  1  0.29765067  0.31315721  0.30688325  1
  Zr  Zr37  1  0.09963720  0.10120369  0.49397997  1
  Zr  Zr38  1  0.09007899  0.69842344  0.69734989  1
  Zr  Zr39  1  0.30594449  0.09652987  0.09077144  1
  Zr  Zr40  1  0.29720435  0.90707172  0.90321909  1
  Zr  Zr41  1  0.31026816  0.29670746  0.90005963  1
  Zr  Zr42  1  0.29799940  0.10325077  0.70831774  1
  Zr  Zr43  1  0.50163642  0.69570109  0.69654302  1
  Zr  Zr44  1  0.50636731  0.49940223  0.69381097  1
  Zr  Zr45  1  0.09598446  0.49220389  0.10364094  1
  Zr  Zr46  1  0.69583586  0.89853364  0.89491562  1
  Zr  Zr47  1  0.50087478  0.89938450  0.28829823  1
  Zr  Zr48  1  0.89499291  0.69660645  0.89865808  1
  Zr  Zr49  1  0.30788973  0.48863711  0.48883171  1
  Sc  Sc50  1  0.30815596  0.70247744  0.09762198  1
  Sc  Sc51  1  0.89930155  0.89857148  0.30092700  1
  Sc  Sc52  1  0.50041380  0.09689219  0.09622046  1
  Sc  Sc53  1  0.09437135  0.89483077  0.90956976  1
  Sc  Sc54  1  0.89476065  0.70320773  0.29614767  1
  Sc  Sc55  1  0.69821830  0.70032297  0.48473542  1
  Sc  Sc56  1  0.70017892  0.29710541  0.28446442  1
  Sc  Sc57  1  0.30920241  0.49095395  0.69708531  1
  Sc  Sc58  1  0.50087264  0.29820010  0.29791489  1
  Sc  Sc59  1  0.69527958  0.90234283  0.10137394  1
  Sc  Sc60  1  0.69760993  0.09740376  0.69751637  1
  Sc  Sc61  1  0.89824598  0.10688031  0.49094919  1
  Sc  Sc62  1  0.30210436  0.50333750  0.08935870  1
  Sc  Sc63  1  0.69814850  0.69847201  0.70625023  1
  Sc  Sc64  1  0.69796822  0.29921289  0.69933783  1
  Sc  Sc65  1  0.30692751  0.11252298  0.29285662  1
  Sc  Sc66  1  0.90066865  0.10136918  0.30226442  1
  Sc  Sc67  1  0.30120496  0.49707734  0.90294875  1
  Sc  Sc68  1  0.89600211  0.71150525  0.50250642  1
  Sc  Sc69  1  0.08920273  0.90081258  0.49972847  1
  Sc  Sc70  1  0.50259865  0.10361648  0.28949428  1
  Sc  Sc71  1  0.09645646  0.71228855  0.10213146  1
  Sc  Sc72  1  0.29429322  0.90828113  0.70594062  1
  Sc  Sc73  1  0.10008983  0.89783770  0.70538984  1
  Sc  Sc74  1  0.90100235  0.51159783  0.28955877  1
  Sc  Sc75  1  0.51057159  0.30569968  0.09331526  1
  Sc  Sc76  1  0.50612615  0.70443681  0.90256862  1
  Sc  Sc77  1  0.69573574  0.09955110  0.90052989  1
  Sc  Sc78  1  0.49680019  0.69900202  0.50214470  1
  Sc  Sc79  1  0.89477966  0.10261094  0.90889067  1
  Sc  Sc80  1  0.70280774  0.70383136  0.90317000  1
  Sc  Sc81  1  0.88135682  0.89814327  0.69000278  1
  Sc  Sc82  1  0.50193080  0.30726808  0.49522787  1
  Sc  Sc83  1  0.11196473  0.30176744  0.50334733  1
  Sc  Sc84  1  0.90043825  0.29094155  0.90764918  1
  Sc  Sc85  1  0.10069356  0.29687643  0.90481089  1
  Sc  Sc86  1  0.70076534  0.50376665  0.89979880  1
  Sc  Sc87  1  0.11286770  0.10300041  0.70767303  1
  Sc  Sc88  1  0.31117907  0.69404869  0.30550532  1
  Sc  Sc89  1  0.89590546  0.28540521  0.30037565  1
  Sc  Sc90  1  0.09776103  0.50061296  0.49889879  1
  Sc  Sc91  1  0.50634486  0.29849563  0.90341816  1
  Sc  Sc92  1  0.09324460  0.30381822  0.10237010  1
  Sc  Sc93  1  0.90201751  0.49562668  0.51051852  1
  Sc  Sc94  1  0.30080117  0.30093944  0.10151119  1
  Sc  Sc95  1  0.90142555  0.89830617  0.09678061  1
  Sc  Sc96  1  0.70022473  0.09975462  0.10587436  1
  Sc  Sc97  1  0.90043785  0.50534305  0.69746053  1
  Sc  Sc98  1  0.29656599  0.70017421  0.90357338  1
  Sc  Sc99  1  0.90027994  0.69726138  0.69880922  1
  Nb  Nb100  1  0.30079260  0.49911157  0.29833797  1
  Nb  Nb101  1  0.70252150  0.09285150  0.29718070  1
  Nb  Nb102  1  0.69525514  0.30458416  0.91127369  1
  Nb  Nb103  1  0.49783604  0.89218814  0.10147884  1
  Nb  Nb104  1  0.30146604  0.70152565  0.50309236  1
  Nb  Nb105  1  0.09942200  0.90084219  0.10422967  1
  Nb  Nb106  1  0.49784188  0.10080557  0.70198149  1
  Nb  Nb107  1  0.49893544  0.49954322  0.30142375  1
  Nb  Nb108  1  0.70146970  0.29951017  0.09204205  1
  Nb  Nb109  1  0.70610985  0.69996584  0.29506620  1
  Nb  Nb110  1  0.90076764  0.50321484  0.89577580  1
  Nb  Nb111  1  0.89630211  0.90613214  0.50157152  1
  Nb  Nb112  1  0.10107399  0.30204480  0.69932419  1
  Nb  Nb113  1  0.69397755  0.49704213  0.50211123  1
  Nb  Nb114  1  0.50403807  0.89754995  0.70123880  1
  Nb  Nb115  1  0.70157234  0.69923443  0.10761906  1
  Nb  Nb116  1  0.50657234  0.70343393  0.10031352  1
  Nb  Nb117  1  0.51523475  0.49669412  0.49532475  1
  Nb  Nb118  1  0.89439601  0.69217115  0.10012867  1
  Nb  Nb119  1  0.90171831  0.49895081  0.09427933  1
  Nb  Nb120  1  0.30412505  0.29914806  0.50371848  1
  Nb  Nb121  1  0.69992354  0.10014881  0.49360262  1
  Nb  Nb122  1  0.29906233  0.09954719  0.50651046  1
  Nb  Nb123  1  0.09779208  0.09579456  0.30286882  1
  Nb  Nb124  1  0.50086279  0.50385347  0.10267940  1
  Nb  Nb125  1  0.60071582  0.60026762  0.01286873  1
  Nb  Nb126  1  0.40595109  0.00618117  0.60229811  1
  Nb  Nb127  1  0.80360346  0.40016746  0.80435101  1
  Nb  Nb128  1  0.79288144  -0.00006163  0.40077252  1
  Nb  Nb129  1  -0.00835225  0.59801254  0.00350961  1
  Nb  Nb130  1  0.20094041  0.59628446  0.20290924  1
  Nb  Nb131  1  0.78983336  0.59625194  0.59546158  1
  Nb  Nb132  1  -0.00351857  0.39633522  0.39651817  1
  Nb  Nb133  1  0.60273083  0.00063828  0.39991116  1
  Nb  Nb134  1  0.80004359  0.40301302  0.40113087  1
  Nb  Nb135  1  0.39644237  0.19766757  0.59929366  1
  Nb  Nb136  1  -0.00744049  0.00191216  0.79829864  1
  Nb  Nb137  1  0.20738112  0.60256796  0.59720412  1
  Nb  Nb138  1  0.40281375  0.00406279  0.40518463  1
  Nb  Nb139  1  0.19635061  0.00096865  0.20161342  1
  Nb  Nb140  1  0.20582780  -0.00070328  0.39530064  1
  Nb  Nb141  1  0.19675343  0.59883645  0.79288949  1
  Nb  Nb142  1  0.20360548  0.79945990  0.40411454  1
  Nb  Nb143  1  0.20198226  0.79353330  0.59631449  1
  Nb  Nb144  1  0.40453324  0.41249241  0.20252086  1
  Nb  Nb145  1  0.00446584  0.19874301  0.60583828  1
  Nb  Nb146  1  -0.00637096  0.00749746  0.60486750  1
  Nb  Nb147  1  0.40494525  0.80499396  0.79811061  1
  Nb  Nb148  1  -0.00319679  0.39835558  0.80086070  1
  Nb  Nb149  1  0.00735661  -0.00032850  0.20010967  1
  Pd  Pd150  1  0.40136736  0.39895712  0.80091390  1
  Pd  Pd151  1  0.20857388  0.79278775  0.20598218  1
  Pd  Pd152  1  0.40874018  0.59742240  0.40508731  1
  Pd  Pd153  1  0.40937518  0.60314965  -0.00660766  1
  Pd  Pd154  1  0.20812821  0.79349787  0.79426482  1
  Pd  Pd155  1  0.19863235  0.79814040  0.00182633  1
  Pd  Pd156  1  0.79583795  0.80235279  0.00637462  1
  Pd  Pd157  1  0.19397917  0.40446088  0.80337247  1
  Pd  Pd158  1  0.80504635  0.80247237  0.19317341  1
  Pd  Pd159  1  -0.01438322  0.81270571  0.79196201  1
  Pd  Pd160  1  -0.00478646  0.80109352  0.40038002  1
  Pd  Pd161  1  0.20061013  0.20803636  0.00274298  1
  Pd  Pd162  1  0.59615808  0.20524442  0.60326485  1
  Pd  Pd163  1  0.20187193  0.19660524  0.19669381  1
  Pd  Pd164  1  0.60538003  0.20035228  0.80212771  1
  Pd  Pd165  1  0.60048705  0.60207839  0.81186617  1
  Pd  Pd166  1  0.79519967  0.59575188  0.00534169  1
  Pd  Pd167  1  0.20268699  0.60422047  0.40020104  1
  Pd  Pd168  1  0.60661541  0.59592922  0.19699371  1
  Pd  Pd169  1  0.40331496  0.80076945  0.39479309  1
  Pd  Pd170  1  0.20299894  0.39322536  0.00305264  1
  Pd  Pd171  1  0.80240728  0.19358138  0.59811898  1
  Pd  Pd172  1  0.80741709  0.59556983  0.40719587  1
  Pd  Pd173  1  -0.01268495  0.39263202  0.20948472  1
  Pd  Pd174  1  0.39659285  0.19978015  0.40309841  1
  Pd  Pd175  1  0.59702008  0.00391433  0.59809613  1
  Pd  Pd176  1  0.20699616  0.19583029  0.39938232  1
  Pd  Pd177  1  0.60661116  0.20082957  0.38906623  1
  Pd  Pd178  1  0.60047550  0.00349449  0.00483676  1
  Pd  Pd179  1  0.40377595  0.80075317  -0.00793330  1
  Pd  Pd180  1  0.40172253  0.58595269  0.58876271  1
  Pd  Pd181  1  0.80718926  0.40151678  0.21268323  1
  Pd  Pd182  1  0.00520119  0.20011924  0.79747306  1
  Pd  Pd183  1  0.00563385  0.60500336  0.19185992  1
  Pd  Pd184  1  0.80413043  0.40233165  -0.00917034  1
  Pd  Pd185  1  0.80111816  0.79788002  0.79491087  1
  Pd  Pd186  1  0.18827412  0.60897631  0.00391228  1
  Pd  Pd187  1  0.60063620  0.80250054  0.39544390  1
  Pd  Pd188  1  0.78891326  0.20906462  0.80915147  1
  Pd  Pd189  1  -0.01337507  0.59302681  0.40501025  1
  Pd  Pd190  1  0.19381713  -0.00703361  0.59599072  1
  Pd  Pd191  1  0.39734857  0.60202142  0.81096809  1
  Pd  Pd192  1  0.40592575  0.21267156  0.19028487  1
  Pd  Pd193  1  0.40559411  -0.00523127  0.79790269  1
  Pd  Pd194  1  0.79052494  0.00045844  0.00068989  1
  Pd  Pd195  1  0.60944928  0.78892805  0.60163262  1
  Pd  Pd196  1  0.60783879  0.39107641  0.38991612  1
  Pd  Pd197  1  0.39455225  0.60010043  0.19593224  1
  Pd  Pd198  1  -0.00254364  0.19519443  0.19665043  1
  Pd  Pd199  1  0.59993774  0.20000241  0.19156633  1
  Rh  Rh200  1  0.00893520  0.20949396  0.40644114  1
  Rh  Rh201  1  0.60466256  0.60602040  0.58928296  1
  Rh  Rh202  1  0.81103559  0.00086704  0.20605695  1
  Rh  Rh203  1  0.40267940  0.78838647  0.19935378  1
  Rh  Rh204  1  0.40241450  0.39837859  0.00739696  1
  Rh  Rh205  1  0.80044414  0.80623206  0.39747747  1
  Rh  Rh206  1  0.59671274  0.60425867  0.40066331  1
  Rh  Rh207  1  0.59716566  0.39210240  0.59985122  1
  Rh  Rh208  1  0.79955426  -0.00130945  0.80828232  1
  Rh  Rh209  1  0.60644925  0.79468625  0.00789081  1
  Rh  Rh210  1  0.39911089  0.00515804  0.19832120  1
  Rh  Rh211  1  0.79263491  0.78694358  0.60168714  1
  Rh  Rh212  1  0.79549842  0.59383687  0.78958335  1
  Rh  Rh213  1  -0.00265421  0.20436647  0.00820221  1
  Rh  Rh214  1  0.20167454  0.40906189  0.59363433  1
  Rh  Rh215  1  0.00044985  -0.00198451  0.00040757  1
  Rh  Rh216  1  0.39349417  0.81180538  0.61379086  1
  Rh  Rh217  1  -0.00662317  -0.00016523  0.40047186  1
  Rh  Rh218  1  0.19414738  0.39886990  0.40579961  1
  Rh  Rh219  1  0.00556404  0.39008159  0.59905467  1
  Rh  Rh220  1  0.79152240  0.19663516  0.00137373  1
  Rh  Rh221  1  -0.00789535  0.40096567  -0.00582282  1
  Rh  Rh222  1  0.79596264  0.59777611  0.19696288  1
  Rh  Rh223  1  0.60178871  0.40823874  0.00190772  1
  Rh  Rh224  1  -0.00050864  0.81223533  0.60382846  1
  Rh  Rh225  1  0.59476523  0.79612189  0.79812486  1
  Rh  Rh226  1  0.60337472  0.79871797  0.19537855  1
  Rh  Rh227  1  0.20027689  0.20025891  0.59995524  1
  Rh  Rh228  1  0.59506112  -0.00047249  0.19878709  1
  Rh  Rh229  1  0.60354533  0.19745053  0.00139485  1
  Rh  Rh230  1  0.78896682  0.19980833  0.39330116  1
  Rh  Rh231  1  0.39817529  0.20543429  0.79515528  1
  Rh  Rh232  1  0.00604224  0.59138717  0.80615339  1
  Rh  Rh233  1  0.59787129  0.00780379  0.79798048  1
  Rh  Rh234  1  -0.01104332  0.80153860  0.19506617  1
  Rh  Rh235  1  0.19968750  0.20698219  0.80916939  1
  Rh  Rh236  1  0.18486031  -0.00369406  0.81321115  1
  Rh  Rh237  1  0.79174109  0.40764946  0.60107432  1
  Rh  Rh238  1  0.40848423  0.39623533  0.59488024  1
  Rh  Rh239  1  0.59422808  0.40195012  0.20135281  1
  Rh  Rh240  1  -0.00893732  0.79068575  0.00703983  1
  Rh  Rh241  1  0.40553976  0.20458731  0.00308288  1
  Rh  Rh242  1  0.21257766  0.40819482  0.19060668  1
  Rh  Rh243  1  0.80484461  0.01295584  0.58955255  1
  Rh  Rh244  1  0.40832671  -0.00420894  0.00010107  1
  Rh  Rh245  1  0.60788409  0.39444467  0.80395713  1
  Rh  Rh246  1  0.19558991  -0.00694009  0.00487186  1
  Rh  Rh247  1  -0.00965102  0.60510273  0.59206625  1
  Rh  Rh248  1  0.40944309  0.39986090  0.39454627  1
  Rh  Rh249  1  0.79626785  0.19577596  0.19655253  1
