# generated using pymatgen
data_ZrScNbPdRh
_symmetry_space_group_name_H-M   'P 1'
_cell_length_a   16.56144493
_cell_length_b   16.56003682
_cell_length_c   16.55909319
_cell_angle_alpha   90.00646332
_cell_angle_beta   90.00618771
_cell_angle_gamma   89.97309653
_symmetry_Int_Tables_number   1
_chemical_formula_structural   ZrScNbPdRh
_chemical_formula_sum   'Zr50 Sc50 Nb50 Pd50 Rh50'
_cell_volume   4541.46550477
_cell_formula_units_Z   50
loop_
 _symmetry_equiv_pos_site_id
 _symmetry_equiv_pos_as_xyz
  1  'x, y, z'
loop_
 _atom_site_type_symbol
 _atom_site_label
 _atom_site_symmetry_multiplicity
 _atom_site_fract_x
 _atom_site_fract_y
 _atom_site_fract_z
 _atom_site_occupancy
  Zr  Zr0  1  0.30072023  0.09925582  0.69375261  1
  Zr  Zr1  1  0.70547989  0.89801316  0.90270014  1
  Zr  Zr2  1  0.70948932  0.30337897  0.30270000  1
  Zr  Zr3  1  0.89490076  0.30074448  0.48881702  1
  Zr  Zr4  1  0.89885726  0.09672020  0.28875027  1
  Zr  Zr5  1  0.10753606  0.70703115  0.30092896  1
  Zr  Zr6  1  0.92144050  0.49827784  0.50490519  1
  Zr  Zr7  1  0.30028943  0.70952311  0.49769255  1
  Zr  Zr8  1  0.89863442  0.09463257  0.69789984  1
  Zr  Zr9  1  0.69912719  0.69636909  0.69811327  1
  Zr  Zr10  1  0.50607084  0.49902374  0.69689848  1
  Zr  Zr11  1  0.69748927  0.28946874  0.49202167  1
  Zr  Zr12  1  0.09593485  0.50762831  0.68571474  1
  Zr  Zr13  1  0.69970606  0.89992564  0.68709156  1
  Zr  Zr14  1  0.50140742  0.09479120  0.29598368  1
  Zr  Zr15  1  0.69221580  0.49868801  0.49573985  1
  Zr  Zr16  1  0.29622352  0.49995958  0.10970225  1
  Zr  Zr17  1  0.10574234  0.09692777  0.11145303  1
  Zr  Zr18  1  0.49816683  0.50226366  0.10762147  1
  Zr  Zr19  1  0.29234118  0.09434210  0.90485106  1
  Zr  Zr20  1  0.50136793  0.28936288  0.90773558  1
  Zr  Zr21  1  0.10643188  0.70088742  0.69749739  1
  Zr  Zr22  1  0.29532365  0.89625029  0.89554811  1
  Zr  Zr23  1  0.90220916  0.90171035  0.89225509  1
  Zr  Zr24  1  0.10360419  0.10099289  0.49682457  1
  Zr  Zr25  1  0.69405954  0.10105775  0.31022378  1
  Zr  Zr26  1  0.90598951  0.69750229  0.09776670  1
  Zr  Zr27  1  0.29986065  0.90800034  0.09349373  1
  Zr  Zr28  1  0.70247483  0.69754712  0.31062795  1
  Zr  Zr29  1  0.49766852  0.90094909  0.29313855  1
  Zr  Zr30  1  0.31076875  0.29772414  0.49604834  1
  Zr  Zr31  1  0.30005995  0.29232770  0.69636498  1
  Zr  Zr32  1  0.89621865  0.70031750  0.90033681  1
  Zr  Zr33  1  0.89903124  0.49780579  0.90464109  1
  Zr  Zr34  1  0.11151006  0.90094967  0.50427479  1
  Zr  Zr35  1  0.69956123  0.10303361  0.09890872  1
  Zr  Zr36  1  0.89575273  0.09730547  0.90080970  1
  Zr  Zr37  1  0.89701656  0.10431642  0.50607577  1
  Zr  Zr38  1  0.29800251  0.10188867  0.50284300  1
  Zr  Zr39  1  0.90011478  0.70459903  0.30492578  1
  Zr  Zr40  1  0.69028971  0.89641297  0.10054474  1
  Zr  Zr41  1  0.29290958  0.50005666  0.90379072  1
  Zr  Zr42  1  0.49752830  0.29667752  0.10891980  1
  Zr  Zr43  1  0.49878737  0.70562848  0.10420210  1
  Zr  Zr44  1  0.10044915  0.68848412  0.50354578  1
  Zr  Zr45  1  0.90880333  0.48980935  0.10055327  1
  Zr  Zr46  1  0.49327727  0.10404402  0.09717092  1
  Zr  Zr47  1  0.69469840  0.90720487  0.30060264  1
  Zr  Zr48  1  0.28709559  0.10401322  0.30032525  1
  Zr  Zr49  1  0.69840715  0.10833988  0.89180616  1
  Sc  Sc50  1  0.50420311  0.10561789  0.50217707  1
  Sc  Sc51  1  0.10496274  0.90727269  0.89712962  1
  Sc  Sc52  1  0.10542174  0.50084696  0.09357697  1
  Sc  Sc53  1  0.29606311  0.50737537  0.70426839  1
  Sc  Sc54  1  0.30191459  0.49906147  0.30066543  1
  Sc  Sc55  1  0.89183321  0.70249816  0.49883073  1
  Sc  Sc56  1  0.10352647  0.89934582  0.10505710  1
  Sc  Sc57  1  0.30507604  0.70009066  0.30415730  1
  Sc  Sc58  1  0.49483131  0.90133953  0.10443251  1
  Sc  Sc59  1  0.09781436  0.30129831  0.49626022  1
  Sc  Sc60  1  0.89881320  0.10085441  0.10173520  1
  Sc  Sc61  1  0.10202687  0.09691142  0.68983104  1
  Sc  Sc62  1  0.50244313  0.50708615  0.89720343  1
  Sc  Sc63  1  0.29447455  0.89301442  0.30167549  1
  Sc  Sc64  1  0.49429640  0.70346379  0.49690016  1
  Sc  Sc65  1  0.89973408  0.50036824  0.70158597  1
  Sc  Sc66  1  0.29124041  0.29546001  0.89901925  1
  Sc  Sc67  1  0.89634803  0.70217665  0.70628651  1
  Sc  Sc68  1  0.69452002  0.49860531  0.71195348  1
  Sc  Sc69  1  0.70264839  0.29745557  0.10610038  1
  Sc  Sc70  1  0.29704348  0.69961351  0.09413504  1
  Sc  Sc71  1  0.10984451  0.29318382  0.70054928  1
  Sc  Sc72  1  0.69605655  0.49655835  0.30084923  1
  Sc  Sc73  1  0.70101279  0.71074671  0.50385194  1
  Sc  Sc74  1  0.70408374  0.29665832  0.90042129  1
  Sc  Sc75  1  0.69286046  0.70524578  0.09348132  1
  Sc  Sc76  1  0.49869111  0.50470798  0.30224946  1
  Sc  Sc77  1  0.49355331  0.70176088  0.90481063  1
  Sc  Sc78  1  0.30210734  0.30400185  0.29940385  1
  Sc  Sc79  1  0.11376177  0.30190631  0.90338802  1
  Sc  Sc80  1  0.10829456  0.29407625  0.29222663  1
  Sc  Sc81  1  0.88882625  0.29916716  0.90561842  1
  Sc  Sc82  1  0.10483591  0.30667965  0.10436129  1
  Sc  Sc83  1  0.49863330  0.89853351  0.50767931  1
  Sc  Sc84  1  0.89643355  0.29173233  0.69581991  1
  Sc  Sc85  1  0.69402147  0.49364956  0.11096221  1
  Sc  Sc86  1  0.30020073  0.70477802  0.90061933  1
  Sc  Sc87  1  0.10924476  0.70267793  0.90544043  1
  Sc  Sc88  1  0.48926731  0.90326850  0.89326062  1
  Sc  Sc89  1  0.10703336  0.69688743  0.09889191  1
  Sc  Sc90  1  0.69590490  0.90645176  0.50035824  1
  Sc  Sc91  1  0.70119475  0.29537360  0.70249957  1
  Sc  Sc92  1  0.88615006  0.90297755  0.50651522  1
  Sc  Sc93  1  0.49327831  0.90623395  0.69350508  1
  Sc  Sc94  1  0.89875366  0.48527983  0.30783533  1
  Sc  Sc95  1  0.89797812  0.90620606  0.09824773  1
  Sc  Sc96  1  0.50071052  0.30010053  0.68816644  1
  Sc  Sc97  1  0.29714830  0.70325751  0.70069147  1
  Sc  Sc98  1  0.50044525  0.70047873  0.69444349  1
  Sc  Sc99  1  0.70282903  0.69965637  0.90072426  1
  Nb  Nb100  1  0.70391269  0.49554120  0.90324727  1
  Nb  Nb101  1  0.29504873  0.89906449  0.69034737  1
  Nb  Nb102  1  0.30067774  0.30568270  0.10482889  1
  Nb  Nb103  1  0.50230805  0.10194766  0.89782622  1
  Nb  Nb104  1  0.30008392  0.09855446  0.10506750  1
  Nb  Nb105  1  0.10522784  0.50617806  0.30385371  1
  Nb  Nb106  1  0.90222843  0.29518132  0.11351386  1
  Nb  Nb107  1  0.69947771  0.09781720  0.50199303  1
  Nb  Nb108  1  0.30758420  0.90052548  0.50624670  1
  Nb  Nb109  1  0.89883780  0.29354338  0.29175977  1
  Nb  Nb110  1  0.50391385  0.09736873  0.70465586  1
  Nb  Nb111  1  0.09584232  0.90306928  0.29906691  1
  Nb  Nb112  1  0.09890181  0.09706508  0.29992882  1
  Nb  Nb113  1  0.69475001  0.10086371  0.69000009  1
  Nb  Nb114  1  0.09701390  0.49798151  0.90173912  1
  Nb  Nb115  1  0.90777474  0.90244791  0.69861123  1
  Nb  Nb116  1  0.50263415  0.29841342  0.30388826  1
  Nb  Nb117  1  0.10618557  0.50058638  0.49626093  1
  Nb  Nb118  1  0.49468762  0.30696868  0.49509523  1
  Nb  Nb119  1  0.09957968  0.10596307  0.90541841  1
  Nb  Nb120  1  0.49195279  0.49027024  0.50124925  1
  Nb  Nb121  1  0.09869886  0.89810534  0.69794955  1
  Nb  Nb122  1  0.49866674  0.70657063  0.30194122  1
  Nb  Nb123  1  0.30636221  0.49777214  0.49117576  1
  Nb  Nb124  1  0.90134667  0.89838644  0.29948890  1
  Nb  Nb125  1  0.00171924  0.59694427  0.20711871  1
  Nb  Nb126  1  0.00320584  0.19877823  0.80888436  1
  Nb  Nb127  1  0.39904905  0.59214606  0.59141272  1
  Nb  Nb128  1  0.80025525  0.79872215  0.20345584  1
  Nb  Nb129  1  0.40031330  0.39474158  0.80433578  1
  Nb  Nb130  1  0.00483253  0.39904631  0.80305222  1
  Nb  Nb131  1  0.39523917  -0.00119952  0.40321006  1
  Nb  Nb132  1  0.79945530  0.59156107  0.00474589  1
  Nb  Nb133  1  0.80653296  0.60120714  0.19816918  1
  Nb  Nb134  1  -0.00215200  0.19390116  0.38837670  1
  Nb  Nb135  1  0.00461709  0.59488707  0.80581469  1
  Nb  Nb136  1  0.59547056  0.39908804  0.00062320  1
  Nb  Nb137  1  0.00208867  0.80864201  0.40323965  1
  Nb  Nb138  1  0.20336305  0.40814478  0.58993651  1
  Nb  Nb139  1  0.79856231  0.40330711  0.59325326  1
  Nb  Nb140  1  0.59637815  0.00755678  -0.00696358  1
  Nb  Nb141  1  0.40316340  0.19450642  0.80047408  1
  Nb  Nb142  1  0.00002192  -0.00230194  0.39617953  1
  Nb  Nb143  1  0.00267627  0.19928339  0.00099517  1
  Nb  Nb144  1  0.40024479  0.39802699  0.00117806  1
  Nb  Nb145  1  0.60159429  0.80347617  0.79625965  1
  Nb  Nb146  1  0.00096899  0.80518353  0.60162393  1
  Nb  Nb147  1  0.59526105  0.80328981  0.39437612  1
  Nb  Nb148  1  0.79742534  0.59165353  0.59891966  1
  Nb  Nb149  1  -0.00171553  0.80273417  -0.00372229  1
  Pd  Pd150  1  0.80478691  0.00290837  0.40203709  1
  Pd  Pd151  1  0.39746322  0.60633774  0.20436001  1
  Pd  Pd152  1  0.19949579  0.20116693  0.01203341  1
  Pd  Pd153  1  0.79381377  0.80412829  0.79170154  1
  Pd  Pd154  1  0.19439776  0.00267036  0.79276483  1
  Pd  Pd155  1  0.00535094  -0.00116279  0.00579834  1
  Pd  Pd156  1  0.60461646  -0.00875192  0.80166792  1
  Pd  Pd157  1  0.60507283  0.20192705  0.20569487  1
  Pd  Pd158  1  0.39058200  0.40674399  0.61043021  1
  Pd  Pd159  1  0.40309363  0.79886332  0.79097174  1
  Pd  Pd160  1  0.59674255  0.20290846  0.59685162  1
  Pd  Pd161  1  0.00992126  0.79331094  0.80177550  1
  Pd  Pd162  1  -0.00167244  0.79924084  0.19665033  1
  Pd  Pd163  1  0.60943533  0.39300117  0.59843619  1
  Pd  Pd164  1  0.58661745  0.81032600  -0.01145539  1
  Pd  Pd165  1  0.40420078  -0.00037655  -0.00299473  1
  Pd  Pd166  1  0.39308796  0.19898653  0.20777408  1
  Pd  Pd167  1  0.80570760  0.39727514  0.79194061  1
  Pd  Pd168  1  0.59910677  0.60955781  0.80919037  1
  Pd  Pd169  1  0.20334503  -0.00661144  0.39738083  1
  Pd  Pd170  1  0.01102149  0.40495841  0.20833151  1
  Pd  Pd171  1  0.01068821  0.38938780  0.38789174  1
  Pd  Pd172  1  0.20636858  0.80061309  0.19552407  1
  Pd  Pd173  1  0.59497744  0.39898092  0.39459938  1
  Pd  Pd174  1  0.40457031  0.19296264  0.39451353  1
  Pd  Pd175  1  0.00342654  0.38392296  -0.00537732  1
  Pd  Pd176  1  0.00421540  0.20631516  0.59980967  1
  Pd  Pd177  1  0.38839146  0.79867273  0.19615798  1
  Pd  Pd178  1  0.59702006  0.60368571  0.59011636  1
  Pd  Pd179  1  0.59046326  0.60650837  0.40649642  1
  Pd  Pd180  1  0.59378022  0.39129736  0.80876412  1
  Pd  Pd181  1  0.19811725  0.40419604  0.78923496  1
  Pd  Pd182  1  0.39581984  0.59723128  0.00255314  1
  Pd  Pd183  1  0.80664359  0.58769052  0.40394694  1
  Pd  Pd184  1  0.19459018  0.60134865  0.80607241  1
  Pd  Pd185  1  -0.00142796  0.60498339  0.39502387  1
  Pd  Pd186  1  0.79564614  -0.00518578  0.19672081  1
  Pd  Pd187  1  0.40276390  0.59852924  0.79320761  1
  Pd  Pd188  1  0.19950275  0.39492016  0.39918080  1
  Pd  Pd189  1  0.60615340  0.59284440  -0.00201843  1
  Pd  Pd190  1  0.01005737  0.00872019  0.79736831  1
  Pd  Pd191  1  0.79117812  0.00152832  0.79042790  1
  Pd  Pd192  1  0.59508342  0.20694787  0.79260883  1
  Pd  Pd193  1  0.38652574  0.20258795  -0.00283124  1
  Pd  Pd194  1  0.00305967  0.38739817  0.60801600  1
  Pd  Pd195  1  0.39470248  0.00450679  0.79685318  1
  Pd  Pd196  1  0.60649259  0.60755554  0.20257278  1
  Pd  Pd197  1  0.20965326  0.60185523  0.39877289  1
  Pd  Pd198  1  0.79129730  0.39828324  0.01250492  1
  Pd  Pd199  1  0.79393933  0.00167506  0.00173048  1
  Rh  Rh200  1  0.00179778  -0.00281327  0.19967552  1
  Rh  Rh201  1  0.40356019  0.59889830  0.40276659  1
  Rh  Rh202  1  0.60777480  0.20003532  0.00139775  1
  Rh  Rh203  1  0.40388625  0.39873630  0.20202347  1
  Rh  Rh204  1  0.59694512  0.80002322  0.59926092  1
  Rh  Rh205  1  0.59756316  0.00740675  0.18559739  1
  Rh  Rh206  1  0.58724426  -0.00500368  0.40999233  1
  Rh  Rh207  1  0.21619578  0.59424523  0.58815776  1
  Rh  Rh208  1  0.80641851  0.18935481  0.39406438  1
  Rh  Rh209  1  0.79928502  0.40430555  0.40667954  1
  Rh  Rh210  1  0.80847711  0.79502442  0.00894537  1
  Rh  Rh211  1  0.39793875  0.79366457  0.60569649  1
  Rh  Rh212  1  0.59633380  0.00583549  0.59765463  1
  Rh  Rh213  1  0.40228108  0.00640661  0.59605996  1
  Rh  Rh214  1  0.59499219  0.39303370  0.20344359  1
  Rh  Rh215  1  0.00436469  0.19935224  0.19740761  1
  Rh  Rh216  1  0.80825893  0.79387516  0.60653184  1
  Rh  Rh217  1  0.79705142  0.00368754  0.60350804  1
  Rh  Rh218  1  0.59332208  0.20084524  0.40037375  1
  Rh  Rh219  1  0.19696560  0.80236260  0.40300346  1
  Rh  Rh220  1  -0.01278558  0.61508033  0.60753401  1
  Rh  Rh221  1  0.20224179  0.59884273  -0.00157450  1
  Rh  Rh222  1  0.79372331  0.81346473  0.39550211  1
  Rh  Rh223  1  0.19880529  0.80032267  0.60068052  1
  Rh  Rh224  1  0.20581968  0.20334704  0.19430257  1
  Rh  Rh225  1  0.80541097  0.19425943  0.79317343  1
  Rh  Rh226  1  0.80778670  0.20399951  0.00828564  1
  Rh  Rh227  1  -0.00107641  -0.00885892  0.59217681  1
  Rh  Rh228  1  0.00139119  0.60801282  -0.00272979  1
  Rh  Rh229  1  0.20273956  -0.00150024  0.60304039  1
  Rh  Rh230  1  0.20474542  -0.00600182  0.20345695  1
  Rh  Rh231  1  0.40595513  0.39983039  0.38887155  1
  Rh  Rh232  1  0.41086120  0.19302716  0.60488165  1
  Rh  Rh233  1  0.19808632  0.40539457  0.20475656  1
  Rh  Rh234  1  0.79204779  0.20209402  0.60083269  1
  Rh  Rh235  1  0.19560910  0.60027652  0.20450006  1
  Rh  Rh236  1  0.20704104  0.40185690  0.00611580  1
  Rh  Rh237  1  0.60813258  0.78998516  0.21027456  1
  Rh  Rh238  1  0.19608251  0.00076921  0.00366462  1
  Rh  Rh239  1  0.20123694  0.80511355  0.79652934  1
  Rh  Rh240  1  0.19837954  0.21000371  0.58962139  1
  Rh  Rh241  1  0.80266414  0.40397724  0.19944430  1
  Rh  Rh242  1  0.79334161  0.19746362  0.20269955  1
  Rh  Rh243  1  0.40676035  0.81001683  0.39906645  1
  Rh  Rh244  1  0.19514855  0.80688265  -0.00059264  1
  Rh  Rh245  1  0.80169993  0.59272936  0.80390713  1
  Rh  Rh246  1  0.39937848  0.80197161  0.00318706  1
  Rh  Rh247  1  0.38920581  0.00262428  0.20846350  1
  Rh  Rh248  1  0.19928605  0.18807125  0.79910921  1
  Rh  Rh249  1  0.19403221  0.20694395  0.40170009  1
