# generated using pymatgen
data_ZrScNbPdRh
_symmetry_space_group_name_H-M   'P 1'
_cell_length_a   16.56703449
_cell_length_b   16.56499005
_cell_length_c   16.55754083
_cell_angle_alpha   90.01676652
_cell_angle_beta   90.02919981
_cell_angle_gamma   89.98873106
_symmetry_Int_Tables_number   1
_chemical_formula_structural   ZrScNbPdRh
_chemical_formula_sum   'Zr50 Sc50 Nb50 Pd50 Rh50'
_cell_volume   4543.93078198
_cell_formula_units_Z   50
loop_
 _symmetry_equiv_pos_site_id
 _symmetry_equiv_pos_as_xyz
  1  'x, y, z'
loop_
 _atom_site_type_symbol
 _atom_site_label
 _atom_site_symmetry_multiplicity
 _atom_site_fract_x
 _atom_site_fract_y
 _atom_site_fract_z
 _atom_site_occupancy
  Zr  Zr0  1  0.70670106  0.50131370  0.50497717  1
  Zr  Zr1  1  0.90331502  0.50425915  0.10035499  1
  Zr  Zr2  1  0.29408450  0.50297880  0.69853733  1
  Zr  Zr3  1  0.70437597  0.29991369  0.90279365  1
  Zr  Zr4  1  0.30518298  0.49734123  0.09562526  1
  Zr  Zr5  1  0.89980633  0.10929679  0.50340564  1
  Zr  Zr6  1  0.30069046  0.30547731  0.49865530  1
  Zr  Zr7  1  0.89855054  0.30260067  0.90491906  1
  Zr  Zr8  1  0.69877942  0.09934254  0.30229967  1
  Zr  Zr9  1  0.50855790  0.69912174  0.09352656  1
  Zr  Zr10  1  0.89747950  0.09807394  0.09929613  1
  Zr  Zr11  1  0.49069195  0.10077736  0.69684431  1
  Zr  Zr12  1  0.09498223  0.08978985  0.50703652  1
  Zr  Zr13  1  0.50723458  0.30382883  0.89791773  1
  Zr  Zr14  1  0.49610086  0.69971285  0.69656923  1
  Zr  Zr15  1  0.70418394  0.90245237  0.89673524  1
  Zr  Zr16  1  0.69761919  0.90093668  0.10060959  1
  Zr  Zr17  1  0.29597299  0.91163716  0.29695496  1
  Zr  Zr18  1  0.91184142  0.29461410  0.30437361  1
  Zr  Zr19  1  0.69930064  0.09122222  0.49792052  1
  Zr  Zr20  1  0.89858648  0.69723319  0.10956136  1
  Zr  Zr21  1  0.09768439  0.90346029  0.89120509  1
  Zr  Zr22  1  0.08995303  0.70170095  0.10011337  1
  Zr  Zr23  1  0.68913860  0.29773081  0.29569634  1
  Zr  Zr24  1  0.09453299  0.50080229  0.10277772  1
  Zr  Zr25  1  0.70411458  0.09400445  0.69948305  1
  Zr  Zr26  1  0.50285710  0.70453426  0.30344053  1
  Zr  Zr27  1  0.90004425  0.09872523  0.90340118  1
  Zr  Zr28  1  0.70039047  0.49609649  0.89741016  1
  Zr  Zr29  1  0.90486930  0.29392775  0.09719152  1
  Zr  Zr30  1  0.10020355  0.09922760  0.30791567  1
  Zr  Zr31  1  0.49951529  0.10019850  0.89853454  1
  Zr  Zr32  1  0.89811700  0.09394500  0.30647424  1
  Zr  Zr33  1  0.30904646  0.89880838  0.89810019  1
  Zr  Zr34  1  0.09715051  0.70787337  0.49999057  1
  Zr  Zr35  1  0.10914100  0.10540461  0.89024482  1
  Zr  Zr36  1  0.09957909  0.30328662  0.69966794  1
  Zr  Zr37  1  0.09666371  0.50101426  0.70575030  1
  Zr  Zr38  1  0.29790274  0.49625089  0.30468450  1
  Zr  Zr39  1  0.90081414  0.49223071  0.69266208  1
  Zr  Zr40  1  0.90405219  0.69684321  0.49265733  1
  Zr  Zr41  1  0.30310680  0.50263083  0.90085781  1
  Zr  Zr42  1  0.90127373  0.50178515  0.50019487  1
  Zr  Zr43  1  0.89557650  0.89456631  0.29721147  1
  Zr  Zr44  1  0.30079829  0.29914256  0.69483985  1
  Zr  Zr45  1  0.29738321  0.09304051  0.29408012  1
  Zr  Zr46  1  0.89734679  0.89891633  0.10298715  1
  Zr  Zr47  1  0.70873505  0.89883044  0.69971616  1
  Zr  Zr48  1  0.09476032  0.29628488  0.10250477  1
  Zr  Zr49  1  0.50468102  0.50419648  0.90223570  1
  Sc  Sc50  1  0.69962102  0.50280118  0.29578128  1
  Sc  Sc51  1  0.89938153  0.90083981  0.70432251  1
  Sc  Sc52  1  0.70036438  0.50035937  0.69853471  1
  Sc  Sc53  1  0.71179820  0.70023691  0.29449417  1
  Sc  Sc54  1  0.29893243  0.09146970  0.50053094  1
  Sc  Sc55  1  0.29818321  0.70076409  0.31501162  1
  Sc  Sc56  1  0.29360053  0.30608901  0.30374300  1
  Sc  Sc57  1  0.50108419  0.09792291  0.29865619  1
  Sc  Sc58  1  0.30050389  0.90049739  0.69361166  1
  Sc  Sc59  1  0.48819666  0.90032753  0.69624728  1
  Sc  Sc60  1  0.09887207  0.90314059  0.30595113  1
  Sc  Sc61  1  0.30652710  0.70294043  0.69857297  1
  Sc  Sc62  1  0.50247052  0.29988822  0.30008228  1
  Sc  Sc63  1  0.50183195  0.49780283  0.09660747  1
  Sc  Sc64  1  0.49460473  0.09997860  0.10741720  1
  Sc  Sc65  1  0.30554161  0.90989480  0.10309966  1
  Sc  Sc66  1  0.09545565  0.30296666  0.49252981  1
  Sc  Sc67  1  0.69819117  0.50778625  0.09948761  1
  Sc  Sc68  1  0.09734576  0.70287487  0.69593582  1
  Sc  Sc69  1  0.69982936  0.90212122  0.30461110  1
  Sc  Sc70  1  0.49701788  0.30525452  0.50499995  1
  Sc  Sc71  1  0.09166070  0.10088257  0.09718358  1
  Sc  Sc72  1  0.08344261  0.69619576  0.89317224  1
  Sc  Sc73  1  0.09558708  0.49477582  0.30305439  1
  Sc  Sc74  1  0.10286518  0.30099845  0.90229443  1
  Sc  Sc75  1  0.69701651  0.68668819  0.89581187  1
  Sc  Sc76  1  0.09922216  0.30273912  0.30339279  1
  Sc  Sc77  1  0.72016650  0.70180765  0.49309501  1
  Sc  Sc78  1  0.50217741  0.49248055  0.29724417  1
  Sc  Sc79  1  0.69476853  0.29938366  0.50020193  1
  Sc  Sc80  1  0.09339087  0.90169119  0.10363949  1
  Sc  Sc81  1  0.69597652  0.31281790  0.70231583  1
  Sc  Sc82  1  0.09047057  0.70259045  0.30505996  1
  Sc  Sc83  1  0.48401145  0.70607438  0.49709131  1
  Sc  Sc84  1  0.49811045  0.08958518  0.50265176  1
  Sc  Sc85  1  0.29688334  0.50250352  0.49920290  1
  Sc  Sc86  1  0.30181319  0.30113931  0.09645548  1
  Sc  Sc87  1  0.89982125  0.89689803  0.49850196  1
  Sc  Sc88  1  0.70281873  0.09134778  0.89867042  1
  Sc  Sc89  1  0.70999414  0.69674121  0.70078341  1
  Sc  Sc90  1  0.89850089  0.89897197  0.89604925  1
  Sc  Sc91  1  0.49367146  0.49575581  0.49982950  1
  Sc  Sc92  1  0.90658330  0.50803808  0.29986653  1
  Sc  Sc93  1  0.50176141  0.90000956  0.90518578  1
  Sc  Sc94  1  0.29387943  0.29585028  0.90961792  1
  Sc  Sc95  1  0.50334375  0.30246537  0.10789299  1
  Sc  Sc96  1  0.49393277  0.69883623  0.89774228  1
  Sc  Sc97  1  0.50631285  0.49909180  0.69852910  1
  Sc  Sc98  1  0.29544370  0.69957699  0.50724968  1
  Sc  Sc99  1  0.29748296  0.89808637  0.50219079  1
  Nb  Nb100  1  0.69423418  0.90277411  0.50060362  1
  Nb  Nb101  1  0.90475544  0.10817154  0.69042605  1
  Nb  Nb102  1  0.30133713  0.70180100  0.90316635  1
  Nb  Nb103  1  0.50432603  0.89363164  0.10942399  1
  Nb  Nb104  1  0.89426304  0.69588205  0.89894301  1
  Nb  Nb105  1  0.90351483  0.29790869  0.68712139  1
  Nb  Nb106  1  0.89533232  0.69972386  0.70955470  1
  Nb  Nb107  1  0.49964603  0.89748805  0.30120581  1
  Nb  Nb108  1  0.10355507  0.90734399  0.69078310  1
  Nb  Nb109  1  0.09778344  0.50720176  0.89685636  1
  Nb  Nb110  1  0.29799840  0.10146211  0.09863808  1
  Nb  Nb111  1  0.70569231  0.69710981  0.09735672  1
  Nb  Nb112  1  0.30164950  0.70062994  0.09640747  1
  Nb  Nb113  1  0.10160172  0.89503997  0.51638103  1
  Nb  Nb114  1  0.50713120  0.89899721  0.49388667  1
  Nb  Nb115  1  0.09328577  0.50696586  0.50185196  1
  Nb  Nb116  1  0.29966718  0.10433780  0.90330082  1
  Nb  Nb117  1  0.29634421  0.10272895  0.69946175  1
  Nb  Nb118  1  0.10194684  0.09753200  0.69756635  1
  Nb  Nb119  1  0.70578295  0.29427684  0.10085109  1
  Nb  Nb120  1  0.90128383  0.30330332  0.50593082  1
  Nb  Nb121  1  0.70428412  0.09867104  0.10042392  1
  Nb  Nb122  1  0.90744369  0.50836161  0.89998267  1
  Nb  Nb123  1  0.49892468  0.29617327  0.70024214  1
  Nb  Nb124  1  0.89746324  0.70354758  0.30342749  1
  Nb  Nb125  1  0.60167189  0.79948839  0.79163106  1
  Nb  Nb126  1  0.80443804  0.39545542  0.39685512  1
  Nb  Nb127  1  0.59533728  0.19815645  0.60683722  1
  Nb  Nb128  1  0.39547602  0.20082323  0.79988868  1
  Nb  Nb129  1  0.80288373  0.39224715  0.20065184  1
  Nb  Nb130  1  0.20546729  0.00186752  -0.00462496  1
  Nb  Nb131  1  0.19858020  0.60582690  -0.00120179  1
  Nb  Nb132  1  0.20051194  0.19483962  0.19905807  1
  Nb  Nb133  1  0.60704263  0.19770962  0.00517064  1
  Nb  Nb134  1  0.19862950  0.19577011  0.60221407  1
  Nb  Nb135  1  0.39578076  0.19863940  0.40148623  1
  Nb  Nb136  1  0.79920085  0.19991353  0.19892962  1
  Nb  Nb137  1  0.40049791  0.39424523  0.79911405  1
  Nb  Nb138  1  0.60109834  0.60982042  0.59112221  1
  Nb  Nb139  1  0.20114682  0.80128488  0.80476824  1
  Nb  Nb140  1  0.60105464  0.60392631  0.40579398  1
  Nb  Nb141  1  0.79852936  0.79007834  0.00071013  1
  Nb  Nb142  1  0.20119032  0.79964155  -0.00222093  1
  Nb  Nb143  1  -0.00324093  0.20016959  0.78983216  1
  Nb  Nb144  1  0.80865340  0.20182737  0.79132623  1
  Nb  Nb145  1  0.20453958  0.60436854  0.19608376  1
  Nb  Nb146  1  0.60319967  0.80065524  0.59467826  1
  Nb  Nb147  1  0.20593257  0.79459972  0.19479221  1
  Nb  Nb148  1  0.39520422  0.60695140  0.19878605  1
  Nb  Nb149  1  0.40173673  0.80011832  0.20059422  1
  Pd  Pd150  1  0.61002775  0.79226906  0.40561172  1
  Pd  Pd151  1  0.59322509  -0.01058892  0.79256185  1
  Pd  Pd152  1  0.00595654  -0.00094359  -0.00328660  1
  Pd  Pd153  1  0.20589571  0.39715987  0.80839434  1
  Pd  Pd154  1  0.19163695  0.39965986  0.59221236  1
  Pd  Pd155  1  0.40090712  0.40063273  0.20192828  1
  Pd  Pd156  1  0.59479292  -0.00325068  0.60732110  1
  Pd  Pd157  1  0.40215751  0.40836561  0.60611603  1
  Pd  Pd158  1  0.39136843  0.20620171  0.20852217  1
  Pd  Pd159  1  0.80861443  0.39810588  0.79710028  1
  Pd  Pd160  1  0.60536692  0.79663075  0.20478032  1
  Pd  Pd161  1  0.81019854  -0.00405086  0.59503392  1
  Pd  Pd162  1  0.00293431  0.80026363  0.79227112  1
  Pd  Pd163  1  0.40168372  0.59397217  0.79663747  1
  Pd  Pd164  1  0.19317131  0.40756400  -0.00240742  1
  Pd  Pd165  1  0.40907785  0.20519988  -0.00138237  1
  Pd  Pd166  1  -0.01005448  0.80004034  0.60796369  1
  Pd  Pd167  1  -0.00117337  -0.00910952  0.40807391  1
  Pd  Pd168  1  0.20973886  -0.00593742  0.79877692  1
  Pd  Pd169  1  0.59442760  0.60055004  0.20585029  1
  Pd  Pd170  1  0.60586937  0.19754000  0.79925909  1
  Pd  Pd171  1  0.59456546  0.00694671  0.00634905  1
  Pd  Pd172  1  0.19148516  0.59849009  0.39575102  1
  Pd  Pd173  1  0.60446170  0.40892843  0.40340005  1
  Pd  Pd174  1  0.00258932  0.00120890  0.20436472  1
  Pd  Pd175  1  0.78487554  0.20832268  0.60371206  1
  Pd  Pd176  1  -0.00405160  0.39546202  0.80419326  1
  Pd  Pd177  1  0.80279488  0.79925363  0.59762723  1
  Pd  Pd178  1  0.60382582  0.39625177  0.00910090  1
  Pd  Pd179  1  0.19739895  0.39705267  0.19928538  1
  Pd  Pd180  1  0.40590125  0.59373914  0.39627858  1
  Pd  Pd181  1  0.40338811  0.00111057  0.40135627  1
  Pd  Pd182  1  0.39104068  0.80872425  0.39840508  1
  Pd  Pd183  1  0.39444724  0.00497413  0.79883225  1
  Pd  Pd184  1  0.20452041  0.19684891  0.40290046  1
  Pd  Pd185  1  0.40128695  0.80467174  0.00674311  1
  Pd  Pd186  1  0.60830169  0.79344886  -0.01218537  1
  Pd  Pd187  1  0.19614906  0.60425985  0.60115190  1
  Pd  Pd188  1  0.80261724  0.58959250  0.79684756  1
  Pd  Pd189  1  -0.00430223  0.60670658  0.60591103  1
  Pd  Pd190  1  0.19887065  0.80593734  0.39703817  1
  Pd  Pd191  1  0.19865726  0.61265056  0.80379987  1
  Pd  Pd192  1  0.00461230  0.40363623  -0.00529007  1
  Pd  Pd193  1  0.79983851  0.41124794  0.00760804  1
  Pd  Pd194  1  0.40343627  0.00010621  0.00701719  1
  Pd  Pd195  1  -0.00557441  0.00696263  0.79085002  1
  Pd  Pd196  1  0.59874394  0.00121277  0.20323802  1
  Pd  Pd197  1  0.79851290  0.20777574  0.39742203  1
  Pd  Pd198  1  0.58607878  0.19592000  0.41268091  1
  Pd  Pd199  1  -0.00650752  0.80143582  -0.00538221  1
  Rh  Rh200  1  0.40143369  0.79898415  0.80064310  1
  Rh  Rh201  1  0.79670724  0.00386685  0.20190127  1
  Rh  Rh202  1  0.20471563  0.00334224  0.60039116  1
  Rh  Rh203  1  0.00365336  0.80155560  0.20934928  1
  Rh  Rh204  1  0.19558444  0.19356667  0.01186068  1
  Rh  Rh205  1  0.00304614  0.60108803  0.39849653  1
  Rh  Rh206  1  0.80024516  -0.00535006  0.40605708  1
  Rh  Rh207  1  0.80341244  0.59409379  0.20332300  1
  Rh  Rh208  1  0.00390226  0.60385224  0.20931712  1
  Rh  Rh209  1  0.80077286  -0.01030682  0.00203161  1
  Rh  Rh210  1  0.79917953  0.80799148  0.39891815  1
  Rh  Rh211  1  0.40259640  0.80649027  0.59291326  1
  Rh  Rh212  1  0.79467161  0.80121625  0.19525833  1
  Rh  Rh213  1  -0.00428996  0.40391629  0.40504371  1
  Rh  Rh214  1  0.40273111  0.59630460  0.59938918  1
  Rh  Rh215  1  0.00307150  0.19219734  0.20870136  1
  Rh  Rh216  1  0.60763249  0.40239220  0.19423234  1
  Rh  Rh217  1  0.79709325  0.39445822  0.59300863  1
  Rh  Rh218  1  -0.00617258  0.39961385  0.20159778  1
  Rh  Rh219  1  0.19179579  0.00293521  0.18576350  1
  Rh  Rh220  1  0.40568155  0.39498846  -0.00731177  1
  Rh  Rh221  1  0.79827336  0.59054272  0.39169994  1
  Rh  Rh222  1  0.40123334  0.59870930  0.00423659  1
  Rh  Rh223  1  0.20146344  0.20338907  0.79164434  1
  Rh  Rh224  1  0.39677733  -0.00553552  0.59467281  1
  Rh  Rh225  1  0.19314059  0.41074928  0.40662805  1
  Rh  Rh226  1  0.01189582  0.20517768  0.59757405  1
  Rh  Rh227  1  0.79541064  0.79428485  0.81040750  1
  Rh  Rh228  1  0.80426514  0.60353285  0.60595146  1
  Rh  Rh229  1  -0.00668774  -0.00648017  0.60203061  1
  Rh  Rh230  1  0.20099821  0.79730591  0.60952369  1
  Rh  Rh231  1  -0.00760127  0.59994211  0.79257195  1
  Rh  Rh232  1  0.80187363  0.60054743  -0.00188334  1
  Rh  Rh233  1  0.60549477  0.19376338  0.19166672  1
  Rh  Rh234  1  0.59783698  -0.00060220  0.39387524  1
  Rh  Rh235  1  0.40980626  -0.00654950  0.19764122  1
  Rh  Rh236  1  0.60216218  0.60067838  -0.00249008  1
  Rh  Rh237  1  0.00262816  0.19733437  0.40764562  1
  Rh  Rh238  1  0.81060770  0.01033177  0.79682652  1
  Rh  Rh239  1  0.00720316  0.40254023  0.59401467  1
  Rh  Rh240  1  0.79326433  0.19137883  -0.00315958  1
  Rh  Rh241  1  0.39793313  0.19606295  0.59596056  1
  Rh  Rh242  1  0.40044292  0.39237558  0.39634592  1
  Rh  Rh243  1  0.59509842  0.40573003  0.79756320  1
  Rh  Rh244  1  0.00084212  0.59970215  -0.00303046  1
  Rh  Rh245  1  0.00662620  0.19728129  -0.01367885  1
  Rh  Rh246  1  0.19199765  -0.00898483  0.41240360  1
  Rh  Rh247  1  0.59841044  0.60504983  0.78909057  1
  Rh  Rh248  1  0.00046478  0.80489125  0.40091159  1
  Rh  Rh249  1  0.59914348  0.39964930  0.60090787  1
