# generated using pymatgen
data_ZrScNbPdRh
_symmetry_space_group_name_H-M   'P 1'
_cell_length_a   16.55633481
_cell_length_b   16.55948628
_cell_length_c   16.56142745
_cell_angle_alpha   89.97340438
_cell_angle_beta   90.00663708
_cell_angle_gamma   90.00948165
_symmetry_Int_Tables_number   1
_chemical_formula_structural   ZrScNbPdRh
_chemical_formula_sum   'Zr50 Sc50 Nb50 Pd50 Rh50'
_cell_volume   4540.55322428
_cell_formula_units_Z   50
loop_
 _symmetry_equiv_pos_site_id
 _symmetry_equiv_pos_as_xyz
  1  'x, y, z'
loop_
 _atom_site_type_symbol
 _atom_site_label
 _atom_site_symmetry_multiplicity
 _atom_site_fract_x
 _atom_site_fract_y
 _atom_site_fract_z
 _atom_site_occupancy
  Zr  Zr0  1  0.09878894  0.49870650  0.10880448  1
  Zr  Zr1  1  0.29762725  0.70168378  0.10399519  1
  Zr  Zr2  1  0.70049619  0.71091962  0.29693549  1
  Zr  Zr3  1  0.70285698  0.10452897  0.10088321  1
  Zr  Zr4  1  0.89925571  0.89791733  0.49817927  1
  Zr  Zr5  1  0.49293820  0.30541097  0.51077268  1
  Zr  Zr6  1  0.70100145  0.89426995  0.89527498  1
  Zr  Zr7  1  0.50068893  0.29693945  0.29638878  1
  Zr  Zr8  1  0.49605994  0.48832208  0.70219649  1
  Zr  Zr9  1  0.29637470  0.50645370  0.10171692  1
  Zr  Zr10  1  0.91078250  0.10289166  0.29093172  1
  Zr  Zr11  1  0.10781698  0.70300390  0.70307091  1
  Zr  Zr12  1  0.70127393  0.90123421  0.69587455  1
  Zr  Zr13  1  0.69880916  0.49713703  0.29634211  1
  Zr  Zr14  1  0.10218769  0.30638316  0.69375965  1
  Zr  Zr15  1  0.29521395  0.89571866  0.69820780  1
  Zr  Zr16  1  0.10139803  0.90312138  0.09692633  1
  Zr  Zr17  1  0.90165616  0.69831386  0.48652029  1
  Zr  Zr18  1  0.69339131  0.90312391  0.48962891  1
  Zr  Zr19  1  0.49755856  0.70571014  0.49839919  1
  Zr  Zr20  1  0.28968378  0.29613679  0.30607226  1
  Zr  Zr21  1  0.69958098  0.10473547  0.69971806  1
  Zr  Zr22  1  0.70721408  0.10406694  0.89288647  1
  Zr  Zr23  1  0.90905460  0.69346271  0.91178330  1
  Zr  Zr24  1  0.90270175  0.69848136  0.69609761  1
  Zr  Zr25  1  0.90980638  0.29945950  0.69438500  1
  Zr  Zr26  1  0.10311160  0.70923710  0.89892779  1
  Zr  Zr27  1  0.30402437  0.10069739  0.70290790  1
  Zr  Zr28  1  0.49404411  0.90436239  0.09870555  1
  Zr  Zr29  1  0.90382254  0.30585624  0.49801219  1
  Zr  Zr30  1  0.30326186  0.89552510  0.29651139  1
  Zr  Zr31  1  0.10158580  0.69650374  0.49968908  1
  Zr  Zr32  1  0.69898133  0.69832023  0.89643382  1
  Zr  Zr33  1  0.10124333  0.70390680  0.08939888  1
  Zr  Zr34  1  0.50063069  0.89789496  0.30839607  1
  Zr  Zr35  1  0.89222746  0.89228756  0.30627822  1
  Zr  Zr36  1  0.49806169  0.10223850  0.10121327  1
  Zr  Zr37  1  0.89586657  0.09633069  0.71232102  1
  Zr  Zr38  1  0.69642737  0.09384200  0.50394440  1
  Zr  Zr39  1  0.08959203  0.10587491  0.90577846  1
  Zr  Zr40  1  0.50280472  0.69757876  0.89211336  1
  Zr  Zr41  1  0.29601606  0.69055416  0.90046987  1
  Zr  Zr42  1  0.89700470  0.29351954  0.90222214  1
  Zr  Zr43  1  0.49542857  0.29001773  0.10586286  1
  Zr  Zr44  1  0.90023935  0.49523017  0.90486540  1
  Zr  Zr45  1  0.70304531  0.29521515  0.50250914  1
  Zr  Zr46  1  0.10996330  0.91110656  0.29270025  1
  Zr  Zr47  1  0.10237337  0.49712022  0.30630831  1
  Zr  Zr48  1  0.09908965  0.90061370  0.70501850  1
  Zr  Zr49  1  0.49599456  0.50122301  0.49793273  1
  Sc  Sc50  1  0.08948956  0.09590298  0.69488681  1
  Sc  Sc51  1  0.29710236  0.30413594  0.50399244  1
  Sc  Sc52  1  0.70504708  0.50058940  0.09997680  1
  Sc  Sc53  1  0.89780268  0.49713724  0.31169801  1
  Sc  Sc54  1  0.30129900  0.90700892  0.50609282  1
  Sc  Sc55  1  0.49595037  0.08751888  0.50375165  1
  Sc  Sc56  1  0.70455257  0.29578267  0.89446748  1
  Sc  Sc57  1  0.68863196  0.50862085  0.69436171  1
  Sc  Sc58  1  0.29915389  0.09698877  0.50208013  1
  Sc  Sc59  1  0.70475743  0.69348279  0.09997156  1
  Sc  Sc60  1  0.69012980  0.70288076  0.70121238  1
  Sc  Sc61  1  0.49785548  0.50361049  0.30652677  1
  Sc  Sc62  1  0.09372856  0.30268955  0.30064315  1
  Sc  Sc63  1  0.90536620  0.89820348  0.89465913  1
  Sc  Sc64  1  0.70257315  0.30232507  0.29339020  1
  Sc  Sc65  1  0.69815103  0.88778847  0.09430801  1
  Sc  Sc66  1  0.10432822  0.10185727  0.30212572  1
  Sc  Sc67  1  0.50118912  0.89279318  0.69037757  1
  Sc  Sc68  1  0.10261258  0.09529502  0.49724183  1
  Sc  Sc69  1  0.89855060  0.30286222  0.30535993  1
  Sc  Sc70  1  0.49949457  0.50449608  0.89101883  1
  Sc  Sc71  1  0.49476038  0.09662710  0.29435999  1
  Sc  Sc72  1  0.10265635  0.90594616  0.50761754  1
  Sc  Sc73  1  0.49905622  0.69936082  0.10172217  1
  Sc  Sc74  1  0.70028734  0.09949102  0.30712912  1
  Sc  Sc75  1  0.29799566  0.89604726  0.10423417  1
  Sc  Sc76  1  0.90545334  0.90565310  0.70084832  1
  Sc  Sc77  1  0.30742428  0.30252658  0.70524944  1
  Sc  Sc78  1  0.50165232  0.89980593  0.90729216  1
  Sc  Sc79  1  0.30720761  0.90313159  0.90777889  1
  Sc  Sc80  1  0.89194555  0.50682716  0.09397514  1
  Sc  Sc81  1  0.50468584  0.69613385  0.69458857  1
  Sc  Sc82  1  0.89450516  0.29108569  0.10488822  1
  Sc  Sc83  1  0.10877798  0.70392177  0.30977789  1
  Sc  Sc84  1  0.50287908  0.50462416  0.10261695  1
  Sc  Sc85  1  0.10173723  0.30315676  0.49577829  1
  Sc  Sc86  1  0.90391557  0.10544715  0.50655134  1
  Sc  Sc87  1  0.29411892  0.70054862  0.69595053  1
  Sc  Sc88  1  0.29607794  0.09288615  0.30597502  1
  Sc  Sc89  1  0.10464739  0.49247765  0.70133840  1
  Sc  Sc90  1  0.29343633  0.70556664  0.49936548  1
  Sc  Sc91  1  0.49770844  0.10781284  0.69977595  1
  Sc  Sc92  1  0.10143102  0.29777347  0.89209629  1
  Sc  Sc93  1  0.91276186  0.49525906  0.69898478  1
  Sc  Sc94  1  0.69992415  0.50513178  0.49205095  1
  Sc  Sc95  1  0.50660493  0.30547770  0.88065282  1
  Sc  Sc96  1  0.48891478  0.09308962  0.90408509  1
  Sc  Sc97  1  0.69437200  0.69326696  0.50353646  1
  Sc  Sc98  1  0.29392694  0.49316834  0.70627003  1
  Sc  Sc99  1  0.10043768  0.50367687  0.89213700  1
  Nb  Nb100  1  0.29556660  0.49453839  0.49836979  1
  Nb  Nb101  1  0.30185477  0.29668253  0.09480771  1
  Nb  Nb102  1  0.09785249  0.29974976  0.09974469  1
  Nb  Nb103  1  0.30978222  0.70356779  0.29423829  1
  Nb  Nb104  1  0.08791829  0.10231486  0.10517320  1
  Nb  Nb105  1  0.90455794  0.70370708  0.30015578  1
  Nb  Nb106  1  0.69523927  0.30088234  0.09780104  1
  Nb  Nb107  1  0.30048508  0.49017919  0.89915435  1
  Nb  Nb108  1  0.90894933  0.09708557  0.09683441  1
  Nb  Nb109  1  0.29825995  0.49967817  0.29966092  1
  Nb  Nb110  1  0.90608102  0.70195285  0.10180254  1
  Nb  Nb111  1  0.30906363  0.11953472  0.08303844  1
  Nb  Nb112  1  0.68387238  0.29936190  0.70415357  1
  Nb  Nb113  1  0.48850225  0.70718065  0.30353529  1
  Nb  Nb114  1  0.89857958  0.50186707  0.49977269  1
  Nb  Nb115  1  0.50687840  0.30407481  0.69718589  1
  Nb  Nb116  1  0.70697685  0.49617000  0.90332341  1
  Nb  Nb117  1  0.29615506  0.10706099  0.90353358  1
  Nb  Nb118  1  0.29685764  0.28991775  0.90694048  1
  Nb  Nb119  1  0.69927118  0.90308330  0.30141492  1
  Nb  Nb120  1  0.90503472  0.90099482  0.10244921  1
  Nb  Nb121  1  0.50517710  0.89863793  0.50049958  1
  Nb  Nb122  1  0.10188558  0.50010475  0.49948474  1
  Nb  Nb123  1  0.89484172  0.10339632  0.90371279  1
  Nb  Nb124  1  0.10878220  0.90091896  0.90051042  1
  Nb  Nb125  1  0.39818738  0.39646523  -0.00071362  1
  Nb  Nb126  1  0.60108094  0.39551832  -0.00026459  1
  Nb  Nb127  1  0.80889594  0.00197955  0.00339793  1
  Nb  Nb128  1  0.60802934  -0.00622421  0.20133082  1
  Nb  Nb129  1  0.20040633  0.00462277  0.80941814  1
  Nb  Nb130  1  0.20017492  0.01375466  0.00143775  1
  Nb  Nb131  1  -0.00228022  0.79886072  0.20023668  1
  Nb  Nb132  1  0.79602079  0.40160128  0.79146241  1
  Nb  Nb133  1  0.40347087  0.20195690  0.40323928  1
  Nb  Nb134  1  0.39032152  0.39877382  0.19828267  1
  Nb  Nb135  1  0.39914838  0.79670294  0.79961311  1
  Nb  Nb136  1  0.80216379  -0.00469974  0.19599577  1
  Nb  Nb137  1  -0.00366885  0.60836202  0.20483532  1
  Nb  Nb138  1  0.60277980  -0.00072308  0.79858467  1
  Nb  Nb139  1  0.60136839  0.20471122  -0.00038378  1
  Nb  Nb140  1  0.80112543  0.79977206  0.59540906  1
  Nb  Nb141  1  0.00472013  0.39655280  0.00420050  1
  Nb  Nb142  1  0.39460795  0.59170185  0.59396431  1
  Nb  Nb143  1  0.20098177  0.19990977  0.60327284  1
  Nb  Nb144  1  0.59301723  0.20070401  0.40373463  1
  Nb  Nb145  1  0.19854212  0.19943308  0.18490624  1
  Nb  Nb146  1  0.20266808  0.39393860  0.00171799  1
  Nb  Nb147  1  0.79815917  0.40061990  0.60363659  1
  Nb  Nb148  1  0.80135621  0.59426873  0.80211556  1
  Nb  Nb149  1  0.00428073  0.59752996  0.59187274  1
  Pd  Pd150  1  0.19303476  0.59144944  -0.00549679  1
  Pd  Pd151  1  -0.00112107  0.79613752  0.59728065  1
  Pd  Pd152  1  0.39337602  0.60379358  0.78725885  1
  Pd  Pd153  1  0.39789615  0.79395312  -0.00372088  1
  Pd  Pd154  1  0.19426987  0.61017547  0.20907518  1
  Pd  Pd155  1  0.80679209  0.79259228  0.79258953  1
  Pd  Pd156  1  0.40234166  -0.00964850  0.79922518  1
  Pd  Pd157  1  0.79953411  0.19693920  0.20415145  1
  Pd  Pd158  1  0.20127677  0.59202279  0.60333723  1
  Pd  Pd159  1  0.80711669  0.59826757  0.20748363  1
  Pd  Pd160  1  0.60821976  0.40741841  0.59286999  1
  Pd  Pd161  1  0.39309438  0.00539978  0.19451563  1
  Pd  Pd162  1  0.00221512  0.20076913  0.79616436  1
  Pd  Pd163  1  0.19472635  0.19541631  0.79012124  1
  Pd  Pd164  1  0.21155031  0.01623760  0.18526644  1
  Pd  Pd165  1  0.80872195  0.01136586  0.39589243  1
  Pd  Pd166  1  0.00126361  0.59896175  0.79339104  1
  Pd  Pd167  1  0.00537065  0.20017078  0.40120373  1
  Pd  Pd168  1  0.40513735  0.20495914  0.80241776  1
  Pd  Pd169  1  0.79859105  0.19630742  0.39664887  1
  Pd  Pd170  1  0.59368951  0.40442214  0.19389496  1
  Pd  Pd171  1  0.80163082  0.20545855  0.60696188  1
  Pd  Pd172  1  0.59384563  0.80216870  0.19788975  1
  Pd  Pd173  1  0.40371881  -0.00365126  0.60443609  1
  Pd  Pd174  1  0.80697462  0.40254347  0.19558503  1
  Pd  Pd175  1  0.80579341  0.59796118  0.60664066  1
  Pd  Pd176  1  0.59499922  0.60473900  0.20729233  1
  Pd  Pd177  1  0.40416031  0.59567283  0.20363947  1
  Pd  Pd178  1  0.20251106  0.80955924  0.40417326  1
  Pd  Pd179  1  0.39591823  0.39544081  0.39263917  1
  Pd  Pd180  1  0.60026389  0.60769655  0.39146517  1
  Pd  Pd181  1  0.60438473  0.39320439  0.40166409  1
  Pd  Pd182  1  0.38861172  0.60332503  0.40433951  1
  Pd  Pd183  1  0.59100722  0.19446507  0.59347114  1
  Pd  Pd184  1  0.61000401  0.00707940  -0.00160446  1
  Pd  Pd185  1  0.80680295  0.80039892  0.00102580  1
  Pd  Pd186  1  0.59659095  0.79236698  0.00218858  1
  Pd  Pd187  1  -0.00236638  0.80017594  0.80221396  1
  Pd  Pd188  1  0.20413590  0.39145035  0.19810477  1
  Pd  Pd189  1  0.60184333  0.59231838  -0.00184953  1
  Pd  Pd190  1  0.79514752  0.60392323  0.39108658  1
  Pd  Pd191  1  -0.00047613  -0.00158383  0.39984279  1
  Pd  Pd192  1  -0.00090312  -0.00619114  -0.00765017  1
  Pd  Pd193  1  0.40493489  0.59381386  -0.00126283  1
  Pd  Pd194  1  0.21009275  0.60055716  0.39612888  1
  Pd  Pd195  1  0.01503096  0.81087367  0.39399698  1
  Pd  Pd196  1  -0.01351724  0.40571975  0.19598951  1
  Pd  Pd197  1  0.39220557  0.80744542  0.41031867  1
  Pd  Pd198  1  0.80303292  0.80255994  0.19374928  1
  Pd  Pd199  1  0.80470580  -0.00394634  0.59915090  1
  Rh  Rh200  1  0.39916108  0.79194846  0.60181328  1
  Rh  Rh201  1  0.18623200  0.20005844  0.00481645  1
  Rh  Rh202  1  0.79672174  0.60855254  -0.00380601  1
  Rh  Rh203  1  0.40048556  -0.00115832  0.40259614  1
  Rh  Rh204  1  0.19601247  0.80399693  0.59549250  1
  Rh  Rh205  1  -0.00600599  -0.00915406  0.20732248  1
  Rh  Rh206  1  0.79818276  -0.00544536  0.80783259  1
  Rh  Rh207  1  0.19737412  0.40163126  0.40292411  1
  Rh  Rh208  1  0.39516579  0.39296762  0.80510295  1
  Rh  Rh209  1  0.38276235  0.19950839  0.21399162  1
  Rh  Rh210  1  0.19996730  0.00825888  0.61155246  1
  Rh  Rh211  1  0.00642201  0.58970977  0.00955976  1
  Rh  Rh212  1  0.00491326  0.20668787  0.20340352  1
  Rh  Rh213  1  0.20535389  0.19656950  0.40794670  1
  Rh  Rh214  1  0.19426211  0.79389799  0.20088014  1
  Rh  Rh215  1  0.59562917  0.00001203  0.60900813  1
  Rh  Rh216  1  0.79862216  0.39081171  -0.00066760  1
  Rh  Rh217  1  0.20842858  0.80682189  -0.00217471  1
  Rh  Rh218  1  0.39504359  0.20320460  0.59620478  1
  Rh  Rh219  1  -0.00258017  0.20848668  0.00303804  1
  Rh  Rh220  1  0.20056260  0.59609242  0.80026869  1
  Rh  Rh221  1  0.80257715  0.21279552  0.78715499  1
  Rh  Rh222  1  0.60666438  0.59392267  0.80190036  1
  Rh  Rh223  1  0.20322025  0.39504920  0.80815066  1
  Rh  Rh224  1  0.00409022  0.00159764  0.80717669  1
  Rh  Rh225  1  0.40569907  0.79891634  0.19685033  1
  Rh  Rh226  1  -0.00394409  0.39606143  0.81154357  1
  Rh  Rh227  1  0.60091742  0.79523065  0.40048370  1
  Rh  Rh228  1  0.78815307  0.79176317  0.40872447  1
  Rh  Rh229  1  -0.00488633  0.00158602  0.59825884  1
  Rh  Rh230  1  0.59177252  0.00749120  0.39241880  1
  Rh  Rh231  1  0.58700240  0.59575624  0.59613815  1
  Rh  Rh232  1  0.41712413  0.21104187  -0.01584394  1
  Rh  Rh233  1  0.00220121  0.40358380  0.40292008  1
  Rh  Rh234  1  0.79784995  0.19687738  0.00512396  1
  Rh  Rh235  1  0.59209466  0.18806373  0.80533567  1
  Rh  Rh236  1  -0.00071915  0.80803863  0.00087775  1
  Rh  Rh237  1  0.01037068  0.19918899  0.59422068  1
  Rh  Rh238  1  0.60756823  0.80130947  0.59174527  1
  Rh  Rh239  1  0.20324100  -0.00353817  0.40186731  1
  Rh  Rh240  1  0.60970277  0.40767379  0.80479420  1
  Rh  Rh241  1  0.79400180  0.39995504  0.40688614  1
  Rh  Rh242  1  0.21202368  0.80779524  0.80951028  1
  Rh  Rh243  1  0.58713204  0.80900700  0.80086041  1
  Rh  Rh244  1  -0.00048629  0.40911247  0.58902561  1
  Rh  Rh245  1  0.20222867  0.39656682  0.59757837  1
  Rh  Rh246  1  0.39231855  0.40547851  0.60579624  1
  Rh  Rh247  1  0.39037646  0.00017261  0.00687993  1
  Rh  Rh248  1  0.60959334  0.19046163  0.20472146  1
  Rh  Rh249  1  0.00110402  0.59310867  0.39895344  1
