# generated using pymatgen
data_ZrScNbPdRh
_symmetry_space_group_name_H-M   'P 1'
_cell_length_a   16.56057468
_cell_length_b   16.56285762
_cell_length_c   16.56462227
_cell_angle_alpha   89.97692692
_cell_angle_beta   90.00260420
_cell_angle_gamma   89.96276440
_symmetry_Int_Tables_number   1
_chemical_formula_structural   ZrScNbPdRh
_chemical_formula_sum   'Zr50 Sc50 Nb50 Pd50 Rh50'
_cell_volume   4543.51620877
_cell_formula_units_Z   50
loop_
 _symmetry_equiv_pos_site_id
 _symmetry_equiv_pos_as_xyz
  1  'x, y, z'
loop_
 _atom_site_type_symbol
 _atom_site_label
 _atom_site_symmetry_multiplicity
 _atom_site_fract_x
 _atom_site_fract_y
 _atom_site_fract_z
 _atom_site_occupancy
  Zr  Zr0  1  0.51016721  0.29984324  0.70570797  1
  Zr  Zr1  1  0.29542451  0.29795602  0.30596310  1
  Zr  Zr2  1  0.70174933  0.91007417  0.70366498  1
  Zr  Zr3  1  0.69596271  0.30291695  0.89505537  1
  Zr  Zr4  1  0.69301358  0.50311946  0.09475248  1
  Zr  Zr5  1  0.10240814  0.90778785  0.10302792  1
  Zr  Zr6  1  0.89740401  0.69254010  0.49839756  1
  Zr  Zr7  1  0.69834901  0.70055865  0.70447959  1
  Zr  Zr8  1  0.29144107  0.70321611  0.29911154  1
  Zr  Zr9  1  0.49555913  0.90011599  0.70865792  1
  Zr  Zr10  1  0.29982759  0.30352353  0.49245355  1
  Zr  Zr11  1  0.30385537  0.50403037  0.09868897  1
  Zr  Zr12  1  0.89093277  0.89889413  0.49503640  1
  Zr  Zr13  1  0.50617769  0.49596583  0.89365870  1
  Zr  Zr14  1  0.90631766  0.49360255  0.69968326  1
  Zr  Zr15  1  0.09764331  0.69494894  0.89709351  1
  Zr  Zr16  1  0.50149088  0.30932821  0.50356957  1
  Zr  Zr17  1  0.10869975  0.11036371  0.90843648  1
  Zr  Zr18  1  0.70368446  0.10203829  0.29371064  1
  Zr  Zr19  1  0.69377415  0.49153708  0.50098777  1
  Zr  Zr20  1  0.90142550  0.90540231  0.29834076  1
  Zr  Zr21  1  0.70086233  0.89362117  0.10231412  1
  Zr  Zr22  1  0.50247766  0.49751426  0.69169797  1
  Zr  Zr23  1  0.69996786  0.09107280  0.89433725  1
  Zr  Zr24  1  0.30152427  0.70098041  0.09624777  1
  Zr  Zr25  1  0.90681397  0.09296872  0.90195138  1
  Zr  Zr26  1  0.51094962  0.09983861  0.69826432  1
  Zr  Zr27  1  0.29958508  0.10051575  0.71219259  1
  Zr  Zr28  1  0.30428706  0.70025098  0.89940961  1
  Zr  Zr29  1  0.50384694  0.69959458  0.50236792  1
  Zr  Zr30  1  0.89914989  0.90797434  0.70344398  1
  Zr  Zr31  1  0.49983446  0.70869764  0.89527205  1
  Zr  Zr32  1  0.50827493  0.89848008  0.90652232  1
  Zr  Zr33  1  0.70230537  0.70381399  0.50884920  1
  Zr  Zr34  1  0.90686674  0.29742336  0.10398251  1
  Zr  Zr35  1  0.70038437  0.30008310  0.50141705  1
  Zr  Zr36  1  0.30192159  0.90567079  0.49644779  1
  Zr  Zr37  1  0.09861643  0.30755803  0.29220589  1
  Zr  Zr38  1  0.90928984  0.10374188  0.10853819  1
  Zr  Zr39  1  0.49703101  0.30701741  0.89867089  1
  Zr  Zr40  1  0.50159209  0.49751489  0.09646110  1
  Zr  Zr41  1  0.88817150  0.89894766  0.90226972  1
  Zr  Zr42  1  0.89237984  0.68861285  0.69650064  1
  Zr  Zr43  1  0.10258143  0.50131577  0.69773403  1
  Zr  Zr44  1  0.89163091  0.49837251  0.90032430  1
  Zr  Zr45  1  0.09073088  0.09986533  0.70987056  1
  Zr  Zr46  1  0.50178027  0.30124275  0.09574310  1
  Zr  Zr47  1  0.89678708  0.30571065  0.89510992  1
  Zr  Zr48  1  0.10284733  0.90054209  0.69784733  1
  Zr  Zr49  1  0.50543739  0.70112413  0.70262498  1
  Sc  Sc50  1  0.09501045  0.09597057  0.30600736  1
  Sc  Sc51  1  0.69930941  0.69901297  0.89984199  1
  Sc  Sc52  1  0.29887319  0.69085638  0.49620559  1
  Sc  Sc53  1  0.69152299  0.10414038  0.10565685  1
  Sc  Sc54  1  0.10522362  0.29916604  0.49482723  1
  Sc  Sc55  1  0.10460209  0.69410569  0.10560593  1
  Sc  Sc56  1  0.90006849  0.69116685  0.29657096  1
  Sc  Sc57  1  0.29372682  0.31275976  0.09392402  1
  Sc  Sc58  1  0.30312698  0.49881473  0.30416341  1
  Sc  Sc59  1  0.49830048  0.09206369  0.50120607  1
  Sc  Sc60  1  0.10074007  0.90467721  0.49781862  1
  Sc  Sc61  1  0.89576649  0.29880147  0.29526959  1
  Sc  Sc62  1  0.70007291  0.50205629  0.90264559  1
  Sc  Sc63  1  0.70112978  0.30636220  0.29573203  1
  Sc  Sc64  1  0.69979372  0.90284136  0.29965948  1
  Sc  Sc65  1  0.69869108  0.30289433  0.10240754  1
  Sc  Sc66  1  0.50488699  0.69511956  0.09664538  1
  Sc  Sc67  1  0.50833711  0.09243893  0.29976850  1
  Sc  Sc68  1  0.49507373  0.50319691  0.29368169  1
  Sc  Sc69  1  0.89317471  0.70216612  0.10070900  1
  Sc  Sc70  1  0.70107439  0.69518668  0.09861511  1
  Sc  Sc71  1  0.31820631  0.90213460  0.89796589  1
  Sc  Sc72  1  0.69743524  0.50632876  0.70469188  1
  Sc  Sc73  1  0.09417086  0.51052801  0.29797832  1
  Sc  Sc74  1  0.10914707  0.69233409  0.50063200  1
  Sc  Sc75  1  0.90119765  0.29409988  0.50110424  1
  Sc  Sc76  1  0.90208743  0.90088972  0.09394121  1
  Sc  Sc77  1  0.90186447  0.50013791  0.29602290  1
  Sc  Sc78  1  0.29944893  0.49458919  0.89959349  1
  Sc  Sc79  1  0.69609774  0.09746707  0.51676805  1
  Sc  Sc80  1  0.89328489  0.50102300  0.10228248  1
  Sc  Sc81  1  0.90345168  0.09659014  0.30085006  1
  Sc  Sc82  1  0.91039692  0.09654856  0.50020935  1
  Sc  Sc83  1  0.10207160  0.49226601  0.11192498  1
  Sc  Sc84  1  0.49375364  0.30703474  0.29933234  1
  Sc  Sc85  1  0.29953235  0.09777283  0.31109337  1
  Sc  Sc86  1  0.10260551  0.49524417  0.88645045  1
  Sc  Sc87  1  0.28832431  0.08712497  0.08657637  1
  Sc  Sc88  1  0.50487739  0.09376705  0.90432670  1
  Sc  Sc89  1  0.08141202  0.90992988  0.90157737  1
  Sc  Sc90  1  0.29474142  0.30103109  0.89760895  1
  Sc  Sc91  1  0.29693575  0.89757625  0.09893856  1
  Sc  Sc92  1  0.69674961  0.70639153  0.28947006  1
  Sc  Sc93  1  0.88838534  0.70236740  0.90238624  1
  Sc  Sc94  1  0.11349750  0.90230126  0.30137025  1
  Sc  Sc95  1  0.30860324  0.29842906  0.70656167  1
  Sc  Sc96  1  0.30629279  0.10891880  0.49841069  1
  Sc  Sc97  1  0.28898480  0.70209396  0.68766928  1
  Sc  Sc98  1  0.69578764  0.49475058  0.29311828  1
  Sc  Sc99  1  0.10433679  0.49812291  0.50432252  1
  Nb  Nb100  1  0.49502539  0.50409565  0.49928567  1
  Nb  Nb101  1  0.50460484  0.90250988  0.49694901  1
  Nb  Nb102  1  0.69531992  0.89793191  0.50166511  1
  Nb  Nb103  1  0.09713621  0.10775597  0.09813494  1
  Nb  Nb104  1  0.30164492  0.50016537  0.69528717  1
  Nb  Nb105  1  0.30970803  0.49861323  0.50698528  1
  Nb  Nb106  1  0.70244383  0.28332071  0.69436003  1
  Nb  Nb107  1  0.89546002  0.49716073  0.49990252  1
  Nb  Nb108  1  0.69779707  0.10925781  0.70034645  1
  Nb  Nb109  1  0.29874089  0.89942959  0.69878976  1
  Nb  Nb110  1  0.09849925  0.70124938  0.69734683  1
  Nb  Nb111  1  0.30442644  0.89723242  0.29812110  1
  Nb  Nb112  1  0.70735772  0.89891187  0.89847272  1
  Nb  Nb113  1  0.29843185  0.10795926  0.90150465  1
  Nb  Nb114  1  0.09277868  0.30229869  0.70809535  1
  Nb  Nb115  1  0.09778301  0.29238531  0.09760745  1
  Nb  Nb116  1  0.50207806  0.90087528  0.30327292  1
  Nb  Nb117  1  0.49545388  0.09778363  0.10124612  1
  Nb  Nb118  1  0.89504172  0.10920827  0.69837248  1
  Nb  Nb119  1  0.49636143  0.90598655  0.09935841  1
  Nb  Nb120  1  0.89817340  0.29600058  0.70050260  1
  Nb  Nb121  1  0.10036535  0.29840108  0.90522701  1
  Nb  Nb122  1  0.09462559  0.70052378  0.30158783  1
  Nb  Nb123  1  0.10422390  0.10474510  0.50429006  1
  Nb  Nb124  1  0.49784593  0.70028717  0.30424784  1
  Nb  Nb125  1  0.60438012  0.20218315  0.40253235  1
  Nb  Nb126  1  0.40565998  0.80424344  0.39824149  1
  Nb  Nb127  1  0.00580350  0.79952810  0.20650185  1
  Nb  Nb128  1  0.39710800  0.19561293  0.00346803  1
  Nb  Nb129  1  0.19722211  0.79975115  -0.00838863  1
  Nb  Nb130  1  -0.00410651  0.40349797  0.40124538  1
  Nb  Nb131  1  0.19503324  0.19847396  0.60694935  1
  Nb  Nb132  1  0.19547767  0.80196727  0.80150458  1
  Nb  Nb133  1  0.40567614  0.80509257  0.20609971  1
  Nb  Nb134  1  0.00215034  0.79542890  0.39872833  1
  Nb  Nb135  1  0.79352662  0.19797599  0.40217025  1
  Nb  Nb136  1  0.00321653  0.39717755  -0.00098002  1
  Nb  Nb137  1  0.80259128  0.39283312  0.60621433  1
  Nb  Nb138  1  0.39385997  0.19215740  0.19161905  1
  Nb  Nb139  1  -0.00071597  0.79627117  0.59916993  1
  Nb  Nb140  1  0.80187525  0.19938202  -0.00097288  1
  Nb  Nb141  1  0.19908767  0.19845651  0.19431868  1
  Nb  Nb142  1  -0.00039071  0.79512477  0.79239750  1
  Nb  Nb143  1  0.39801273  0.59721025  0.79184946  1
  Nb  Nb144  1  0.79270889  0.59432255  0.40356675  1
  Nb  Nb145  1  0.40127034  0.80743350  0.59408608  1
  Nb  Nb146  1  0.40134408  -0.00305986  0.20032627  1
  Nb  Nb147  1  -0.00056579  0.59256897  -0.00080465  1
  Nb  Nb148  1  0.59806676  0.60179582  0.40085174  1
  Nb  Nb149  1  0.20182451  0.00865765  0.60367109  1
  Pd  Pd150  1  0.20032997  0.00664272  0.40559370  1
  Pd  Pd151  1  0.80383801  0.80522334  0.60713723  1
  Pd  Pd152  1  0.00591382  0.60141200  0.59328632  1
  Pd  Pd153  1  0.00219575  -0.00374068  0.59598416  1
  Pd  Pd154  1  0.40922431  0.19426351  0.81041655  1
  Pd  Pd155  1  -0.00100089  0.20230691  0.80717615  1
  Pd  Pd156  1  -0.00217486  0.39258403  0.59283609  1
  Pd  Pd157  1  0.39712676  0.39259910  0.60383974  1
  Pd  Pd158  1  0.80092581  -0.00082308  0.19225192  1
  Pd  Pd159  1  0.79064760  0.40082091  0.78928109  1
  Pd  Pd160  1  0.40602840  0.00688033  0.80577279  1
  Pd  Pd161  1  0.80120753  0.79152262  0.38897255  1
  Pd  Pd162  1  0.20133201  -0.01280324  -0.01520912  1
  Pd  Pd163  1  0.41437062  0.19481690  0.39178890  1
  Pd  Pd164  1  0.39395537  0.39411734  0.19872281  1
  Pd  Pd165  1  0.60314764  0.79714666  0.39728087  1
  Pd  Pd166  1  0.61000842  0.00622845  0.40342412  1
  Pd  Pd167  1  0.20328319  0.39025706  0.60673894  1
  Pd  Pd168  1  0.20577954  0.01001582  0.20518512  1
  Pd  Pd169  1  0.80093511  0.19430231  0.80711610  1
  Pd  Pd170  1  0.20165515  -0.00743015  0.80618520  1
  Pd  Pd171  1  0.80130256  0.00662600  0.59989720  1
  Pd  Pd172  1  0.60769019  -0.00142088  0.00737416  1
  Pd  Pd173  1  0.79952264  0.40172450  0.19537970  1
  Pd  Pd174  1  0.39638695  0.00009055  0.60207020  1
  Pd  Pd175  1  -0.00389979  0.20608084  0.39509843  1
  Pd  Pd176  1  0.59308067  0.80042322  0.19558047  1
  Pd  Pd177  1  0.60532576  0.79626948  0.00193091  1
  Pd  Pd178  1  0.20145986  0.59064063  0.40098235  1
  Pd  Pd179  1  0.59027556  0.20664786  0.20865885  1
  Pd  Pd180  1  0.20321045  0.39359179  0.79325680  1
  Pd  Pd181  1  0.19890755  0.79871232  0.40668012  1
  Pd  Pd182  1  0.19102824  0.59531718  -0.00012059  1
  Pd  Pd183  1  0.39714601  0.60940951  0.60433278  1
  Pd  Pd184  1  0.40059765  0.60664237  0.20270480  1
  Pd  Pd185  1  0.19354294  0.41189552  0.39616728  1
  Pd  Pd186  1  0.20249063  0.59613507  0.20358428  1
  Pd  Pd187  1  0.79127611  0.00969962  0.40677040  1
  Pd  Pd188  1  0.40795167  0.59558607  -0.01102879  1
  Pd  Pd189  1  -0.00845015  0.60244085  0.80537194  1
  Pd  Pd190  1  0.00410955  0.78942749  0.00470611  1
  Pd  Pd191  1  0.00542426  0.20716252  0.59935461  1
  Pd  Pd192  1  0.60044734  0.19870032  -0.00391545  1
  Pd  Pd193  1  0.59681496  0.81048765  0.60610038  1
  Pd  Pd194  1  0.39933812  0.20310101  0.60123081  1
  Pd  Pd195  1  0.19080631  0.40640502  -0.00059170  1
  Pd  Pd196  1  0.59094606  0.40328117  0.39080826  1
  Pd  Pd197  1  0.79533932  0.00872269  0.01191349  1
  Pd  Pd198  1  0.20923007  0.60408262  0.79350350  1
  Pd  Pd199  1  0.79440143  0.59772491  0.20558070  1
  Rh  Rh200  1  0.81110394  0.39687594  0.40534167  1
  Rh  Rh201  1  0.19799936  0.79855558  0.19230957  1
  Rh  Rh202  1  0.20457015  0.39815449  0.20300661  1
  Rh  Rh203  1  0.80258932  0.01095814  0.79287958  1
  Rh  Rh204  1  0.61106756  0.80804976  0.80338368  1
  Rh  Rh205  1  0.80353581  0.39094253  0.00679134  1
  Rh  Rh206  1  -0.00742056  -0.00038594  0.79934636  1
  Rh  Rh207  1  0.00462207  -0.00720618  0.40299730  1
  Rh  Rh208  1  0.40118667  0.40883982  0.40187043  1
  Rh  Rh209  1  0.79817235  0.59832075  0.80207057  1
  Rh  Rh210  1  0.40262675  -0.00213646  0.39411189  1
  Rh  Rh211  1  0.80749991  0.19876773  0.59494895  1
  Rh  Rh212  1  0.60482007  0.40035446  -0.00112406  1
  Rh  Rh213  1  0.60934632  0.39776003  0.61020992  1
  Rh  Rh214  1  -0.00339460  0.60679067  0.18913539  1
  Rh  Rh215  1  0.00588041  -0.00442242  0.20079255  1
  Rh  Rh216  1  0.20079466  0.59139273  0.59959338  1
  Rh  Rh217  1  0.00938838  0.19565966  0.21025066  1
  Rh  Rh218  1  0.39623317  0.40925159  0.79634242  1
  Rh  Rh219  1  0.60977942  0.39888890  0.79256956  1
  Rh  Rh220  1  0.58999846  0.20013997  0.59135883  1
  Rh  Rh221  1  0.19511875  0.19711533  0.39961246  1
  Rh  Rh222  1  0.59704593  -0.00611024  0.19670431  1
  Rh  Rh223  1  0.59719951  0.60329487  -0.00538224  1
  Rh  Rh224  1  0.00259731  0.39633934  0.80377693  1
  Rh  Rh225  1  0.19485573  0.20863047  0.79658290  1
  Rh  Rh226  1  0.80231667  0.60086463  0.00015499  1
  Rh  Rh227  1  0.59746669  0.60012205  0.20517948  1
  Rh  Rh228  1  0.79295390  0.79908370  0.00264489  1
  Rh  Rh229  1  -0.00627470  0.59583323  0.40495098  1
  Rh  Rh230  1  0.79170855  0.58592896  0.59646748  1
  Rh  Rh231  1  0.59879364  0.19789355  0.80692580  1
  Rh  Rh232  1  0.80089344  0.79764057  0.79618459  1
  Rh  Rh233  1  0.80035823  0.20021113  0.19941277  1
  Rh  Rh234  1  0.39922750  0.00439565  0.00054334  1
  Rh  Rh235  1  0.00095401  0.00654053  0.00665132  1
  Rh  Rh236  1  0.59545277  0.40132481  0.19775529  1
  Rh  Rh237  1  0.60453727  0.59668765  0.59406875  1
  Rh  Rh238  1  0.81063875  0.80536619  0.20079158  1
  Rh  Rh239  1  0.59468437  0.60097451  0.80440640  1
  Rh  Rh240  1  0.20088534  0.80994029  0.59937537  1
  Rh  Rh241  1  0.40344426  0.60011985  0.40066290  1
  Rh  Rh242  1  -0.00744278  0.20569767  -0.00769628  1
  Rh  Rh243  1  0.20920645  0.20555496  0.00662403  1
  Rh  Rh244  1  0.39820121  0.80397993  0.01077174  1
  Rh  Rh245  1  0.60024648  -0.00641490  0.60263753  1
  Rh  Rh246  1  -0.00155516  0.40143901  0.19956783  1
  Rh  Rh247  1  0.60016419  -0.00304421  0.80039682  1
  Rh  Rh248  1  0.38684898  0.78824712  0.78366847  1
  Rh  Rh249  1  0.39777449  0.39724320  -0.00335202  1
