# generated using pymatgen
data_ZrScNbPdRh
_symmetry_space_group_name_H-M   'P 1'
_cell_length_a   16.56257194
_cell_length_b   16.55613702
_cell_length_c   16.55859300
_cell_angle_alpha   89.99827629
_cell_angle_beta   89.99796992
_cell_angle_gamma   90.00154819
_symmetry_Int_Tables_number   1
_chemical_formula_structural   ZrScNbPdRh
_chemical_formula_sum   'Zr50 Sc50 Nb50 Pd50 Rh50'
_cell_volume   4540.56838307
_cell_formula_units_Z   50
loop_
 _symmetry_equiv_pos_site_id
 _symmetry_equiv_pos_as_xyz
  1  'x, y, z'
loop_
 _atom_site_type_symbol
 _atom_site_label
 _atom_site_symmetry_multiplicity
 _atom_site_fract_x
 _atom_site_fract_y
 _atom_site_fract_z
 _atom_site_occupancy
  Zr  Zr0  1  0.29776607  0.09982389  0.50795148  1
  Zr  Zr1  1  0.09118264  0.29128841  0.30315505  1
  Zr  Zr2  1  0.09611024  0.69765833  0.70563559  1
  Zr  Zr3  1  0.69139354  0.29751366  0.09041565  1
  Zr  Zr4  1  0.69800230  0.70090485  0.69158212  1
  Zr  Zr5  1  0.89819116  0.71222563  0.70019904  1
  Zr  Zr6  1  0.30236030  0.90121033  0.91675635  1
  Zr  Zr7  1  0.29369989  0.30240425  0.09789144  1
  Zr  Zr8  1  0.70120847  0.29789274  0.70151906  1
  Zr  Zr9  1  0.10906062  0.49423560  0.09597934  1
  Zr  Zr10  1  0.89786791  0.30340421  0.30528921  1
  Zr  Zr11  1  0.89874986  0.29222870  0.69254541  1
  Zr  Zr12  1  0.30895016  0.69557901  0.09068905  1
  Zr  Zr13  1  0.50047528  0.09353463  0.50079394  1
  Zr  Zr14  1  0.49619451  0.70097793  0.29970105  1
  Zr  Zr15  1  0.09916831  0.30516119  0.91156633  1
  Zr  Zr16  1  0.11054031  0.50387829  0.70164897  1
  Zr  Zr17  1  0.70759079  0.70323911  0.90237632  1
  Zr  Zr18  1  0.70284196  0.10035385  0.09361220  1
  Zr  Zr19  1  0.10499573  0.10753368  0.49094403  1
  Zr  Zr20  1  0.09107637  0.90124393  0.69542999  1
  Zr  Zr21  1  0.10337921  0.89087296  0.09132160  1
  Zr  Zr22  1  0.89114388  0.09941406  0.89999014  1
  Zr  Zr23  1  0.90691747  0.30213479  0.49983018  1
  Zr  Zr24  1  0.09825169  0.30852325  0.70135509  1
  Zr  Zr25  1  0.90231070  0.10348552  0.29357260  1
  Zr  Zr26  1  0.70071185  0.30038120  0.89971648  1
  Zr  Zr27  1  0.29812237  0.29983843  0.50072478  1
  Zr  Zr28  1  0.69810939  0.49263772  0.90299377  1
  Zr  Zr29  1  0.09897158  0.30332701  0.49878035  1
  Zr  Zr30  1  0.10686250  0.09553139  0.69844838  1
  Zr  Zr31  1  0.50666987  0.10358651  0.69592982  1
  Zr  Zr32  1  0.90367934  0.90160684  0.51197363  1
  Zr  Zr33  1  0.29479390  0.69079060  0.70346528  1
  Zr  Zr34  1  0.69845180  0.29680861  0.30201213  1
  Zr  Zr35  1  0.10052534  0.69992367  0.11000218  1
  Zr  Zr36  1  0.89544169  0.50898946  0.90396173  1
  Zr  Zr37  1  0.29262180  0.91115146  0.69867562  1
  Zr  Zr38  1  0.70400403  0.71237382  0.31310398  1
  Zr  Zr39  1  0.69726293  0.10028240  0.89710889  1
  Zr  Zr40  1  0.49264640  0.30738265  0.30491791  1
  Zr  Zr41  1  0.10295148  0.49527975  0.50533772  1
  Zr  Zr42  1  0.50411157  0.50540457  0.49028963  1
  Zr  Zr43  1  0.50395166  0.28889744  0.50243996  1
  Zr  Zr44  1  0.28723879  0.09224457  0.30593739  1
  Zr  Zr45  1  0.90363395  0.09208932  0.70349021  1
  Zr  Zr46  1  0.10891976  0.70270563  0.50319820  1
  Zr  Zr47  1  0.11381868  0.89283222  0.29136640  1
  Zr  Zr48  1  0.70049280  0.90917302  0.89868331  1
  Zr  Zr49  1  0.50025144  0.69893474  0.69510641  1
  Sc  Sc50  1  0.70114245  0.90911940  0.10773778  1
  Sc  Sc51  1  0.68589261  0.10096965  0.50039029  1
  Sc  Sc52  1  0.90617180  0.70675671  0.89423623  1
  Sc  Sc53  1  0.30091767  0.70234578  0.49784775  1
  Sc  Sc54  1  0.70582511  0.70154723  0.10586922  1
  Sc  Sc55  1  0.49283630  0.29835380  0.70309780  1
  Sc  Sc56  1  0.30238239  0.10344214  0.89843852  1
  Sc  Sc57  1  0.09795909  0.50057701  0.89316391  1
  Sc  Sc58  1  0.69524177  0.89183360  0.49714015  1
  Sc  Sc59  1  0.30310724  0.10123024  0.08560557  1
  Sc  Sc60  1  0.49538102  0.49141289  0.70864915  1
  Sc  Sc61  1  0.30812698  0.49508066  0.29760791  1
  Sc  Sc62  1  0.30057031  0.28900285  0.89983120  1
  Sc  Sc63  1  0.90443584  0.30192546  0.10516387  1
  Sc  Sc64  1  0.88970907  0.49548710  0.29863215  1
  Sc  Sc65  1  0.89349831  0.49444844  0.49496582  1
  Sc  Sc66  1  0.29376802  0.70199791  0.30033671  1
  Sc  Sc67  1  0.88942310  0.88883246  0.29547952  1
  Sc  Sc68  1  0.29473096  0.50852605  0.89439443  1
  Sc  Sc69  1  0.09217707  0.09880981  0.09309176  1
  Sc  Sc70  1  0.11333106  0.50410723  0.29221874  1
  Sc  Sc71  1  0.90806220  0.10322374  0.51111188  1
  Sc  Sc72  1  0.49014680  0.70615026  0.91255042  1
  Sc  Sc73  1  0.50644339  0.10399759  0.09595022  1
  Sc  Sc74  1  0.50607640  0.90193587  0.68600832  1
  Sc  Sc75  1  0.89132306  0.09543988  0.09500704  1
  Sc  Sc76  1  0.70683240  0.90392731  0.69815458  1
  Sc  Sc77  1  0.69660499  0.09341843  0.28512936  1
  Sc  Sc78  1  0.49861436  0.29744698  0.09601538  1
  Sc  Sc79  1  0.30347534  0.90087997  0.50025602  1
  Sc  Sc80  1  0.50550572  0.70545332  0.50209415  1
  Sc  Sc81  1  0.88542127  0.70209795  0.49728699  1
  Sc  Sc82  1  0.08981299  0.09632965  0.89616298  1
  Sc  Sc83  1  0.30078223  0.89248785  0.30116692  1
  Sc  Sc84  1  0.90282525  0.90449342  0.89242858  1
  Sc  Sc85  1  0.69784136  0.50134407  0.69439467  1
  Sc  Sc86  1  0.29393296  0.49235653  0.49740576  1
  Sc  Sc87  1  0.50855083  0.89728745  0.30143212  1
  Sc  Sc88  1  0.48527996  0.50277466  0.10792005  1
  Sc  Sc89  1  0.89919820  0.70279929  0.28608845  1
  Sc  Sc90  1  0.90905604  0.49663535  0.70091804  1
  Sc  Sc91  1  0.89770275  0.50572359  0.10497050  1
  Sc  Sc92  1  0.50404218  0.29772235  0.90199339  1
  Sc  Sc93  1  0.50306357  0.48872682  0.89962391  1
  Sc  Sc94  1  0.51020678  0.09367442  0.30374787  1
  Sc  Sc95  1  0.89793532  0.29787305  0.89589109  1
  Sc  Sc96  1  0.70876479  0.49892550  0.09489403  1
  Sc  Sc97  1  0.50232529  0.88999452  0.09584911  1
  Sc  Sc98  1  0.29429447  0.31048143  0.30193011  1
  Sc  Sc99  1  0.70521681  0.29856026  0.50053916  1
  Nb  Nb100  1  0.50599188  0.90547795  0.49833987  1
  Nb  Nb101  1  0.10501949  0.30499134  0.10110863  1
  Nb  Nb102  1  0.69321122  0.50139048  0.31078707  1
  Nb  Nb103  1  0.29787531  0.90132689  0.10275834  1
  Nb  Nb104  1  0.29910667  0.70555654  0.89773246  1
  Nb  Nb105  1  0.69591820  0.51433382  0.49519076  1
  Nb  Nb106  1  0.30504843  0.29664785  0.69909129  1
  Nb  Nb107  1  0.30313869  0.10852164  0.70411179  1
  Nb  Nb108  1  0.10315808  0.89347963  0.90308865  1
  Nb  Nb109  1  0.90346599  0.89230198  0.10380035  1
  Nb  Nb110  1  0.50430903  0.69496681  0.10241971  1
  Nb  Nb111  1  0.09741350  0.89792504  0.50311586  1
  Nb  Nb112  1  0.10218216  0.70190516  0.30139098  1
  Nb  Nb113  1  0.50141707  0.49782083  0.30223810  1
  Nb  Nb114  1  0.90246757  0.70480167  0.09854361  1
  Nb  Nb115  1  0.70119185  0.90334014  0.30323873  1
  Nb  Nb116  1  0.50250432  0.90135177  0.89536193  1
  Nb  Nb117  1  0.29432565  0.49478075  0.10347487  1
  Nb  Nb118  1  0.09732563  0.09661525  0.29911222  1
  Nb  Nb119  1  0.69148347  0.68506143  0.50430258  1
  Nb  Nb120  1  0.49917924  0.09498403  0.89447623  1
  Nb  Nb121  1  0.69952374  0.09821939  0.70545334  1
  Nb  Nb122  1  0.90131704  0.90363312  0.69588364  1
  Nb  Nb123  1  0.10116003  0.70441002  0.90505953  1
  Nb  Nb124  1  0.29978306  0.49717149  0.69873443  1
  Nb  Nb125  1  0.59976178  0.40201786  0.59420284  1
  Nb  Nb126  1  0.00134748  -0.00640121  0.39383121  1
  Nb  Nb127  1  0.00536841  0.79964477  0.39940066  1
  Nb  Nb128  1  0.40445439  -0.00108474  0.79962092  1
  Nb  Nb129  1  0.00211297  0.60848947  0.00305933  1
  Nb  Nb130  1  0.79684209  0.60336125  0.79781099  1
  Nb  Nb131  1  0.80192567  0.19308426  0.39816849  1
  Nb  Nb132  1  0.39620208  0.00035989  0.19620041  1
  Nb  Nb133  1  0.39190781  0.19344458  0.20659859  1
  Nb  Nb134  1  0.59911494  0.40890675  0.20555455  1
  Nb  Nb135  1  0.80661018  0.80414716  0.00369059  1
  Nb  Nb136  1  0.00187637  -0.00695175  0.20288832  1
  Nb  Nb137  1  0.59579182  0.80029937  0.80244087  1
  Nb  Nb138  1  0.59688147  0.60205674  0.00574494  1
  Nb  Nb139  1  0.60229038  0.60627746  0.80743243  1
  Nb  Nb140  1  0.20089756  0.80246875  0.80804643  1
  Nb  Nb141  1  0.00504660  0.60752257  0.39827116  1
  Nb  Nb142  1  0.39638531  0.59322305  0.60337131  1
  Nb  Nb143  1  0.59950882  0.59777967  0.20562327  1
  Nb  Nb144  1  0.39009682  0.40237387  0.00387399  1
  Nb  Nb145  1  0.00197636  0.60383248  0.59375284  1
  Nb  Nb146  1  0.19566162  0.19845813  0.19878550  1
  Nb  Nb147  1  0.39760640  0.80667830  0.80098279  1
  Nb  Nb148  1  0.39611428  0.19520120  0.39758429  1
  Nb  Nb149  1  0.80274135  0.00170107  0.39854821  1
  Pd  Pd150  1  0.00344947  0.20103304  0.79963464  1
  Pd  Pd151  1  0.39087453  0.39421749  0.81124106  1
  Pd  Pd152  1  0.59702756  0.20477727  0.80100856  1
  Pd  Pd153  1  0.79129937  0.60231530  0.20639577  1
  Pd  Pd154  1  0.78981697  0.39833357  0.19809680  1
  Pd  Pd155  1  0.79329401  0.18883523  0.59470748  1
  Pd  Pd156  1  0.00429738  0.40864900  0.20414794  1
  Pd  Pd157  1  0.79140595  0.80240645  0.59400052  1
  Pd  Pd158  1  0.20948699  0.39357019  0.80497778  1
  Pd  Pd159  1  0.58937790  0.20543546  0.20313396  1
  Pd  Pd160  1  0.81120954  0.59254900  0.60570857  1
  Pd  Pd161  1  0.20406130  -0.00215125  0.81082909  1
  Pd  Pd162  1  -0.00720417  0.40887215  0.00089737  1
  Pd  Pd163  1  0.39790264  0.80417075  0.19550032  1
  Pd  Pd164  1  0.79070805  0.00736851  0.59233491  1
  Pd  Pd165  1  0.79872899  0.20487663  0.19808730  1
  Pd  Pd166  1  0.40258891  -0.00137524  0.39118260  1
  Pd  Pd167  1  -0.00569376  0.20264005  0.00404012  1
  Pd  Pd168  1  0.19679518  0.20686157  0.60611622  1
  Pd  Pd169  1  0.79388932  0.40749941  0.59476337  1
  Pd  Pd170  1  0.40584378  0.80376293  0.40415299  1
  Pd  Pd171  1  -0.00594640  -0.00687468  0.00186567  1
  Pd  Pd172  1  -0.00590072  0.39926316  0.80375832  1
  Pd  Pd173  1  0.41067589  0.00067335  0.00321989  1
  Pd  Pd174  1  0.20512327  0.80227840  0.60610083  1
  Pd  Pd175  1  0.19991453  0.00823752  0.18621324  1
  Pd  Pd176  1  0.60589694  0.79794208  0.20069743  1
  Pd  Pd177  1  0.00072886  0.59418139  0.20193181  1
  Pd  Pd178  1  0.19630240  -0.01098943  0.40786331  1
  Pd  Pd179  1  0.19448476  0.00856960  -0.00279428  1
  Pd  Pd180  1  0.40872801  0.60337095  0.80244873  1
  Pd  Pd181  1  0.40430478  0.58943243  -0.00773579  1
  Pd  Pd182  1  0.20291360  0.59577409  0.39840134  1
  Pd  Pd183  1  0.40633263  0.40486034  0.59390860  1
  Pd  Pd184  1  0.60504276  0.39512811  0.40575966  1
  Pd  Pd185  1  0.81048192  0.39276724  0.00488238  1
  Pd  Pd186  1  0.39379319  0.60059414  0.40433428  1
  Pd  Pd187  1  0.80402030  0.40627949  0.79568487  1
  Pd  Pd188  1  0.80830713  0.60326163  0.39293536  1
  Pd  Pd189  1  0.00649521  0.41633333  0.38910576  1
  Pd  Pd190  1  0.00345884  0.80722663  0.80280934  1
  Pd  Pd191  1  0.19312315  0.20367939  0.80282309  1
  Pd  Pd192  1  0.60784012  0.79674370  -0.00008627  1
  Pd  Pd193  1  0.40071184  0.00280842  0.60630122  1
  Pd  Pd194  1  0.19573591  0.60099785  -0.00338808  1
  Pd  Pd195  1  0.19196956  0.19321401  0.00072060  1
  Pd  Pd196  1  0.59556855  -0.00039978  0.00549527  1
  Pd  Pd197  1  0.39683111  0.60076098  0.20590851  1
  Pd  Pd198  1  0.00249718  0.19488434  0.18817646  1
  Pd  Pd199  1  0.39545789  0.79649219  0.60233035  1
  Rh  Rh200  1  0.00337278  0.80446467  0.20597931  1
  Rh  Rh201  1  0.19881426  0.80392757  0.40505544  1
  Rh  Rh202  1  0.20719645  0.40462020  -0.01011868  1
  Rh  Rh203  1  0.80618069  -0.00422224  0.20337862  1
  Rh  Rh204  1  0.20572510  0.39354318  0.60738984  1
  Rh  Rh205  1  0.39806752  0.19673121  0.59768898  1
  Rh  Rh206  1  0.00966462  0.19882596  0.60635908  1
  Rh  Rh207  1  0.60818678  -0.00395000  0.39972251  1
  Rh  Rh208  1  0.40124026  0.80320705  0.00391302  1
  Rh  Rh209  1  0.59729709  0.61160614  0.39096662  1
  Rh  Rh210  1  0.79194462  0.80262461  0.19195598  1
  Rh  Rh211  1  0.58562505  0.41318811  0.01823048  1
  Rh  Rh212  1  -0.00348322  0.60089317  0.80159451  1
  Rh  Rh213  1  0.80339088  0.80582766  0.40661560  1
  Rh  Rh214  1  0.00956034  0.00765488  0.59498152  1
  Rh  Rh215  1  0.80538581  -0.00935289  0.00212877  1
  Rh  Rh216  1  0.20463732  0.59626553  0.59738947  1
  Rh  Rh217  1  -0.00268564  0.79046737  0.59342396  1
  Rh  Rh218  1  0.20535418  0.20681308  0.39154774  1
  Rh  Rh219  1  -0.00554559  0.79810554  -0.00302485  1
  Rh  Rh220  1  0.79586256  0.80517432  0.80296852  1
  Rh  Rh221  1  -0.00005582  0.40613050  0.60158097  1
  Rh  Rh222  1  0.60174391  0.19619366  0.39417077  1
  Rh  Rh223  1  0.80681847  0.61142672  -0.00371212  1
  Rh  Rh224  1  0.60730693  -0.00334137  0.60111431  1
  Rh  Rh225  1  0.20465487  0.79197976  0.00257010  1
  Rh  Rh226  1  0.40420153  0.19395351  0.80052204  1
  Rh  Rh227  1  0.79949380  0.19620679  0.79767649  1
  Rh  Rh228  1  0.19430137  0.39978293  0.39544242  1
  Rh  Rh229  1  0.59790933  0.19329030  -0.00941318  1
  Rh  Rh230  1  0.59087732  -0.00587574  0.19622668  1
  Rh  Rh231  1  0.19471154  0.39312680  0.20543882  1
  Rh  Rh232  1  0.39895799  0.39682613  0.40835307  1
  Rh  Rh233  1  0.40679192  0.20430151  -0.00015388  1
  Rh  Rh234  1  0.20994232  0.60327819  0.19917575  1
  Rh  Rh235  1  0.19537466  0.00074457  0.59332463  1
  Rh  Rh236  1  0.21190823  0.79061079  0.19021208  1
  Rh  Rh237  1  0.60437726  0.20597748  0.60713149  1
  Rh  Rh238  1  0.59482291  -0.00593990  0.79119456  1
  Rh  Rh239  1  0.40363586  0.39248527  0.19270613  1
  Rh  Rh240  1  0.60427152  0.40023891  0.78822879  1
  Rh  Rh241  1  0.80165519  0.20594412  0.00012169  1
  Rh  Rh242  1  0.00161787  -0.00397339  0.80164431  1
  Rh  Rh243  1  0.60429493  0.80416199  0.59845148  1
  Rh  Rh244  1  -0.00935535  0.19236252  0.40366654  1
  Rh  Rh245  1  0.79221368  0.39625597  0.40537811  1
  Rh  Rh246  1  0.59754302  0.79899174  0.40489990  1
  Rh  Rh247  1  0.80178598  -0.00072091  0.79535285  1
  Rh  Rh248  1  0.58622795  0.58636806  0.60847799  1
  Rh  Rh249  1  0.19644539  0.60588971  0.80690661  1
