# generated using pymatgen
data_ZrScNbPdRh
_symmetry_space_group_name_H-M   'P 1'
_cell_length_a   16.56253167
_cell_length_b   16.56198616
_cell_length_c   16.56027917
_cell_angle_alpha   90.02257650
_cell_angle_beta   90.04879655
_cell_angle_gamma   90.01527907
_symmetry_Int_Tables_number   1
_chemical_formula_structural   ZrScNbPdRh
_chemical_formula_sum   'Zr50 Sc50 Nb50 Pd50 Rh50'
_cell_volume   4542.62185732
_cell_formula_units_Z   50
loop_
 _symmetry_equiv_pos_site_id
 _symmetry_equiv_pos_as_xyz
  1  'x, y, z'
loop_
 _atom_site_type_symbol
 _atom_site_label
 _atom_site_symmetry_multiplicity
 _atom_site_fract_x
 _atom_site_fract_y
 _atom_site_fract_z
 _atom_site_occupancy
  Zr  Zr0  1  0.10210210  0.49669401  0.70169855  1
  Zr  Zr1  1  0.50025996  0.69840208  0.09450870  1
  Zr  Zr2  1  0.90042253  0.89058182  0.10092984  1
  Zr  Zr3  1  0.69490987  0.88966793  0.51198317  1
  Zr  Zr4  1  0.49102336  0.10378960  0.69292353  1
  Zr  Zr5  1  0.90495336  0.70161501  0.29860789  1
  Zr  Zr6  1  0.29946849  0.10201616  0.70442051  1
  Zr  Zr7  1  0.70324670  0.31000730  0.89656135  1
  Zr  Zr8  1  0.70358423  0.70383069  0.08757240  1
  Zr  Zr9  1  0.90557155  0.50024320  0.69872414  1
  Zr  Zr10  1  0.30234279  0.10007473  0.29814942  1
  Zr  Zr11  1  0.08945244  0.69935898  0.08985350  1
  Zr  Zr12  1  0.28835846  0.70650913  0.49912879  1
  Zr  Zr13  1  0.69662647  0.50158535  0.89399190  1
  Zr  Zr14  1  0.49844303  0.30024713  0.10197365  1
  Zr  Zr15  1  0.50377799  0.30888301  0.30440577  1
  Zr  Zr16  1  0.69509586  0.70700086  0.69674865  1
  Zr  Zr17  1  0.70923549  0.49686521  0.50268218  1
  Zr  Zr18  1  0.49366468  0.30620418  0.89507266  1
  Zr  Zr19  1  0.89813611  0.89876415  0.29597521  1
  Zr  Zr20  1  0.10189285  0.29699999  0.10391128  1
  Zr  Zr21  1  0.49551559  0.90042504  0.89750607  1
  Zr  Zr22  1  0.89997838  0.49939941  0.29995972  1
  Zr  Zr23  1  0.90198151  0.69489150  0.49831375  1
  Zr  Zr24  1  0.69135904  0.09529284  0.09592810  1
  Zr  Zr25  1  0.69713835  0.29961857  0.30585989  1
  Zr  Zr26  1  0.29365745  0.10024896  0.89579600  1
  Zr  Zr27  1  0.09738480  0.70490148  0.89930647  1
  Zr  Zr28  1  0.69231507  0.69963731  0.90551932  1
  Zr  Zr29  1  0.09994479  0.69383191  0.70321268  1
  Zr  Zr30  1  0.89897013  0.30746553  0.30078758  1
  Zr  Zr31  1  0.29480338  0.10271715  0.10018747  1
  Zr  Zr32  1  0.10494724  0.10767974  0.29701191  1
  Zr  Zr33  1  0.69974708  0.50803096  0.08874451  1
  Zr  Zr34  1  0.69931970  0.90087801  0.09898048  1
  Zr  Zr35  1  0.10139316  0.69672949  0.50039785  1
  Zr  Zr36  1  0.50427573  0.29379721  0.50113686  1
  Zr  Zr37  1  0.50526945  0.10323359  0.50471172  1
  Zr  Zr38  1  0.70427260  0.10661234  0.69121187  1
  Zr  Zr39  1  0.09156849  0.11046692  0.50716378  1
  Zr  Zr40  1  0.30512922  0.89837467  0.09590419  1
  Zr  Zr41  1  0.10326669  0.29609076  0.68899255  1
  Zr  Zr42  1  0.70820822  0.90209136  0.29543791  1
  Zr  Zr43  1  0.30441242  0.70183791  0.09352976  1
  Zr  Zr44  1  0.90141702  0.30133731  0.90436916  1
  Zr  Zr45  1  0.70472184  0.69880551  0.50269214  1
  Zr  Zr46  1  0.89619307  0.09254157  0.29931584  1
  Zr  Zr47  1  0.10210598  0.09779439  0.08821789  1
  Zr  Zr48  1  0.90686418  0.09752303  0.89762303  1
  Zr  Zr49  1  0.10198380  0.88932187  0.49824174  1
  Sc  Sc50  1  0.69911430  0.31522716  0.69282073  1
  Sc  Sc51  1  0.29974519  0.49594993  0.30373454  1
  Sc  Sc52  1  0.29348253  0.30524164  0.09633618  1
  Sc  Sc53  1  0.10050520  0.49507688  0.10487488  1
  Sc  Sc54  1  0.89598251  0.10754643  0.50700952  1
  Sc  Sc55  1  0.49564840  0.50697670  0.10996771  1
  Sc  Sc56  1  0.09888392  0.29272034  0.90081961  1
  Sc  Sc57  1  0.29641078  0.49654836  0.10426233  1
  Sc  Sc58  1  0.09331268  0.88866009  0.30158851  1
  Sc  Sc59  1  0.50562218  0.09797843  0.10483943  1
  Sc  Sc60  1  0.50208571  0.90260252  0.69680525  1
  Sc  Sc61  1  0.30015641  0.69829837  0.30206407  1
  Sc  Sc62  1  0.29213842  0.30362535  0.30670055  1
  Sc  Sc63  1  0.10187817  0.49547696  0.29699200  1
  Sc  Sc64  1  0.70273968  0.49264642  0.29898203  1
  Sc  Sc65  1  0.89619960  0.90338530  0.50362374  1
  Sc  Sc66  1  0.10420506  0.30167063  0.30848770  1
  Sc  Sc67  1  0.50259234  0.10038405  0.30059342  1
  Sc  Sc68  1  0.89865135  0.70300842  0.70288315  1
  Sc  Sc69  1  0.29223717  0.89531180  0.89947276  1
  Sc  Sc70  1  0.31590133  0.89613197  0.29794427  1
  Sc  Sc71  1  0.30052209  0.29693033  0.89933406  1
  Sc  Sc72  1  0.90559748  0.08778071  0.09657734  1
  Sc  Sc73  1  0.30299424  0.49200557  0.89216871  1
  Sc  Sc74  1  0.90770255  0.49040087  0.09566105  1
  Sc  Sc75  1  0.70201525  0.90037683  0.90544028  1
  Sc  Sc76  1  0.31510745  0.10237155  0.50456718  1
  Sc  Sc77  1  0.09858160  0.69723434  0.30554856  1
  Sc  Sc78  1  0.90251148  0.30160237  0.70077918  1
  Sc  Sc79  1  0.49106970  0.90346148  0.50560062  1
  Sc  Sc80  1  0.29438275  0.69328273  0.70343321  1
  Sc  Sc81  1  0.69626875  0.09927835  0.29561651  1
  Sc  Sc82  1  0.49656194  0.50781669  0.89004216  1
  Sc  Sc83  1  0.90396961  0.49949710  0.49973292  1
  Sc  Sc84  1  0.49845478  0.10682728  0.90649183  1
  Sc  Sc85  1  0.30693059  0.70554564  0.89723704  1
  Sc  Sc86  1  0.91031865  0.09335670  0.69585096  1
  Sc  Sc87  1  0.71239157  0.69847953  0.30269855  1
  Sc  Sc88  1  0.29627923  0.29428813  0.70813707  1
  Sc  Sc89  1  0.49759083  0.69879183  0.70841412  1
  Sc  Sc90  1  0.29597452  0.50419289  0.49805901  1
  Sc  Sc91  1  0.49020280  0.49592428  0.49748189  1
  Sc  Sc92  1  0.70137233  0.10870967  0.50003941  1
  Sc  Sc93  1  0.89783056  0.49091978  0.90230173  1
  Sc  Sc94  1  0.71069468  0.89688989  0.70108343  1
  Sc  Sc95  1  0.50036623  0.90307100  0.10390039  1
  Sc  Sc96  1  0.30000873  0.90612562  0.71046217  1
  Sc  Sc97  1  0.50063856  0.49883369  0.70735769  1
  Sc  Sc98  1  0.69418222  0.30244464  0.10431330  1
  Sc  Sc99  1  0.49096847  0.69765147  0.50400880  1
  Nb  Nb100  1  0.10014719  0.09779422  0.69943754  1
  Nb  Nb101  1  0.50167462  0.70139630  0.90126122  1
  Nb  Nb102  1  0.69976925  0.50381077  0.70416635  1
  Nb  Nb103  1  0.90785735  0.90322166  0.70378075  1
  Nb  Nb104  1  0.49961552  0.69917088  0.29592845  1
  Nb  Nb105  1  0.29858168  0.30986560  0.50131451  1
  Nb  Nb106  1  0.10213105  0.30752867  0.50382212  1
  Nb  Nb107  1  0.50195031  0.89714540  0.29658945  1
  Nb  Nb108  1  0.09999549  0.49018966  0.51272907  1
  Nb  Nb109  1  0.09866000  0.50808695  0.89856579  1
  Nb  Nb110  1  0.90400931  0.89830555  0.88722265  1
  Nb  Nb111  1  0.10178837  0.09763639  0.89861459  1
  Nb  Nb112  1  0.90379736  0.29703465  0.09740414  1
  Nb  Nb113  1  0.10115105  0.89831429  0.90248509  1
  Nb  Nb114  1  0.10570726  0.89667612  0.09009958  1
  Nb  Nb115  1  0.09014480  0.90373431  0.70356912  1
  Nb  Nb116  1  0.90109684  0.29774835  0.49861307  1
  Nb  Nb117  1  0.70640540  0.29627452  0.49982612  1
  Nb  Nb118  1  0.70033760  0.10238039  0.90034291  1
  Nb  Nb119  1  0.89747121  0.69721581  0.09177434  1
  Nb  Nb120  1  0.49940007  0.29737976  0.69858837  1
  Nb  Nb121  1  0.89683943  0.69978729  0.91300155  1
  Nb  Nb122  1  0.50035329  0.50473022  0.30450262  1
  Nb  Nb123  1  0.29378320  0.89999771  0.50079939  1
  Nb  Nb124  1  0.30325736  0.49425232  0.70209991  1
  Nb  Nb125  1  0.79649995  0.60125260  0.80330261  1
  Nb  Nb126  1  0.39904132  0.20526131  0.20168801  1
  Nb  Nb127  1  0.00211614  0.80284331  0.60537906  1
  Nb  Nb128  1  0.80664643  0.60237495  0.19083595  1
  Nb  Nb129  1  0.19642111  0.59873000  -0.00506895  1
  Nb  Nb130  1  0.60469260  0.01137736  0.80002621  1
  Nb  Nb131  1  0.39570343  0.39561948  0.60495070  1
  Nb  Nb132  1  0.19840408  0.80163465  0.19074819  1
  Nb  Nb133  1  0.59442698  0.79836160  0.39608671  1
  Nb  Nb134  1  0.59897937  0.79543007  0.20603118  1
  Nb  Nb135  1  0.59501171  0.40434241  -0.00299231  1
  Nb  Nb136  1  0.60022996  -0.00986473  0.40079773  1
  Nb  Nb137  1  0.79671584  0.19783986  0.80316331  1
  Nb  Nb138  1  0.00468804  0.00239943  0.40175607  1
  Nb  Nb139  1  0.60327814  0.20192435  0.79598770  1
  Nb  Nb140  1  0.19413926  -0.00019888  0.59939287  1
  Nb  Nb141  1  0.19917899  -0.00159726  0.40208631  1
  Nb  Nb142  1  0.39523531  0.00198932  -0.00076017  1
  Nb  Nb143  1  0.38800734  0.80087298  0.59957215  1
  Nb  Nb144  1  0.80549000  0.20068568  0.19281910  1
  Nb  Nb145  1  0.80060345  0.19922826  0.00007860  1
  Nb  Nb146  1  -0.00462356  0.20123387  0.19882728  1
  Nb  Nb147  1  0.59683910  0.60171451  0.39856788  1
  Nb  Nb148  1  0.19780530  -0.00865651  0.20010751  1
  Nb  Nb149  1  0.60276801  0.59628766  0.59794086  1
  Pd  Pd150  1  0.79690371  0.00554710  0.79667460  1
  Pd  Pd151  1  0.20665284  0.19644419  0.41357385  1
  Pd  Pd152  1  0.01166801  0.40102129  -0.00263189  1
  Pd  Pd153  1  0.19220277  -0.00344334  0.79745343  1
  Pd  Pd154  1  0.40236966  0.59798779  0.60719769  1
  Pd  Pd155  1  0.40002538  0.20735808  0.39485637  1
  Pd  Pd156  1  0.40371047  -0.00125939  0.40171961  1
  Pd  Pd157  1  0.40432792  0.41092616  0.00106209  1
  Pd  Pd158  1  0.01139683  0.00038524  0.20410834  1
  Pd  Pd159  1  0.20864453  0.59925631  0.80904194  1
  Pd  Pd160  1  0.19320037  0.59135595  0.39933124  1
  Pd  Pd161  1  0.60051569  0.40817614  0.19421608  1
  Pd  Pd162  1  0.80092188  0.80268605  0.40372252  1
  Pd  Pd163  1  0.60354690  -0.00020608  0.60190585  1
  Pd  Pd164  1  0.80007829  0.79365834  0.80600537  1
  Pd  Pd165  1  0.19537682  0.40608630  -0.00779144  1
  Pd  Pd166  1  -0.00358987  0.59709120  0.19628576  1
  Pd  Pd167  1  0.39228551  0.60018983  0.20511438  1
  Pd  Pd168  1  0.39435373  0.39676058  0.20595927  1
  Pd  Pd169  1  0.00493811  0.79577475  0.19559202  1
  Pd  Pd170  1  0.79768959  0.40172504  0.19101347  1
  Pd  Pd171  1  0.80028550  0.60135885  0.61017513  1
  Pd  Pd172  1  0.19952293  0.80759427  0.61696307  1
  Pd  Pd173  1  0.60084218  0.81094598  0.80026625  1
  Pd  Pd174  1  0.39811824  0.79912007  0.79227314  1
  Pd  Pd175  1  0.39672546  0.19621516  0.00650028  1
  Pd  Pd176  1  0.00772231  0.39606112  0.80181976  1
  Pd  Pd177  1  0.20867968  0.19495290  0.59434612  1
  Pd  Pd178  1  0.00872584  0.58903273  0.40418985  1
  Pd  Pd179  1  -0.00154264  -0.01005955  -0.00617338  1
  Pd  Pd180  1  0.19496391  0.39368993  0.80295915  1
  Pd  Pd181  1  0.20040412  0.60684338  0.19207649  1
  Pd  Pd182  1  -0.01273881  0.60184166  0.80781332  1
  Pd  Pd183  1  0.80797714  0.39682828  0.60011091  1
  Pd  Pd184  1  0.60469920  0.21102130  -0.00583513  1
  Pd  Pd185  1  0.80147228  -0.00048150  0.59968267  1
  Pd  Pd186  1  0.59227317  0.40693089  0.59677803  1
  Pd  Pd187  1  0.79950125  0.19778087  0.39354936  1
  Pd  Pd188  1  0.00488292  0.40380986  0.40343966  1
  Pd  Pd189  1  0.40213424  0.79859244  0.40635789  1
  Pd  Pd190  1  0.80502412  -0.00134024  -0.00224482  1
  Pd  Pd191  1  -0.00127297  0.79547009  0.79921912  1
  Pd  Pd192  1  0.61152183  0.60509207  0.20788568  1
  Pd  Pd193  1  -0.00477946  0.19909724  0.39628283  1
  Pd  Pd194  1  0.40013232  0.60245521  0.39825581  1
  Pd  Pd195  1  0.20140535  0.59140862  0.60107552  1
  Pd  Pd196  1  0.39385843  0.59169494  -0.00719952  1
  Pd  Pd197  1  0.79591751  0.00120756  0.41165871  1
  Pd  Pd198  1  -0.00095359  0.19870183  0.79336212  1
  Pd  Pd199  1  0.60158041  0.40785635  0.40945420  1
  Rh  Rh200  1  0.40723853  0.80689085  -0.00230220  1
  Rh  Rh201  1  0.80541617  0.20926472  0.60520470  1
  Rh  Rh202  1  0.59238575  0.80551703  0.00566698  1
  Rh  Rh203  1  0.81157322  0.59081337  -0.00226738  1
  Rh  Rh204  1  0.39795436  0.39962762  0.40491807  1
  Rh  Rh205  1  0.00607866  -0.00690783  0.59238108  1
  Rh  Rh206  1  0.79765110  0.59107120  0.38975915  1
  Rh  Rh207  1  0.39208915  0.21351754  0.60089166  1
  Rh  Rh208  1  0.00138646  0.59181597  -0.00288984  1
  Rh  Rh209  1  0.80627008  0.40476660  0.79080180  1
  Rh  Rh210  1  -0.00518711  0.39424364  0.59509510  1
  Rh  Rh211  1  0.19936468  0.79049228  -0.00107079  1
  Rh  Rh212  1  0.20093947  0.20118354  0.19764582  1
  Rh  Rh213  1  0.20886120  0.40332817  0.60324857  1
  Rh  Rh214  1  0.60419225  0.60675433  0.79464880  1
  Rh  Rh215  1  0.60380418  0.19291183  0.39922540  1
  Rh  Rh216  1  0.19534206  0.80247699  0.79939386  1
  Rh  Rh217  1  0.39897648  0.39649941  0.79139655  1
  Rh  Rh218  1  0.58910968  -0.00380297  -0.01078396  1
  Rh  Rh219  1  0.20140457  0.39711440  0.20471891  1
  Rh  Rh220  1  0.39687277  0.60273521  0.80071952  1
  Rh  Rh221  1  -0.00167892  0.19705951  0.00466404  1
  Rh  Rh222  1  0.00338980  0.60531417  0.59913822  1
  Rh  Rh223  1  0.81636099  0.80224441  0.60476075  1
  Rh  Rh224  1  0.38802439  -0.00975507  0.60328333  1
  Rh  Rh225  1  -0.00742474  0.80905040  -0.00727470  1
  Rh  Rh226  1  0.20959893  0.80780288  0.38092272  1
  Rh  Rh227  1  0.40977441  0.00772817  0.80748960  1
  Rh  Rh228  1  0.40285575  0.79151720  0.19709289  1
  Rh  Rh229  1  0.19960256  0.20404091  -0.00655131  1
  Rh  Rh230  1  0.59678715  0.20246252  0.20736318  1
  Rh  Rh231  1  0.80268413  0.39769237  0.40792498  1
  Rh  Rh232  1  0.79228413  0.39449824  0.00854260  1
  Rh  Rh233  1  0.19082681  0.19974651  0.80228436  1
  Rh  Rh234  1  0.40479600  0.19890630  0.79937888  1
  Rh  Rh235  1  0.79707608  0.00809436  0.18814755  1
  Rh  Rh236  1  0.58514701  0.59287721  -0.00489282  1
  Rh  Rh237  1  0.58265185  0.79040458  0.59573386  1
  Rh  Rh238  1  -0.01222824  0.80476810  0.40855986  1
  Rh  Rh239  1  0.79577147  0.78906161  0.19416716  1
  Rh  Rh240  1  0.19472442  0.40604363  0.40650060  1
  Rh  Rh241  1  0.00808985  0.00199109  0.80736409  1
  Rh  Rh242  1  0.80630147  0.80990387  -0.00816133  1
  Rh  Rh243  1  -0.00481195  0.20734326  0.60340026  1
  Rh  Rh244  1  0.60712680  0.20942978  0.60369741  1
  Rh  Rh245  1  0.60129358  -0.00679547  0.20840608  1
  Rh  Rh246  1  0.20438787  -0.00155080  -0.00194668  1
  Rh  Rh247  1  0.59462195  0.39623481  0.80076584  1
  Rh  Rh248  1  0.39736765  0.01129726  0.19338639  1
  Rh  Rh249  1  0.00465442  0.39079079  0.20310947  1
