# generated using pymatgen
data_ZrScNbPdRh
_symmetry_space_group_name_H-M   'P 1'
_cell_length_a   16.56187607
_cell_length_b   16.56568589
_cell_length_c   16.55759911
_cell_angle_alpha   89.98007991
_cell_angle_beta   90.02864659
_cell_angle_gamma   89.98852760
_symmetry_Int_Tables_number   1
_chemical_formula_structural   ZrScNbPdRh
_chemical_formula_sum   'Zr50 Sc50 Nb50 Pd50 Rh50'
_cell_volume   4542.72269754
_cell_formula_units_Z   50
loop_
 _symmetry_equiv_pos_site_id
 _symmetry_equiv_pos_as_xyz
  1  'x, y, z'
loop_
 _atom_site_type_symbol
 _atom_site_label
 _atom_site_symmetry_multiplicity
 _atom_site_fract_x
 _atom_site_fract_y
 _atom_site_fract_z
 _atom_site_occupancy
  Zr  Zr0  1  0.70378447  0.69844368  0.89415956  1
  Zr  Zr1  1  0.70982708  0.69874799  0.09221719  1
  Zr  Zr2  1  0.50553290  0.50292111  0.10240899  1
  Zr  Zr3  1  0.90328947  0.10563428  0.70305696  1
  Zr  Zr4  1  0.29615844  0.89859219  0.49879221  1
  Zr  Zr5  1  0.29451531  0.70193339  0.49714547  1
  Zr  Zr6  1  0.69659995  0.90569777  0.49637204  1
  Zr  Zr7  1  0.49880507  0.10374228  0.10370712  1
  Zr  Zr8  1  0.10097539  0.69435716  0.69746150  1
  Zr  Zr9  1  0.49975425  0.69607032  0.50293442  1
  Zr  Zr10  1  0.10859486  0.29813446  0.89930334  1
  Zr  Zr11  1  0.89925664  0.91001673  0.70253697  1
  Zr  Zr12  1  0.50317300  0.90195491  0.10369575  1
  Zr  Zr13  1  0.09854260  0.10456111  0.89819698  1
  Zr  Zr14  1  0.89734666  0.89407000  0.10185437  1
  Zr  Zr15  1  0.10605696  0.91048367  0.69591019  1
  Zr  Zr16  1  0.48841575  0.89173483  0.90082526  1
  Zr  Zr17  1  0.89971088  0.49099637  0.29851884  1
  Zr  Zr18  1  0.09332623  0.29929475  0.29791371  1
  Zr  Zr19  1  0.90829494  0.70180192  0.09867420  1
  Zr  Zr20  1  0.10333641  0.09981006  0.30154631  1
  Zr  Zr21  1  0.50812793  0.09081621  0.49650022  1
  Zr  Zr22  1  0.50402748  0.49241760  0.89973467  1
  Zr  Zr23  1  0.09579493  0.50224585  0.30560550  1
  Zr  Zr24  1  0.90250623  0.50250341  0.49175810  1
  Zr  Zr25  1  0.50669229  0.50221467  0.49653958  1
  Zr  Zr26  1  0.30380178  0.89956833  0.10714455  1
  Zr  Zr27  1  0.09742097  0.69813570  0.89572944  1
  Zr  Zr28  1  0.90171701  0.11545531  0.30840029  1
  Zr  Zr29  1  0.29768706  0.09245378  0.70003844  1
  Zr  Zr30  1  0.89409103  0.30568640  0.10825671  1
  Zr  Zr31  1  0.90309011  0.69278861  0.30231827  1
  Zr  Zr32  1  0.49999377  0.89783580  0.29580567  1
  Zr  Zr33  1  0.70587452  0.09393508  0.30301320  1
  Zr  Zr34  1  0.89943352  0.90585683  0.89972613  1
  Zr  Zr35  1  0.69698630  0.10430460  0.49966665  1
  Zr  Zr36  1  0.29271666  0.69201110  0.10738732  1
  Zr  Zr37  1  0.29916374  0.49225053  0.90981452  1
  Zr  Zr38  1  0.09906710  0.90409020  0.10737353  1
  Zr  Zr39  1  0.89476026  0.10017646  0.10588923  1
  Zr  Zr40  1  0.70303947  0.50002387  0.49374271  1
  Zr  Zr41  1  0.30744687  0.09848625  0.49342048  1
  Zr  Zr42  1  0.89457522  0.70125242  0.90641622  1
  Zr  Zr43  1  0.69536483  0.09821940  0.10046153  1
  Zr  Zr44  1  0.70362937  0.90258748  0.69619027  1
  Zr  Zr45  1  0.09552285  0.08945458  0.49951733  1
  Zr  Zr46  1  0.88568491  0.89084230  0.29914916  1
  Zr  Zr47  1  0.29820530  0.89786787  0.70829480  1
  Zr  Zr48  1  0.69788457  0.28940038  0.70197943  1
  Zr  Zr49  1  0.89587976  0.49571614  0.09275790  1
  Sc  Sc50  1  0.09267631  0.49901173  0.89708965  1
  Sc  Sc51  1  0.09612658  0.50892592  0.50790953  1
  Sc  Sc52  1  0.90326625  0.49930919  0.89829562  1
  Sc  Sc53  1  0.70771992  0.70188307  0.30488249  1
  Sc  Sc54  1  0.49086046  0.10332464  0.29977445  1
  Sc  Sc55  1  0.90671091  0.50092752  0.69263131  1
  Sc  Sc56  1  0.50135280  0.69515582  0.69349561  1
  Sc  Sc57  1  0.49893725  0.49755638  0.69409665  1
  Sc  Sc58  1  0.29826796  0.89878420  0.89490818  1
  Sc  Sc59  1  0.69893283  0.49134099  0.09389967  1
  Sc  Sc60  1  0.50330342  0.29869920  0.71209866  1
  Sc  Sc61  1  0.69301895  0.30033187  0.89937283  1
  Sc  Sc62  1  0.50008628  0.10741568  0.90680061  1
  Sc  Sc63  1  0.69807176  0.10159635  0.70225056  1
  Sc  Sc64  1  0.29619947  0.10697681  0.89794750  1
  Sc  Sc65  1  0.09353444  0.30417226  0.49901646  1
  Sc  Sc66  1  0.50495653  0.29521116  0.29645401  1
  Sc  Sc67  1  0.31220345  0.29625082  0.70982260  1
  Sc  Sc68  1  0.88873312  0.69516648  0.49488584  1
  Sc  Sc69  1  0.09108520  0.29654779  0.70727982  1
  Sc  Sc70  1  0.09876878  0.91289587  0.90179789  1
  Sc  Sc71  1  0.69896186  0.69258897  0.69122611  1
  Sc  Sc72  1  0.68997679  0.49633812  0.29887076  1
  Sc  Sc73  1  0.70090278  0.30201101  0.09584797  1
  Sc  Sc74  1  0.29218195  0.69913570  0.70125941  1
  Sc  Sc75  1  0.09630409  0.50705800  0.70289204  1
  Sc  Sc76  1  0.29578663  0.10381720  0.11282491  1
  Sc  Sc77  1  0.70786722  0.90307500  0.89750260  1
  Sc  Sc78  1  0.30355254  0.70985217  0.89734131  1
  Sc  Sc79  1  0.29453619  0.89918638  0.30103368  1
  Sc  Sc80  1  0.90141543  0.09943203  0.89869276  1
  Sc  Sc81  1  0.50022583  0.69107030  0.29987526  1
  Sc  Sc82  1  0.90568726  0.30033995  0.90038323  1
  Sc  Sc83  1  0.48928542  0.89777719  0.69264049  1
  Sc  Sc84  1  0.10348245  0.09782565  0.09760885  1
  Sc  Sc85  1  0.10425576  0.69552205  0.29712951  1
  Sc  Sc86  1  0.10306755  0.29604850  0.09660492  1
  Sc  Sc87  1  0.89652350  0.69388034  0.69915717  1
  Sc  Sc88  1  0.09841186  0.10152084  0.70216546  1
  Sc  Sc89  1  0.70494580  0.30361194  0.30529648  1
  Sc  Sc90  1  0.49578421  0.69717850  0.90210927  1
  Sc  Sc91  1  0.89445242  0.90904812  0.50547648  1
  Sc  Sc92  1  0.89934888  0.30892164  0.49028398  1
  Sc  Sc93  1  0.30691231  0.28914710  0.29351080  1
  Sc  Sc94  1  0.31224537  0.30124690  0.49877178  1
  Sc  Sc95  1  0.30912836  0.50917361  0.50747269  1
  Sc  Sc96  1  0.10544596  0.50839043  0.08892657  1
  Sc  Sc97  1  0.49499230  0.70466884  0.10036636  1
  Sc  Sc98  1  0.70052400  0.10779545  0.89616442  1
  Sc  Sc99  1  0.69907085  0.50058038  0.90369270  1
  Nb  Nb100  1  0.70053495  0.90219404  0.11200697  1
  Nb  Nb101  1  0.10013243  0.90597560  0.31100519  1
  Nb  Nb102  1  0.29279498  0.68942950  0.30230771  1
  Nb  Nb103  1  0.30191342  0.49607515  0.69987165  1
  Nb  Nb104  1  0.48607415  0.29871042  0.90558505  1
  Nb  Nb105  1  0.89885736  0.30049422  0.70143050  1
  Nb  Nb106  1  0.50069224  0.49590060  0.29906206  1
  Nb  Nb107  1  0.70030689  0.89718898  0.29738606  1
  Nb  Nb108  1  0.30110541  0.30611283  0.09382975  1
  Nb  Nb109  1  0.50804135  0.09902602  0.69578985  1
  Nb  Nb110  1  0.69396891  0.69779419  0.49491049  1
  Nb  Nb111  1  0.69718600  0.30019293  0.49861990  1
  Nb  Nb112  1  0.90081629  0.10943482  0.50242556  1
  Nb  Nb113  1  0.49366512  0.29487263  0.09525406  1
  Nb  Nb114  1  0.09738908  0.70369159  0.09655933  1
  Nb  Nb115  1  0.69908303  0.49291588  0.69748501  1
  Nb  Nb116  1  0.30779479  0.30041014  0.90363204  1
  Nb  Nb117  1  0.29917686  0.50559991  0.29640779  1
  Nb  Nb118  1  0.90471816  0.30538019  0.29983872  1
  Nb  Nb119  1  0.10399899  0.89953035  0.49497612  1
  Nb  Nb120  1  0.50606419  0.29464550  0.49746701  1
  Nb  Nb121  1  0.29814040  0.10374226  0.29925227  1
  Nb  Nb122  1  0.49970171  0.89590035  0.49517276  1
  Nb  Nb123  1  0.10143635  0.70584068  0.50243547  1
  Nb  Nb124  1  0.29727201  0.49811024  0.10351361  1
  Nb  Nb125  1  0.60566361  0.80570111  -0.00118554  1
  Nb  Nb126  1  0.20567509  0.20372179  0.59653927  1
  Nb  Nb127  1  0.80309024  0.20562446  0.59517333  1
  Nb  Nb128  1  0.20698390  0.39816992  0.79924735  1
  Nb  Nb129  1  0.39876424  0.40449017  0.19796380  1
  Nb  Nb130  1  0.60022172  0.80286749  0.40311375  1
  Nb  Nb131  1  0.79988700  0.39734641  0.79066453  1
  Nb  Nb132  1  0.20591257  0.39673659  0.60434327  1
  Nb  Nb133  1  0.00364364  0.80241721  0.59655057  1
  Nb  Nb134  1  0.39571348  0.58999640  0.79959109  1
  Nb  Nb135  1  0.79493185  -0.00042063  0.00904618  1
  Nb  Nb136  1  0.40822486  0.19434490  0.59937909  1
  Nb  Nb137  1  -0.00292302  -0.00268293  0.21022529  1
  Nb  Nb138  1  0.20840701  0.40406351  0.20066394  1
  Nb  Nb139  1  0.19492591  0.79852444  0.00808115  1
  Nb  Nb140  1  -0.00005387  0.80303909  0.79340974  1
  Nb  Nb141  1  0.00598635  0.80329819  0.40645248  1
  Nb  Nb142  1  0.40232678  0.40505529  0.39117416  1
  Nb  Nb143  1  0.59366974  -0.00515463  0.79883948  1
  Nb  Nb144  1  0.60558872  0.39371721  0.59577972  1
  Nb  Nb145  1  0.20147440  0.20195599  0.40281667  1
  Nb  Nb146  1  0.40108564  0.00035695  0.00605278  1
  Nb  Nb147  1  0.80439863  0.59547870  0.19729084  1
  Nb  Nb148  1  0.20875903  0.40059674  0.39849842  1
  Nb  Nb149  1  0.60018752  0.80276934  0.80109023  1
  Pd  Pd150  1  0.39391594  0.78890838  0.21048372  1
  Pd  Pd151  1  0.00081351  0.59135210  0.19291509  1
  Pd  Pd152  1  0.39856433  -0.00543572  0.39112898  1
  Pd  Pd153  1  0.40220815  0.79452390  0.39285054  1
  Pd  Pd154  1  0.59661246  0.39074168  0.19490652  1
  Pd  Pd155  1  0.40468803  0.18955528  0.79695758  1
  Pd  Pd156  1  0.40166403  0.00049239  0.59751544  1
  Pd  Pd157  1  0.39349323  0.79501646  0.60199971  1
  Pd  Pd158  1  0.01248323  0.40701020  0.18772486  1
  Pd  Pd159  1  0.79805326  0.59806957  0.59787861  1
  Pd  Pd160  1  0.40620665  0.00885516  0.80873654  1
  Pd  Pd161  1  0.80328335  0.58687830  0.79603794  1
  Pd  Pd162  1  0.80431191  0.79580287  0.59515874  1
  Pd  Pd163  1  0.60148174  0.19822584  0.39026064  1
  Pd  Pd164  1  0.60075099  0.80390909  0.59953919  1
  Pd  Pd165  1  0.00693680  0.40059030  0.60295229  1
  Pd  Pd166  1  -0.00477244  0.20170879  0.00394951  1
  Pd  Pd167  1  0.59796778  0.60715242  0.00072688  1
  Pd  Pd168  1  0.40264157  0.59853851  0.19848743  1
  Pd  Pd169  1  0.59663825  0.00732388  0.21002217  1
  Pd  Pd170  1  0.00788248  0.80663651  -0.00994981  1
  Pd  Pd171  1  0.00436689  0.39628207  0.00228455  1
  Pd  Pd172  1  0.60713286  0.20328723  0.20494911  1
  Pd  Pd173  1  0.00781320  0.80437201  0.21420945  1
  Pd  Pd174  1  0.40745675  0.39122042  0.59731658  1
  Pd  Pd175  1  0.60063298  -0.00616893  -0.01018371  1
  Pd  Pd176  1  0.40667209  0.40523871  0.00886208  1
  Pd  Pd177  1  0.80272476  0.19885151  -0.00412310  1
  Pd  Pd178  1  -0.01362647  -0.00559191  0.39732048  1
  Pd  Pd179  1  0.80575134  0.00255035  0.40160060  1
  Pd  Pd180  1  0.59856351  0.20734652  -0.00145747  1
  Pd  Pd181  1  0.00416849  0.19505992  0.19299945  1
  Pd  Pd182  1  0.59349039  0.60243854  0.79481497  1
  Pd  Pd183  1  0.19603410  0.79988056  0.20481643  1
  Pd  Pd184  1  0.40067918  0.59799589  0.39896008  1
  Pd  Pd185  1  0.20736174  0.59038780  0.80594419  1
  Pd  Pd186  1  0.19635171  0.59337774  0.40875833  1
  Pd  Pd187  1  0.19912234  0.80268084  0.60353187  1
  Pd  Pd188  1  0.61099535  0.60596503  0.20074798  1
  Pd  Pd189  1  0.20118017  0.60721275  -0.00790186  1
  Pd  Pd190  1  0.00097756  0.20556994  0.59495037  1
  Pd  Pd191  1  0.79193984  0.20745762  0.20420434  1
  Pd  Pd192  1  0.39796522  0.60109011  -0.00303877  1
  Pd  Pd193  1  0.79795064  0.39481538  0.60164462  1
  Pd  Pd194  1  0.60716126  0.78899585  0.20119743  1
  Pd  Pd195  1  0.79901027  0.01493506  0.60076125  1
  Pd  Pd196  1  0.60389788  0.39893412  0.79756801  1
  Pd  Pd197  1  0.20775698  0.19765316  0.00408178  1
  Pd  Pd198  1  0.21094522  -0.00300794  -0.00065920  1
  Pd  Pd199  1  0.80032912  0.79632621  0.79104037  1
  Rh  Rh200  1  0.19860843  0.00445633  0.80653036  1
  Rh  Rh201  1  0.19100055  0.59571953  0.19836562  1
  Rh  Rh202  1  -0.00231033  0.19932777  0.80569897  1
  Rh  Rh203  1  0.19710352  0.79450798  0.39207192  1
  Rh  Rh204  1  0.00455620  0.20638549  0.40614018  1
  Rh  Rh205  1  0.80366837  0.00123137  0.20064115  1
  Rh  Rh206  1  0.20220511  0.20839728  0.79273697  1
  Rh  Rh207  1  0.79806131  0.39621330  -0.01495419  1
  Rh  Rh208  1  0.39807557  0.20477697  0.19360271  1
  Rh  Rh209  1  -0.00245518  0.60019254  -0.00189196  1
  Rh  Rh210  1  0.39765709  0.40561856  0.80402216  1
  Rh  Rh211  1  0.20209696  0.59344466  0.59742875  1
  Rh  Rh212  1  -0.01081475  0.00353679  0.01256106  1
  Rh  Rh213  1  0.79125410  0.81239251  0.00396175  1
  Rh  Rh214  1  0.80226745  0.20775680  0.40589230  1
  Rh  Rh215  1  0.39754866  0.00375617  0.20102679  1
  Rh  Rh216  1  0.79535058  0.40260882  0.20372725  1
  Rh  Rh217  1  0.59431922  0.39634492  0.40421593  1
  Rh  Rh218  1  0.58945933  0.19398344  0.80673994  1
  Rh  Rh219  1  0.79531352  0.80136910  0.40911992  1
  Rh  Rh220  1  0.20864336  0.00568411  0.39899461  1
  Rh  Rh221  1  0.79283166  0.01054900  0.80753196  1
  Rh  Rh222  1  -0.00534172  0.61037892  0.59313036  1
  Rh  Rh223  1  0.39106889  0.19281200  0.00649496  1
  Rh  Rh224  1  0.60665780  0.58898343  0.60034414  1
  Rh  Rh225  1  0.19886883  0.20843365  0.20319149  1
  Rh  Rh226  1  0.39278557  0.60766001  0.60815179  1
  Rh  Rh227  1  0.79903696  0.40000371  0.39510182  1
  Rh  Rh228  1  0.00516157  0.61073576  0.40756660  1
  Rh  Rh229  1  0.79318563  0.59186598  0.38984706  1
  Rh  Rh230  1  0.59890773  0.20406501  0.59899338  1
  Rh  Rh231  1  0.79553195  0.78733006  0.19882469  1
  Rh  Rh232  1  0.19556574  0.00033351  0.20781806  1
  Rh  Rh233  1  0.59435644  0.39233767  -0.00009280  1
  Rh  Rh234  1  0.40692514  0.78301409  0.78994500  1
  Rh  Rh235  1  0.59572214  -0.00895076  0.60664996  1
  Rh  Rh236  1  0.80622396  0.20593984  0.79731532  1
  Rh  Rh237  1  0.80203617  0.59226364  0.00236802  1
  Rh  Rh238  1  0.60168567  0.60682464  0.39508811  1
  Rh  Rh239  1  0.18775717  0.80693545  0.80922042  1
  Rh  Rh240  1  -0.00097510  0.40092943  0.79636274  1
  Rh  Rh241  1  0.40098827  0.20375028  0.40351072  1
  Rh  Rh242  1  0.39380117  0.80450101  0.00790385  1
  Rh  Rh243  1  0.00584327  0.40224432  0.40390285  1
  Rh  Rh244  1  -0.00013648  -0.00280799  0.59770451  1
  Rh  Rh245  1  0.00314425  0.00135345  0.79669870  1
  Rh  Rh246  1  0.59691446  -0.00657228  0.39121225  1
  Rh  Rh247  1  -0.00877586  0.60788478  0.80283012  1
  Rh  Rh248  1  0.20255749  0.00492069  0.59524145  1
  Rh  Rh249  1  0.19645019  0.39705889  -0.00170006  1
