# generated using pymatgen
data_ZrScNbPdRh
_symmetry_space_group_name_H-M   'P 1'
_cell_length_a   16.56087094
_cell_length_b   16.56047864
_cell_length_c   16.56707527
_cell_angle_alpha   89.99039599
_cell_angle_beta   90.02126154
_cell_angle_gamma   89.96586244
_symmetry_Int_Tables_number   1
_chemical_formula_structural   ZrScNbPdRh
_chemical_formula_sum   'Zr50 Sc50 Nb50 Pd50 Rh50'
_cell_volume   4543.61777315
_cell_formula_units_Z   50
loop_
 _symmetry_equiv_pos_site_id
 _symmetry_equiv_pos_as_xyz
  1  'x, y, z'
loop_
 _atom_site_type_symbol
 _atom_site_label
 _atom_site_symmetry_multiplicity
 _atom_site_fract_x
 _atom_site_fract_y
 _atom_site_fract_z
 _atom_site_occupancy
  Zr  Zr0  1  0.10862149  0.29626748  0.30180329  1
  Zr  Zr1  1  0.90196497  0.70133745  0.90056582  1
  Zr  Zr2  1  0.30556453  0.90156758  0.10212872  1
  Zr  Zr3  1  0.29609595  0.90824071  0.90088263  1
  Zr  Zr4  1  0.30548638  0.10978478  0.89432388  1
  Zr  Zr5  1  0.90047656  0.48906988  0.70204124  1
  Zr  Zr6  1  0.49701296  0.70121578  0.50267774  1
  Zr  Zr7  1  0.30064821  0.90900740  0.68893568  1
  Zr  Zr8  1  0.29982740  0.30101313  0.09041730  1
  Zr  Zr9  1  0.50883280  0.09608142  0.29644120  1
  Zr  Zr10  1  0.70855762  0.50065288  0.10379194  1
  Zr  Zr11  1  0.69822599  0.89043327  0.90541377  1
  Zr  Zr12  1  0.50051791  0.09898563  0.50197563  1
  Zr  Zr13  1  0.89737262  0.09326524  0.70027440  1
  Zr  Zr14  1  0.69982736  0.69978631  0.70319332  1
  Zr  Zr15  1  0.09652594  0.30124288  0.09781672  1
  Zr  Zr16  1  0.29847105  0.09368710  0.08610425  1
  Zr  Zr17  1  0.49648964  0.50052946  0.89759705  1
  Zr  Zr18  1  0.70285132  0.30244932  0.29664273  1
  Zr  Zr19  1  0.49235246  0.49633330  0.29411175  1
  Zr  Zr20  1  0.90009583  0.29042020  0.29491028  1
  Zr  Zr21  1  0.90218487  0.70120445  0.70914063  1
  Zr  Zr22  1  0.68404797  0.10013079  0.10197339  1
  Zr  Zr23  1  0.30018437  0.50711179  0.49483277  1
  Zr  Zr24  1  0.09972819  0.70575259  0.70001695  1
  Zr  Zr25  1  0.70500975  0.49758512  0.90229562  1
  Zr  Zr26  1  0.10273947  0.09275184  0.10559929  1
  Zr  Zr27  1  0.70124437  0.69831152  0.48679772  1
  Zr  Zr28  1  0.70431421  0.30332465  0.70360285  1
  Zr  Zr29  1  0.50514181  0.09979279  0.70516682  1
  Zr  Zr30  1  0.50214800  0.50584130  0.09787827  1
  Zr  Zr31  1  0.90600077  0.09763286  0.49860790  1
  Zr  Zr32  1  0.48427695  0.89732903  0.49665866  1
  Zr  Zr33  1  0.89142905  0.09894591  0.89614938  1
  Zr  Zr34  1  0.10736773  0.10052913  0.90284548  1
  Zr  Zr35  1  0.70420104  0.10101985  0.30105282  1
  Zr  Zr36  1  0.70019719  0.50714307  0.30191226  1
  Zr  Zr37  1  0.69645986  0.10248268  0.71253963  1
  Zr  Zr38  1  0.10797099  0.30384484  0.89683828  1
  Zr  Zr39  1  0.50442842  0.89803339  0.10810288  1
  Zr  Zr40  1  0.89899969  0.89486039  0.89771523  1
  Zr  Zr41  1  0.30322416  0.09847949  0.70383108  1
  Zr  Zr42  1  0.70501638  0.30034453  0.10121672  1
  Zr  Zr43  1  0.89995028  0.69659300  0.09770044  1
  Zr  Zr44  1  0.50184879  0.29943176  0.30059434  1
  Zr  Zr45  1  0.50072146  0.70392250  0.10017894  1
  Zr  Zr46  1  0.70250128  0.49382328  0.69952674  1
  Zr  Zr47  1  0.50325574  0.30450851  0.10179415  1
  Zr  Zr48  1  0.09511105  0.90146907  0.49433490  1
  Zr  Zr49  1  0.09854061  0.09911922  0.68991841  1
  Sc  Sc50  1  0.69414954  0.90988393  0.70537849  1
  Sc  Sc51  1  0.70092752  0.90649200  0.49517950  1
  Sc  Sc52  1  0.50221726  0.49974367  0.49614990  1
  Sc  Sc53  1  0.30159424  0.49530348  0.90211256  1
  Sc  Sc54  1  0.49317858  0.69466990  0.70065216  1
  Sc  Sc55  1  0.50271152  0.30162306  0.49217927  1
  Sc  Sc56  1  0.29756240  0.29723021  0.72679561  1
  Sc  Sc57  1  0.89993949  0.30446301  0.10429728  1
  Sc  Sc58  1  0.49596108  0.69977335  0.90713277  1
  Sc  Sc59  1  0.50420337  0.89272042  0.90734133  1
  Sc  Sc60  1  0.69871542  0.09635705  0.50223217  1
  Sc  Sc61  1  0.68710643  0.90110907  0.30346393  1
  Sc  Sc62  1  0.89706796  0.29953657  0.90680998  1
  Sc  Sc63  1  0.70169770  0.29478903  0.90073724  1
  Sc  Sc64  1  0.30347734  0.69720180  0.09655127  1
  Sc  Sc65  1  0.30132207  0.30790427  0.29991422  1
  Sc  Sc66  1  0.69674450  0.49741061  0.49811648  1
  Sc  Sc67  1  0.90093416  0.69859773  0.31452024  1
  Sc  Sc68  1  0.50601158  0.70409445  0.29572055  1
  Sc  Sc69  1  0.50769684  0.30034636  0.71142137  1
  Sc  Sc70  1  0.29374609  0.50342249  0.10433333  1
  Sc  Sc71  1  0.09962385  0.29352564  0.49573612  1
  Sc  Sc72  1  0.29974427  0.30355906  0.90528950  1
  Sc  Sc73  1  0.90744486  0.29800330  0.50052973  1
  Sc  Sc74  1  0.90150835  0.50508861  0.90255961  1
  Sc  Sc75  1  0.69369632  0.69610654  0.10096650  1
  Sc  Sc76  1  0.90508189  0.11141575  0.10767620  1
  Sc  Sc77  1  0.89091244  0.49612516  0.29609972  1
  Sc  Sc78  1  0.69862945  0.30846804  0.50195553  1
  Sc  Sc79  1  0.09791356  0.69616604  0.09565886  1
  Sc  Sc80  1  0.30608744  0.70159788  0.49360368  1
  Sc  Sc81  1  0.29844744  0.08938775  0.50195774  1
  Sc  Sc82  1  0.30256073  0.09756952  0.30356817  1
  Sc  Sc83  1  0.09857360  0.49497143  0.70528840  1
  Sc  Sc84  1  0.89600754  0.49633284  0.49571041  1
  Sc  Sc85  1  0.49708310  0.49714082  0.70569677  1
  Sc  Sc86  1  0.09868042  0.10334976  0.49410796  1
  Sc  Sc87  1  0.49509420  0.30653744  0.90078314  1
  Sc  Sc88  1  0.30324581  0.69541378  0.68958101  1
  Sc  Sc89  1  0.90759932  0.89083461  0.10274631  1
  Sc  Sc90  1  0.09365346  0.30668952  0.70237719  1
  Sc  Sc91  1  0.90368476  0.10092414  0.30271926  1
  Sc  Sc92  1  0.09262766  0.70319686  0.48961067  1
  Sc  Sc93  1  0.10482097  0.50289636  0.49625584  1
  Sc  Sc94  1  0.91029740  0.90552088  0.30267833  1
  Sc  Sc95  1  0.09766337  0.49979293  0.90680087  1
  Sc  Sc96  1  0.90249944  0.90433426  0.49496827  1
  Sc  Sc97  1  0.29446363  0.29384038  0.48134812  1
  Sc  Sc98  1  0.09426759  0.90474080  0.70267881  1
  Sc  Sc99  1  0.49941422  0.90548419  0.69697559  1
  Nb  Nb100  1  0.28644639  0.69178734  0.29899782  1
  Nb  Nb101  1  0.49936360  0.10084316  0.10145202  1
  Nb  Nb102  1  0.70104887  0.89566505  0.10084803  1
  Nb  Nb103  1  0.70139299  0.70200936  0.29885320  1
  Nb  Nb104  1  0.29773329  0.70457706  0.89673787  1
  Nb  Nb105  1  0.10046468  0.70702445  0.89508647  1
  Nb  Nb106  1  0.51044417  0.10300315  0.90061894  1
  Nb  Nb107  1  0.10152067  0.09170028  0.29472076  1
  Nb  Nb108  1  0.90627974  0.50308282  0.09787791  1
  Nb  Nb109  1  0.29872829  0.50135540  0.70271331  1
  Nb  Nb110  1  0.69902740  0.09490268  0.89952375  1
  Nb  Nb111  1  0.30504323  0.89294231  0.30560263  1
  Nb  Nb112  1  0.89857560  0.70242087  0.50282998  1
  Nb  Nb113  1  0.09582947  0.49935057  0.10263351  1
  Nb  Nb114  1  0.90327265  0.29782649  0.69754012  1
  Nb  Nb115  1  0.70449405  0.70219333  0.89586206  1
  Nb  Nb116  1  0.28688913  0.50945774  0.30315109  1
  Nb  Nb117  1  0.30130695  0.89702123  0.49602793  1
  Nb  Nb118  1  0.89879862  0.90450662  0.69679363  1
  Nb  Nb119  1  0.10407401  0.90368904  0.10660476  1
  Nb  Nb120  1  0.11268720  0.50347576  0.29717115  1
  Nb  Nb121  1  0.10210428  0.69606878  0.29871872  1
  Nb  Nb122  1  0.10033843  0.90149275  0.29105015  1
  Nb  Nb123  1  0.48748352  0.89999522  0.29899205  1
  Nb  Nb124  1  0.09874856  0.89564995  0.90210878  1
  Nb  Nb125  1  0.00565332  0.59305356  0.20313742  1
  Nb  Nb126  1  0.79517542  0.79990530  0.20493800  1
  Nb  Nb127  1  0.79974424  0.79914783  0.59990813  1
  Nb  Nb128  1  0.20773674  0.20533582  0.60488439  1
  Nb  Nb129  1  0.60314124  0.79771466  0.59617857  1
  Nb  Nb130  1  0.79927307  -0.00189863  0.00584431  1
  Nb  Nb131  1  0.79573455  -0.00564750  0.19358776  1
  Nb  Nb132  1  0.60594318  0.60128399  0.80542511  1
  Nb  Nb133  1  0.00115979  -0.00489241  0.00096909  1
  Nb  Nb134  1  0.40132922  0.19668184  0.19340556  1
  Nb  Nb135  1  0.20269382  0.60634293  0.80299562  1
  Nb  Nb136  1  0.19772670  0.80187623  0.20297274  1
  Nb  Nb137  1  0.00737394  0.40144711  0.38861993  1
  Nb  Nb138  1  0.19607027  0.80387964  -0.00133772  1
  Nb  Nb139  1  0.80450678  0.60577601  0.59948100  1
  Nb  Nb140  1  0.20065231  -0.01220383  0.39259477  1
  Nb  Nb141  1  -0.00406907  0.19879526  0.79784325  1
  Nb  Nb142  1  0.20182384  0.80637565  0.59319144  1
  Nb  Nb143  1  0.39543666  0.20670931  0.60364786  1
  Nb  Nb144  1  0.38829764  0.39221172  0.60303014  1
  Nb  Nb145  1  0.80332641  0.20069531  0.60733871  1
  Nb  Nb146  1  -0.00692290  0.60289065  0.59992534  1
  Nb  Nb147  1  0.39091508  0.80039184  0.80115546  1
  Nb  Nb148  1  0.21085130  0.39590749  0.60246974  1
  Nb  Nb149  1  0.20501690  0.19511215  0.19654577  1
  Pd  Pd150  1  0.80450633  0.81110240  0.39670851  1
  Pd  Pd151  1  0.39073772  0.40025182  0.19683354  1
  Pd  Pd152  1  -0.00280998  0.59020379  0.39894208  1
  Pd  Pd153  1  0.19730716  0.79900939  0.39890158  1
  Pd  Pd154  1  0.00097780  0.19498914  -0.00524076  1
  Pd  Pd155  1  0.39671698  0.40327382  0.40387579  1
  Pd  Pd156  1  0.20519867  0.39554482  0.19540643  1
  Pd  Pd157  1  -0.00418567  0.40051888  -0.00419598  1
  Pd  Pd158  1  0.19688275  0.60331663  -0.00589123  1
  Pd  Pd159  1  0.41113640  -0.00562722  0.80949410  1
  Pd  Pd160  1  0.58682210  0.79404951  0.79388216  1
  Pd  Pd161  1  0.39766940  0.60485959  0.20396356  1
  Pd  Pd162  1  -0.00145363  0.80205370  0.60013071  1
  Pd  Pd163  1  0.19533187  0.00101779  0.79814505  1
  Pd  Pd164  1  0.39754889  0.00660630  0.20303425  1
  Pd  Pd165  1  0.00690827  0.80153696  0.00257686  1
  Pd  Pd166  1  0.00885793  0.59624928  0.79959470  1
  Pd  Pd167  1  0.19109465  0.60338939  0.60032211  1
  Pd  Pd168  1  0.60860727  0.20191539  0.40466156  1
  Pd  Pd169  1  0.79783039  0.20229455  0.41352642  1
  Pd  Pd170  1  -0.00058702  0.78914726  0.20652750  1
  Pd  Pd171  1  0.20594476  0.80035552  0.79212661  1
  Pd  Pd172  1  0.00330791  0.00189920  0.80662914  1
  Pd  Pd173  1  0.40003047  0.19374619  0.39837576  1
  Pd  Pd174  1  0.79987081  0.80879995  0.79113782  1
  Pd  Pd175  1  0.60445940  0.40523651  0.20131180  1
  Pd  Pd176  1  0.59454301  -0.00436000  0.40231981  1
  Pd  Pd177  1  0.59215503  0.80476116  0.40264154  1
  Pd  Pd178  1  0.60255340  0.60121643  0.60583564  1
  Pd  Pd179  1  0.40493818  0.58832417  0.60052136  1
  Pd  Pd180  1  0.60210199  0.39775945  -0.00255040  1
  Pd  Pd181  1  0.58706400  0.39775737  0.60124800  1
  Pd  Pd182  1  0.79773404  0.19272174  0.00711560  1
  Pd  Pd183  1  0.59189519  0.59715569  0.39383806  1
  Pd  Pd184  1  0.40889590  0.20078719  -0.00064443  1
  Pd  Pd185  1  0.79887423  0.60355542  -0.00140991  1
  Pd  Pd186  1  0.79574284  0.00013977  0.59922743  1
  Pd  Pd187  1  0.59724146  0.20642527  -0.00442773  1
  Pd  Pd188  1  0.80656973  0.39485119  0.40185426  1
  Pd  Pd189  1  0.59933641  -0.00470135  -0.00093622  1
  Pd  Pd190  1  0.41417099  -0.00020741  -0.00666642  1
  Pd  Pd191  1  0.39347983  0.59741346  -0.00118420  1
  Pd  Pd192  1  0.80676564  0.39563459  0.80833344  1
  Pd  Pd193  1  0.60459030  0.60482432  -0.00596224  1
  Pd  Pd194  1  0.39160976  0.78811726  0.20619600  1
  Pd  Pd195  1  0.60160936  0.20635998  0.59856194  1
  Pd  Pd196  1  -0.00142332  0.40557573  0.20607338  1
  Pd  Pd197  1  0.00867357  0.40606484  0.58795221  1
  Pd  Pd198  1  0.80767601  0.60846804  0.20519186  1
  Pd  Pd199  1  0.40438411  0.60602488  0.38927490  1
  Rh  Rh200  1  0.79272606  -0.00872338  0.80790789  1
  Rh  Rh201  1  -0.00065282  0.19931233  0.60555564  1
  Rh  Rh202  1  0.79549578  0.79652682  0.00943028  1
  Rh  Rh203  1  0.19832958  0.18363053  0.39455383  1
  Rh  Rh204  1  0.59408245  -0.01020308  0.59316462  1
  Rh  Rh205  1  0.00362682  0.20262094  0.39197411  1
  Rh  Rh206  1  0.01246242  0.19885413  0.20477873  1
  Rh  Rh207  1  0.59760972  -0.00328276  0.81065538  1
  Rh  Rh208  1  0.19173154  -0.00768450  -0.00272716  1
  Rh  Rh209  1  0.39091679  0.80343634  -0.00542799  1
  Rh  Rh210  1  -0.00027785  -0.00282575  0.59455260  1
  Rh  Rh211  1  -0.00108518  0.80121036  0.39303176  1
  Rh  Rh212  1  -0.00224770  0.80707042  0.79760457  1
  Rh  Rh213  1  0.59624190  0.20530804  0.20124845  1
  Rh  Rh214  1  0.19733506  0.40602487  0.40528954  1
  Rh  Rh215  1  0.39983854  0.40802486  0.00615140  1
  Rh  Rh216  1  0.80132302  0.00043385  0.38866353  1
  Rh  Rh217  1  -0.01155917  0.00128353  0.19281305  1
  Rh  Rh218  1  0.39711869  0.00261647  0.39667751  1
  Rh  Rh219  1  0.19277701  -0.00247897  0.58809851  1
  Rh  Rh220  1  0.40087778  0.78836397  0.39042605  1
  Rh  Rh221  1  0.39860893  0.80182466  0.60798665  1
  Rh  Rh222  1  0.39807318  0.40149144  0.79756053  1
  Rh  Rh223  1  0.60007099  0.40484277  0.39394455  1
  Rh  Rh224  1  0.39735329  0.60516012  0.80424287  1
  Rh  Rh225  1  0.80573609  0.40309128  0.00515881  1
  Rh  Rh226  1  0.41206991  0.20006451  0.80269187  1
  Rh  Rh227  1  0.79550822  0.59472742  0.79813217  1
  Rh  Rh228  1  0.60343231  0.79262459  0.00414573  1
  Rh  Rh229  1  0.59871487  0.59922593  0.20297490  1
  Rh  Rh230  1  0.19819998  0.40552849  0.00277629  1
  Rh  Rh231  1  0.00375465  0.60126424  0.00235431  1
  Rh  Rh232  1  0.21282511  -0.00317751  0.20883076  1
  Rh  Rh233  1  0.80449143  0.20416526  0.79532692  1
  Rh  Rh234  1  0.60431839  0.80310756  0.20261382  1
  Rh  Rh235  1  0.00882895  0.00362162  0.39645229  1
  Rh  Rh236  1  0.19674208  0.60673756  0.40911442  1
  Rh  Rh237  1  0.79369770  0.19196968  0.19503254  1
  Rh  Rh238  1  0.60229397  0.40648078  0.80719954  1
  Rh  Rh239  1  0.19689468  0.20333648  0.00509014  1
  Rh  Rh240  1  0.19330276  0.60666223  0.19302736  1
  Rh  Rh241  1  0.80042846  0.59669339  0.40386735  1
  Rh  Rh242  1  0.20011316  0.41223127  0.80077298  1
  Rh  Rh243  1  0.60036065  -0.00691491  0.20193870  1
  Rh  Rh244  1  0.80303561  0.40157510  0.19681088  1
  Rh  Rh245  1  0.60142166  0.20391273  0.80919999  1
  Rh  Rh246  1  0.40498077  0.00966020  0.59813437  1
  Rh  Rh247  1  0.18568925  0.19736944  0.79257751  1
  Rh  Rh248  1  0.80391422  0.39713057  0.59560753  1
  Rh  Rh249  1  -0.00446695  0.39235362  0.80971903  1
