# generated using pymatgen
data_ZrScNbPdRh
_symmetry_space_group_name_H-M   'P 1'
_cell_length_a   16.56191976
_cell_length_b   16.56036523
_cell_length_c   16.56380571
_cell_angle_alpha   89.98148283
_cell_angle_beta   90.03614857
_cell_angle_gamma   89.99266477
_symmetry_Int_Tables_number   1
_chemical_formula_structural   ZrScNbPdRh
_chemical_formula_sum   'Zr50 Sc50 Nb50 Pd50 Rh50'
_cell_volume   4542.97766590
_cell_formula_units_Z   50
loop_
 _symmetry_equiv_pos_site_id
 _symmetry_equiv_pos_as_xyz
  1  'x, y, z'
loop_
 _atom_site_type_symbol
 _atom_site_label
 _atom_site_symmetry_multiplicity
 _atom_site_fract_x
 _atom_site_fract_y
 _atom_site_fract_z
 _atom_site_occupancy
  Zr  Zr0  1  0.09643033  0.30018270  0.09699892  1
  Zr  Zr1  1  0.49622422  0.90739476  0.30708880  1
  Zr  Zr2  1  0.29972301  0.51750820  0.50082585  1
  Zr  Zr3  1  0.89301063  0.89790558  0.09688696  1
  Zr  Zr4  1  0.29693191  0.70374445  0.68527191  1
  Zr  Zr5  1  0.70590810  0.70436124  0.49550305  1
  Zr  Zr6  1  0.29334612  0.09775416  0.90424368  1
  Zr  Zr7  1  0.30269714  0.08868183  0.30447118  1
  Zr  Zr8  1  0.10260705  0.09215577  0.49305460  1
  Zr  Zr9  1  0.90202358  0.70571653  0.49439109  1
  Zr  Zr10  1  0.09889561  0.29463439  0.90632728  1
  Zr  Zr11  1  0.50615099  0.50193848  0.90119073  1
  Zr  Zr12  1  0.49551259  0.29274868  0.50248856  1
  Zr  Zr13  1  0.29832854  0.89798832  0.69719987  1
  Zr  Zr14  1  0.70353145  0.50814570  0.30440869  1
  Zr  Zr15  1  0.09838060  0.88884079  0.10076439  1
  Zr  Zr16  1  0.09186168  0.50374218  0.48987636  1
  Zr  Zr17  1  0.51467176  0.69853781  0.89947179  1
  Zr  Zr18  1  0.09642215  0.30635030  0.29973415  1
  Zr  Zr19  1  0.89589182  0.89744579  0.50030332  1
  Zr  Zr20  1  0.50638065  0.29826049  0.89790573  1
  Zr  Zr21  1  0.49281118  0.09648509  0.49221928  1
  Zr  Zr22  1  0.10499463  0.09026609  0.70779407  1
  Zr  Zr23  1  0.49781486  0.90082691  0.70039973  1
  Zr  Zr24  1  0.10232991  0.09750998  0.90826210  1
  Zr  Zr25  1  0.68945321  0.09321528  0.29764655  1
  Zr  Zr26  1  0.30536960  0.09402374  0.10377434  1
  Zr  Zr27  1  0.10339984  0.30175223  0.69874098  1
  Zr  Zr28  1  0.90981363  0.50642196  0.30074950  1
  Zr  Zr29  1  0.50392120  0.29243706  0.69862480  1
  Zr  Zr30  1  0.69968550  0.90216359  0.09603925  1
  Zr  Zr31  1  0.30445483  0.51371056  0.29632858  1
  Zr  Zr32  1  0.70093752  0.10001859  0.69870338  1
  Zr  Zr33  1  0.10626744  0.09061520  0.30671976  1
  Zr  Zr34  1  0.30151036  0.50225196  0.10046964  1
  Zr  Zr35  1  0.30722632  0.89161910  0.49989772  1
  Zr  Zr36  1  0.10159634  0.70856963  0.49218467  1
  Zr  Zr37  1  0.50180491  0.69888658  0.09901613  1
  Zr  Zr38  1  0.09071116  0.50270751  0.10172127  1
  Zr  Zr39  1  0.89074811  0.29699648  0.69656813  1
  Zr  Zr40  1  0.29593231  0.70597636  0.10651114  1
  Zr  Zr41  1  0.69859044  0.49968812  0.10287863  1
  Zr  Zr42  1  0.89865368  0.29721611  0.09389133  1
  Zr  Zr43  1  0.29714155  0.50377537  0.69604524  1
  Zr  Zr44  1  0.89930758  0.49798599  0.09994167  1
  Zr  Zr45  1  0.49881285  0.30098300  0.11094996  1
  Zr  Zr46  1  0.08989018  0.69861497  0.90521313  1
  Zr  Zr47  1  0.69519349  0.30493645  0.30311358  1
  Zr  Zr48  1  0.70117263  0.51195172  0.89982476  1
  Zr  Zr49  1  0.29702486  0.30121241  0.90860238  1
  Sc  Sc50  1  0.70670634  0.70003439  0.70435416  1
  Sc  Sc51  1  0.69805926  0.29460183  0.69638982  1
  Sc  Sc52  1  0.50381763  0.70119527  0.29643070  1
  Sc  Sc53  1  0.09443780  0.89927607  0.49391253  1
  Sc  Sc54  1  0.09547565  0.70835181  0.70405408  1
  Sc  Sc55  1  0.89194440  0.30447756  0.49904946  1
  Sc  Sc56  1  0.30446940  0.89678691  0.10383283  1
  Sc  Sc57  1  0.50485838  0.29293808  0.30312540  1
  Sc  Sc58  1  0.49512214  0.70654449  0.49895432  1
  Sc  Sc59  1  0.50196157  0.09754811  0.69611590  1
  Sc  Sc60  1  0.90022398  0.70790218  0.69727087  1
  Sc  Sc61  1  0.89658070  0.51286791  0.68844327  1
  Sc  Sc62  1  0.28606240  0.70021701  0.90184156  1
  Sc  Sc63  1  0.50081218  0.50422682  0.10983188  1
  Sc  Sc64  1  0.90050821  0.89404295  0.90301037  1
  Sc  Sc65  1  0.10494153  0.30119121  0.49287995  1
  Sc  Sc66  1  0.30195507  0.90415829  0.90705227  1
  Sc  Sc67  1  0.89385315  0.08580819  0.50216304  1
  Sc  Sc68  1  0.30494254  0.08800892  0.69902709  1
  Sc  Sc69  1  0.89630750  0.50633574  0.49463328  1
  Sc  Sc70  1  0.50535139  0.08585555  0.89876850  1
  Sc  Sc71  1  0.89705364  0.30816829  0.29767004  1
  Sc  Sc72  1  0.69620000  0.89774238  0.90275753  1
  Sc  Sc73  1  0.90497171  0.89481412  0.69904644  1
  Sc  Sc74  1  0.69859291  0.70321616  0.10403407  1
  Sc  Sc75  1  0.51626819  0.50251733  0.70165413  1
  Sc  Sc76  1  0.51202611  0.51091087  0.50061759  1
  Sc  Sc77  1  0.29983444  0.29526602  0.69343261  1
  Sc  Sc78  1  0.09949584  0.51195109  0.69648836  1
  Sc  Sc79  1  0.30011990  0.29569511  0.29731194  1
  Sc  Sc80  1  0.89659621  0.30174133  0.90909163  1
  Sc  Sc81  1  0.70499753  0.29150880  0.89664041  1
  Sc  Sc82  1  0.90084317  0.50737093  0.91136008  1
  Sc  Sc83  1  0.69542667  0.89485487  0.69605273  1
  Sc  Sc84  1  0.49721690  0.89986590  0.09342500  1
  Sc  Sc85  1  0.71260322  0.29875828  0.10404603  1
  Sc  Sc86  1  0.29924418  0.30475186  0.10351274  1
  Sc  Sc87  1  0.51108456  0.70362130  0.69816144  1
  Sc  Sc88  1  0.50954881  0.50194180  0.29584379  1
  Sc  Sc89  1  0.69725277  0.09421909  0.90113537  1
  Sc  Sc90  1  0.09834288  0.89638360  0.70034666  1
  Sc  Sc91  1  0.69775029  0.89456586  0.29942391  1
  Sc  Sc92  1  0.89638397  0.89364456  0.30562457  1
  Sc  Sc93  1  0.29909130  0.29283936  0.49795782  1
  Sc  Sc94  1  0.89377207  0.09657659  0.69305750  1
  Sc  Sc95  1  0.89960583  0.09761849  0.91098334  1
  Sc  Sc96  1  0.69903353  0.30530832  0.50446483  1
  Sc  Sc97  1  0.50354439  0.89865202  0.50105690  1
  Sc  Sc98  1  0.89260632  0.08794731  0.30145558  1
  Sc  Sc99  1  0.50784766  0.89872255  0.90247740  1
  Nb  Nb100  1  0.70387045  0.90823106  0.49729591  1
  Nb  Nb101  1  0.29759123  0.09981516  0.49839611  1
  Nb  Nb102  1  0.69811972  0.69910711  0.89993207  1
  Nb  Nb103  1  0.70716736  0.50429041  0.50849088  1
  Nb  Nb104  1  0.29766503  0.70780004  0.30788901  1
  Nb  Nb105  1  0.89424001  0.70192711  0.90349229  1
  Nb  Nb106  1  0.30027844  0.50160311  0.90027143  1
  Nb  Nb107  1  0.09364474  0.70709229  0.29647550  1
  Nb  Nb108  1  0.50078434  0.09993074  0.10910026  1
  Nb  Nb109  1  0.49494685  0.09884072  0.29229151  1
  Nb  Nb110  1  0.30123105  0.70486060  0.49292531  1
  Nb  Nb111  1  0.91533168  0.70236225  0.09735707  1
  Nb  Nb112  1  0.89565689  0.09768761  0.10074095  1
  Nb  Nb113  1  0.09455177  0.10151382  0.09705037  1
  Nb  Nb114  1  0.10363108  0.89985920  0.30179986  1
  Nb  Nb115  1  0.29595379  0.89526334  0.29887697  1
  Nb  Nb116  1  0.70621629  0.09599132  0.09871725  1
  Nb  Nb117  1  0.89191327  0.70121571  0.29823616  1
  Nb  Nb118  1  0.09523201  0.70093121  0.10466015  1
  Nb  Nb119  1  0.09457044  0.50133498  0.29660681  1
  Nb  Nb120  1  0.09577347  0.90188303  0.89341117  1
  Nb  Nb121  1  0.70604049  0.08827412  0.50035081  1
  Nb  Nb122  1  0.70731252  0.49936144  0.69332095  1
  Nb  Nb123  1  0.71079532  0.70299246  0.29721636  1
  Nb  Nb124  1  0.10062094  0.50145738  0.89763454  1
  Nb  Nb125  1  0.00083736  0.20189276  0.79731474  1
  Nb  Nb126  1  0.40216459  0.40361818  0.59876910  1
  Nb  Nb127  1  0.79874101  -0.00326203  0.79952180  1
  Nb  Nb128  1  0.39760625  0.60113020  0.80266348  1
  Nb  Nb129  1  0.19918017  0.40560147  0.80466719  1
  Nb  Nb130  1  0.39939075  0.79340262  0.79967594  1
  Nb  Nb131  1  0.79555943  0.19425575  0.39976385  1
  Nb  Nb132  1  -0.00054988  0.40158698  0.79828659  1
  Nb  Nb133  1  0.00226054  -0.00004657  0.19604633  1
  Nb  Nb134  1  0.80223098  0.40859436  0.79570111  1
  Nb  Nb135  1  0.00437626  0.19931229  0.59779747  1
  Nb  Nb136  1  0.19205397  0.19160053  0.19953710  1
  Nb  Nb137  1  -0.00136476  0.19007510  0.20031398  1
  Nb  Nb138  1  0.40772439  0.19596601  0.00238712  1
  Nb  Nb139  1  0.39566047  0.40217810  0.79765932  1
  Nb  Nb140  1  0.40003457  0.20167196  0.80678756  1
  Nb  Nb141  1  0.59802146  0.19605233  0.01013973  1
  Nb  Nb142  1  0.19646359  0.18918290  0.59614303  1
  Nb  Nb143  1  0.39804398  0.40600108  0.40661463  1
  Nb  Nb144  1  0.20489275  0.41219799  0.39528846  1
  Nb  Nb145  1  -0.00647200  0.19587941  0.39936386  1
  Nb  Nb146  1  0.00034818  0.39699330  0.60260656  1
  Nb  Nb147  1  0.39701495  0.59992187  -0.00429340  1
  Nb  Nb148  1  0.19098248  0.60827665  0.20459584  1
  Nb  Nb149  1  0.60251539  0.39555018  0.00245237  1
  Pd  Pd150  1  0.40589211  0.80181731  0.20619518  1
  Pd  Pd151  1  0.60805369  0.20196000  0.19564266  1
  Pd  Pd152  1  0.80255661  0.40411682  0.20494702  1
  Pd  Pd153  1  -0.00096426  -0.00023211  0.60157624  1
  Pd  Pd154  1  -0.01068519  0.00497000  0.80207910  1
  Pd  Pd155  1  0.61243072  0.39895743  0.80219278  1
  Pd  Pd156  1  0.20108754  0.40454071  0.20493829  1
  Pd  Pd157  1  0.39658878  0.20271892  0.39196149  1
  Pd  Pd158  1  0.79999294  0.61140668  0.01016648  1
  Pd  Pd159  1  0.20232900  0.80442037  0.80435856  1
  Pd  Pd160  1  0.60189503  0.79930914  0.39943570  1
  Pd  Pd161  1  0.60873887  0.60965365  0.60113404  1
  Pd  Pd162  1  0.80774485  0.19306767  0.80780419  1
  Pd  Pd163  1  0.00113623  0.60450037  0.59548689  1
  Pd  Pd164  1  -0.01026684  0.59955580  0.80105462  1
  Pd  Pd165  1  0.79561006  0.79175255  0.00166237  1
  Pd  Pd166  1  0.80729353  0.60028365  0.79832807  1
  Pd  Pd167  1  0.39972392  -0.00395615  0.80461044  1
  Pd  Pd168  1  0.20135308  0.39646750  0.59250061  1
  Pd  Pd169  1  0.18774092  0.61038908  0.59622962  1
  Pd  Pd170  1  0.19886783  0.60035839  0.00752102  1
  Pd  Pd171  1  0.60663895  0.19185972  0.40657479  1
  Pd  Pd172  1  0.41260552  0.59976701  0.60804104  1
  Pd  Pd173  1  0.80369893  0.19717634  0.20999928  1
  Pd  Pd174  1  0.59676262  0.40027950  0.59572060  1
  Pd  Pd175  1  0.60657109  0.19198035  0.58998619  1
  Pd  Pd176  1  0.20080918  0.60188847  0.79768828  1
  Pd  Pd177  1  0.60449190  0.79883453  0.59549423  1
  Pd  Pd178  1  0.59589206  -0.00794431  0.19554763  1
  Pd  Pd179  1  0.40997475  0.40219212  -0.00089503  1
  Pd  Pd180  1  0.20120542  -0.00553698  0.59385891  1
  Pd  Pd181  1  0.19566501  -0.00215999  0.19178771  1
  Pd  Pd182  1  0.59668208  0.00155522  0.59720826  1
  Pd  Pd183  1  -0.00121275  -0.00750445  0.00360071  1
  Pd  Pd184  1  0.59451497  0.40373853  0.40766036  1
  Pd  Pd185  1  0.41302576  0.60231279  0.39579119  1
  Pd  Pd186  1  0.40008096  0.79202784  -0.01067968  1
  Pd  Pd187  1  0.20407561  0.20222020  0.79314664  1
  Pd  Pd188  1  0.19180774  0.60316948  0.39094052  1
  Pd  Pd189  1  0.40357509  0.39830175  0.21410850  1
  Pd  Pd190  1  0.80126760  -0.00850774  0.20431481  1
  Pd  Pd191  1  0.80010219  0.40211225  0.40090476  1
  Pd  Pd192  1  -0.00794232  0.80761298  0.20656391  1
  Pd  Pd193  1  0.19768606  -0.00993285  0.00760642  1
  Pd  Pd194  1  0.59692378  0.80560559  0.20016956  1
  Pd  Pd195  1  0.19569497  0.80455716  -0.00498189  1
  Pd  Pd196  1  0.19315503  0.40686700  -0.00012528  1
  Pd  Pd197  1  0.79932574  0.80631329  0.80117221  1
  Pd  Pd198  1  0.80398977  0.60502916  0.19250047  1
  Pd  Pd199  1  0.60276962  0.60907457  0.39828889  1
  Rh  Rh200  1  0.21034658  -0.01551340  0.40711739  1
  Rh  Rh201  1  -0.00264145  0.80153637  0.39324112  1
  Rh  Rh202  1  0.40121709  -0.00047773  0.59277261  1
  Rh  Rh203  1  0.59835313  0.59622547  0.00982851  1
  Rh  Rh204  1  -0.00751561  0.19765431  -0.00008460  1
  Rh  Rh205  1  0.79918877  0.60937652  0.59514747  1
  Rh  Rh206  1  0.60761179  0.60540993  0.20553554  1
  Rh  Rh207  1  0.60442514  0.39810162  0.19837945  1
  Rh  Rh208  1  0.60922856  -0.00286925  0.79325377  1
  Rh  Rh209  1  0.60676571  0.79923273  0.00148856  1
  Rh  Rh210  1  0.39659663  -0.00350544  0.40249375  1
  Rh  Rh211  1  0.40450590  0.00417147  0.00249353  1
  Rh  Rh212  1  0.40477624  0.79807557  0.60472363  1
  Rh  Rh213  1  0.60090166  0.00519742  0.00886841  1
  Rh  Rh214  1  -0.00076820  0.60819334  0.20356446  1
  Rh  Rh215  1  0.80446133  0.40460685  0.60329076  1
  Rh  Rh216  1  0.00152118  0.39385560  0.40733600  1
  Rh  Rh217  1  0.79376629  -0.00234563  0.39335343  1
  Rh  Rh218  1  0.79762529  -0.01113140  0.61108969  1
  Rh  Rh219  1  0.39146817  0.19858595  0.20054380  1
  Rh  Rh220  1  0.79940585  0.19522938  0.58418763  1
  Rh  Rh221  1  0.40310940  -0.00884429  0.20106500  1
  Rh  Rh222  1  0.20097641  -0.01013175  0.80545401  1
  Rh  Rh223  1  0.60591577  0.60338337  0.79104045  1
  Rh  Rh224  1  0.00031802  0.80141672  -0.00490108  1
  Rh  Rh225  1  0.79735598  0.00009722  -0.00719662  1
  Rh  Rh226  1  0.59922726  0.80176937  0.80130085  1
  Rh  Rh227  1  0.19488413  0.80170095  0.59314126  1
  Rh  Rh228  1  0.19990447  0.79714672  0.20745118  1
  Rh  Rh229  1  0.00279425  0.40516840  -0.00472261  1
  Rh  Rh230  1  0.59798713  0.00199257  0.40056155  1
  Rh  Rh231  1  0.79492964  0.80351807  0.39911737  1
  Rh  Rh232  1  -0.00801410  0.39417910  0.19412082  1
  Rh  Rh233  1  0.79312596  0.19284692  -0.00026080  1
  Rh  Rh234  1  0.21154436  0.19734407  0.01575912  1
  Rh  Rh235  1  -0.00514545  -0.00215775  0.39326388  1
  Rh  Rh236  1  0.39434594  0.61108561  0.19676164  1
  Rh  Rh237  1  0.78849924  0.40171078  -0.01117193  1
  Rh  Rh238  1  -0.00273320  0.79721022  0.80705973  1
  Rh  Rh239  1  0.80310522  0.79697156  0.19603168  1
  Rh  Rh240  1  0.79787347  0.80256745  0.59712596  1
  Rh  Rh241  1  0.19906456  0.80460857  0.39705013  1
  Rh  Rh242  1  -0.00231312  0.61178480  0.39332917  1
  Rh  Rh243  1  0.80090299  0.60107086  0.40108143  1
  Rh  Rh244  1  0.00264022  0.80096752  0.59787239  1
  Rh  Rh245  1  -0.00104770  0.60130120  -0.00059834  1
  Rh  Rh246  1  0.39109673  0.19534520  0.60787361  1
  Rh  Rh247  1  0.19709369  0.20615843  0.39703086  1
  Rh  Rh248  1  0.40243788  0.79993107  0.39515437  1
  Rh  Rh249  1  0.59382174  0.18964063  0.80590691  1
