# generated using pymatgen
data_ZrScNbPdRh
_symmetry_space_group_name_H-M   'P 1'
_cell_length_a   16.55983763
_cell_length_b   16.56082957
_cell_length_c   16.56238974
_cell_angle_alpha   90.00756855
_cell_angle_beta   90.01628024
_cell_angle_gamma   90.00546742
_symmetry_Int_Tables_number   1
_chemical_formula_structural   ZrScNbPdRh
_chemical_formula_sum   'Zr50 Sc50 Nb50 Pd50 Rh50'
_cell_volume   4542.14651297
_cell_formula_units_Z   50
loop_
 _symmetry_equiv_pos_site_id
 _symmetry_equiv_pos_as_xyz
  1  'x, y, z'
loop_
 _atom_site_type_symbol
 _atom_site_label
 _atom_site_symmetry_multiplicity
 _atom_site_fract_x
 _atom_site_fract_y
 _atom_site_fract_z
 _atom_site_occupancy
  Zr  Zr0  1  0.89381100  0.69387421  0.10214442  1
  Zr  Zr1  1  0.49429542  0.49393626  0.69114192  1
  Zr  Zr2  1  0.29421202  0.08926409  0.09356940  1
  Zr  Zr3  1  0.69413807  0.87627678  0.69988666  1
  Zr  Zr4  1  0.89845346  0.90395474  0.49640261  1
  Zr  Zr5  1  0.90407395  0.30892067  0.10392890  1
  Zr  Zr6  1  0.90033074  0.70470193  0.30595694  1
  Zr  Zr7  1  0.90738098  0.29878515  0.49753299  1
  Zr  Zr8  1  0.70889744  0.50875457  0.09829113  1
  Zr  Zr9  1  0.69699037  0.30082025  0.30438074  1
  Zr  Zr10  1  0.09873612  0.69766046  0.89837009  1
  Zr  Zr11  1  0.69536115  0.50847700  0.50163461  1
  Zr  Zr12  1  0.29640728  0.89399700  0.49924435  1
  Zr  Zr13  1  0.10150045  0.09395616  0.69935830  1
  Zr  Zr14  1  0.69939718  0.09372283  0.50006459  1
  Zr  Zr15  1  0.68770587  0.90405794  0.09583725  1
  Zr  Zr16  1  0.29334606  0.90393423  0.69530030  1
  Zr  Zr17  1  0.69941748  0.30157998  0.87852001  1
  Zr  Zr18  1  0.30497459  0.90999780  0.90078824  1
  Zr  Zr19  1  0.09407284  0.49471422  0.10175373  1
  Zr  Zr20  1  0.30425931  0.49443713  0.31025013  1
  Zr  Zr21  1  0.30095504  0.90974126  0.30235045  1
  Zr  Zr22  1  0.10637322  0.10679366  0.89974228  1
  Zr  Zr23  1  0.29978720  0.10275839  0.89827179  1
  Zr  Zr24  1  0.49734208  0.09618802  0.89334084  1
  Zr  Zr25  1  0.70412617  0.70468364  0.30988098  1
  Zr  Zr26  1  0.29873778  0.70279818  0.90058220  1
  Zr  Zr27  1  0.30625609  0.48954657  0.91020658  1
  Zr  Zr28  1  0.09156141  0.89299547  0.89632988  1
  Zr  Zr29  1  0.49486162  0.50170660  0.09815605  1
  Zr  Zr30  1  0.09680545  0.30309944  0.70579335  1
  Zr  Zr31  1  0.69835543  0.71026229  0.10080160  1
  Zr  Zr32  1  0.09222572  0.10475541  0.49505163  1
  Zr  Zr33  1  0.90517676  0.50704180  0.89926663  1
  Zr  Zr34  1  0.09546510  0.90495609  0.29634162  1
  Zr  Zr35  1  0.10573493  0.70571887  0.49334504  1
  Zr  Zr36  1  0.89718543  0.90074315  0.89687584  1
  Zr  Zr37  1  0.50153826  0.90011423  0.90069821  1
  Zr  Zr38  1  0.89472508  0.30668304  0.69803807  1
  Zr  Zr39  1  0.29982087  0.69890153  0.69736110  1
  Zr  Zr40  1  0.10046435  0.10104056  0.10234694  1
  Zr  Zr41  1  0.50145329  0.89885499  0.49557019  1
  Zr  Zr42  1  0.50024265  0.50318286  0.30942412  1
  Zr  Zr43  1  0.49366954  0.70747746  0.10188357  1
  Zr  Zr44  1  0.90101714  0.50230198  0.29488747  1
  Zr  Zr45  1  0.90041270  0.29524083  0.89379740  1
  Zr  Zr46  1  0.09508651  0.29646715  0.10145375  1
  Zr  Zr47  1  0.90120416  0.89404820  0.09823785  1
  Zr  Zr48  1  0.89311747  0.11238326  0.09183539  1
  Zr  Zr49  1  0.51153125  0.08563379  0.10236141  1
  Sc  Sc50  1  0.30760415  0.30076373  0.70419849  1
  Sc  Sc51  1  0.10110629  0.69789099  0.30271506  1
  Sc  Sc52  1  0.89515301  0.09352804  0.50590316  1
  Sc  Sc53  1  0.69514741  0.90133824  0.31119770  1
  Sc  Sc54  1  0.09867898  0.31089396  0.48988105  1
  Sc  Sc55  1  0.49470546  0.70682339  0.90477302  1
  Sc  Sc56  1  0.89727045  0.89765245  0.30434015  1
  Sc  Sc57  1  0.90746758  0.09479921  0.30792451  1
  Sc  Sc58  1  0.29603731  0.31262247  0.49572706  1
  Sc  Sc59  1  0.50155083  0.31394839  0.30041413  1
  Sc  Sc60  1  0.69288650  0.09466670  0.29450830  1
  Sc  Sc61  1  0.29807657  0.09039581  0.50283905  1
  Sc  Sc62  1  0.49423458  0.11178553  0.69776998  1
  Sc  Sc63  1  0.69874799  0.49698751  0.31009119  1
  Sc  Sc64  1  0.10275725  0.70758193  0.10434276  1
  Sc  Sc65  1  0.69617679  0.29743808  0.69444587  1
  Sc  Sc66  1  0.90072593  0.49546701  0.49590268  1
  Sc  Sc67  1  0.49751971  0.10003289  0.50614277  1
  Sc  Sc68  1  0.11182667  0.30013152  0.90099292  1
  Sc  Sc69  1  0.29632244  0.30698473  0.08974598  1
  Sc  Sc70  1  0.31040405  0.50239053  0.50024057  1
  Sc  Sc71  1  0.50635656  0.30345295  0.10613682  1
  Sc  Sc72  1  0.69556779  0.30173165  0.50878693  1
  Sc  Sc73  1  0.49564109  0.48762404  0.89823750  1
  Sc  Sc74  1  0.50058628  0.30021433  0.51199548  1
  Sc  Sc75  1  0.49778774  0.68668420  0.49814554  1
  Sc  Sc76  1  0.90898072  0.70692435  0.90355404  1
  Sc  Sc77  1  0.30147490  0.69566167  0.30079584  1
  Sc  Sc78  1  0.09920791  0.50520852  0.30840794  1
  Sc  Sc79  1  0.30121693  0.09935392  0.70540789  1
  Sc  Sc80  1  0.50917245  0.70762200  0.69611199  1
  Sc  Sc81  1  0.70597138  0.10837406  0.69689069  1
  Sc  Sc82  1  0.09875025  0.49932688  0.89610500  1
  Sc  Sc83  1  0.29652218  0.89918969  0.10165958  1
  Sc  Sc84  1  0.10255635  0.90324614  0.10127424  1
  Sc  Sc85  1  0.90675675  0.30687213  0.30077121  1
  Sc  Sc86  1  0.70195269  0.71028532  0.89925132  1
  Sc  Sc87  1  0.30205851  0.49312350  0.69591509  1
  Sc  Sc88  1  0.10237984  0.70164704  0.71208862  1
  Sc  Sc89  1  0.89704129  0.09707407  0.69967945  1
  Sc  Sc90  1  0.90224413  0.90630210  0.70508089  1
  Sc  Sc91  1  0.70739284  0.29122546  0.11037490  1
  Sc  Sc92  1  0.89667410  0.69960567  0.69786599  1
  Sc  Sc93  1  0.70409835  0.89951201  0.90127782  1
  Sc  Sc94  1  0.10815718  0.90517737  0.49925988  1
  Sc  Sc95  1  0.89086004  0.69710242  0.49662242  1
  Sc  Sc96  1  0.50147630  0.89847754  0.29681560  1
  Sc  Sc97  1  0.70132045  0.48694645  0.69539173  1
  Sc  Sc98  1  0.30499991  0.49825559  0.10266380  1
  Sc  Sc99  1  0.09627066  0.49494082  0.70772708  1
  Nb  Nb100  1  0.09529354  0.89960179  0.69281554  1
  Nb  Nb101  1  0.10800205  0.11148234  0.29689790  1
  Nb  Nb102  1  0.30075891  0.69206724  0.09673907  1
  Nb  Nb103  1  0.10289685  0.50305048  0.50253711  1
  Nb  Nb104  1  0.49598883  0.49471105  0.49711322  1
  Nb  Nb105  1  0.50632003  0.89753891  0.09622655  1
  Nb  Nb106  1  0.50173433  0.29470910  0.89276280  1
  Nb  Nb107  1  0.90102065  0.49780904  0.09950180  1
  Nb  Nb108  1  0.69911743  0.89901560  0.49892853  1
  Nb  Nb109  1  0.90396458  0.50040622  0.69809289  1
  Nb  Nb110  1  0.10451018  0.29335419  0.30325714  1
  Nb  Nb111  1  0.29503474  0.29711557  0.30311345  1
  Nb  Nb112  1  0.88729782  0.09708135  0.89572405  1
  Nb  Nb113  1  0.70214405  0.70451173  0.51669899  1
  Nb  Nb114  1  0.50047346  0.89877033  0.70117317  1
  Nb  Nb115  1  0.50354236  0.70107381  0.29470865  1
  Nb  Nb116  1  0.30915902  0.29897814  0.90357418  1
  Nb  Nb117  1  0.50588288  0.29867298  0.70785262  1
  Nb  Nb118  1  0.29957927  0.10396680  0.29441093  1
  Nb  Nb119  1  0.70097594  0.69086069  0.69472264  1
  Nb  Nb120  1  0.49770851  0.09888545  0.30018138  1
  Nb  Nb121  1  0.69928929  0.49841215  0.89580215  1
  Nb  Nb122  1  0.70386084  0.09899514  0.89786076  1
  Nb  Nb123  1  0.29844892  0.69962555  0.50273538  1
  Nb  Nb124  1  0.69949464  0.09777450  0.09685715  1
  Nb  Nb125  1  0.79425797  0.19949250  0.40091792  1
  Nb  Nb126  1  0.60127633  -0.00852715  0.60475212  1
  Nb  Nb127  1  0.19341074  0.20309521  0.60087435  1
  Nb  Nb128  1  0.79453776  0.59757625  0.79555008  1
  Nb  Nb129  1  0.39875643  0.19881138  0.39099294  1
  Nb  Nb130  1  0.60200545  0.59757777  0.80174711  1
  Nb  Nb131  1  0.20418632  0.60139166  0.00296835  1
  Nb  Nb132  1  0.19645129  0.39324816  0.20938697  1
  Nb  Nb133  1  0.40417007  0.59893335  0.79893864  1
  Nb  Nb134  1  0.80099387  0.40418904  -0.00270500  1
  Nb  Nb135  1  0.60961313  0.39704628  -0.00424305  1
  Nb  Nb136  1  0.39821237  0.80107448  0.59641928  1
  Nb  Nb137  1  0.79701442  0.00322152  0.19182374  1
  Nb  Nb138  1  0.00478866  0.79970162  0.59820203  1
  Nb  Nb139  1  0.00561066  0.60072336  0.59843707  1
  Nb  Nb140  1  0.59529283  0.19788263  0.39826354  1
  Nb  Nb141  1  0.59951191  0.59670986  -0.00229757  1
  Nb  Nb142  1  0.39757392  0.19563382  0.20164117  1
  Nb  Nb143  1  -0.00578524  0.00757328  -0.00550045  1
  Nb  Nb144  1  0.59758209  0.60613863  0.19927056  1
  Nb  Nb145  1  0.60190451  -0.00177134  0.79266065  1
  Nb  Nb146  1  0.40773374  0.19777912  0.00253024  1
  Nb  Nb147  1  0.60305292  0.19868743  -0.00561906  1
  Nb  Nb148  1  0.19625802  0.60014274  0.59699833  1
  Nb  Nb149  1  0.00409309  0.20379856  0.60131653  1
  Pd  Pd150  1  0.60244142  0.60709872  0.39969954  1
  Pd  Pd151  1  0.79562809  0.40327741  0.19880293  1
  Pd  Pd152  1  0.00099856  0.79521210  0.20221940  1
  Pd  Pd153  1  0.78965081  0.21243051  -0.00671420  1
  Pd  Pd154  1  0.40170363  0.79172746  0.40129896  1
  Pd  Pd155  1  0.80619736  0.19120794  0.21521883  1
  Pd  Pd156  1  0.39094325  0.39116463  0.20018229  1
  Pd  Pd157  1  0.38698566  0.20749105  0.59115465  1
  Pd  Pd158  1  0.79434823  0.60078325  0.21074138  1
  Pd  Pd159  1  0.81200643  0.80375076  0.59945397  1
  Pd  Pd160  1  0.79836916  0.39565170  0.40628706  1
  Pd  Pd161  1  -0.00069513  0.39648874  -0.01001808  1
  Pd  Pd162  1  0.19574761  -0.00615032  0.80206730  1
  Pd  Pd163  1  -0.00047579  0.00671724  0.80487794  1
  Pd  Pd164  1  0.20831411  0.19635909  0.41194461  1
  Pd  Pd165  1  0.20092353  0.79918708  0.00079397  1
  Pd  Pd166  1  0.20112730  0.80806915  0.79894144  1
  Pd  Pd167  1  -0.00591221  0.19427949  0.79412015  1
  Pd  Pd168  1  0.40208670  0.59998768  0.20706518  1
  Pd  Pd169  1  0.40488800  -0.00469416  0.60427422  1
  Pd  Pd170  1  0.40263912  0.00581267  0.40070436  1
  Pd  Pd171  1  0.39426521  0.80819950  0.00656634  1
  Pd  Pd172  1  0.21023415  0.58760047  0.80125140  1
  Pd  Pd173  1  0.79134029  -0.01099101  0.61046705  1
  Pd  Pd174  1  0.80581499  0.79180912  0.79957144  1
  Pd  Pd175  1  0.00254162  0.60548135  0.19964484  1
  Pd  Pd176  1  0.39326949  0.80448774  0.20098599  1
  Pd  Pd177  1  0.59744153  0.79024704  0.40793220  1
  Pd  Pd178  1  0.20009011  0.59093749  0.19639518  1
  Pd  Pd179  1  0.59321953  0.19979542  0.20203301  1
  Pd  Pd180  1  0.00841292  0.60541374  0.00757013  1
  Pd  Pd181  1  0.00335792  -0.00115940  0.40057500  1
  Pd  Pd182  1  0.79706902  0.60328531  -0.01181748  1
  Pd  Pd183  1  0.79299565  0.81298513  0.20444235  1
  Pd  Pd184  1  0.40136946  0.79709681  0.79209641  1
  Pd  Pd185  1  0.80157466  -0.00447995  0.00345616  1
  Pd  Pd186  1  0.40172837  -0.00284627  0.19522315  1
  Pd  Pd187  1  0.60931673  0.41176229  0.19408202  1
  Pd  Pd188  1  0.20818576  0.39835694  0.80312104  1
  Pd  Pd189  1  0.79993202  0.40276980  0.59264059  1
  Pd  Pd190  1  0.19831146  0.40135094  0.60031883  1
  Pd  Pd191  1  -0.00777482  0.19777171  0.20851507  1
  Pd  Pd192  1  0.20925417  0.20607121  0.18937540  1
  Pd  Pd193  1  0.59487097  0.59494562  0.60506058  1
  Pd  Pd194  1  -0.00811555  0.00704875  0.19288812  1
  Pd  Pd195  1  -0.00494051  0.59995026  0.40718563  1
  Pd  Pd196  1  0.20645453  0.79988811  0.20550975  1
  Pd  Pd197  1  0.20145453  0.80092106  0.38689056  1
  Pd  Pd198  1  0.00011857  0.19864540  -0.00765892  1
  Pd  Pd199  1  0.19581107  0.00748904  0.39607460  1
  Rh  Rh200  1  0.40189878  0.39203751  0.59954402  1
  Rh  Rh201  1  0.80227024  0.79983596  -0.00014400  1
  Rh  Rh202  1  0.20845344  0.20325123  0.00153562  1
  Rh  Rh203  1  -0.00936639  0.60288455  0.79092642  1
  Rh  Rh204  1  0.79682263  0.80120825  0.40944720  1
  Rh  Rh205  1  0.59804229  0.79637006  0.80683804  1
  Rh  Rh206  1  0.39653483  0.60536311  0.60406371  1
  Rh  Rh207  1  0.20767648  0.59670974  0.40859640  1
  Rh  Rh208  1  -0.00183228  0.39937074  0.80503969  1
  Rh  Rh209  1  0.39978385  0.60463053  0.39891910  1
  Rh  Rh210  1  0.19603901  0.00055857  0.20655512  1
  Rh  Rh211  1  0.79568730  0.60062686  0.40413022  1
  Rh  Rh212  1  0.00460935  0.40529409  0.39421187  1
  Rh  Rh213  1  0.60362027  -0.00795358  0.20653253  1
  Rh  Rh214  1  0.00031074  0.80396441  0.40598111  1
  Rh  Rh215  1  0.00932586  0.40136821  0.21044738  1
  Rh  Rh216  1  0.59314996  0.40488492  0.79642530  1
  Rh  Rh217  1  0.00174533  0.40325442  0.59951964  1
  Rh  Rh218  1  0.59215508  0.79976780  0.58961031  1
  Rh  Rh219  1  0.00171372  -0.00166396  0.59732842  1
  Rh  Rh220  1  0.59655615  0.39423312  0.41212422  1
  Rh  Rh221  1  0.40428172  -0.00151468  0.00705212  1
  Rh  Rh222  1  0.60074732  0.79989765  0.20465545  1
  Rh  Rh223  1  0.59805362  0.19279332  0.59838650  1
  Rh  Rh224  1  0.60288472  0.18894565  0.79720316  1
  Rh  Rh225  1  0.00120452  0.80202118  0.00619180  1
  Rh  Rh226  1  -0.00545788  0.19866040  0.40038946  1
  Rh  Rh227  1  0.40594743  0.39080916  0.40442786  1
  Rh  Rh228  1  0.80683334  0.59275817  0.60321808  1
  Rh  Rh229  1  0.59426903  0.00542053  0.40576164  1
  Rh  Rh230  1  0.40480595  -0.00107810  0.79165662  1
  Rh  Rh231  1  0.39640013  0.20397889  0.80359805  1
  Rh  Rh232  1  0.59849784  0.79555667  -0.00460069  1
  Rh  Rh233  1  0.19651580  0.00720496  0.59817773  1
  Rh  Rh234  1  0.39887951  0.60248972  -0.00970216  1
  Rh  Rh235  1  0.40261895  0.40004185  0.79740024  1
  Rh  Rh236  1  0.60181300  0.00433667  -0.01396488  1
  Rh  Rh237  1  -0.00447262  0.79797562  0.78832695  1
  Rh  Rh238  1  0.81010148  0.20503047  0.59361611  1
  Rh  Rh239  1  0.59661897  0.40177129  0.60000502  1
  Rh  Rh240  1  0.80242825  0.19775941  0.79297867  1
  Rh  Rh241  1  0.41467066  0.38428745  0.00342027  1
  Rh  Rh242  1  0.78850222  -0.00135078  0.79473516  1
  Rh  Rh243  1  0.20881035  0.20672916  0.79430244  1
  Rh  Rh244  1  0.19561433  0.40658936  0.39525691  1
  Rh  Rh245  1  0.19320682  0.40534205  0.00661649  1
  Rh  Rh246  1  0.79480994  0.00507119  0.38991743  1
  Rh  Rh247  1  0.81039304  0.40981644  0.80187075  1
  Rh  Rh248  1  0.18728701  -0.00674779  -0.00763924  1
  Rh  Rh249  1  0.19714576  0.79289432  0.60500159  1
