# generated using pymatgen
data_ZrScNbPdRh
_symmetry_space_group_name_H-M   'P 1'
_cell_length_a   16.55253988
_cell_length_b   16.55437017
_cell_length_c   16.55765718
_cell_angle_alpha   90.01237520
_cell_angle_beta   90.03162848
_cell_angle_gamma   89.97729941
_symmetry_Int_Tables_number   1
_chemical_formula_structural   ZrScNbPdRh
_chemical_formula_sum   'Zr50 Sc50 Nb50 Pd50 Rh50'
_cell_volume   4537.07628078
_cell_formula_units_Z   50
loop_
 _symmetry_equiv_pos_site_id
 _symmetry_equiv_pos_as_xyz
  1  'x, y, z'
loop_
 _atom_site_type_symbol
 _atom_site_label
 _atom_site_symmetry_multiplicity
 _atom_site_fract_x
 _atom_site_fract_y
 _atom_site_fract_z
 _atom_site_occupancy
  Zr  Zr0  1  0.29717263  0.29716593  0.70110419  1
  Zr  Zr1  1  0.10397858  0.69782919  0.29537596  1
  Zr  Zr2  1  0.29617330  0.89638881  0.90521063  1
  Zr  Zr3  1  0.49572237  0.50634394  0.49639124  1
  Zr  Zr4  1  0.50855975  0.70136632  0.09926708  1
  Zr  Zr5  1  0.10133451  0.90210314  0.71274136  1
  Zr  Zr6  1  0.71280436  0.51444712  0.70434298  1
  Zr  Zr7  1  0.90540880  0.70410628  0.90649651  1
  Zr  Zr8  1  0.49656646  0.90536435  0.50139057  1
  Zr  Zr9  1  0.30271496  0.90391490  0.70321727  1
  Zr  Zr10  1  0.69676917  0.29442468  0.29807971  1
  Zr  Zr11  1  0.29483445  0.09446518  0.29819086  1
  Zr  Zr12  1  0.89539776  0.89663346  0.09864179  1
  Zr  Zr13  1  0.49403102  0.09375236  0.69844025  1
  Zr  Zr14  1  0.90685874  0.30028097  0.08196320  1
  Zr  Zr15  1  0.10427892  0.50143668  0.89170762  1
  Zr  Zr16  1  0.89079884  0.69157613  0.69911933  1
  Zr  Zr17  1  0.10831705  0.51073034  0.50550437  1
  Zr  Zr18  1  0.90332962  0.69810496  0.09975841  1
  Zr  Zr19  1  0.90127494  0.09885930  0.09865379  1
  Zr  Zr20  1  0.49778345  0.69834614  0.50446222  1
  Zr  Zr21  1  0.30449801  0.50499507  0.89902724  1
  Zr  Zr22  1  0.89044937  0.10366794  0.90020572  1
  Zr  Zr23  1  0.29722754  0.69958015  0.29998452  1
  Zr  Zr24  1  0.10518470  0.90586196  0.50356967  1
  Zr  Zr25  1  0.69718420  0.09558342  0.89873173  1
  Zr  Zr26  1  0.71549306  0.30182394  0.89862240  1
  Zr  Zr27  1  0.90328030  0.31112689  0.30595320  1
  Zr  Zr28  1  0.69251569  0.49767484  0.50675588  1
  Zr  Zr29  1  0.09010109  0.68516286  0.70212275  1
  Zr  Zr30  1  0.29670985  0.70474784  0.10188765  1
  Zr  Zr31  1  0.09979283  0.89711597  0.31752291  1
  Zr  Zr32  1  0.49958964  0.09743265  0.50398385  1
  Zr  Zr33  1  0.89848967  0.70877515  0.30249059  1
  Zr  Zr34  1  0.69393635  0.70647065  0.29631099  1
  Zr  Zr35  1  0.30714725  0.30103169  0.89802635  1
  Zr  Zr36  1  0.89763348  0.49887372  0.50029497  1
  Zr  Zr37  1  0.70759611  0.90289960  0.30291039  1
  Zr  Zr38  1  0.50083096  0.29893407  0.90636449  1
  Zr  Zr39  1  0.50110598  0.90356671  0.30677756  1
  Zr  Zr40  1  0.10321840  0.70723487  0.48970817  1
  Zr  Zr41  1  0.29017686  0.30616145  0.29270077  1
  Zr  Zr42  1  0.09827636  0.09471534  0.89456459  1
  Zr  Zr43  1  0.69623292  0.69222582  0.90879903  1
  Zr  Zr44  1  0.30466657  0.70161514  0.90594012  1
  Zr  Zr45  1  0.09271765  0.30205797  0.90539009  1
  Zr  Zr46  1  0.69475242  0.29942425  0.49814606  1
  Zr  Zr47  1  0.89954746  0.29965893  0.70349036  1
  Zr  Zr48  1  0.49896834  0.09832381  0.90139161  1
  Zr  Zr49  1  0.50438091  0.09999550  0.10088652  1
  Sc  Sc50  1  0.10107814  0.49504536  0.29112263  1
  Sc  Sc51  1  0.50199686  0.30822010  0.29426078  1
  Sc  Sc52  1  0.10150894  0.30224233  0.10304701  1
  Sc  Sc53  1  0.69643326  0.89534842  0.10052262  1
  Sc  Sc54  1  0.50046941  0.29672560  0.09860797  1
  Sc  Sc55  1  0.49849430  0.50718275  0.10570314  1
  Sc  Sc56  1  0.49460242  0.70121753  0.29863212  1
  Sc  Sc57  1  0.11437058  0.89435476  0.09525388  1
  Sc  Sc58  1  0.09630339  0.29678927  0.49456570  1
  Sc  Sc59  1  0.30156920  0.90324354  0.49403451  1
  Sc  Sc60  1  0.30117280  0.50063532  0.30034022  1
  Sc  Sc61  1  0.30156929  0.08012034  0.09867562  1
  Sc  Sc62  1  0.89824399  0.89995576  0.48979691  1
  Sc  Sc63  1  0.50121831  0.29172845  0.68931151  1
  Sc  Sc64  1  0.30227338  0.50349726  0.10823285  1
  Sc  Sc65  1  0.10396260  0.69513155  0.09788799  1
  Sc  Sc66  1  0.69608552  0.90250727  0.70021776  1
  Sc  Sc67  1  0.69646235  0.30067112  0.10279485  1
  Sc  Sc68  1  0.69317555  0.48660151  0.29431439  1
  Sc  Sc69  1  0.29248051  0.30668103  0.49400963  1
  Sc  Sc70  1  0.49417996  0.50048259  0.29669918  1
  Sc  Sc71  1  0.10490133  0.09837114  0.09986876  1
  Sc  Sc72  1  0.69952925  0.70492262  0.69559165  1
  Sc  Sc73  1  0.09829161  0.70110318  0.90490340  1
  Sc  Sc74  1  0.90606093  0.49356571  0.10163519  1
  Sc  Sc75  1  0.10748039  0.30111895  0.70030398  1
  Sc  Sc76  1  0.49884768  0.70925664  0.69792139  1
  Sc  Sc77  1  0.70040751  0.09165683  0.29715034  1
  Sc  Sc78  1  0.50105208  0.70072163  0.89954426  1
  Sc  Sc79  1  0.70170931  0.29961240  0.69194806  1
  Sc  Sc80  1  0.69861203  0.09393843  0.69728322  1
  Sc  Sc81  1  0.10136729  0.50506283  0.09995577  1
  Sc  Sc82  1  0.89663251  0.48595855  0.89880126  1
  Sc  Sc83  1  0.50369625  0.90078102  0.70303516  1
  Sc  Sc84  1  0.69297948  0.09901699  0.10451387  1
  Sc  Sc85  1  0.50541983  0.52009953  0.68979527  1
  Sc  Sc86  1  0.10376522  0.09984630  0.49543821  1
  Sc  Sc87  1  0.89749553  0.10080976  0.49654997  1
  Sc  Sc88  1  0.29977398  0.09139191  0.50905178  1
  Sc  Sc89  1  0.50306365  0.08951702  0.29383902  1
  Sc  Sc90  1  0.49565861  0.90115470  0.09978896  1
  Sc  Sc91  1  0.89038986  0.09988086  0.69929494  1
  Sc  Sc92  1  0.89619026  0.29855274  0.49988419  1
  Sc  Sc93  1  0.50141890  0.30507662  0.50198487  1
  Sc  Sc94  1  0.70020378  0.89972957  0.50128325  1
  Sc  Sc95  1  0.89539782  0.70511098  0.50543875  1
  Sc  Sc96  1  0.50794244  0.89669699  0.89889269  1
  Sc  Sc97  1  0.30395594  0.89767283  0.29781321  1
  Sc  Sc98  1  0.89162767  0.90068092  0.70279235  1
  Sc  Sc99  1  0.30458406  0.69404712  0.49297446  1
  Nb  Nb100  1  0.10315178  0.29025734  0.29867639  1
  Nb  Nb101  1  0.29770234  0.09928283  0.70823111  1
  Nb  Nb102  1  0.09953801  0.50212829  0.70071656  1
  Nb  Nb103  1  0.09760158  0.09975282  0.30061946  1
  Nb  Nb104  1  0.30316516  0.50520674  0.50001847  1
  Nb  Nb105  1  0.89914935  0.90721765  0.29917293  1
  Nb  Nb106  1  0.50239505  0.50067419  0.89573458  1
  Nb  Nb107  1  0.90300238  0.29211733  0.90036283  1
  Nb  Nb108  1  0.30247748  0.70347699  0.70281461  1
  Nb  Nb109  1  0.10546217  0.09749862  0.69744427  1
  Nb  Nb110  1  0.30116471  0.89003856  0.09722179  1
  Nb  Nb111  1  0.69671459  0.68787578  0.10070902  1
  Nb  Nb112  1  0.70564868  0.70251762  0.49708115  1
  Nb  Nb113  1  0.69783694  0.50099774  0.90138120  1
  Nb  Nb114  1  0.30556285  0.10270842  0.89168348  1
  Nb  Nb115  1  0.08720408  0.89510190  0.89964681  1
  Nb  Nb116  1  0.30143360  0.30146816  0.09883091  1
  Nb  Nb117  1  0.69858221  0.50911050  0.09279541  1
  Nb  Nb118  1  0.28660206  0.50157507  0.69920607  1
  Nb  Nb119  1  0.89962333  0.89862059  0.90310094  1
  Nb  Nb120  1  0.70018382  0.89793923  0.89522525  1
  Nb  Nb121  1  0.90095643  0.50444066  0.29804765  1
  Nb  Nb122  1  0.91083983  0.51037892  0.69899084  1
  Nb  Nb123  1  0.89942219  0.09014571  0.29992863  1
  Nb  Nb124  1  0.69483663  0.09894558  0.49858440  1
  Nb  Nb125  1  -0.00008908  0.19732831  0.20937647  1
  Nb  Nb126  1  0.00513076  0.00015166  0.60486539  1
  Nb  Nb127  1  0.60131831  0.20284293  0.80257511  1
  Nb  Nb128  1  -0.00128416  0.19901095  0.79999163  1
  Nb  Nb129  1  0.00315675  0.40949787  0.60573785  1
  Nb  Nb130  1  0.40118636  0.19881588  0.39347734  1
  Nb  Nb131  1  0.20746374  0.39624058  -0.00103036  1
  Nb  Nb132  1  0.20927625  0.19957634  -0.00382488  1
  Nb  Nb133  1  0.00164760  -0.00262824  0.20351681  1
  Nb  Nb134  1  0.39326524  0.19904267  0.20111447  1
  Nb  Nb135  1  0.40536961  0.40799431  0.79101274  1
  Nb  Nb136  1  0.59700867  0.19568061  0.40126835  1
  Nb  Nb137  1  0.60359348  0.40969449  -0.00684547  1
  Nb  Nb138  1  0.79788977  0.79956344  0.81095064  1
  Nb  Nb139  1  -0.00137894  -0.00669977  -0.00204449  1
  Nb  Nb140  1  0.00495636  0.80409529  0.60313211  1
  Nb  Nb141  1  0.79675435  0.59734966  0.20017438  1
  Nb  Nb142  1  0.19946164  0.79777918  0.60713462  1
  Nb  Nb143  1  0.79668884  0.59789596  0.39446543  1
  Nb  Nb144  1  0.60583337  0.60237268  0.40183082  1
  Nb  Nb145  1  0.00066505  0.80828589  0.20395801  1
  Nb  Nb146  1  0.59888758  0.40446723  0.80170248  1
  Nb  Nb147  1  -0.00534726  0.59867492  0.39628440  1
  Nb  Nb148  1  0.39001636  0.41199448  0.60365307  1
  Nb  Nb149  1  0.81270394  0.20056345  0.20423948  1
  Pd  Pd150  1  0.40376045  0.80116736  0.19981717  1
  Pd  Pd151  1  0.19651040  0.79154519  0.80153058  1
  Pd  Pd152  1  0.59086348  0.40479284  0.61062348  1
  Pd  Pd153  1  0.01055470  0.40748251  0.40667479  1
  Pd  Pd154  1  0.20181129  0.19725108  0.59436359  1
  Pd  Pd155  1  0.40075018  0.59988187  0.79146050  1
  Pd  Pd156  1  0.19177997  0.40687605  0.39753518  1
  Pd  Pd157  1  -0.00452213  0.19643015  0.39768020  1
  Pd  Pd158  1  0.19653306  0.00100557  -0.00832983  1
  Pd  Pd159  1  0.81190932  0.59051945  0.00168638  1
  Pd  Pd160  1  0.59636589  0.80711810  0.19829161  1
  Pd  Pd161  1  0.59517179  0.40322093  0.18817379  1
  Pd  Pd162  1  0.78957151  0.19810979  0.01105992  1
  Pd  Pd163  1  0.38897208  0.20740789  0.58842882  1
  Pd  Pd164  1  0.40440260  0.60177908  0.00644354  1
  Pd  Pd165  1  0.19667711  0.39814537  0.59616597  1
  Pd  Pd166  1  0.79941847  0.40370627  0.79257727  1
  Pd  Pd167  1  0.78885529  0.79863486  -0.00047580  1
  Pd  Pd168  1  0.40358412  0.41015383  0.00426121  1
  Pd  Pd169  1  0.80211511  0.39886424  0.19102832  1
  Pd  Pd170  1  0.40091646  0.39489910  0.40313939  1
  Pd  Pd171  1  0.59581670  0.79798786  0.40474755  1
  Pd  Pd172  1  0.00330514  0.19808100  0.60601884  1
  Pd  Pd173  1  0.19456612  -0.01189702  0.20489835  1
  Pd  Pd174  1  0.20746990  0.61280464  0.60018309  1
  Pd  Pd175  1  0.79627349  -0.00165756  0.00338900  1
  Pd  Pd176  1  0.79315451  0.40484116  0.39883643  1
  Pd  Pd177  1  0.80479888  -0.00411486  0.59259821  1
  Pd  Pd178  1  -0.00214512  0.58996486  -0.00395756  1
  Pd  Pd179  1  0.40233979  -0.00644235  -0.00478814  1
  Pd  Pd180  1  0.20507555  -0.00259264  0.80828368  1
  Pd  Pd181  1  0.40989119  0.20558282  0.79443904  1
  Pd  Pd182  1  0.60043957  -0.00808819  0.00196309  1
  Pd  Pd183  1  0.39274855  0.18998558  0.01105025  1
  Pd  Pd184  1  0.40597764  0.80427350  0.80527843  1
  Pd  Pd185  1  0.80022421  0.79548655  0.19617739  1
  Pd  Pd186  1  0.79577254  0.19708448  0.59934243  1
  Pd  Pd187  1  0.20776927  0.19401076  0.40532876  1
  Pd  Pd188  1  0.19298781  0.20224056  0.80529801  1
  Pd  Pd189  1  0.00036347  0.39649489  0.79452690  1
  Pd  Pd190  1  0.60323114  0.80351698  0.59839270  1
  Pd  Pd191  1  0.79470017  0.19358989  0.39374744  1
  Pd  Pd192  1  -0.00991024  0.79562347  0.79206963  1
  Pd  Pd193  1  -0.01209507  0.00740139  0.79862871  1
  Pd  Pd194  1  0.00400272  0.39419067  0.19798931  1
  Pd  Pd195  1  0.20229369  0.61013831  0.80381076  1
  Pd  Pd196  1  0.20074619  0.19717150  0.19004854  1
  Pd  Pd197  1  0.80717051  0.40264644  0.60679880  1
  Pd  Pd198  1  0.39132892  0.80289399  0.59515764  1
  Pd  Pd199  1  0.59930452  0.60519512  0.79707835  1
  Rh  Rh200  1  0.19677258  0.59347896  0.39211255  1
  Rh  Rh201  1  -0.00192270  0.60227633  0.58889325  1
  Rh  Rh202  1  0.59032079  0.59537802  -0.00080121  1
  Rh  Rh203  1  0.19696228  0.40198934  0.19348351  1
  Rh  Rh204  1  0.79867566  0.00474190  0.19565774  1
  Rh  Rh205  1  0.39891115  -0.00490306  0.80502126  1
  Rh  Rh206  1  0.21335357  0.80073378  0.40510727  1
  Rh  Rh207  1  0.60483151  0.59584485  0.21008012  1
  Rh  Rh208  1  0.60114071  -0.00820390  0.19871765  1
  Rh  Rh209  1  0.79766075  0.60089126  0.59037599  1
  Rh  Rh210  1  0.20357085  0.59507792  0.00036325  1
  Rh  Rh211  1  0.80744211  0.60470685  0.81341987  1
  Rh  Rh212  1  0.59551478  0.19696385  0.20900191  1
  Rh  Rh213  1  0.60757193  0.61148728  0.59527586  1
  Rh  Rh214  1  0.39772036  0.60661520  0.20074848  1
  Rh  Rh215  1  0.20685648  0.40041431  0.80601752  1
  Rh  Rh216  1  0.19650797  0.80335214  0.20285070  1
  Rh  Rh217  1  0.01035707  0.40774999  -0.00108175  1
  Rh  Rh218  1  0.60239021  0.79933630  0.00143419  1
  Rh  Rh219  1  0.00705481  0.80642486  0.01247204  1
  Rh  Rh220  1  0.79806924  0.19999680  0.79291358  1
  Rh  Rh221  1  0.79741627  -0.00818554  0.80243783  1
  Rh  Rh222  1  0.79486498  0.40275878  0.00501262  1
  Rh  Rh223  1  0.19615787  0.79633481  -0.00623309  1
  Rh  Rh224  1  0.79915994  0.80258898  0.40121576  1
  Rh  Rh225  1  0.40062306  0.79947320  0.40151394  1
  Rh  Rh226  1  -0.00588133  0.60807091  0.20528053  1
  Rh  Rh227  1  0.01223074  0.18944638  -0.00200732  1
  Rh  Rh228  1  0.40535180  0.80148459  0.00036796  1
  Rh  Rh229  1  0.20329780  0.00271879  0.39779080  1
  Rh  Rh230  1  0.60842575  0.79548229  0.80239035  1
  Rh  Rh231  1  0.19967841  -0.00274495  0.60712210  1
  Rh  Rh232  1  0.79617539  0.00173183  0.40494103  1
  Rh  Rh233  1  0.40508305  0.60091426  0.39412587  1
  Rh  Rh234  1  0.39976373  -0.00303215  0.19720509  1
  Rh  Rh235  1  0.38856696  0.59943452  0.60750568  1
  Rh  Rh236  1  0.59940185  -0.00296295  0.59970444  1
  Rh  Rh237  1  0.20354353  0.59784211  0.19968115  1
  Rh  Rh238  1  0.39626690  -0.00291915  0.60613742  1
  Rh  Rh239  1  0.60577019  0.19318608  0.59939505  1
  Rh  Rh240  1  0.60879726  0.20798134  -0.00763751  1
  Rh  Rh241  1  -0.00687057  0.79723488  0.40214854  1
  Rh  Rh242  1  0.39816251  0.00594846  0.39754686  1
  Rh  Rh243  1  -0.00614559  0.59614955  0.81151177  1
  Rh  Rh244  1  0.60407226  0.00290636  0.40308222  1
  Rh  Rh245  1  0.39935066  0.39411123  0.19680093  1
  Rh  Rh246  1  0.59962111  0.00583323  0.79908114  1
  Rh  Rh247  1  0.80272048  0.80438676  0.60575957  1
  Rh  Rh248  1  -0.00050646  0.00671998  0.40485052  1
  Rh  Rh249  1  0.59518504  0.40016414  0.40086316  1
