# generated using pymatgen
data_ZrScNbPdRh
_symmetry_space_group_name_H-M   'P 1'
_cell_length_a   16.55999255
_cell_length_b   16.55707562
_cell_length_c   16.55559286
_cell_angle_alpha   90.01858761
_cell_angle_beta   89.96351089
_cell_angle_gamma   89.98195060
_symmetry_Int_Tables_number   1
_chemical_formula_structural   ZrScNbPdRh
_chemical_formula_sum   'Zr50 Sc50 Nb50 Pd50 Rh50'
_cell_volume   4539.29465177
_cell_formula_units_Z   50
loop_
 _symmetry_equiv_pos_site_id
 _symmetry_equiv_pos_as_xyz
  1  'x, y, z'
loop_
 _atom_site_type_symbol
 _atom_site_label
 _atom_site_symmetry_multiplicity
 _atom_site_fract_x
 _atom_site_fract_y
 _atom_site_fract_z
 _atom_site_occupancy
  Zr  Zr0  1  0.29846057  0.70248767  0.69387197  1
  Zr  Zr1  1  0.29869203  0.49445018  0.89876328  1
  Zr  Zr2  1  0.29994041  0.30277784  0.90174352  1
  Zr  Zr3  1  0.69925528  0.69852853  0.89363135  1
  Zr  Zr4  1  0.30690943  0.10179149  0.90693254  1
  Zr  Zr5  1  0.89897513  0.30616893  0.30197806  1
  Zr  Zr6  1  0.10064199  0.49741576  0.10374794  1
  Zr  Zr7  1  0.09366498  0.28819115  0.30078914  1
  Zr  Zr8  1  0.90603934  0.89216781  0.51029542  1
  Zr  Zr9  1  0.69169748  0.30417765  0.30473316  1
  Zr  Zr10  1  0.09927022  0.49661897  0.49816219  1
  Zr  Zr11  1  0.49412998  0.69516966  0.09802768  1
  Zr  Zr12  1  0.29840696  0.90238034  0.90261858  1
  Zr  Zr13  1  0.89592078  0.49791299  0.09621584  1
  Zr  Zr14  1  0.49723544  0.89918594  0.50470542  1
  Zr  Zr15  1  0.30472008  0.30351633  0.30284338  1
  Zr  Zr16  1  0.30054072  0.10204321  0.68321171  1
  Zr  Zr17  1  0.50051005  0.69392819  0.89291384  1
  Zr  Zr18  1  0.70483454  0.90442677  0.29173611  1
  Zr  Zr19  1  0.29586608  0.51035740  0.30732536  1
  Zr  Zr20  1  0.10208749  0.49869816  0.89552887  1
  Zr  Zr21  1  0.48994566  0.70209407  0.30542123  1
  Zr  Zr22  1  0.10774211  0.89891338  0.10075200  1
  Zr  Zr23  1  0.10921630  0.09991834  0.49729085  1
  Zr  Zr24  1  0.09940299  0.70156978  0.10458250  1
  Zr  Zr25  1  0.89551426  0.69528115  0.89538799  1
  Zr  Zr26  1  0.89797107  0.48624364  0.69962853  1
  Zr  Zr27  1  0.89572227  0.48758942  0.89840463  1
  Zr  Zr28  1  0.49240846  0.49944152  0.29766110  1
  Zr  Zr29  1  0.30452153  0.89886128  0.29335482  1
  Zr  Zr30  1  0.50101232  0.69748733  0.69304180  1
  Zr  Zr31  1  0.89684394  0.30448499  0.09142421  1
  Zr  Zr32  1  0.90142782  0.50761082  0.31541292  1
  Zr  Zr33  1  0.49618092  0.50212431  0.89810849  1
  Zr  Zr34  1  0.69076670  0.09712728  0.29655383  1
  Zr  Zr35  1  0.90314797  0.89545553  0.29596632  1
  Zr  Zr36  1  0.29860170  0.09397476  0.10316350  1
  Zr  Zr37  1  0.70877650  0.49587488  0.49917954  1
  Zr  Zr38  1  0.70562096  0.69794094  0.30052090  1
  Zr  Zr39  1  0.50194535  0.49804370  0.10145013  1
  Zr  Zr40  1  0.09728716  0.29537880  0.10306617  1
  Zr  Zr41  1  0.90071691  0.10456940  0.30216220  1
  Zr  Zr42  1  0.69974718  0.70464438  0.69966529  1
  Zr  Zr43  1  0.89763692  0.71477955  0.69923367  1
  Zr  Zr44  1  0.30369374  0.29833646  0.51097553  1
  Zr  Zr45  1  0.50214706  0.90225827  0.30410153  1
  Zr  Zr46  1  0.50526402  0.89911580  0.89313139  1
  Zr  Zr47  1  0.69847972  0.90197003  0.89640068  1
  Zr  Zr48  1  0.29781108  0.91013640  0.50700277  1
  Zr  Zr49  1  0.50984346  0.09237494  0.49218677  1
  Sc  Sc50  1  0.08867847  0.10783452  0.89382711  1
  Sc  Sc51  1  0.51335655  0.10250318  0.90460673  1
  Sc  Sc52  1  0.50351828  0.10218227  0.10139583  1
  Sc  Sc53  1  0.10545668  0.49653338  0.69955082  1
  Sc  Sc54  1  0.30184647  0.49814596  0.69586492  1
  Sc  Sc55  1  0.10032164  0.70182985  0.50698581  1
  Sc  Sc56  1  0.08859608  0.10503245  0.69473697  1
  Sc  Sc57  1  0.69556972  0.69539041  0.50495723  1
  Sc  Sc58  1  0.09860624  0.30100198  0.50295083  1
  Sc  Sc59  1  0.49254726  0.50254709  0.69641892  1
  Sc  Sc60  1  0.90818801  0.30852060  0.50448356  1
  Sc  Sc61  1  0.50591417  0.09775847  0.29772209  1
  Sc  Sc62  1  0.09838956  0.70745950  0.89126296  1
  Sc  Sc63  1  0.48585522  0.90138299  0.10730929  1
  Sc  Sc64  1  0.09625473  0.30428069  0.90061228  1
  Sc  Sc65  1  0.90003309  0.89451223  0.10669082  1
  Sc  Sc66  1  0.09642102  0.89210807  0.70076997  1
  Sc  Sc67  1  0.70381141  0.50188158  0.89808207  1
  Sc  Sc68  1  0.69577509  0.89696731  0.70108767  1
  Sc  Sc69  1  0.29431789  0.50091021  0.50174038  1
  Sc  Sc70  1  0.29702348  0.90244893  0.09970399  1
  Sc  Sc71  1  0.69375549  0.89943442  0.50651613  1
  Sc  Sc72  1  0.30377192  0.10272824  0.49749519  1
  Sc  Sc73  1  0.70344134  0.49414463  0.09160634  1
  Sc  Sc74  1  0.89860773  0.69841019  0.11155045  1
  Sc  Sc75  1  0.49831174  0.29544968  0.90810853  1
  Sc  Sc76  1  0.90713653  0.89446580  0.89498414  1
  Sc  Sc77  1  0.30161358  0.30291351  0.09725957  1
  Sc  Sc78  1  0.88953934  0.10546445  0.08816881  1
  Sc  Sc79  1  0.70678979  0.91521927  0.10262251  1
  Sc  Sc80  1  0.49695545  0.30128854  0.49966515  1
  Sc  Sc81  1  0.51107454  0.10098347  0.69123629  1
  Sc  Sc82  1  0.30560361  0.49994894  0.10635468  1
  Sc  Sc83  1  0.50623371  0.30468553  0.10541019  1
  Sc  Sc84  1  0.70097495  0.49729102  0.69037639  1
  Sc  Sc85  1  0.29836438  0.70396073  0.11262459  1
  Sc  Sc86  1  0.90319283  0.10016952  0.52128037  1
  Sc  Sc87  1  0.10308654  0.69868830  0.70221147  1
  Sc  Sc88  1  0.89907041  0.69932673  0.50021834  1
  Sc  Sc89  1  0.50008917  0.70091271  0.50135718  1
  Sc  Sc90  1  0.10025860  0.30183638  0.69084439  1
  Sc  Sc91  1  0.09813349  0.69432049  0.29503725  1
  Sc  Sc92  1  0.28676895  0.10025927  0.30025106  1
  Sc  Sc93  1  0.10417229  0.89452211  0.90062224  1
  Sc  Sc94  1  0.30013812  0.69922894  0.89468771  1
  Sc  Sc95  1  0.50432751  0.30563353  0.29946963  1
  Sc  Sc96  1  0.29891066  0.69376601  0.50205042  1
  Sc  Sc97  1  0.70199816  0.29301132  0.90329078  1
  Sc  Sc98  1  0.70287765  0.10776963  0.68658296  1
  Sc  Sc99  1  0.70321070  0.49669346  0.30871560  1
  Nb  Nb100  1  0.89292489  0.28426504  0.71107854  1
  Nb  Nb101  1  0.90172464  0.10237775  0.71039512  1
  Nb  Nb102  1  0.69888543  0.29793500  0.49902869  1
  Nb  Nb103  1  0.89688707  0.90563773  0.69928418  1
  Nb  Nb104  1  0.10061675  0.90359462  0.30156600  1
  Nb  Nb105  1  0.69005662  0.30105240  0.69121726  1
  Nb  Nb106  1  0.10817331  0.09908870  0.10390439  1
  Nb  Nb107  1  0.69948726  0.30078438  0.10858734  1
  Nb  Nb108  1  0.10023373  0.10052512  0.29552807  1
  Nb  Nb109  1  0.89883105  0.11508248  0.89520685  1
  Nb  Nb110  1  0.10488369  0.49943901  0.30525357  1
  Nb  Nb111  1  0.70152474  0.69682135  0.09840535  1
  Nb  Nb112  1  0.49845286  0.29843107  0.69674701  1
  Nb  Nb113  1  0.30562609  0.90348228  0.69796721  1
  Nb  Nb114  1  0.31016798  0.29734224  0.69422978  1
  Nb  Nb115  1  0.49742877  0.51100549  0.50337253  1
  Nb  Nb116  1  0.90394723  0.49979775  0.50100293  1
  Nb  Nb117  1  0.09881886  0.89923761  0.49247542  1
  Nb  Nb118  1  0.69948290  0.10280562  0.10256487  1
  Nb  Nb119  1  0.70121801  0.10142515  0.49354997  1
  Nb  Nb120  1  0.90070018  0.28359325  0.89839114  1
  Nb  Nb121  1  0.49989209  0.90072937  0.69546978  1
  Nb  Nb122  1  0.89524172  0.70368125  0.29930905  1
  Nb  Nb123  1  0.29448712  0.69939774  0.30309656  1
  Nb  Nb124  1  0.70993156  0.09337135  0.91777494  1
  Nb  Nb125  1  0.80613338  0.00993899  0.80091466  1
  Nb  Nb126  1  0.79172987  0.20358682  0.20217479  1
  Nb  Nb127  1  0.20866593  0.19944386  0.79703314  1
  Nb  Nb128  1  0.79263388  0.79543507  0.00052216  1
  Nb  Nb129  1  -0.00593226  0.59301597  0.60126392  1
  Nb  Nb130  1  0.20633262  0.00589304  0.79643574  1
  Nb  Nb131  1  0.79502944  0.19854944  0.40398381  1
  Nb  Nb132  1  0.19812249  0.19671367  -0.00067548  1
  Nb  Nb133  1  0.19602249  0.40041862  0.20965770  1
  Nb  Nb134  1  0.19811705  0.80579937  0.39813988  1
  Nb  Nb135  1  0.40135837  0.80733483  0.79185878  1
  Nb  Nb136  1  0.60215221  0.79425931  0.19429002  1
  Nb  Nb137  1  0.00720465  0.00570968  0.19993970  1
  Nb  Nb138  1  0.40110352  0.00260629  0.79321265  1
  Nb  Nb139  1  0.00165096  0.59802247  -0.00347098  1
  Nb  Nb140  1  0.39829346  0.20019965  0.20071068  1
  Nb  Nb141  1  0.40087341  0.19925992  0.79246995  1
  Nb  Nb142  1  0.59769799  0.38993330  0.79186220  1
  Nb  Nb143  1  0.60076259  0.60339463  0.19972650  1
  Nb  Nb144  1  0.19401666  0.59765740  0.00026424  1
  Nb  Nb145  1  0.00274694  0.00528031  0.00382439  1
  Nb  Nb146  1  0.80240195  0.80290041  0.39763936  1
  Nb  Nb147  1  0.80482802  0.00034583  0.40526525  1
  Nb  Nb148  1  0.00302846  -0.00038539  0.39852428  1
  Nb  Nb149  1  0.60307504  0.79760788  0.00553769  1
  Pd  Pd150  1  0.59172757  0.40690755  0.40964826  1
  Pd  Pd151  1  0.40052171  0.79733171  -0.00562180  1
  Pd  Pd152  1  0.19648603  0.39079758  0.40020272  1
  Pd  Pd153  1  0.41159686  0.00202382  -0.00332547  1
  Pd  Pd154  1  0.78919394  0.38909092  0.80070515  1
  Pd  Pd155  1  0.59885479  0.59622742  0.39771083  1
  Pd  Pd156  1  0.00080119  0.40019220  -0.00488120  1
  Pd  Pd157  1  0.40632782  0.19488571  0.39158281  1
  Pd  Pd158  1  0.80382306  0.38821566  0.59889441  1
  Pd  Pd159  1  0.60830417  0.01371808  0.79288945  1
  Pd  Pd160  1  0.60478107  0.20382404  0.00745595  1
  Pd  Pd161  1  0.20278973  0.39006168  0.78904590  1
  Pd  Pd162  1  0.18668886  -0.00330156  0.60864975  1
  Pd  Pd163  1  -0.00650799  0.19281639  0.41440774  1
  Pd  Pd164  1  0.00238788  -0.00380459  0.80625696  1
  Pd  Pd165  1  0.79562082  -0.00277447  0.60316546  1
  Pd  Pd166  1  0.20569119  0.78784960  -0.00039640  1
  Pd  Pd167  1  0.59368144  -0.00802488  0.01034552  1
  Pd  Pd168  1  0.40408169  0.39815052  0.00463910  1
  Pd  Pd169  1  -0.00461230  0.59408958  0.20101267  1
  Pd  Pd170  1  0.00488284  0.60947021  0.40593709  1
  Pd  Pd171  1  0.38618045  0.60092393  0.00012112  1
  Pd  Pd172  1  -0.00922282  0.79743896  0.00290960  1
  Pd  Pd173  1  0.00136809  0.40805481  0.20902460  1
  Pd  Pd174  1  0.00711733  -0.00206913  0.59906719  1
  Pd  Pd175  1  0.19779605  0.80442325  0.59555066  1
  Pd  Pd176  1  0.60139306  0.19880900  0.80212392  1
  Pd  Pd177  1  0.60419781  0.39794694  -0.00988319  1
  Pd  Pd178  1  0.79632251  0.40351320  0.20448166  1
  Pd  Pd179  1  0.80513206  0.20843814  0.59437831  1
  Pd  Pd180  1  0.38762340  0.79911022  0.41013787  1
  Pd  Pd181  1  0.60292107  0.59903891  0.00269799  1
  Pd  Pd182  1  -0.01229939  0.19202530  0.18835492  1
  Pd  Pd183  1  0.00034579  0.38930929  0.79513367  1
  Pd  Pd184  1  0.40236491  0.40706817  0.40874889  1
  Pd  Pd185  1  0.80668755  0.60321864  0.60067441  1
  Pd  Pd186  1  0.00155203  0.79501604  0.39589695  1
  Pd  Pd187  1  0.20186532  0.20601223  0.40451469  1
  Pd  Pd188  1  0.79487016  0.58930066  0.20061310  1
  Pd  Pd189  1  0.59140451  0.40612626  0.59755300  1
  Pd  Pd190  1  0.20432627  0.60053942  0.80098764  1
  Pd  Pd191  1  0.81586040  -0.00967386  -0.00686834  1
  Pd  Pd192  1  0.39402953  0.00687155  0.39461715  1
  Pd  Pd193  1  0.79979960  0.59356542  0.79019004  1
  Pd  Pd194  1  0.40748861  0.39436949  0.79789122  1
  Pd  Pd195  1  0.59551503  0.20145281  0.58863797  1
  Pd  Pd196  1  0.60845338  0.80311422  0.39731014  1
  Pd  Pd197  1  -0.00410238  0.59886222  0.79518361  1
  Pd  Pd198  1  0.78048853  0.19465133  0.79957602  1
  Pd  Pd199  1  0.60310715  0.58588254  0.78992742  1
  Rh  Rh200  1  0.20160715  0.59343807  0.19694439  1
  Rh  Rh201  1  0.59247012  0.79628585  0.79774826  1
  Rh  Rh202  1  0.59914222  0.20524236  0.40307865  1
  Rh  Rh203  1  0.00372157  0.40038776  0.39747339  1
  Rh  Rh204  1  0.39972650  0.60403924  0.20525253  1
  Rh  Rh205  1  0.79073836  0.20682002  0.00726070  1
  Rh  Rh206  1  0.19872144  -0.00340412  0.39784226  1
  Rh  Rh207  1  0.19033432  0.59500755  0.59899949  1
  Rh  Rh208  1  0.19749672  0.39943515  0.01272240  1
  Rh  Rh209  1  0.81010708  0.01554734  0.20100304  1
  Rh  Rh210  1  0.00522112  0.79523235  0.60497570  1
  Rh  Rh211  1  0.39660363  0.60017048  0.40578493  1
  Rh  Rh212  1  0.59835628  0.79924637  0.60083299  1
  Rh  Rh213  1  0.00701459  0.80307125  0.20194487  1
  Rh  Rh214  1  0.79670059  0.39033518  -0.00832187  1
  Rh  Rh215  1  0.59757083  0.20181203  0.19742158  1
  Rh  Rh216  1  0.39379472  0.39373674  0.19958914  1
  Rh  Rh217  1  0.59257927  -0.00794263  0.19298737  1
  Rh  Rh218  1  0.19724862  0.20376240  0.59933839  1
  Rh  Rh219  1  0.41183353  0.19367519  0.59697287  1
  Rh  Rh220  1  0.40001916  0.79845082  0.59949626  1
  Rh  Rh221  1  0.00703165  0.19465867  0.00478891  1
  Rh  Rh222  1  0.80945531  0.60494432  0.00107120  1
  Rh  Rh223  1  -0.00010447  0.40287346  0.60423512  1
  Rh  Rh224  1  0.20938364  0.80870757  0.79619099  1
  Rh  Rh225  1  0.60539511  -0.00064998  0.59996593  1
  Rh  Rh226  1  0.80213240  0.81296236  0.80279272  1
  Rh  Rh227  1  0.18432101  0.01015655  -0.01596060  1
  Rh  Rh228  1  0.80349411  0.39197481  0.40807754  1
  Rh  Rh229  1  0.60731035  -0.00908909  0.40170104  1
  Rh  Rh230  1  0.39886453  0.01038182  0.20552161  1
  Rh  Rh231  1  0.19900580  -0.00615973  0.20587917  1
  Rh  Rh232  1  -0.00144464  0.80224945  0.79599369  1
  Rh  Rh233  1  0.20543685  0.39868507  0.60041177  1
  Rh  Rh234  1  0.60134388  0.59579801  0.59919339  1
  Rh  Rh235  1  0.39880463  0.19933887  0.00845738  1
  Rh  Rh236  1  0.19857717  0.80242589  0.20880111  1
  Rh  Rh237  1  0.39263477  0.60681433  0.79331734  1
  Rh  Rh238  1  0.40077394  0.79784490  0.20240481  1
  Rh  Rh239  1  0.19478472  0.61186412  0.40341738  1
  Rh  Rh240  1  0.79263772  0.79650656  0.19626886  1
  Rh  Rh241  1  0.41038078  0.00621361  0.59989952  1
  Rh  Rh242  1  0.80180371  0.60812185  0.40685954  1
  Rh  Rh243  1  0.20963575  0.20955799  0.19483860  1
  Rh  Rh244  1  -0.00478868  0.20588388  0.60393430  1
  Rh  Rh245  1  0.60537374  0.41336155  0.20159545  1
  Rh  Rh246  1  0.79463051  0.80231502  0.59531465  1
  Rh  Rh247  1  0.40297018  0.40543329  0.59542833  1
  Rh  Rh248  1  0.00958856  0.20914762  0.79277512  1
  Rh  Rh249  1  0.39609180  0.59866100  0.59672381  1
