# generated using pymatgen
data_ZrScNbPdRh
_symmetry_space_group_name_H-M   'P 1'
_cell_length_a   16.54840376
_cell_length_b   16.55300882
_cell_length_c   16.55363710
_cell_angle_alpha   90.03933813
_cell_angle_beta   89.97925858
_cell_angle_gamma   89.99366576
_symmetry_Int_Tables_number   1
_chemical_formula_structural   ZrScNbPdRh
_chemical_formula_sum   'Zr50 Sc50 Nb50 Pd50 Rh50'
_cell_volume   4534.46810748
_cell_formula_units_Z   50
loop_
 _symmetry_equiv_pos_site_id
 _symmetry_equiv_pos_as_xyz
  1  'x, y, z'
loop_
 _atom_site_type_symbol
 _atom_site_label
 _atom_site_symmetry_multiplicity
 _atom_site_fract_x
 _atom_site_fract_y
 _atom_site_fract_z
 _atom_site_occupancy
  Zr  Zr0  1  0.90201976  0.49084438  0.10218026  1
  Zr  Zr1  1  0.29896091  0.90259121  0.10136897  1
  Zr  Zr2  1  0.29957064  0.89759931  0.30511809  1
  Zr  Zr3  1  0.49647129  0.29768708  0.69917864  1
  Zr  Zr4  1  0.50864715  0.90882391  0.51320429  1
  Zr  Zr5  1  0.89429095  0.49407462  0.49543178  1
  Zr  Zr6  1  0.50071530  0.69729893  0.49810795  1
  Zr  Zr7  1  0.10025175  0.49684289  0.49734922  1
  Zr  Zr8  1  0.71591189  0.70549212  0.29472833  1
  Zr  Zr9  1  0.70999864  0.89476744  0.50098448  1
  Zr  Zr10  1  0.29991038  0.10557940  0.69265245  1
  Zr  Zr11  1  0.29883760  0.29264556  0.29321129  1
  Zr  Zr12  1  0.30110300  0.90286007  0.70762679  1
  Zr  Zr13  1  0.90186505  0.10358403  0.69497820  1
  Zr  Zr14  1  0.30173323  0.70948933  0.29954557  1
  Zr  Zr15  1  0.29610546  0.49803770  0.50225488  1
  Zr  Zr16  1  0.30088661  0.30186449  0.70234631  1
  Zr  Zr17  1  0.71336467  0.70061889  0.90586097  1
  Zr  Zr18  1  0.90134278  0.70119586  0.71544516  1
  Zr  Zr19  1  0.10130920  0.90856642  0.90661881  1
  Zr  Zr20  1  0.50409939  0.09118336  0.09088425  1
  Zr  Zr21  1  0.49087575  0.50378439  0.89527406  1
  Zr  Zr22  1  0.90455859  0.10044783  0.89460618  1
  Zr  Zr23  1  0.89356226  0.29143625  0.69499151  1
  Zr  Zr24  1  0.90499495  0.29953766  0.09929935  1
  Zr  Zr25  1  0.90155020  0.10741081  0.30465490  1
  Zr  Zr26  1  0.68383508  0.90190572  0.09855444  1
  Zr  Zr27  1  0.49965642  0.30758165  0.29149702  1
  Zr  Zr28  1  0.90229914  0.49786118  0.70733770  1
  Zr  Zr29  1  0.48801869  0.29859516  0.09820980  1
  Zr  Zr30  1  0.29868268  0.90016355  0.89703895  1
  Zr  Zr31  1  0.29374615  0.29149328  0.50384472  1
  Zr  Zr32  1  0.69898610  0.28992931  0.89440138  1
  Zr  Zr33  1  0.89482215  0.70244892  0.09893250  1
  Zr  Zr34  1  0.90517736  0.69797268  0.29613825  1
  Zr  Zr35  1  0.08609960  0.50159205  0.29805324  1
  Zr  Zr36  1  0.49442572  0.70027964  0.30748196  1
  Zr  Zr37  1  0.49551550  0.49972541  0.69989665  1
  Zr  Zr38  1  0.30417363  0.70769881  0.49074844  1
  Zr  Zr39  1  0.51009369  0.69659098  0.70224253  1
  Zr  Zr40  1  0.10898024  0.89954714  0.29443044  1
  Zr  Zr41  1  0.69040969  0.89766884  0.69642913  1
  Zr  Zr42  1  0.09501112  0.08978708  0.09856124  1
  Zr  Zr43  1  0.10638646  0.30249668  0.90375100  1
  Zr  Zr44  1  0.89837480  0.89995872  0.69546837  1
  Zr  Zr45  1  0.09643948  0.09750082  0.70463473  1
  Zr  Zr46  1  0.70058730  0.89963999  0.89539365  1
  Zr  Zr47  1  0.10101499  0.49336632  0.09646480  1
  Zr  Zr48  1  0.49388482  0.90869278  0.89785618  1
  Zr  Zr49  1  0.50739242  0.49772757  0.30479109  1
  Sc  Sc50  1  0.09783546  0.29305499  0.09508462  1
  Sc  Sc51  1  0.70534958  0.50438149  0.90969958  1
  Sc  Sc52  1  0.90280585  0.50389396  0.90526030  1
  Sc  Sc53  1  0.30249132  0.50285642  0.09291069  1
  Sc  Sc54  1  0.10398043  0.29604582  0.70779632  1
  Sc  Sc55  1  0.49967737  0.49267540  0.10483520  1
  Sc  Sc56  1  0.09224774  0.69949487  0.10657369  1
  Sc  Sc57  1  0.90555675  0.30136365  0.90398317  1
  Sc  Sc58  1  0.49828323  0.89570509  0.29254881  1
  Sc  Sc59  1  0.30191847  0.69657147  0.09723032  1
  Sc  Sc60  1  0.49859017  0.89903493  0.09358879  1
  Sc  Sc61  1  0.49975143  0.08901829  0.69473993  1
  Sc  Sc62  1  0.29490823  0.70484759  0.70916902  1
  Sc  Sc63  1  0.09877743  0.89610243  0.69846348  1
  Sc  Sc64  1  0.50136218  0.70446640  0.09305092  1
  Sc  Sc65  1  0.09919031  0.29587468  0.30652326  1
  Sc  Sc66  1  0.10456970  0.10287480  0.29791334  1
  Sc  Sc67  1  0.69629085  0.09537258  0.49069438  1
  Sc  Sc68  1  0.10245595  0.10201632  0.90121394  1
  Sc  Sc69  1  0.70844600  0.30797714  0.50358239  1
  Sc  Sc70  1  0.49779822  0.69452126  0.89714017  1
  Sc  Sc71  1  0.29116951  0.10616356  0.10401240  1
  Sc  Sc72  1  0.50912816  0.50312167  0.49990320  1
  Sc  Sc73  1  0.50050215  0.10423125  0.30464171  1
  Sc  Sc74  1  0.70024089  0.70158971  0.50750485  1
  Sc  Sc75  1  0.89870335  0.30233175  0.29919567  1
  Sc  Sc76  1  0.92011218  0.90013057  0.09750361  1
  Sc  Sc77  1  0.29882552  0.50288932  0.29695844  1
  Sc  Sc78  1  0.09869302  0.49940448  0.89645661  1
  Sc  Sc79  1  0.69074181  0.49563415  0.68830620  1
  Sc  Sc80  1  0.70579835  0.30771132  0.10208196  1
  Sc  Sc81  1  0.90115636  0.89050958  0.90005470  1
  Sc  Sc82  1  0.50060777  0.30078043  0.49983980  1
  Sc  Sc83  1  0.29393886  0.10047933  0.30808564  1
  Sc  Sc84  1  0.30218930  0.69539515  0.89814645  1
  Sc  Sc85  1  0.09154139  0.10232448  0.49045377  1
  Sc  Sc86  1  0.29531326  0.49659597  0.70711126  1
  Sc  Sc87  1  0.89290693  0.71015115  0.49869023  1
  Sc  Sc88  1  0.10331699  0.70058715  0.70799361  1
  Sc  Sc89  1  0.69768880  0.10256977  0.30069123  1
  Sc  Sc90  1  0.29736068  0.49903040  0.90006111  1
  Sc  Sc91  1  0.69848078  0.90405803  0.29552307  1
  Sc  Sc92  1  0.49296785  0.09889266  0.50165625  1
  Sc  Sc93  1  0.89597569  0.89576562  0.30034579  1
  Sc  Sc94  1  0.69769809  0.49443517  0.49604769  1
  Sc  Sc95  1  0.10625127  0.70567533  0.50939429  1
  Sc  Sc96  1  0.70352133  0.29422062  0.69514239  1
  Sc  Sc97  1  0.70901091  0.49877275  0.09801392  1
  Sc  Sc98  1  0.69013947  0.09992150  0.89194794  1
  Sc  Sc99  1  0.69628715  0.30881909  0.30507442  1
  Nb  Nb100  1  0.09644818  0.50036375  0.69807789  1
  Nb  Nb101  1  0.69623299  0.09544040  0.10046102  1
  Nb  Nb102  1  0.90105447  0.09895396  0.50069962  1
  Nb  Nb103  1  0.70242262  0.50002484  0.29929339  1
  Nb  Nb104  1  0.30013332  0.09396124  0.50080690  1
  Nb  Nb105  1  0.09264673  0.70442006  0.90192887  1
  Nb  Nb106  1  0.89091694  0.50600099  0.30083755  1
  Nb  Nb107  1  0.90428906  0.69938628  0.90199382  1
  Nb  Nb108  1  0.90109985  0.10341948  0.10149248  1
  Nb  Nb109  1  0.49789587  0.89363248  0.69981857  1
  Nb  Nb110  1  0.09955607  0.70023803  0.30320265  1
  Nb  Nb111  1  0.10428916  0.90332462  0.09866519  1
  Nb  Nb112  1  0.09969208  0.90276455  0.49941717  1
  Nb  Nb113  1  0.30149061  0.30079999  0.90440595  1
  Nb  Nb114  1  0.70029564  0.69773986  0.09901545  1
  Nb  Nb115  1  0.90120828  0.29287938  0.50325587  1
  Nb  Nb116  1  0.29661392  0.90336636  0.49583296  1
  Nb  Nb117  1  0.30041403  0.09136477  0.89900642  1
  Nb  Nb118  1  0.90782515  0.90665746  0.50146013  1
  Nb  Nb119  1  0.70665620  0.10487236  0.70012952  1
  Nb  Nb120  1  0.49787776  0.10755565  0.90307370  1
  Nb  Nb121  1  0.09829965  0.30461078  0.49501607  1
  Nb  Nb122  1  0.49961722  0.29268018  0.90027669  1
  Nb  Nb123  1  0.70486993  0.70300589  0.70018700  1
  Nb  Nb124  1  0.29619962  0.30654912  0.10094689  1
  Nb  Nb125  1  0.19941206  -0.00042437  0.59187539  1
  Nb  Nb126  1  0.39938215  0.19798583  0.80988127  1
  Nb  Nb127  1  0.39623220  0.39892066  0.39830047  1
  Nb  Nb128  1  0.60697421  0.60242545  0.20200780  1
  Nb  Nb129  1  0.79535694  0.39847556  0.79945867  1
  Nb  Nb130  1  0.59904771  0.20222646  0.19350399  1
  Nb  Nb131  1  0.79989982  0.00452869  0.00498247  1
  Nb  Nb132  1  0.80232259  0.00790399  0.18937759  1
  Nb  Nb133  1  0.19942459  0.39706445  0.19620344  1
  Nb  Nb134  1  0.40821983  0.60198353  0.20540035  1
  Nb  Nb135  1  -0.00218601  0.59494767  0.60413369  1
  Nb  Nb136  1  0.00627398  0.80500394  0.40197611  1
  Nb  Nb137  1  0.79982175  0.18990883  0.00625954  1
  Nb  Nb138  1  0.39710580  0.60578339  0.60029903  1
  Nb  Nb139  1  0.60330721  0.19564811  0.60111425  1
  Nb  Nb140  1  0.00219278  0.39705696  0.59731369  1
  Nb  Nb141  1  0.59813044  0.39505957  0.80505653  1
  Nb  Nb142  1  0.19306732  0.80220575  0.00070935  1
  Nb  Nb143  1  0.40184403  0.80322335  0.60316587  1
  Nb  Nb144  1  0.39678220  0.00067436  0.19924935  1
  Nb  Nb145  1  0.60206119  0.79970916  0.40151426  1
  Nb  Nb146  1  0.59469128  0.39356096  -0.00787549  1
  Nb  Nb147  1  0.80535732  0.00357767  0.59694006  1
  Nb  Nb148  1  0.19460240  0.60422053  0.39575017  1
  Nb  Nb149  1  0.80418289  0.60145383  0.60704947  1
  Pd  Pd150  1  0.39920374  0.20535226  0.40314629  1
  Pd  Pd151  1  0.59694776  0.59183333  0.00764557  1
  Pd  Pd152  1  0.20164743  0.19588872  0.00098847  1
  Pd  Pd153  1  0.00281016  0.61297664  0.41367245  1
  Pd  Pd154  1  -0.00909867  0.39362867  0.39928281  1
  Pd  Pd155  1  0.39334704  0.79660929  -0.00413349  1
  Pd  Pd156  1  -0.00435404  0.59838724  0.19386280  1
  Pd  Pd157  1  0.80207146  0.81643297  0.18629381  1
  Pd  Pd158  1  0.59576486  0.79136475  0.20491846  1
  Pd  Pd159  1  0.20702008  0.19718227  0.80708868  1
  Pd  Pd160  1  0.80245330  -0.00154848  0.39530735  1
  Pd  Pd161  1  0.61173734  0.59229681  0.80211212  1
  Pd  Pd162  1  0.18760165  0.19312407  0.59292087  1
  Pd  Pd163  1  0.79129387  0.59107853  0.79685765  1
  Pd  Pd164  1  0.19882887  0.79390701  0.19037283  1
  Pd  Pd165  1  -0.00284420  0.39301169  0.79862737  1
  Pd  Pd166  1  -0.00504856  -0.00120746  0.20910077  1
  Pd  Pd167  1  0.00303995  -0.00395222  0.39070059  1
  Pd  Pd168  1  0.00013558  -0.00644107  0.80113446  1
  Pd  Pd169  1  0.40046198  0.40425727  -0.00459237  1
  Pd  Pd170  1  0.80124199  -0.00169651  0.79786342  1
  Pd  Pd171  1  0.79524550  0.60266502  0.40888062  1
  Pd  Pd172  1  0.40280176  0.00829470  0.79739683  1
  Pd  Pd173  1  0.20190311  0.60274701  0.59953222  1
  Pd  Pd174  1  0.00696750  0.20345961  0.20308146  1
  Pd  Pd175  1  0.80022190  0.39938068  0.20627223  1
  Pd  Pd176  1  0.59695353  0.79739124  -0.01129445  1
  Pd  Pd177  1  0.40366284  0.40618717  0.59113969  1
  Pd  Pd178  1  -0.00128556  0.59906585  0.00325942  1
  Pd  Pd179  1  0.40683387  -0.00310686  0.39454731  1
  Pd  Pd180  1  0.40372349  0.18744675  0.19693569  1
  Pd  Pd181  1  0.59575054  0.00446301  0.79716051  1
  Pd  Pd182  1  0.79711095  0.20554243  0.40348833  1
  Pd  Pd183  1  0.01034449  0.20448588  0.59594929  1
  Pd  Pd184  1  0.60740130  0.20619795  0.00954072  1
  Pd  Pd185  1  0.59849787  0.79534193  0.80877135  1
  Pd  Pd186  1  0.60107604  0.20770242  0.40226371  1
  Pd  Pd187  1  -0.00280370  0.79217520  0.59709322  1
  Pd  Pd188  1  0.00451792  0.80663099  0.80275961  1
  Pd  Pd189  1  0.80186996  0.81155896  0.00837259  1
  Pd  Pd190  1  0.59574924  -0.00776206  0.39362381  1
  Pd  Pd191  1  0.19280212  0.39564158  0.60762643  1
  Pd  Pd192  1  0.38757432  0.19309891  -0.00051679  1
  Pd  Pd193  1  0.20476267  0.40214341  0.38796275  1
  Pd  Pd194  1  0.61636291  0.60854061  0.39449364  1
  Pd  Pd195  1  0.78994076  0.19908639  0.19905450  1
  Pd  Pd196  1  0.19622731  0.59772645  0.80537754  1
  Pd  Pd197  1  0.20411221  0.59715629  0.20263659  1
  Pd  Pd198  1  0.19452690  0.60778797  -0.00466397  1
  Pd  Pd199  1  0.20746900  0.80767635  0.60290859  1
  Rh  Rh200  1  0.79821562  0.80049497  0.79973599  1
  Rh  Rh201  1  0.80760328  0.20279009  0.80786058  1
  Rh  Rh202  1  0.19052731  0.79716872  0.40208399  1
  Rh  Rh203  1  0.39008344  -0.00761277  0.59991134  1
  Rh  Rh204  1  0.80545451  0.80070149  0.60580951  1
  Rh  Rh205  1  0.19565931  0.00395184  0.40532322  1
  Rh  Rh206  1  0.19338702  0.20544771  0.19595952  1
  Rh  Rh207  1  0.79955058  0.59445691  0.19433355  1
  Rh  Rh208  1  0.38663854  0.40799684  0.20478626  1
  Rh  Rh209  1  0.00688841  0.79659712  0.00174186  1
  Rh  Rh210  1  0.80936247  0.60131654  0.00513479  1
  Rh  Rh211  1  0.00453753  0.39527571  0.20320787  1
  Rh  Rh212  1  0.00403032  0.40058546  -0.00265562  1
  Rh  Rh213  1  0.59658051  0.79420452  0.59658970  1
  Rh  Rh214  1  0.20186937  0.39963858  0.00167757  1
  Rh  Rh215  1  0.19311755  0.80119610  0.81351595  1
  Rh  Rh216  1  0.40613753  0.19626840  0.60209624  1
  Rh  Rh217  1  0.39976071  0.39138427  0.80700024  1
  Rh  Rh218  1  0.20521758  0.00004794  0.00066650  1
  Rh  Rh219  1  0.59440502  0.01064199  0.20831493  1
  Rh  Rh220  1  -0.00171744  0.19540751  -0.00281841  1
  Rh  Rh221  1  0.59704816  0.38923575  0.60283969  1
  Rh  Rh222  1  0.00168635  0.00396741  0.59948607  1
  Rh  Rh223  1  0.60481924  0.60299039  0.60032867  1
  Rh  Rh224  1  0.00251384  0.20571789  0.80360606  1
  Rh  Rh225  1  0.19724289  0.00272070  0.79218018  1
  Rh  Rh226  1  0.80291573  0.80398842  0.39980379  1
  Rh  Rh227  1  -0.00305048  0.20375816  0.40035863  1
  Rh  Rh228  1  0.61479989  0.01111582  0.60381094  1
  Rh  Rh229  1  0.39226515  0.60186916  0.79111732  1
  Rh  Rh230  1  0.79045733  0.18764521  0.58488510  1
  Rh  Rh231  1  0.59677141  0.39724077  0.40449210  1
  Rh  Rh232  1  0.39329531  0.00576548  0.00509936  1
  Rh  Rh233  1  0.80385074  0.39816617  0.39410161  1
  Rh  Rh234  1  0.20060909  0.40168654  0.80211733  1
  Rh  Rh235  1  0.40619013  0.79514802  0.79754996  1
  Rh  Rh236  1  0.79438300  0.38891781  -0.01134985  1
  Rh  Rh237  1  0.20673176  0.00298973  0.20292006  1
  Rh  Rh238  1  0.40450789  0.59855009  0.00687588  1
  Rh  Rh239  1  0.00811122  0.60268586  0.80198979  1
  Rh  Rh240  1  0.60913634  0.40359890  0.18963085  1
  Rh  Rh241  1  0.38726628  0.58795782  0.40187738  1
  Rh  Rh242  1  0.00467821  0.80270645  0.20690219  1
  Rh  Rh243  1  -0.00552059  0.00328418  -0.00373000  1
  Rh  Rh244  1  0.41547680  0.81817253  0.41431362  1
  Rh  Rh245  1  0.58891684  0.19601224  0.78657605  1
  Rh  Rh246  1  0.40198226  0.80023077  0.19112742  1
  Rh  Rh247  1  0.80813135  0.40746444  0.60605289  1
  Rh  Rh248  1  0.19865992  0.19730099  0.40606214  1
  Rh  Rh249  1  0.60317529  -0.00202594  -0.01397559  1
