# generated using pymatgen
data_ZrScNbPdRh
_symmetry_space_group_name_H-M   'P 1'
_cell_length_a   16.56779009
_cell_length_b   16.55997558
_cell_length_c   16.56600416
_cell_angle_alpha   90.00457417
_cell_angle_beta   90.04724612
_cell_angle_gamma   89.97780328
_symmetry_Int_Tables_number   1
_chemical_formula_structural   ZrScNbPdRh
_chemical_formula_sum   'Zr50 Sc50 Nb50 Pd50 Rh50'
_cell_volume   4545.08343674
_cell_formula_units_Z   50
loop_
 _symmetry_equiv_pos_site_id
 _symmetry_equiv_pos_as_xyz
  1  'x, y, z'
loop_
 _atom_site_type_symbol
 _atom_site_label
 _atom_site_symmetry_multiplicity
 _atom_site_fract_x
 _atom_site_fract_y
 _atom_site_fract_z
 _atom_site_occupancy
  Zr  Zr0  1  0.49724528  0.49464897  0.30204091  1
  Zr  Zr1  1  0.90806550  0.50181733  0.69231591  1
  Zr  Zr2  1  0.71098552  0.90888264  0.09862962  1
  Zr  Zr3  1  0.30035446  0.89419419  0.69959126  1
  Zr  Zr4  1  0.69886546  0.89861241  0.69949827  1
  Zr  Zr5  1  0.29010835  0.10370590  0.70821973  1
  Zr  Zr6  1  0.49911752  0.49507169  0.69742521  1
  Zr  Zr7  1  0.29476839  0.89103636  0.50478358  1
  Zr  Zr8  1  0.09871518  0.10144060  0.50416400  1
  Zr  Zr9  1  0.29639701  0.10142314  0.30479440  1
  Zr  Zr10  1  0.50313719  0.30190335  0.89906359  1
  Zr  Zr11  1  0.90311482  0.69612006  0.90249972  1
  Zr  Zr12  1  0.29833704  0.10186337  0.91164506  1
  Zr  Zr13  1  0.50500752  0.10622383  0.89821612  1
  Zr  Zr14  1  0.50492086  0.50383455  0.50146682  1
  Zr  Zr15  1  0.10036811  0.50867404  0.89723184  1
  Zr  Zr16  1  0.90047744  0.49807499  0.29735751  1
  Zr  Zr17  1  0.29080336  0.90490839  0.10083877  1
  Zr  Zr18  1  0.71416667  0.70086213  0.89574080  1
  Zr  Zr19  1  0.89898384  0.90317146  0.30473644  1
  Zr  Zr20  1  0.90589710  0.29478328  0.69560703  1
  Zr  Zr21  1  0.08955439  0.10171138  0.70745998  1
  Zr  Zr22  1  0.27974765  0.69787125  0.29936577  1
  Zr  Zr23  1  0.89076648  0.30311155  0.49451838  1
  Zr  Zr24  1  0.30178981  0.30537462  0.69793908  1
  Zr  Zr25  1  0.90340924  0.31027348  0.09829931  1
  Zr  Zr26  1  0.50405787  0.69931964  0.50040089  1
  Zr  Zr27  1  0.69807199  0.90397390  0.50252357  1
  Zr  Zr28  1  0.09358071  0.30356056  0.49802547  1
  Zr  Zr29  1  0.70677458  0.50422308  0.89810288  1
  Zr  Zr30  1  0.29859175  0.29673636  0.48678348  1
  Zr  Zr31  1  0.49952389  0.89540016  0.69861378  1
  Zr  Zr32  1  0.90282077  0.89867296  0.09850261  1
  Zr  Zr33  1  0.29114768  0.90199517  0.29949978  1
  Zr  Zr34  1  0.49919022  0.90253678  0.50768167  1
  Zr  Zr35  1  0.30258290  0.49931947  0.70006937  1
  Zr  Zr36  1  0.90411024  0.48989912  0.49539321  1
  Zr  Zr37  1  0.89891252  0.10800976  0.29697249  1
  Zr  Zr38  1  0.70362477  0.69910519  0.70364619  1
  Zr  Zr39  1  0.49882340  0.89744233  0.89971546  1
  Zr  Zr40  1  0.70167347  0.28931390  0.29055356  1
  Zr  Zr41  1  0.89942608  0.10604708  0.70868893  1
  Zr  Zr42  1  0.30080162  0.89888223  0.91077743  1
  Zr  Zr43  1  0.50014406  0.09798514  0.50168562  1
  Zr  Zr44  1  0.09232393  0.89934506  0.70829509  1
  Zr  Zr45  1  0.70172244  0.90418348  0.30304159  1
  Zr  Zr46  1  0.49937221  0.69806480  0.09907711  1
  Zr  Zr47  1  0.29811109  0.70078942  0.09337840  1
  Zr  Zr48  1  0.70070663  0.69812234  0.30408148  1
  Zr  Zr49  1  0.09429474  0.90303426  0.09561857  1
  Sc  Sc50  1  0.50498562  0.10334326  0.10490662  1
  Sc  Sc51  1  0.70946658  0.30183688  0.90139601  1
  Sc  Sc52  1  0.90153216  0.70636813  0.70544382  1
  Sc  Sc53  1  0.89540387  0.89998601  0.50570027  1
  Sc  Sc54  1  0.10020021  0.50331669  0.30289833  1
  Sc  Sc55  1  0.09777118  0.69422231  0.30159610  1
  Sc  Sc56  1  0.49694603  0.49759549  0.89640154  1
  Sc  Sc57  1  0.50325181  0.30770647  0.09779842  1
  Sc  Sc58  1  0.69112928  0.70230409  0.49892021  1
  Sc  Sc59  1  0.90661863  0.69663659  0.10017191  1
  Sc  Sc60  1  0.69072842  0.50331191  0.69950236  1
  Sc  Sc61  1  0.49966774  0.90028514  0.09938922  1
  Sc  Sc62  1  0.89155058  0.10492800  0.50913860  1
  Sc  Sc63  1  0.70409629  0.49893823  0.29224866  1
  Sc  Sc64  1  0.08436859  0.29209321  0.29857590  1
  Sc  Sc65  1  0.10568902  0.29458186  0.69589815  1
  Sc  Sc66  1  0.50204052  0.29522436  0.49835884  1
  Sc  Sc67  1  0.69067587  0.30208734  0.69430594  1
  Sc  Sc68  1  0.70582963  0.69382605  0.10876519  1
  Sc  Sc69  1  0.89968729  0.89211888  0.91017306  1
  Sc  Sc70  1  0.29354661  0.49000163  0.30560161  1
  Sc  Sc71  1  0.09035077  0.70073323  0.70506084  1
  Sc  Sc72  1  0.30222818  0.50585514  0.89741076  1
  Sc  Sc73  1  0.48454535  0.70024006  0.89612272  1
  Sc  Sc74  1  0.90862185  0.69615689  0.29978629  1
  Sc  Sc75  1  0.50012932  0.49408446  0.09227320  1
  Sc  Sc76  1  0.89940130  0.89829806  0.69978389  1
  Sc  Sc77  1  0.29517655  0.49108685  0.49480533  1
  Sc  Sc78  1  0.09565761  0.09689356  0.29391283  1
  Sc  Sc79  1  0.89426535  0.09165455  0.09908775  1
  Sc  Sc80  1  0.91730306  0.70591025  0.49656710  1
  Sc  Sc81  1  0.51411138  0.10009953  0.70153661  1
  Sc  Sc82  1  0.50978212  0.90234921  0.30168702  1
  Sc  Sc83  1  0.89927273  0.50181663  0.10087408  1
  Sc  Sc84  1  0.09097614  0.49652235  0.09386320  1
  Sc  Sc85  1  0.51722652  0.69994094  0.30275104  1
  Sc  Sc86  1  0.10288258  0.89972248  0.28926910  1
  Sc  Sc87  1  0.30135873  0.09533491  0.49424977  1
  Sc  Sc88  1  0.30546311  0.29800188  0.08009721  1
  Sc  Sc89  1  0.09289485  0.09443448  0.10001071  1
  Sc  Sc90  1  0.69747426  0.49265753  0.50299219  1
  Sc  Sc91  1  0.70550441  0.48928852  0.09934113  1
  Sc  Sc92  1  0.10612141  0.30703306  0.90755192  1
  Sc  Sc93  1  0.30818676  0.70311566  0.70086774  1
  Sc  Sc94  1  0.71110000  0.89861267  0.89519181  1
  Sc  Sc95  1  0.30676178  0.49970497  0.09315582  1
  Sc  Sc96  1  0.49960090  0.69610507  0.69726553  1
  Sc  Sc97  1  0.30738595  0.29886432  0.89563120  1
  Sc  Sc98  1  0.50985777  0.10285449  0.30206402  1
  Sc  Sc99  1  0.09442354  0.49910360  0.49497711  1
  Nb  Nb100  1  0.10246648  0.50040578  0.69889588  1
  Nb  Nb101  1  0.49653053  0.30218883  0.70396259  1
  Nb  Nb102  1  0.70270702  0.10113896  0.71151974  1
  Nb  Nb103  1  0.09868311  0.89095449  0.50969930  1
  Nb  Nb104  1  0.70798892  0.10408248  0.89701393  1
  Nb  Nb105  1  0.09715029  0.29778424  0.09911682  1
  Nb  Nb106  1  0.69923100  0.29969180  0.09684459  1
  Nb  Nb107  1  0.29868871  0.70017396  0.90225543  1
  Nb  Nb108  1  0.11145959  0.70682077  0.49881367  1
  Nb  Nb109  1  0.89603813  0.30310960  0.30231405  1
  Nb  Nb110  1  0.90141509  0.49616235  0.90260613  1
  Nb  Nb111  1  0.09490261  0.09464764  0.89559840  1
  Nb  Nb112  1  0.09915814  0.90314528  0.90444469  1
  Nb  Nb113  1  0.69292906  0.10596811  0.50644857  1
  Nb  Nb114  1  0.09944346  0.70082736  0.90539342  1
  Nb  Nb115  1  0.70014671  0.10134757  0.10580744  1
  Nb  Nb116  1  0.30317189  0.10256244  0.10065657  1
  Nb  Nb117  1  0.30471442  0.30048071  0.30167817  1
  Nb  Nb118  1  0.49187835  0.29917467  0.30229447  1
  Nb  Nb119  1  0.90199297  0.30162333  0.89472711  1
  Nb  Nb120  1  0.70034723  0.30166908  0.49442074  1
  Nb  Nb121  1  0.09812215  0.69605141  0.10097227  1
  Nb  Nb122  1  0.28992005  0.70400608  0.49905717  1
  Nb  Nb123  1  0.89395936  0.11874409  0.89181985  1
  Nb  Nb124  1  0.69802990  0.09552687  0.28237239  1
  Nb  Nb125  1  0.19946596  0.38575274  0.19542843  1
  Nb  Nb126  1  0.61142750  0.00513509  -0.00266816  1
  Nb  Nb127  1  0.39508592  0.20282130  0.20307344  1
  Nb  Nb128  1  -0.00038522  -0.00185998  0.40538296  1
  Nb  Nb129  1  0.60224197  0.38974016  0.39533426  1
  Nb  Nb130  1  0.61271297  0.19769962  0.00265662  1
  Nb  Nb131  1  0.81092333  0.40298691  0.79818686  1
  Nb  Nb132  1  0.80452946  0.59577711  0.40660887  1
  Nb  Nb133  1  0.19685603  0.79669810  0.81385006  1
  Nb  Nb134  1  0.19586151  0.60299500  0.59992849  1
  Nb  Nb135  1  0.80468728  0.60032414  0.59379792  1
  Nb  Nb136  1  0.19365144  -0.00420321  0.60471157  1
  Nb  Nb137  1  0.60319906  0.60406229  -0.00449652  1
  Nb  Nb138  1  0.20460001  0.20536983  0.19418578  1
  Nb  Nb139  1  0.60624827  0.79773769  -0.00207979  1
  Nb  Nb140  1  0.40041492  0.20204870  0.60487128  1
  Nb  Nb141  1  0.39372996  0.60755366  0.39705936  1
  Nb  Nb142  1  0.00099511  0.40353243  0.79989887  1
  Nb  Nb143  1  0.39521376  0.79820469  0.20652503  1
  Nb  Nb144  1  0.39501658  0.79437770  0.39708385  1
  Nb  Nb145  1  0.39809002  0.60396422  0.20783071  1
  Nb  Nb146  1  -0.00412867  0.20057728  -0.00712976  1
  Nb  Nb147  1  0.39827077  0.00084011  0.80220763  1
  Nb  Nb148  1  0.80251612  0.80341523  0.20449023  1
  Nb  Nb149  1  0.39473168  0.00277630  0.20133725  1
  Pd  Pd150  1  0.19137543  0.79886228  0.00186506  1
  Pd  Pd151  1  -0.00410602  0.59796011  0.80113301  1
  Pd  Pd152  1  0.60472814  0.19986250  0.39661858  1
  Pd  Pd153  1  0.79139335  0.20019067  0.60601829  1
  Pd  Pd154  1  0.80907192  -0.00502520  0.80443319  1
  Pd  Pd155  1  0.80204335  0.79058871  0.40248762  1
  Pd  Pd156  1  0.80270300  0.79020643  0.59432005  1
  Pd  Pd157  1  0.40432939  0.39179950  0.59111429  1
  Pd  Pd158  1  0.38830724  0.60337600  0.59143938  1
  Pd  Pd159  1  0.40435223  -0.00800836  0.39270571  1
  Pd  Pd160  1  0.20247214  0.40691200  0.00257859  1
  Pd  Pd161  1  0.79274739  0.40482796  0.60844525  1
  Pd  Pd162  1  0.59698694  0.20348676  0.60226544  1
  Pd  Pd163  1  0.18636919  -0.00767962  0.40925196  1
  Pd  Pd164  1  0.79021629  0.19196779  0.39847318  1
  Pd  Pd165  1  0.60004156  0.39700413  0.20339239  1
  Pd  Pd166  1  0.59599091  0.58800167  0.19060262  1
  Pd  Pd167  1  0.41098581  0.00575855  0.00421782  1
  Pd  Pd168  1  -0.01513807  -0.00495089  0.81160901  1
  Pd  Pd169  1  0.59000188  0.60540211  0.80640718  1
  Pd  Pd170  1  0.59947063  0.79227115  0.80606612  1
  Pd  Pd171  1  0.18796139  0.19357886  0.00216415  1
  Pd  Pd172  1  0.19018267  0.20344176  0.39077995  1
  Pd  Pd173  1  0.19470210  0.20743501  0.80971949  1
  Pd  Pd174  1  0.80324504  0.20119390  0.00773017  1
  Pd  Pd175  1  -0.01158775  0.00970262  -0.01108421  1
  Pd  Pd176  1  0.00598305  0.40417058  0.20450337  1
  Pd  Pd177  1  0.79885419  0.59911843  0.00897637  1
  Pd  Pd178  1  0.80115445  0.01367163  0.40217869  1
  Pd  Pd179  1  0.19787040  0.39904480  0.80220165  1
  Pd  Pd180  1  -0.00077902  -0.00076523  0.59644802  1
  Pd  Pd181  1  -0.00522704  0.19365470  0.40634158  1
  Pd  Pd182  1  0.20096666  0.58330201  0.19099290  1
  Pd  Pd183  1  0.60856580  0.39731776  0.80449056  1
  Pd  Pd184  1  0.00397217  0.60627433  0.59409303  1
  Pd  Pd185  1  0.40306700  0.19444772  0.79340269  1
  Pd  Pd186  1  0.79450995  0.00758789  0.60633720  1
  Pd  Pd187  1  0.19443901  0.40595509  0.59498338  1
  Pd  Pd188  1  0.39103765  0.01182802  0.61049373  1
  Pd  Pd189  1  0.20416772  0.61068651  0.79212102  1
  Pd  Pd190  1  0.19812215  0.59463843  0.00580837  1
  Pd  Pd191  1  0.20367069  -0.00759872  0.80267938  1
  Pd  Pd192  1  0.60462739  0.00505675  0.40159296  1
  Pd  Pd193  1  0.39106992  0.39910002  0.19456396  1
  Pd  Pd194  1  0.20707763  0.19483601  0.59427141  1
  Pd  Pd195  1  0.00919613  0.80805569  0.39687410  1
  Pd  Pd196  1  0.80908177  0.20451918  0.18983397  1
  Pd  Pd197  1  0.59960219  -0.00265442  0.80447787  1
  Pd  Pd198  1  -0.00064965  0.79776842  0.20008439  1
  Pd  Pd199  1  0.60599893  0.80703531  0.19208434  1
  Rh  Rh200  1  -0.00371163  0.20353830  0.59259214  1
  Rh  Rh201  1  0.59466449  0.39404734  0.59216512  1
  Rh  Rh202  1  0.40597765  0.79192311  0.59236236  1
  Rh  Rh203  1  0.39821619  0.59731894  0.79806567  1
  Rh  Rh204  1  0.18773522  0.39118104  0.38914062  1
  Rh  Rh205  1  -0.00271484  0.19900614  0.18747233  1
  Rh  Rh206  1  0.59411844  -0.00178629  0.19357282  1
  Rh  Rh207  1  0.61000227  0.00491826  0.60570731  1
  Rh  Rh208  1  0.00056017  0.79791492  0.60202584  1
  Rh  Rh209  1  0.79063706  0.40140319  0.39014902  1
  Rh  Rh210  1  0.00111405  0.39776616  0.39136115  1
  Rh  Rh211  1  0.39965688  0.40049401  -0.00883124  1
  Rh  Rh212  1  0.80941272  0.59122020  0.78734477  1
  Rh  Rh213  1  0.39164833  0.80488443  0.80330998  1
  Rh  Rh214  1  0.60777776  0.20842133  0.80486167  1
  Rh  Rh215  1  0.80169978  0.40119877  -0.00372792  1
  Rh  Rh216  1  0.19346320  0.80729981  0.39441104  1
  Rh  Rh217  1  0.40829361  0.40504704  0.40720646  1
  Rh  Rh218  1  0.60061262  0.79854327  0.60310399  1
  Rh  Rh219  1  0.79005308  0.21326628  0.78995786  1
  Rh  Rh220  1  0.59159136  0.20749520  0.19320572  1
  Rh  Rh221  1  0.60854510  0.58386705  0.39853952  1
  Rh  Rh222  1  0.19966060  0.59509642  0.41169918  1
  Rh  Rh223  1  0.40502182  0.19609863  0.40115155  1
  Rh  Rh224  1  0.00020309  0.59939736  0.40290260  1
  Rh  Rh225  1  0.80693998  0.60832919  0.20972067  1
  Rh  Rh226  1  0.80173532  0.39317512  0.20069815  1
  Rh  Rh227  1  0.00506105  0.59629867  0.19619632  1
  Rh  Rh228  1  0.80799881  0.80601521  0.79794156  1
  Rh  Rh229  1  0.00563686  0.79375467  0.00172295  1
  Rh  Rh230  1  0.40681347  0.59872709  0.00097534  1
  Rh  Rh231  1  0.41605353  0.20142053  0.00706335  1
  Rh  Rh232  1  0.01028472  0.39384518  0.60639399  1
  Rh  Rh233  1  -0.00129114  0.39761140  -0.00769415  1
  Rh  Rh234  1  0.20198906  0.01259754  0.19148058  1
  Rh  Rh235  1  0.79666887  0.79163069  0.01195180  1
  Rh  Rh236  1  0.80524457  -0.00287451  0.20506827  1
  Rh  Rh237  1  0.59522500  0.81074994  0.40680300  1
  Rh  Rh238  1  -0.00057912  0.60086924  0.00154653  1
  Rh  Rh239  1  0.01430069  0.21189839  0.81028265  1
  Rh  Rh240  1  0.18940279  0.79600961  0.61767313  1
  Rh  Rh241  1  0.39857470  0.40364109  0.80163474  1
  Rh  Rh242  1  0.00309716  0.80290791  0.81275660  1
  Rh  Rh243  1  0.40364801  0.79880906  0.00752458  1
  Rh  Rh244  1  0.80082493  0.01028769  -0.01012988  1
  Rh  Rh245  1  0.19342415  0.00805303  0.00273680  1
  Rh  Rh246  1  -0.00645086  0.00125299  0.20875683  1
  Rh  Rh247  1  0.60686915  0.40098952  -0.00617563  1
  Rh  Rh248  1  0.19418880  0.79538363  0.19068766  1
  Rh  Rh249  1  0.60910026  0.60447885  0.60328035  1
