# generated using pymatgen
data_ZrScNbPdRh
_symmetry_space_group_name_H-M   'P 1'
_cell_length_a   16.56219408
_cell_length_b   16.56894303
_cell_length_c   16.57132292
_cell_angle_alpha   90.04351324
_cell_angle_beta   90.02224510
_cell_angle_gamma   90.01275721
_symmetry_Int_Tables_number   1
_chemical_formula_structural   ZrScNbPdRh
_chemical_formula_sum   'Zr50 Sc50 Nb50 Pd50 Rh50'
_cell_volume   4547.46835573
_cell_formula_units_Z   50
loop_
 _symmetry_equiv_pos_site_id
 _symmetry_equiv_pos_as_xyz
  1  'x, y, z'
loop_
 _atom_site_type_symbol
 _atom_site_label
 _atom_site_symmetry_multiplicity
 _atom_site_fract_x
 _atom_site_fract_y
 _atom_site_fract_z
 _atom_site_occupancy
  Zr  Zr0  1  0.69690644  0.30560069  0.50149992  1
  Zr  Zr1  1  0.49873545  0.09543022  0.30140895  1
  Zr  Zr2  1  0.49852181  0.50014802  0.49275028  1
  Zr  Zr3  1  0.69882397  0.29581994  0.10570157  1
  Zr  Zr4  1  0.69976286  0.49868794  0.69506224  1
  Zr  Zr5  1  0.29974768  0.10757358  0.29988607  1
  Zr  Zr6  1  0.10286200  0.90331098  0.89495995  1
  Zr  Zr7  1  0.29966431  0.29732198  0.49708941  1
  Zr  Zr8  1  0.70373164  0.09856811  0.09611684  1
  Zr  Zr9  1  0.09581143  0.49762393  0.09964298  1
  Zr  Zr10  1  0.29893376  0.89887632  0.09576889  1
  Zr  Zr11  1  0.89844044  0.89876312  0.89663797  1
  Zr  Zr12  1  0.70106984  0.90576132  0.90101077  1
  Zr  Zr13  1  0.29931816  0.29625437  0.90376139  1
  Zr  Zr14  1  0.90009203  0.09608523  0.30162051  1
  Zr  Zr15  1  0.90000782  0.49745669  0.89942351  1
  Zr  Zr16  1  0.30575676  0.50071940  0.30598232  1
  Zr  Zr17  1  0.29753339  0.91571096  0.29506766  1
  Zr  Zr18  1  0.50431168  0.69695980  0.30494167  1
  Zr  Zr19  1  0.70403042  0.10023786  0.71108670  1
  Zr  Zr20  1  0.30710475  0.50242137  0.90541003  1
  Zr  Zr21  1  0.29804286  0.89908578  0.70153222  1
  Zr  Zr22  1  0.09529430  0.49622118  0.50270088  1
  Zr  Zr23  1  0.90196197  0.29923685  0.51338076  1
  Zr  Zr24  1  0.48955948  0.10224114  0.50054595  1
  Zr  Zr25  1  0.29613757  0.90430789  0.51181214  1
  Zr  Zr26  1  0.09719926  0.28655604  0.29598317  1
  Zr  Zr27  1  0.71095128  0.29568935  0.90454854  1
  Zr  Zr28  1  0.70464005  0.70786050  0.89517442  1
  Zr  Zr29  1  0.70570421  0.10791939  0.29576637  1
  Zr  Zr30  1  0.49837203  0.50162825  0.09176866  1
  Zr  Zr31  1  0.10157534  0.90417616  0.69839899  1
  Zr  Zr32  1  0.10337382  0.09181694  0.30633099  1
  Zr  Zr33  1  0.89512263  0.69923184  0.69633229  1
  Zr  Zr34  1  0.50422460  0.69169322  0.90187686  1
  Zr  Zr35  1  0.29979305  0.70273507  0.29764037  1
  Zr  Zr36  1  0.30513402  0.70498924  0.09648661  1
  Zr  Zr37  1  0.29598143  0.49396857  0.49522529  1
  Zr  Zr38  1  0.10529448  0.71304291  0.10162069  1
  Zr  Zr39  1  0.49092742  0.90958215  0.70350409  1
  Zr  Zr40  1  0.28972298  0.29399315  0.69520608  1
  Zr  Zr41  1  0.90296205  0.49699514  0.70279245  1
  Zr  Zr42  1  0.70596243  0.09455785  0.90178671  1
  Zr  Zr43  1  0.50342537  0.29993194  0.10595557  1
  Zr  Zr44  1  0.90823404  0.08770267  0.49958185  1
  Zr  Zr45  1  0.29386948  0.09900653  0.49145236  1
  Zr  Zr46  1  0.50075031  0.49996088  0.90103079  1
  Zr  Zr47  1  0.69553401  0.69394354  0.29922893  1
  Zr  Zr48  1  0.49776479  0.90446154  0.09888817  1
  Zr  Zr49  1  0.30930757  0.09395349  0.68527377  1
  Sc  Sc50  1  0.09909625  0.29114383  0.89518187  1
  Sc  Sc51  1  0.30009419  0.71059094  0.70006509  1
  Sc  Sc52  1  0.90412479  0.70569517  0.30330581  1
  Sc  Sc53  1  0.09209660  0.29108437  0.09563204  1
  Sc  Sc54  1  0.70309861  0.50508740  0.90693509  1
  Sc  Sc55  1  0.89711426  0.09963753  0.09836656  1
  Sc  Sc56  1  0.30058668  0.70031945  0.89381655  1
  Sc  Sc57  1  0.10476241  0.70167468  0.89131133  1
  Sc  Sc58  1  0.49850911  0.29971948  0.91765557  1
  Sc  Sc59  1  0.90734593  0.50949627  0.51011790  1
  Sc  Sc60  1  0.10250505  0.50909606  0.31349612  1
  Sc  Sc61  1  0.50775007  0.89861594  0.49515524  1
  Sc  Sc62  1  0.89782750  0.28290071  0.29842156  1
  Sc  Sc63  1  0.50337068  0.70323463  0.10376801  1
  Sc  Sc64  1  0.09639644  0.49699553  0.70352049  1
  Sc  Sc65  1  0.50858573  0.08753653  0.89936245  1
  Sc  Sc66  1  0.69700100  0.70036569  0.10112307  1
  Sc  Sc67  1  0.30474680  0.09653211  0.10451146  1
  Sc  Sc68  1  0.09433362  0.09784758  0.89232976  1
  Sc  Sc69  1  0.88582002  0.70756083  0.10983189  1
  Sc  Sc70  1  0.08423430  0.69464861  0.48841192  1
  Sc  Sc71  1  0.51509114  0.29760913  0.29785552  1
  Sc  Sc72  1  0.50295787  0.89842059  0.89932436  1
  Sc  Sc73  1  0.50255182  0.70609036  0.70199016  1
  Sc  Sc74  1  0.71066082  0.09110405  0.48842871  1
  Sc  Sc75  1  0.10265324  0.29411411  0.50905276  1
  Sc  Sc76  1  0.70566736  0.89404691  0.70133592  1
  Sc  Sc77  1  0.89909012  0.09758015  0.89540769  1
  Sc  Sc78  1  0.89030773  0.50016838  0.09524961  1
  Sc  Sc79  1  0.50423722  0.50352244  0.69497453  1
  Sc  Sc80  1  0.68707296  0.50459277  0.50629978  1
  Sc  Sc81  1  0.70522320  0.89829768  0.09691504  1
  Sc  Sc82  1  0.09839518  0.10144399  0.09596595  1
  Sc  Sc83  1  0.10335663  0.69982777  0.70824596  1
  Sc  Sc84  1  0.30776262  0.28527146  0.09603473  1
  Sc  Sc85  1  0.49550866  0.30153154  0.68397969  1
  Sc  Sc86  1  0.29347163  0.49866612  0.70575453  1
  Sc  Sc87  1  0.49906306  0.10437493  0.10136177  1
  Sc  Sc88  1  0.10985089  0.90008134  0.09853289  1
  Sc  Sc89  1  0.89706680  0.89332051  0.29988778  1
  Sc  Sc90  1  0.29830142  0.70796784  0.50314223  1
  Sc  Sc91  1  0.50394628  0.90466555  0.30177324  1
  Sc  Sc92  1  0.90557523  0.10379280  0.69983668  1
  Sc  Sc93  1  0.89918643  0.29629836  0.09249371  1
  Sc  Sc94  1  0.09825707  0.50241262  0.88930986  1
  Sc  Sc95  1  0.89542448  0.51334815  0.29895643  1
  Sc  Sc96  1  0.69701944  0.50573685  0.10404364  1
  Sc  Sc97  1  0.29601459  0.10218028  0.90914906  1
  Sc  Sc98  1  0.69440266  0.91369031  0.31121909  1
  Sc  Sc99  1  0.50039398  0.30512525  0.49636066  1
  Nb  Nb100  1  0.50137928  0.10093391  0.69974697  1
  Nb  Nb101  1  0.10022788  0.09313167  0.50168602  1
  Nb  Nb102  1  0.50872582  0.50153055  0.29774429  1
  Nb  Nb103  1  0.09747280  0.70781074  0.29530432  1
  Nb  Nb104  1  0.89100732  0.70182528  0.50192722  1
  Nb  Nb105  1  0.90897662  0.89842560  0.68902309  1
  Nb  Nb106  1  0.70082000  0.30470003  0.30053763  1
  Nb  Nb107  1  0.90200338  0.69865856  0.89846616  1
  Nb  Nb108  1  0.09861527  0.10837506  0.69635632  1
  Nb  Nb109  1  0.29448049  0.89795588  0.90131515  1
  Nb  Nb110  1  0.30094271  0.49937939  0.10077549  1
  Nb  Nb111  1  0.69149785  0.70591906  0.50984222  1
  Nb  Nb112  1  0.10021995  0.89408878  0.29375509  1
  Nb  Nb113  1  0.70086038  0.89867720  0.50223483  1
  Nb  Nb114  1  0.69404368  0.50022094  0.30105601  1
  Nb  Nb115  1  0.90189790  0.89606229  0.09852457  1
  Nb  Nb116  1  0.89779152  0.89444204  0.51469219  1
  Nb  Nb117  1  0.50404526  0.70374094  0.50085463  1
  Nb  Nb118  1  0.29598602  0.29973066  0.29618239  1
  Nb  Nb119  1  0.09641849  0.90982250  0.49844738  1
  Nb  Nb120  1  0.69930849  0.69380913  0.68834780  1
  Nb  Nb121  1  0.70574632  0.29851060  0.69770343  1
  Nb  Nb122  1  0.09034290  0.28658897  0.69822886  1
  Nb  Nb123  1  0.89730389  0.30312290  0.89623753  1
  Nb  Nb124  1  0.89479856  0.29825380  0.70466664  1
  Nb  Nb125  1  0.39685667  0.40150463  0.20323128  1
  Nb  Nb126  1  0.40659181  0.20084996  0.79688110  1
  Nb  Nb127  1  0.00594539  0.60429482  0.19609865  1
  Nb  Nb128  1  0.20197874  0.39993931  0.19904652  1
  Nb  Nb129  1  0.19981463  0.59900902  0.19790857  1
  Nb  Nb130  1  0.39712752  0.60279079  0.59426639  1
  Nb  Nb131  1  -0.00088013  0.60894062  0.00118717  1
  Nb  Nb132  1  0.19847527  0.59724165  0.00538089  1
  Nb  Nb133  1  0.20175595  0.40254182  0.00502935  1
  Nb  Nb134  1  0.19352078  0.80816673  0.39684470  1
  Nb  Nb135  1  0.79388522  0.60518885  0.40823624  1
  Nb  Nb136  1  0.60548184  0.19346374  0.60374849  1
  Nb  Nb137  1  0.79400640  0.79781806  0.41447464  1
  Nb  Nb138  1  0.79819288  0.39861548  0.20974950  1
  Nb  Nb139  1  0.00108202  -0.00779753  0.20022639  1
  Nb  Nb140  1  0.80002037  0.40466781  0.39748191  1
  Nb  Nb141  1  0.20183046  0.59907152  0.59537028  1
  Nb  Nb142  1  -0.00537631  0.79774866  -0.00263000  1
  Nb  Nb143  1  0.60261025  0.00468578  0.60195277  1
  Nb  Nb144  1  0.39602391  0.80243935  0.40089135  1
  Nb  Nb145  1  0.60008936  0.39061389  0.79833314  1
  Nb  Nb146  1  0.59817458  0.20688346  0.79548108  1
  Nb  Nb147  1  -0.00210466  0.40345024  0.20772581  1
  Nb  Nb148  1  -0.00796251  0.39759524  0.39643106  1
  Nb  Nb149  1  0.40408976  0.39302190  0.80145747  1
  Pd  Pd150  1  0.19743760  0.00495295  0.00191693  1
  Pd  Pd151  1  0.40057114  0.00262903  -0.00408960  1
  Pd  Pd152  1  0.60229776  0.00277204  0.19506555  1
  Pd  Pd153  1  0.61029042  0.40191819  -0.00231891  1
  Pd  Pd154  1  0.80104991  0.20650585  0.40817010  1
  Pd  Pd155  1  0.80230958  0.60804140  0.00298394  1
  Pd  Pd156  1  -0.00103236  0.80070902  0.80008200  1
  Pd  Pd157  1  0.18383105  0.79024690  0.58999855  1
  Pd  Pd158  1  0.79582558  0.00314133  0.60630861  1
  Pd  Pd159  1  0.19982606  0.61249221  0.40321360  1
  Pd  Pd160  1  0.20014413  0.39628600  0.80612126  1
  Pd  Pd161  1  -0.00373428  0.80858614  0.40668750  1
  Pd  Pd162  1  0.00967624  0.79179388  0.59813067  1
  Pd  Pd163  1  -0.00043831  -0.00565461  0.00539103  1
  Pd  Pd164  1  0.60127062  0.80351010  0.79451498  1
  Pd  Pd165  1  0.60727366  0.59494979  0.79882006  1
  Pd  Pd166  1  0.60544663  0.80817013  0.20505701  1
  Pd  Pd167  1  0.19202225  0.40259502  0.60594914  1
  Pd  Pd168  1  0.60147142  0.80041690  0.00173215  1
  Pd  Pd169  1  0.18736896  0.38947315  0.39408889  1
  Pd  Pd170  1  -0.00583921  -0.01400697  0.39319853  1
  Pd  Pd171  1  0.81182265  -0.00583158  0.78989338  1
  Pd  Pd172  1  0.00312188  0.39045953  0.79683197  1
  Pd  Pd173  1  0.59803434  0.19273597  -0.00613547  1
  Pd  Pd174  1  0.40453229  0.80805605  0.20848074  1
  Pd  Pd175  1  0.80214954  0.40985515  0.59254699  1
  Pd  Pd176  1  -0.00482290  0.19567673  -0.01016055  1
  Pd  Pd177  1  0.40113600  0.80130795  0.80804180  1
  Pd  Pd178  1  0.00246781  0.40205913  -0.00096583  1
  Pd  Pd179  1  0.20672909  0.18865794  0.79690424  1
  Pd  Pd180  1  0.19907361  0.19837944  0.19024099  1
  Pd  Pd181  1  0.79823995  0.18937030  0.59513394  1
  Pd  Pd182  1  0.79298045  0.40308041  0.80199558  1
  Pd  Pd183  1  0.78766595  0.80678641  0.21220356  1
  Pd  Pd184  1  0.00826486  0.60815591  0.60876635  1
  Pd  Pd185  1  0.59401951  0.81136190  0.60943515  1
  Pd  Pd186  1  0.60426279  0.19409392  0.40675167  1
  Pd  Pd187  1  0.40354676  0.20994456  0.39159648  1
  Pd  Pd188  1  0.39103846  0.00733581  0.81207030  1
  Pd  Pd189  1  0.40445762  0.79872705  -0.00955889  1
  Pd  Pd190  1  0.40040102  0.60958451  0.40834845  1
  Pd  Pd191  1  0.20515377  0.00989807  0.79560591  1
  Pd  Pd192  1  0.80546966  -0.00599862  0.19914173  1
  Pd  Pd193  1  0.00369198  0.20280753  0.41057256  1
  Pd  Pd194  1  0.40330470  0.59643022  0.19738536  1
  Pd  Pd195  1  0.40915418  0.38950812  0.38799561  1
  Pd  Pd196  1  0.79637276  0.59963145  0.79819576  1
  Pd  Pd197  1  0.80166576  0.80034347  0.79168998  1
  Pd  Pd198  1  0.39921912  0.59669994  0.78716314  1
  Pd  Pd199  1  0.39612809  0.40920102  0.60626116  1
  Rh  Rh200  1  0.19183512  0.00716217  0.60537366  1
  Rh  Rh201  1  0.81159684  -0.01567885  0.40443792  1
  Rh  Rh202  1  0.79732562  0.39696043  0.00930829  1
  Rh  Rh203  1  0.60210074  -0.00314119  0.79453267  1
  Rh  Rh204  1  0.60424157  0.60662320  0.00093253  1
  Rh  Rh205  1  -0.01064108  0.59814776  0.39394296  1
  Rh  Rh206  1  -0.00851667  0.20343416  0.80202438  1
  Rh  Rh207  1  0.60081442  0.39277252  0.60531146  1
  Rh  Rh208  1  0.60250662  0.40404955  0.39823448  1
  Rh  Rh209  1  0.19660764  0.79700331  -0.01324798  1
  Rh  Rh210  1  0.20308341  0.80494959  0.80102759  1
  Rh  Rh211  1  0.60403199  0.60028819  0.40513600  1
  Rh  Rh212  1  0.80473177  0.20173923  0.80409323  1
  Rh  Rh213  1  0.40074229  0.20308908  0.59805266  1
  Rh  Rh214  1  0.59498780  0.59706629  0.19521945  1
  Rh  Rh215  1  0.79922560  0.59962996  0.20626609  1
  Rh  Rh216  1  -0.00590587  0.60088909  0.80147323  1
  Rh  Rh217  1  0.19502922  0.20217635  0.00196286  1
  Rh  Rh218  1  0.20928449  0.80207121  0.20581867  1
  Rh  Rh219  1  -0.00302222  0.19449489  0.59896884  1
  Rh  Rh220  1  -0.00069281  0.00066147  0.78939704  1
  Rh  Rh221  1  0.19839242  -0.00563466  0.40123316  1
  Rh  Rh222  1  0.20370514  0.60061848  0.79662778  1
  Rh  Rh223  1  0.00511344  0.00356098  0.60546660  1
  Rh  Rh224  1  0.40454890  0.20570879  0.20693621  1
  Rh  Rh225  1  0.39940647  -0.00839163  0.40428023  1
  Rh  Rh226  1  0.60171564  0.19228086  0.20314922  1
  Rh  Rh227  1  0.58883359  0.60511835  0.60082032  1
  Rh  Rh228  1  0.19266467  0.00557627  0.19502598  1
  Rh  Rh229  1  -0.00524272  0.18829063  0.19662853  1
  Rh  Rh230  1  0.19849933  0.19280227  0.59533100  1
  Rh  Rh231  1  0.80115090  0.20435060  0.19628811  1
  Rh  Rh232  1  0.59794678  0.00833158  0.40748722  1
  Rh  Rh233  1  0.80257501  0.79896463  -0.00281479  1
  Rh  Rh234  1  0.40370664  0.00180346  0.19765230  1
  Rh  Rh235  1  0.79729563  0.59713569  0.59604872  1
  Rh  Rh236  1  0.00184778  0.39341915  0.60541788  1
  Rh  Rh237  1  0.40708824  0.18976989  -0.00503450  1
  Rh  Rh238  1  0.39324085  0.39391770  0.00492785  1
  Rh  Rh239  1  0.39831934  0.60874656  0.00246742  1
  Rh  Rh240  1  0.79710136  0.79869361  0.60348314  1
  Rh  Rh241  1  0.40840848  0.79841511  0.59343695  1
  Rh  Rh242  1  0.80500688  -0.00250665  0.00196802  1
  Rh  Rh243  1  0.60111772  0.79750345  0.39907768  1
  Rh  Rh244  1  0.80748194  0.19764518  -0.00240699  1
  Rh  Rh245  1  0.60009340  0.40696571  0.19837377  1
  Rh  Rh246  1  -0.00261435  0.80234427  0.18987710  1
  Rh  Rh247  1  0.40912091  -0.00627166  0.59097816  1
  Rh  Rh248  1  0.19444984  0.20286841  0.40497367  1
  Rh  Rh249  1  0.60126570  -0.00361115  0.00626082  1
