# generated using pymatgen
data_ZrScNbPdRh
_symmetry_space_group_name_H-M   'P 1'
_cell_length_a   16.55970837
_cell_length_b   16.56076950
_cell_length_c   16.55799108
_cell_angle_alpha   90.02488481
_cell_angle_beta   90.01966655
_cell_angle_gamma   89.94601903
_symmetry_Int_Tables_number   1
_chemical_formula_structural   ZrScNbPdRh
_chemical_formula_sum   'Zr50 Sc50 Nb50 Pd50 Rh50'
_cell_volume   4540.88582145
_cell_formula_units_Z   50
loop_
 _symmetry_equiv_pos_site_id
 _symmetry_equiv_pos_as_xyz
  1  'x, y, z'
loop_
 _atom_site_type_symbol
 _atom_site_label
 _atom_site_symmetry_multiplicity
 _atom_site_fract_x
 _atom_site_fract_y
 _atom_site_fract_z
 _atom_site_occupancy
  Zr  Zr0  1  0.69924635  0.90088515  0.49670044  1
  Zr  Zr1  1  0.70114350  0.30096685  0.29967964  1
  Zr  Zr2  1  0.50952243  0.29578551  0.90020128  1
  Zr  Zr3  1  0.29462779  0.30242265  0.49554585  1
  Zr  Zr4  1  0.69795875  0.70254785  0.50270363  1
  Zr  Zr5  1  0.69797939  0.11239589  0.90709252  1
  Zr  Zr6  1  0.70236750  0.70078578  0.10022665  1
  Zr  Zr7  1  0.90610060  0.70138237  0.90084541  1
  Zr  Zr8  1  0.49704748  0.10137610  0.90014182  1
  Zr  Zr9  1  0.49391445  0.69407035  0.50089598  1
  Zr  Zr10  1  0.89385936  0.91204217  0.70260722  1
  Zr  Zr11  1  0.69496114  0.31193907  0.70539868  1
  Zr  Zr12  1  0.89355778  0.49217514  0.30137908  1
  Zr  Zr13  1  0.70355083  0.10206672  0.49107395  1
  Zr  Zr14  1  0.10738218  0.70071785  0.90506794  1
  Zr  Zr15  1  0.89927844  0.90398497  0.89372994  1
  Zr  Zr16  1  0.50023250  0.90828313  0.29843052  1
  Zr  Zr17  1  0.49710056  0.10494335  0.31093838  1
  Zr  Zr18  1  0.69551834  0.89576761  0.69832270  1
  Zr  Zr19  1  0.49925161  0.89753366  0.69605126  1
  Zr  Zr20  1  0.11119276  0.50163528  0.30287687  1
  Zr  Zr21  1  0.70509809  0.90926407  0.30488235  1
  Zr  Zr22  1  0.29365782  0.31268006  0.69930644  1
  Zr  Zr23  1  0.29559303  0.89807296  0.68823422  1
  Zr  Zr24  1  0.29656293  0.10208043  0.69664594  1
  Zr  Zr25  1  0.50813143  0.69556559  0.09196877  1
  Zr  Zr26  1  0.90562554  0.29463500  0.09514521  1
  Zr  Zr27  1  0.50115217  0.90560675  0.50063670  1
  Zr  Zr28  1  0.49679324  0.69332675  0.30040484  1
  Zr  Zr29  1  0.29725634  0.89925045  0.11451211  1
  Zr  Zr30  1  0.49908348  0.09787583  0.69692638  1
  Zr  Zr31  1  0.49621690  0.30527770  0.69879634  1
  Zr  Zr32  1  0.70741107  0.28477624  0.09008184  1
  Zr  Zr33  1  0.11001993  0.49521172  0.10090666  1
  Zr  Zr34  1  0.30312411  0.30588183  0.89485319  1
  Zr  Zr35  1  0.09930079  0.89911030  0.69447777  1
  Zr  Zr36  1  0.89474597  0.30025765  0.49694559  1
  Zr  Zr37  1  0.70027599  0.90408521  0.10256884  1
  Zr  Zr38  1  0.90138305  0.29247961  0.29953909  1
  Zr  Zr39  1  0.68116343  0.70047817  0.90117532  1
  Zr  Zr40  1  0.29628426  0.69563823  0.29754731  1
  Zr  Zr41  1  0.49515847  0.51742151  0.90756944  1
  Zr  Zr42  1  0.10140107  0.30313762  0.49807552  1
  Zr  Zr43  1  0.09730051  0.10256373  0.29672104  1
  Zr  Zr44  1  0.09612924  0.29519496  0.90761761  1
  Zr  Zr45  1  0.10304483  0.70252210  0.10723765  1
  Zr  Zr46  1  0.49624278  0.48813485  0.10051853  1
  Zr  Zr47  1  0.69946830  0.50158878  0.69083365  1
  Zr  Zr48  1  0.90781617  0.70348947  0.30019926  1
  Zr  Zr49  1  0.70592721  0.49394860  0.88975154  1
  Sc  Sc50  1  0.49967914  0.89899089  0.10433939  1
  Sc  Sc51  1  0.10228353  0.89819169  0.49604615  1
  Sc  Sc52  1  0.89888307  0.30037279  0.90698445  1
  Sc  Sc53  1  0.49964373  0.29999623  0.10693421  1
  Sc  Sc54  1  0.70340006  0.10297361  0.29683418  1
  Sc  Sc55  1  0.29526103  0.89833757  0.90523788  1
  Sc  Sc56  1  0.50361849  0.89454525  0.89796327  1
  Sc  Sc57  1  0.11452379  0.50060660  0.90325741  1
  Sc  Sc58  1  0.30267225  0.31258723  0.09865302  1
  Sc  Sc59  1  0.49963061  0.48875727  0.29303866  1
  Sc  Sc60  1  0.30222620  0.09497299  0.29813942  1
  Sc  Sc61  1  0.10094460  0.90085402  0.10558876  1
  Sc  Sc62  1  0.11384670  0.50069721  0.69681662  1
  Sc  Sc63  1  0.89738938  0.10154707  0.09963032  1
  Sc  Sc64  1  0.70262889  0.70768323  0.30440558  1
  Sc  Sc65  1  0.29923376  0.50879090  0.50382546  1
  Sc  Sc66  1  0.89768110  0.09835130  0.30379127  1
  Sc  Sc67  1  0.07763552  0.10533663  0.69680971  1
  Sc  Sc68  1  0.09964844  0.70201226  0.49796649  1
  Sc  Sc69  1  0.29622424  0.29620182  0.30519019  1
  Sc  Sc70  1  0.29707371  0.69721196  0.49789854  1
  Sc  Sc71  1  0.90276984  0.69977505  0.69510080  1
  Sc  Sc72  1  0.90738313  0.90375016  0.30235494  1
  Sc  Sc73  1  0.30197871  0.70129085  0.70204372  1
  Sc  Sc74  1  0.10124200  0.70402917  0.30508581  1
  Sc  Sc75  1  0.70604220  0.08999396  0.69450955  1
  Sc  Sc76  1  0.10122978  0.50841940  0.49895353  1
  Sc  Sc77  1  0.09323624  0.09792596  0.09069171  1
  Sc  Sc78  1  0.70118483  0.30709092  0.49685938  1
  Sc  Sc79  1  0.09781046  0.89697872  0.30070603  1
  Sc  Sc80  1  0.90297604  0.69226506  0.09632627  1
  Sc  Sc81  1  0.49566078  0.69960642  0.70607651  1
  Sc  Sc82  1  0.69527042  0.69500513  0.70347968  1
  Sc  Sc83  1  0.29336232  0.08860903  0.09754118  1
  Sc  Sc84  1  0.50088500  0.29499502  0.29769719  1
  Sc  Sc85  1  0.09345253  0.09632132  0.49739723  1
  Sc  Sc86  1  0.88923888  0.50735685  0.69689783  1
  Sc  Sc87  1  0.89590047  0.49916770  0.90851169  1
  Sc  Sc88  1  0.10300834  0.70372240  0.69287489  1
  Sc  Sc89  1  0.91021003  0.69370224  0.50294331  1
  Sc  Sc90  1  0.90494969  0.90857108  0.49349033  1
  Sc  Sc91  1  0.29829455  0.09498833  0.48861525  1
  Sc  Sc92  1  0.90547408  0.28583922  0.69332744  1
  Sc  Sc93  1  0.90443425  0.91009212  0.09898907  1
  Sc  Sc94  1  0.49302907  0.09910162  0.10925766  1
  Sc  Sc95  1  0.50005228  0.50341331  0.69348240  1
  Sc  Sc96  1  0.69910894  0.90025987  0.89107669  1
  Sc  Sc97  1  0.09193769  0.89814757  0.90214691  1
  Sc  Sc98  1  0.30310997  0.50105981  0.70783589  1
  Sc  Sc99  1  0.10028509  0.30071754  0.31031498  1
  Nb  Nb100  1  0.29794238  0.89967883  0.30359601  1
  Nb  Nb101  1  0.49391752  0.69947441  0.90373281  1
  Nb  Nb102  1  0.09892840  0.10092037  0.89658946  1
  Nb  Nb103  1  0.89749065  0.09835697  0.69949525  1
  Nb  Nb104  1  0.10007787  0.30418091  0.70164772  1
  Nb  Nb105  1  0.30364158  0.50090231  0.10794619  1
  Nb  Nb106  1  0.09618288  0.29588213  0.10049131  1
  Nb  Nb107  1  0.89784875  0.10203452  0.51713726  1
  Nb  Nb108  1  0.91180093  0.09542335  0.88792576  1
  Nb  Nb109  1  0.49865973  0.10853912  0.49587693  1
  Nb  Nb110  1  0.70131108  0.29908100  0.89996982  1
  Nb  Nb111  1  0.29584872  0.09956161  0.89939914  1
  Nb  Nb112  1  0.50113602  0.49892469  0.49898091  1
  Nb  Nb113  1  0.29769142  0.89823765  0.49301957  1
  Nb  Nb114  1  0.70095836  0.49345000  0.29903599  1
  Nb  Nb115  1  0.71192256  0.49424216  0.10503696  1
  Nb  Nb116  1  0.30378675  0.50190854  0.29860342  1
  Nb  Nb117  1  0.70584187  0.09790055  0.09775924  1
  Nb  Nb118  1  0.70368764  0.49781382  0.50305242  1
  Nb  Nb119  1  0.30724190  0.50287304  0.91064102  1
  Nb  Nb120  1  0.89669221  0.49756989  0.10322968  1
  Nb  Nb121  1  0.29865682  0.70113591  0.10576041  1
  Nb  Nb122  1  0.30917843  0.68951344  0.90225622  1
  Nb  Nb123  1  0.49779811  0.29929779  0.49741600  1
  Nb  Nb124  1  0.89273890  0.49888952  0.50755823  1
  Nb  Nb125  1  0.79850880  0.80425710  0.59882374  1
  Nb  Nb126  1  0.80294641  0.80386072  0.19604216  1
  Nb  Nb127  1  0.80285888  0.19638872  0.80130501  1
  Nb  Nb128  1  0.59323247  0.20308958  0.59419130  1
  Nb  Nb129  1  0.19264951  0.20219399  0.19344403  1
  Nb  Nb130  1  0.39802305  0.20324334  0.59490519  1
  Nb  Nb131  1  0.00499184  0.59631869  0.80209781  1
  Nb  Nb132  1  0.00394460  0.40264645  0.79563188  1
  Nb  Nb133  1  0.39658678  0.79021186  0.00235008  1
  Nb  Nb134  1  -0.00060378  0.58847798  0.19846914  1
  Nb  Nb135  1  0.39564865  0.80628711  0.39702522  1
  Nb  Nb136  1  0.79842466  0.80041546  -0.00020025  1
  Nb  Nb137  1  0.40139443  0.40379848  0.40326558  1
  Nb  Nb138  1  0.19402841  0.19806728  0.80023615  1
  Nb  Nb139  1  -0.00058062  0.40233052  0.60227363  1
  Nb  Nb140  1  0.19760010  0.00708769  0.79996488  1
  Nb  Nb141  1  0.00172524  0.40030467  0.19601076  1
  Nb  Nb142  1  0.39518843  0.19778517  -0.00488812  1
  Nb  Nb143  1  0.60465157  0.58808925  0.39839130  1
  Nb  Nb144  1  0.60983803  0.39812749  -0.00155162  1
  Nb  Nb145  1  0.60332321  0.00655692  0.00399085  1
  Nb  Nb146  1  0.60993470  0.59054839  0.20252435  1
  Nb  Nb147  1  0.39183279  0.00071453  0.79862135  1
  Nb  Nb148  1  0.79591444  0.59190652  0.40272302  1
  Nb  Nb149  1  0.19756683  0.20364187  0.60333400  1
  Pd  Pd150  1  0.79867771  -0.00099110  -0.00823774  1
  Pd  Pd151  1  0.61008724  0.19373736  0.78584732  1
  Pd  Pd152  1  0.40778659  0.59715771  0.19533249  1
  Pd  Pd153  1  0.78651157  0.20648362  0.60681467  1
  Pd  Pd154  1  0.59619098  0.60274547  0.59839068  1
  Pd  Pd155  1  0.60255314  0.19482542  0.19792180  1
  Pd  Pd156  1  0.60239298  0.00763870  0.59261275  1
  Pd  Pd157  1  -0.00074607  0.40727052  0.40330808  1
  Pd  Pd158  1  0.00372981  0.79333155  0.79403981  1
  Pd  Pd159  1  0.20006163  0.38965430  0.20614860  1
  Pd  Pd160  1  0.20582697  0.80123088  0.00180441  1
  Pd  Pd161  1  0.81154528  0.79659028  0.40320972  1
  Pd  Pd162  1  0.79473984  0.60407049  -0.00680158  1
  Pd  Pd163  1  0.80405408  0.38573312  0.19484024  1
  Pd  Pd164  1  0.38443637  0.19994729  0.19146520  1
  Pd  Pd165  1  0.39598886  0.00586984  0.59497064  1
  Pd  Pd166  1  0.61309288  0.58454020  0.00795913  1
  Pd  Pd167  1  0.19392281  -0.00025143  0.39437404  1
  Pd  Pd168  1  -0.00570393  0.80440491  0.00824594  1
  Pd  Pd169  1  0.79803345  0.78981558  0.79849388  1
  Pd  Pd170  1  -0.00450633  0.59373515  0.39603655  1
  Pd  Pd171  1  0.20344488  0.60563096  0.60222210  1
  Pd  Pd172  1  0.80426956  0.60719079  0.80361624  1
  Pd  Pd173  1  0.59019858  0.79662878  0.39755109  1
  Pd  Pd174  1  0.60076846  0.01013648  0.19881630  1
  Pd  Pd175  1  0.39281555  0.19810728  0.79799165  1
  Pd  Pd176  1  -0.00526834  0.19283001  0.40661373  1
  Pd  Pd177  1  0.58902914  0.41202774  0.80566364  1
  Pd  Pd178  1  -0.00796518  0.80710378  0.59578853  1
  Pd  Pd179  1  0.19016487  0.00907901  0.60012444  1
  Pd  Pd180  1  0.39473162  0.80649588  0.80779171  1
  Pd  Pd181  1  0.60435989  0.79706400  0.20637745  1
  Pd  Pd182  1  0.00081516  0.40868538  -0.00083747  1
  Pd  Pd183  1  -0.00046589  0.00315332  0.19937287  1
  Pd  Pd184  1  0.20897151  0.60142598  0.00832926  1
  Pd  Pd185  1  0.81746229  0.38963214  0.79307410  1
  Pd  Pd186  1  0.19171197  -0.00679147  -0.00377125  1
  Pd  Pd187  1  0.20550636  0.39776219  -0.00071311  1
  Pd  Pd188  1  0.20655560  0.20187676  0.00343458  1
  Pd  Pd189  1  0.39510538  0.79525610  0.59146356  1
  Pd  Pd190  1  0.80145549  0.60770634  0.20916745  1
  Pd  Pd191  1  0.20306094  0.80273342  0.80292467  1
  Pd  Pd192  1  0.40309952  0.79884238  0.20056212  1
  Pd  Pd193  1  0.59828276  0.00242692  0.80590332  1
  Pd  Pd194  1  0.40586226  -0.00548233  -0.00386972  1
  Pd  Pd195  1  0.00529374  0.59057633  0.00012791  1
  Pd  Pd196  1  0.39717114  0.40347899  0.59257615  1
  Pd  Pd197  1  0.20115951  0.60244350  0.79931454  1
  Pd  Pd198  1  0.40902324  0.41181224  0.80764261  1
  Pd  Pd199  1  0.59472532  0.40031097  0.40183526  1
  Rh  Rh200  1  0.79888791  0.40127129  0.40272808  1
  Rh  Rh201  1  0.39532817  0.20683225  0.40288706  1
  Rh  Rh202  1  0.19789606  0.60121755  0.20047351  1
  Rh  Rh203  1  -0.00431302  0.18971539  -0.00250212  1
  Rh  Rh204  1  0.40841410  0.39318937  -0.00642880  1
  Rh  Rh205  1  0.40044106  -0.00476311  0.40212535  1
  Rh  Rh206  1  0.81333307  0.19179378  -0.00985502  1
  Rh  Rh207  1  0.19863616  0.18933051  0.39557578  1
  Rh  Rh208  1  0.00913341  -0.00409801  0.79558831  1
  Rh  Rh209  1  0.80415875  -0.00191086  0.20473514  1
  Rh  Rh210  1  0.20156313  0.79686937  0.59304956  1
  Rh  Rh211  1  0.61062534  0.39758741  0.18874486  1
  Rh  Rh212  1  0.59899493  0.00732156  0.40007728  1
  Rh  Rh213  1  0.80041834  -0.00721660  0.59242277  1
  Rh  Rh214  1  0.39867791  0.59829960  0.79645191  1
  Rh  Rh215  1  0.80590040  0.39399721  0.60514535  1
  Rh  Rh216  1  0.80009892  0.61265864  0.59268557  1
  Rh  Rh217  1  0.80142989  0.19710260  0.20126180  1
  Rh  Rh218  1  0.79390855  0.01163929  0.80628701  1
  Rh  Rh219  1  0.58714683  0.19763403  0.01278035  1
  Rh  Rh220  1  0.21128957  0.41282660  0.40225171  1
  Rh  Rh221  1  0.80268954  0.19780327  0.40016126  1
  Rh  Rh222  1  0.59398387  0.59769285  0.79785928  1
  Rh  Rh223  1  0.60175821  0.79490002  0.60508021  1
  Rh  Rh224  1  -0.00398142  0.20867210  0.80511541  1
  Rh  Rh225  1  0.19555209  0.39862425  0.81125804  1
  Rh  Rh226  1  0.00124596  0.00186700  -0.00327697  1
  Rh  Rh227  1  0.80592660  0.00688256  0.40243980  1
  Rh  Rh228  1  0.79502145  0.39848047  0.00209466  1
  Rh  Rh229  1  0.19660189  0.80180169  0.20763087  1
  Rh  Rh230  1  0.39130862  0.39430686  0.21328753  1
  Rh  Rh231  1  0.00477754  0.20327945  0.20059707  1
  Rh  Rh232  1  0.39728793  0.00137841  0.20458895  1
  Rh  Rh233  1  -0.00485500  0.79478056  0.19560837  1
  Rh  Rh234  1  0.59751495  0.81241753  -0.00129958  1
  Rh  Rh235  1  0.19569100  0.00619422  0.20413769  1
  Rh  Rh236  1  0.40492271  0.59401709  0.39892274  1
  Rh  Rh237  1  0.19266005  0.40165971  0.59243790  1
  Rh  Rh238  1  0.60527141  0.20459874  0.40161951  1
  Rh  Rh239  1  -0.00144826  0.00593034  0.40167339  1
  Rh  Rh240  1  -0.00057753  -0.00350779  0.59865056  1
  Rh  Rh241  1  0.39145885  0.60452202  0.01468038  1
  Rh  Rh242  1  0.60049742  0.39599027  0.59470128  1
  Rh  Rh243  1  0.20257554  0.60237708  0.40028109  1
  Rh  Rh244  1  0.00283669  0.58832622  0.61117875  1
  Rh  Rh245  1  0.00276130  0.80258918  0.40372658  1
  Rh  Rh246  1  0.20484409  0.79846106  0.39894760  1
  Rh  Rh247  1  0.39822446  0.59944136  0.60396035  1
  Rh  Rh248  1  0.00550027  0.20719597  0.59136319  1
  Rh  Rh249  1  0.59254046  0.79571570  0.79715137  1
