# generated using pymatgen
data_ZrScNbPdRh
_symmetry_space_group_name_H-M   'P 1'
_cell_length_a   16.55090282
_cell_length_b   16.55377488
_cell_length_c   16.55339301
_cell_angle_alpha   90.01627238
_cell_angle_beta   89.98588778
_cell_angle_gamma   90.02931839
_symmetry_Int_Tables_number   1
_chemical_formula_structural   ZrScNbPdRh
_chemical_formula_sum   'Zr50 Sc50 Nb50 Pd50 Rh50'
_cell_volume   4535.29636783
_cell_formula_units_Z   50
loop_
 _symmetry_equiv_pos_site_id
 _symmetry_equiv_pos_as_xyz
  1  'x, y, z'
loop_
 _atom_site_type_symbol
 _atom_site_label
 _atom_site_symmetry_multiplicity
 _atom_site_fract_x
 _atom_site_fract_y
 _atom_site_fract_z
 _atom_site_occupancy
  Zr  Zr0  1  0.09723617  0.30440713  0.70322893  1
  Zr  Zr1  1  0.30336425  0.10137573  0.90074244  1
  Zr  Zr2  1  0.50030403  0.50202625  0.89117260  1
  Zr  Zr3  1  0.69330850  0.89793812  0.90273136  1
  Zr  Zr4  1  0.90653913  0.89834426  0.48712150  1
  Zr  Zr5  1  0.10529216  0.49921981  0.29573966  1
  Zr  Zr6  1  0.89703613  0.70613168  0.30767439  1
  Zr  Zr7  1  0.49171005  0.09725595  0.09995977  1
  Zr  Zr8  1  0.49705851  0.90048049  0.30324984  1
  Zr  Zr9  1  0.49988502  0.29723089  0.09562055  1
  Zr  Zr10  1  0.90190956  0.50232255  0.50218813  1
  Zr  Zr11  1  0.90511555  0.70242665  0.49739910  1
  Zr  Zr12  1  0.10053276  0.89563763  0.50585106  1
  Zr  Zr13  1  0.50300509  0.30330172  0.69977734  1
  Zr  Zr14  1  0.70852448  0.49123882  0.49158275  1
  Zr  Zr15  1  0.29780905  0.90572903  0.89898546  1
  Zr  Zr16  1  0.09678498  0.49527678  0.09469502  1
  Zr  Zr17  1  0.49832563  0.09173024  0.30011144  1
  Zr  Zr18  1  0.69716568  0.69257198  0.30550926  1
  Zr  Zr19  1  0.49502729  0.69910062  0.09747495  1
  Zr  Zr20  1  0.49821620  0.91116124  0.89479716  1
  Zr  Zr21  1  0.30232532  0.89642514  0.30465253  1
  Zr  Zr22  1  0.88703253  0.31136112  0.51035001  1
  Zr  Zr23  1  0.29942468  0.29741409  0.09216368  1
  Zr  Zr24  1  0.09936970  0.09786172  0.89792082  1
  Zr  Zr25  1  0.90418716  0.48179364  0.69889810  1
  Zr  Zr26  1  0.90248055  0.09472242  0.30369264  1
  Zr  Zr27  1  0.49740302  0.89947358  0.50811508  1
  Zr  Zr28  1  0.49664629  0.50202498  0.09457530  1
  Zr  Zr29  1  0.89587034  0.09087413  0.50136424  1
  Zr  Zr30  1  0.10286884  0.50026110  0.69624526  1
  Zr  Zr31  1  0.89432094  0.89422955  0.09578408  1
  Zr  Zr32  1  0.10425050  0.69678145  0.30454191  1
  Zr  Zr33  1  0.10562037  0.90121364  0.09478484  1
  Zr  Zr34  1  0.29861157  0.49712387  0.10259390  1
  Zr  Zr35  1  0.48728244  0.69756186  0.30258321  1
  Zr  Zr36  1  0.10749193  0.30144185  0.50581184  1
  Zr  Zr37  1  0.90068022  0.10047719  0.71203419  1
  Zr  Zr38  1  0.10414348  0.70051325  0.69823127  1
  Zr  Zr39  1  0.89436135  0.50168612  0.91280996  1
  Zr  Zr40  1  0.10335310  0.69750761  0.89772746  1
  Zr  Zr41  1  0.88846510  0.29807223  0.89626677  1
  Zr  Zr42  1  0.30157133  0.69587020  0.30054280  1
  Zr  Zr43  1  0.30940502  0.29547281  0.89563890  1
  Zr  Zr44  1  0.90252103  0.10440859  0.89674280  1
  Zr  Zr45  1  0.89412161  0.50370027  0.31053469  1
  Zr  Zr46  1  0.51523586  0.90194137  0.09509857  1
  Zr  Zr47  1  0.10652017  0.89584589  0.69933156  1
  Zr  Zr48  1  0.89480340  0.69634491  0.09173001  1
  Zr  Zr49  1  0.70804939  0.69436289  0.88947858  1
  Sc  Sc50  1  0.69193600  0.09942765  0.30105101  1
  Sc  Sc51  1  0.49227566  0.48891288  0.49593637  1
  Sc  Sc52  1  0.30603936  0.49912706  0.69719550  1
  Sc  Sc53  1  0.30227388  0.30307716  0.28610934  1
  Sc  Sc54  1  0.69562864  0.71732379  0.08887534  1
  Sc  Sc55  1  0.49503538  0.10286510  0.89619090  1
  Sc  Sc56  1  0.29486138  0.30428260  0.70089271  1
  Sc  Sc57  1  0.10098725  0.50979510  0.50315754  1
  Sc  Sc58  1  0.50032301  0.69510511  0.90105494  1
  Sc  Sc59  1  0.89706547  0.90061154  0.69906018  1
  Sc  Sc60  1  0.90105792  0.91191466  0.89352969  1
  Sc  Sc61  1  0.11230615  0.30100351  0.89893226  1
  Sc  Sc62  1  0.30333370  0.69640380  0.49851173  1
  Sc  Sc63  1  0.89244331  0.11690968  0.10842732  1
  Sc  Sc64  1  0.29531359  0.09145682  0.50590379  1
  Sc  Sc65  1  0.90317678  0.28716455  0.28362453  1
  Sc  Sc66  1  0.29288190  0.90630556  0.09961911  1
  Sc  Sc67  1  0.11101081  0.70021753  0.09764746  1
  Sc  Sc68  1  0.29899827  0.70329385  0.10165356  1
  Sc  Sc69  1  0.69626931  0.89541547  0.70626036  1
  Sc  Sc70  1  0.30414325  0.49770290  0.90271242  1
  Sc  Sc71  1  0.50202789  0.31297540  0.30334668  1
  Sc  Sc72  1  0.51517713  0.09331744  0.50004708  1
  Sc  Sc73  1  0.50258282  0.09499635  0.70486518  1
  Sc  Sc74  1  0.10685968  0.91003550  0.90159792  1
  Sc  Sc75  1  0.29516728  0.90055649  0.50605733  1
  Sc  Sc76  1  0.09774188  0.50344343  0.89872056  1
  Sc  Sc77  1  0.68953678  0.29886827  0.50559006  1
  Sc  Sc78  1  0.10487133  0.09259724  0.50020438  1
  Sc  Sc79  1  0.30219058  0.90229265  0.70021937  1
  Sc  Sc80  1  0.69331345  0.49157603  0.30766554  1
  Sc  Sc81  1  0.89562114  0.70273881  0.70277779  1
  Sc  Sc82  1  0.69696989  0.30249190  0.30320448  1
  Sc  Sc83  1  0.10440992  0.10444939  0.70729440  1
  Sc  Sc84  1  0.70007587  0.09488937  0.69754056  1
  Sc  Sc85  1  0.70241173  0.70372221  0.49970790  1
  Sc  Sc86  1  0.10151427  0.69884183  0.50530812  1
  Sc  Sc87  1  0.70387048  0.28979307  0.09720822  1
  Sc  Sc88  1  0.29701365  0.70268753  0.70064964  1
  Sc  Sc89  1  0.30344429  0.31102687  0.50499511  1
  Sc  Sc90  1  0.68978519  0.10523265  0.10432676  1
  Sc  Sc91  1  0.69395413  0.49573729  0.71318432  1
  Sc  Sc92  1  0.69937887  0.49450230  0.08957386  1
  Sc  Sc93  1  0.10454297  0.90018569  0.30784363  1
  Sc  Sc94  1  0.30208814  0.50156541  0.50403335  1
  Sc  Sc95  1  0.10440333  0.30387317  0.11093690  1
  Sc  Sc96  1  0.69678528  0.90718909  0.50759685  1
  Sc  Sc97  1  0.49506746  0.70720763  0.69989873  1
  Sc  Sc98  1  0.29939598  0.70191911  0.89902372  1
  Sc  Sc99  1  0.69252458  0.89670462  0.29312663  1
  Nb  Nb100  1  0.30018825  0.10155178  0.29402987  1
  Nb  Nb101  1  0.70050009  0.49157104  0.89885875  1
  Nb  Nb102  1  0.50534466  0.90639659  0.70251222  1
  Nb  Nb103  1  0.10274031  0.09833201  0.10161910  1
  Nb  Nb104  1  0.90300985  0.69827290  0.90347268  1
  Nb  Nb105  1  0.10159862  0.29874818  0.30103139  1
  Nb  Nb106  1  0.49883640  0.50020777  0.69559144  1
  Nb  Nb107  1  0.70135127  0.09883526  0.49729818  1
  Nb  Nb108  1  0.70268279  0.69585947  0.69647024  1
  Nb  Nb109  1  0.49295963  0.29562979  0.50139878  1
  Nb  Nb110  1  0.89911053  0.29795397  0.69997611  1
  Nb  Nb111  1  0.50048513  0.70090774  0.49889791  1
  Nb  Nb112  1  0.09778545  0.10905336  0.29471382  1
  Nb  Nb113  1  0.70960821  0.10636484  0.89653943  1
  Nb  Nb114  1  0.49698204  0.29517542  0.89554771  1
  Nb  Nb115  1  0.70832760  0.30123650  0.70418414  1
  Nb  Nb116  1  0.89967949  0.30434003  0.09478060  1
  Nb  Nb117  1  0.69882625  0.29768219  0.89605412  1
  Nb  Nb118  1  0.30781477  0.50348837  0.30547207  1
  Nb  Nb119  1  0.90121936  0.49678673  0.09687448  1
  Nb  Nb120  1  0.30115869  0.10303814  0.70405131  1
  Nb  Nb121  1  0.90580885  0.90076181  0.29831357  1
  Nb  Nb122  1  0.29645592  0.10481694  0.10807927  1
  Nb  Nb123  1  0.70055124  0.90354884  0.09414780  1
  Nb  Nb124  1  0.49613759  0.50242537  0.29838763  1
  Nb  Nb125  1  0.80605966  0.40321444  0.19294784  1
  Nb  Nb126  1  0.00039442  0.20265572  0.00369279  1
  Nb  Nb127  1  -0.00563153  0.20028647  0.60006534  1
  Nb  Nb128  1  0.59967242  0.39270684  -0.01319402  1
  Nb  Nb129  1  0.59888590  0.59684536  0.20005701  1
  Nb  Nb130  1  0.80129851  -0.00518118  0.19660710  1
  Nb  Nb131  1  0.79684855  0.59659522  0.19604943  1
  Nb  Nb132  1  -0.00089947  -0.00107831  0.20006282  1
  Nb  Nb133  1  0.60007098  0.59884663  0.60044762  1
  Nb  Nb134  1  0.00133420  0.20277344  0.40595348  1
  Nb  Nb135  1  0.00407417  0.39204518  0.39830252  1
  Nb  Nb136  1  0.79337631  0.59725324  0.60418076  1
  Nb  Nb137  1  -0.00076533  0.80027664  0.19762309  1
  Nb  Nb138  1  0.39666060  0.19866097  0.40282205  1
  Nb  Nb139  1  0.59025208  0.79711285  0.40398474  1
  Nb  Nb140  1  0.20339813  0.20133211  0.39273286  1
  Nb  Nb141  1  -0.00091515  0.79764491  -0.00414509  1
  Nb  Nb142  1  -0.00786886  0.60137625  0.19697840  1
  Nb  Nb143  1  0.80128352  0.19487891  0.40615513  1
  Nb  Nb144  1  -0.00093547  0.00297539  0.60169167  1
  Nb  Nb145  1  0.79498278  0.00494046  0.00393427  1
  Nb  Nb146  1  0.00256515  0.79655655  0.80652516  1
  Nb  Nb147  1  0.19947771  0.39864124  0.39344131  1
  Nb  Nb148  1  0.40382139  0.80866015  -0.00162304  1
  Nb  Nb149  1  0.40360997  0.19946459  0.59699721  1
  Pd  Pd150  1  0.20038945  0.00587775  0.39379480  1
  Pd  Pd151  1  0.60804502  0.40358189  0.19009178  1
  Pd  Pd152  1  0.20660122  0.40705554  0.80227344  1
  Pd  Pd153  1  0.60741592  0.59819834  0.00144126  1
  Pd  Pd154  1  0.39508463  0.80028860  0.60196931  1
  Pd  Pd155  1  0.20466415  0.19716153  0.59857001  1
  Pd  Pd156  1  0.59796433  0.19546583  0.60553241  1
  Pd  Pd157  1  0.59491541  0.79405869  0.80000371  1
  Pd  Pd158  1  0.40587797  0.39983098  -0.00626537  1
  Pd  Pd159  1  0.20447128  0.59742958  -0.00209672  1
  Pd  Pd160  1  0.40047492  0.40083898  0.19924317  1
  Pd  Pd161  1  0.59602261  0.19888828  -0.00634742  1
  Pd  Pd162  1  0.80059765  -0.00463079  0.60580995  1
  Pd  Pd163  1  0.39855727  -0.00906821  0.19376566  1
  Pd  Pd164  1  0.20934590  0.59434493  0.79874285  1
  Pd  Pd165  1  0.40233487  0.00717719  0.60345734  1
  Pd  Pd166  1  -0.00814065  0.60438465  0.60911933  1
  Pd  Pd167  1  0.78715781  -0.00397633  0.38954226  1
  Pd  Pd168  1  0.00624725  0.38924499  -0.00806961  1
  Pd  Pd169  1  0.59742455  0.20370398  0.39885584  1
  Pd  Pd170  1  0.60569666  0.01573979  -0.00773382  1
  Pd  Pd171  1  0.78627558  0.81132184  0.40159421  1
  Pd  Pd172  1  0.80222031  0.79961074  0.59650598  1
  Pd  Pd173  1  0.60120250  0.79548219  0.59988161  1
  Pd  Pd174  1  0.39629182  0.60137561  0.79687126  1
  Pd  Pd175  1  0.19362573  0.19775739  0.00177749  1
  Pd  Pd176  1  0.40604835  0.60223514  0.59820729  1
  Pd  Pd177  1  0.59712266  0.39500089  0.80183798  1
  Pd  Pd178  1  0.80899179  0.58933026  0.79375653  1
  Pd  Pd179  1  -0.00841461  0.60085610  0.79458266  1
  Pd  Pd180  1  0.59586632  0.60628351  0.79085191  1
  Pd  Pd181  1  0.79798818  0.79839861  0.20304738  1
  Pd  Pd182  1  -0.00728022  0.40516015  0.20684095  1
  Pd  Pd183  1  0.59289111  0.59749000  0.40518120  1
  Pd  Pd184  1  0.20052168  0.59868641  0.19718919  1
  Pd  Pd185  1  0.39623450  0.00623177  0.40849229  1
  Pd  Pd186  1  0.20278101  0.79468278  0.40716499  1
  Pd  Pd187  1  0.19422429  -0.00107379  0.20790488  1
  Pd  Pd188  1  0.40104498  0.80325005  0.80439762  1
  Pd  Pd189  1  0.78777475  0.60053699  0.00327932  1
  Pd  Pd190  1  0.40834876  0.20509746  0.20787796  1
  Pd  Pd191  1  -0.00066439  0.39665897  0.81341668  1
  Pd  Pd192  1  0.79811587  0.19617397  0.60057243  1
  Pd  Pd193  1  0.39621656  0.80978908  0.18857883  1
  Pd  Pd194  1  0.80651400  0.80462033  0.80348695  1
  Pd  Pd195  1  0.60367765  0.19461346  0.79590340  1
  Pd  Pd196  1  0.59882777  0.79142813  0.20584402  1
  Pd  Pd197  1  0.60261124  0.40582167  0.59775507  1
  Pd  Pd198  1  -0.01031434  0.00711798  0.01080873  1
  Pd  Pd199  1  0.59448109  0.20377718  0.20842946  1
  Rh  Rh200  1  0.19987139  0.40982272  0.59740173  1
  Rh  Rh201  1  0.19654279  0.80257071  0.80321715  1
  Rh  Rh202  1  0.39403398  0.00049731  0.00647279  1
  Rh  Rh203  1  0.20917442  0.01198818  0.00266609  1
  Rh  Rh204  1  0.19399133  0.00295407  0.60982054  1
  Rh  Rh205  1  0.79821725  0.60476293  0.40773322  1
  Rh  Rh206  1  0.40029444  0.19403147  0.00129293  1
  Rh  Rh207  1  0.40023031  0.39419112  0.60694134  1
  Rh  Rh208  1  0.01213841  0.00171279  0.40010802  1
  Rh  Rh209  1  0.78831236  0.20106730  0.20919108  1
  Rh  Rh210  1  -0.00338394  0.80575587  0.60821209  1
  Rh  Rh211  1  0.00762188  0.60596313  0.00679465  1
  Rh  Rh212  1  0.01006893  0.79799178  0.39525946  1
  Rh  Rh213  1  0.40055026  0.80252508  0.41020035  1
  Rh  Rh214  1  0.60283589  -0.01100907  0.40118619  1
  Rh  Rh215  1  0.20490430  0.00509512  0.79598387  1
  Rh  Rh216  1  0.60437480  0.00484520  0.80155327  1
  Rh  Rh217  1  0.81298373  0.38031840  0.38280459  1
  Rh  Rh218  1  0.00770416  0.19676918  0.19203262  1
  Rh  Rh219  1  0.40261383  0.40102275  0.79539094  1
  Rh  Rh220  1  0.19862403  0.80181098  0.20537150  1
  Rh  Rh221  1  0.20059759  0.39999648  -0.00193319  1
  Rh  Rh222  1  0.80396517  0.80873876  -0.01646639  1
  Rh  Rh223  1  0.20361489  0.19989655  0.80081550  1
  Rh  Rh224  1  0.39844215  0.00132103  0.79220922  1
  Rh  Rh225  1  0.60333305  0.00031059  0.60561290  1
  Rh  Rh226  1  0.59280597  0.79675859  -0.01158515  1
  Rh  Rh227  1  0.79047708  0.39305629  0.00258096  1
  Rh  Rh228  1  0.20872394  0.79470732  0.59715516  1
  Rh  Rh229  1  0.79440968  0.20050076  0.79209317  1
  Rh  Rh230  1  0.39090643  0.60908937  0.00007692  1
  Rh  Rh231  1  0.20510039  0.59411603  0.40346690  1
  Rh  Rh232  1  0.00448667  0.21098719  0.80418986  1
  Rh  Rh233  1  0.39950700  0.20213570  0.78789083  1
  Rh  Rh234  1  0.19991257  0.20077208  0.19969131  1
  Rh  Rh235  1  0.79079379  -0.00262487  0.80610415  1
  Rh  Rh236  1  0.40073599  0.59486359  0.40687013  1
  Rh  Rh237  1  0.39353328  0.39589083  0.39576374  1
  Rh  Rh238  1  0.20353496  0.80227484  -0.00552103  1
  Rh  Rh239  1  0.00703935  -0.01188033  0.78857009  1
  Rh  Rh240  1  0.20707715  0.40264011  0.20245142  1
  Rh  Rh241  1  0.20452013  0.60099992  0.60192759  1
  Rh  Rh242  1  0.00628429  0.59619145  0.39672471  1
  Rh  Rh243  1  0.80009867  0.40175394  0.80078225  1
  Rh  Rh244  1  0.59179243  0.39856864  0.40631613  1
  Rh  Rh245  1  0.80207909  0.19687157  -0.00063631  1
  Rh  Rh246  1  0.40163328  0.59401736  0.19692851  1
  Rh  Rh247  1  0.00663699  0.39463606  0.59429952  1
  Rh  Rh248  1  0.60340171  0.00071408  0.19950820  1
  Rh  Rh249  1  0.78561048  0.40682077  0.61139805  1
