# generated using pymatgen
data_ZrScNbPdRh
_symmetry_space_group_name_H-M   'P 1'
_cell_length_a   16.56093473
_cell_length_b   16.56132871
_cell_length_c   16.55993098
_cell_angle_alpha   89.99862339
_cell_angle_beta   90.02053500
_cell_angle_gamma   89.98405103
_symmetry_Int_Tables_number   1
_chemical_formula_structural   ZrScNbPdRh
_chemical_formula_sum   'Zr50 Sc50 Nb50 Pd50 Rh50'
_cell_volume   4541.90974903
_cell_formula_units_Z   50
loop_
 _symmetry_equiv_pos_site_id
 _symmetry_equiv_pos_as_xyz
  1  'x, y, z'
loop_
 _atom_site_type_symbol
 _atom_site_label
 _atom_site_symmetry_multiplicity
 _atom_site_fract_x
 _atom_site_fract_y
 _atom_site_fract_z
 _atom_site_occupancy
  Zr  Zr0  1  0.89334729  0.10372998  0.28999827  1
  Zr  Zr1  1  0.30073107  0.69917371  0.10566678  1
  Zr  Zr2  1  0.90012448  0.48613567  0.69347455  1
  Zr  Zr3  1  0.90313027  0.30837978  0.50945018  1
  Zr  Zr4  1  0.69637475  0.29243417  0.50404472  1
  Zr  Zr5  1  0.70428328  0.90413896  0.89887314  1
  Zr  Zr6  1  0.90887226  0.70443367  0.30139628  1
  Zr  Zr7  1  0.10121643  0.90364862  0.50530201  1
  Zr  Zr8  1  0.69814841  0.10299217  0.31035853  1
  Zr  Zr9  1  0.50017294  0.48345734  0.09987708  1
  Zr  Zr10  1  0.90295364  0.09710853  0.69681703  1
  Zr  Zr11  1  0.09652882  0.50401031  0.89741130  1
  Zr  Zr12  1  0.29816523  0.29875954  0.31111474  1
  Zr  Zr13  1  0.49273948  0.89701615  0.90020217  1
  Zr  Zr14  1  0.29438021  0.49937135  0.89468906  1
  Zr  Zr15  1  0.30842582  0.09665308  0.30395889  1
  Zr  Zr16  1  0.89874625  0.90679795  0.50491253  1
  Zr  Zr17  1  0.29684052  0.69012253  0.69786780  1
  Zr  Zr18  1  0.69746350  0.70092387  0.30529399  1
  Zr  Zr19  1  0.29043458  0.29438204  0.89951553  1
  Zr  Zr20  1  0.10606448  0.49196831  0.10364655  1
  Zr  Zr21  1  0.71720232  0.10073799  0.10584080  1
  Zr  Zr22  1  0.49980546  0.69563153  0.69448461  1
  Zr  Zr23  1  0.29765744  0.49972499  0.29350538  1
  Zr  Zr24  1  0.89943560  0.29377762  0.10342573  1
  Zr  Zr25  1  0.70191417  0.70263068  0.51321447  1
  Zr  Zr26  1  0.29695015  0.90292192  0.10017199  1
  Zr  Zr27  1  0.90811659  0.09622074  0.09747663  1
  Zr  Zr28  1  0.10492056  0.69562567  0.49672255  1
  Zr  Zr29  1  0.89684154  0.70138828  0.69409203  1
  Zr  Zr30  1  0.90584933  0.10052803  0.49151745  1
  Zr  Zr31  1  0.09838687  0.49970924  0.30544727  1
  Zr  Zr32  1  0.90362115  0.90556944  0.70268800  1
  Zr  Zr33  1  0.70102238  0.30032165  0.89592154  1
  Zr  Zr34  1  0.89937681  0.70027437  0.49666367  1
  Zr  Zr35  1  0.30254649  0.69317610  0.90044177  1
  Zr  Zr36  1  0.11250008  0.49350023  0.69577327  1
  Zr  Zr37  1  0.49596950  0.10351138  0.89878180  1
  Zr  Zr38  1  0.50069280  0.70005306  0.50266661  1
  Zr  Zr39  1  0.50430361  0.29458764  0.91323446  1
  Zr  Zr40  1  0.48786962  0.90168519  0.51453422  1
  Zr  Zr41  1  0.29919655  0.69994864  0.29780431  1
  Zr  Zr42  1  0.89668901  0.49692528  0.89450054  1
  Zr  Zr43  1  0.91173527  0.69329323  0.90917540  1
  Zr  Zr44  1  0.49553049  0.89707742  0.10068268  1
  Zr  Zr45  1  0.30114816  0.31054685  0.69965627  1
  Zr  Zr46  1  0.69903166  0.89851215  0.09978542  1
  Zr  Zr47  1  0.69627539  0.69808832  0.09640468  1
  Zr  Zr48  1  0.49660886  0.10174855  0.09533667  1
  Zr  Zr49  1  0.08743758  0.71177317  0.09339272  1
  Sc  Sc50  1  0.49959523  0.70213282  0.09822402  1
  Sc  Sc51  1  0.90248815  0.90733111  0.30128941  1
  Sc  Sc52  1  0.90802298  0.29548258  0.29474350  1
  Sc  Sc53  1  0.89862989  0.29978811  0.70303836  1
  Sc  Sc54  1  0.10449239  0.69844717  0.70255394  1
  Sc  Sc55  1  0.71072836  0.10324106  0.89898089  1
  Sc  Sc56  1  0.70421237  0.29734612  0.69199326  1
  Sc  Sc57  1  0.29695516  0.09765192  0.90342822  1
  Sc  Sc58  1  0.30544167  0.10353692  0.71192318  1
  Sc  Sc59  1  0.09838311  0.90835489  0.10034752  1
  Sc  Sc60  1  0.30208738  0.89889730  0.29268986  1
  Sc  Sc61  1  0.70281531  0.91144184  0.50090199  1
  Sc  Sc62  1  0.49305372  0.50472066  0.90011719  1
  Sc  Sc63  1  0.49711829  0.49465359  0.50319969  1
  Sc  Sc64  1  0.10408356  0.89320184  0.29363591  1
  Sc  Sc65  1  0.29883675  0.50397202  0.09450517  1
  Sc  Sc66  1  0.70925197  0.90819160  0.69142411  1
  Sc  Sc67  1  0.70167842  0.90596902  0.30490094  1
  Sc  Sc68  1  0.69620367  0.49715678  0.90816231  1
  Sc  Sc69  1  0.29456238  0.49591416  0.50225750  1
  Sc  Sc70  1  0.09680118  0.70122102  0.89358987  1
  Sc  Sc71  1  0.29583867  0.31523089  0.09743359  1
  Sc  Sc72  1  0.09847907  0.89976186  0.89560936  1
  Sc  Sc73  1  0.10188416  0.10046130  0.71382828  1
  Sc  Sc74  1  0.10585603  0.70289075  0.30263878  1
  Sc  Sc75  1  0.29530602  0.08762337  0.09394119  1
  Sc  Sc76  1  0.09641272  0.30604332  0.29706203  1
  Sc  Sc77  1  0.50237814  0.30193972  0.30589273  1
  Sc  Sc78  1  0.49193046  0.90220933  0.30221654  1
  Sc  Sc79  1  0.49888370  0.10599499  0.69678065  1
  Sc  Sc80  1  0.49781880  0.69616488  0.90146547  1
  Sc  Sc81  1  0.69316877  0.50125562  0.50222809  1
  Sc  Sc82  1  0.10172348  0.29741516  0.09777024  1
  Sc  Sc83  1  0.49106023  0.69866380  0.30150599  1
  Sc  Sc84  1  0.08987903  0.11210411  0.30596960  1
  Sc  Sc85  1  0.69934388  0.49868911  0.70000762  1
  Sc  Sc86  1  0.89701550  0.29493880  0.89362050  1
  Sc  Sc87  1  0.89290651  0.49900540  0.09225108  1
  Sc  Sc88  1  0.90235578  0.90811720  0.89836957  1
  Sc  Sc89  1  0.70021974  0.29745837  0.29633141  1
  Sc  Sc90  1  0.90350324  0.10465764  0.90190921  1
  Sc  Sc91  1  0.10118477  0.89962956  0.70706932  1
  Sc  Sc92  1  0.09985320  0.29052177  0.89555308  1
  Sc  Sc93  1  0.70122684  0.10564793  0.69010026  1
  Sc  Sc94  1  0.49583027  0.49522688  0.31110704  1
  Sc  Sc95  1  0.49799266  0.09930078  0.49800883  1
  Sc  Sc96  1  0.29929443  0.70723693  0.50350852  1
  Sc  Sc97  1  0.90743926  0.48758532  0.29474794  1
  Sc  Sc98  1  0.68815900  0.69178665  0.90428970  1
  Sc  Sc99  1  0.69602719  0.30748225  0.09851745  1
  Nb  Nb100  1  0.30233995  0.90019480  0.89675046  1
  Nb  Nb101  1  0.31251390  0.90256884  0.69970585  1
  Nb  Nb102  1  0.10156496  0.10171968  0.50183425  1
  Nb  Nb103  1  0.08930757  0.49416525  0.49803270  1
  Nb  Nb104  1  0.70428458  0.49694670  0.29898642  1
  Nb  Nb105  1  0.49988989  0.30479205  0.69192992  1
  Nb  Nb106  1  0.10330752  0.29748543  0.49402097  1
  Nb  Nb107  1  0.48143107  0.49095526  0.70217945  1
  Nb  Nb108  1  0.70258467  0.49895659  0.10561244  1
  Nb  Nb109  1  0.50017357  0.09723518  0.29460987  1
  Nb  Nb110  1  0.10302026  0.29659051  0.69639341  1
  Nb  Nb111  1  0.90467134  0.49805046  0.49578791  1
  Nb  Nb112  1  0.89976424  0.70066088  0.09742241  1
  Nb  Nb113  1  0.70097249  0.70111930  0.70055029  1
  Nb  Nb114  1  0.49839921  0.29639659  0.10048978  1
  Nb  Nb115  1  0.49104343  0.30298721  0.51179302  1
  Nb  Nb116  1  0.70375606  0.10428881  0.49964142  1
  Nb  Nb117  1  0.10410670  0.10360497  0.09087985  1
  Nb  Nb118  1  0.49272119  0.90372568  0.70345927  1
  Nb  Nb119  1  0.30362611  0.49956653  0.70434782  1
  Nb  Nb120  1  0.30194500  0.29035187  0.49541317  1
  Nb  Nb121  1  0.29914763  0.10250707  0.49635871  1
  Nb  Nb122  1  0.90144583  0.89813161  0.10086413  1
  Nb  Nb123  1  0.10705935  0.10905527  0.91184772  1
  Nb  Nb124  1  0.30212546  0.91001470  0.50804419  1
  Nb  Nb125  1  0.80473746  0.79726954  0.19460019  1
  Nb  Nb126  1  0.60585460  0.59060839  0.20265013  1
  Nb  Nb127  1  0.79684961  0.79168966  0.80265896  1
  Nb  Nb128  1  0.59670495  -0.00221632  0.79998518  1
  Nb  Nb129  1  0.20110374  0.20050333  0.59376049  1
  Nb  Nb130  1  0.80477352  0.79787821  0.00071206  1
  Nb  Nb131  1  0.20360940  0.00447471  0.40770573  1
  Nb  Nb132  1  0.60068790  0.00185076  -0.00016822  1
  Nb  Nb133  1  0.58917889  0.39580863  0.79434983  1
  Nb  Nb134  1  0.59644496  0.80061430  0.40987286  1
  Nb  Nb135  1  0.00219097  0.59550268  0.59286720  1
  Nb  Nb136  1  0.59827815  0.00550255  0.19830142  1
  Nb  Nb137  1  0.40002654  0.20130589  0.19733380  1
  Nb  Nb138  1  0.80017783  0.40343800  0.40188181  1
  Nb  Nb139  1  0.60143678  0.80441843  0.79133738  1
  Nb  Nb140  1  0.00045816  0.79667874  0.59786455  1
  Nb  Nb141  1  0.79977687  0.60390052  0.79880090  1
  Nb  Nb142  1  -0.00094083  0.39892740  -0.00403927  1
  Nb  Nb143  1  0.20548825  0.80369480  -0.00422391  1
  Nb  Nb144  1  -0.00407782  0.60209658  0.19661518  1
  Nb  Nb145  1  0.20670783  0.00584855  0.59954614  1
  Nb  Nb146  1  0.79958945  0.60082128  0.20181098  1
  Nb  Nb147  1  0.01085578  0.20083527  0.59865607  1
  Nb  Nb148  1  0.80255531  0.59402969  0.39691934  1
  Nb  Nb149  1  0.20651376  0.19762533  0.20061911  1
  Pd  Pd150  1  0.80002668  0.19636432  0.79263783  1
  Pd  Pd151  1  0.38533964  0.20201529  0.01060962  1
  Pd  Pd152  1  0.18957293  0.01197638  0.21188248  1
  Pd  Pd153  1  0.39268958  0.59636790  0.40741818  1
  Pd  Pd154  1  0.59888336  0.80287729  0.21330190  1
  Pd  Pd155  1  0.41333123  0.20062270  0.39734774  1
  Pd  Pd156  1  0.59148348  -0.00628161  0.39933944  1
  Pd  Pd157  1  0.39617401  0.40063148  -0.00706325  1
  Pd  Pd158  1  0.39761684  0.39255440  0.20533469  1
  Pd  Pd159  1  0.80359646  0.58906042  0.59888902  1
  Pd  Pd160  1  0.00666660  0.39141211  0.80218137  1
  Pd  Pd161  1  0.40245840  0.20989652  0.79843102  1
  Pd  Pd162  1  0.80370782  0.39364047  -0.00057469  1
  Pd  Pd163  1  0.80653318  0.21111656  0.40001964  1
  Pd  Pd164  1  0.00820548  0.00465514  0.20319411  1
  Pd  Pd165  1  0.61312508  0.19336086  0.00609633  1
  Pd  Pd166  1  0.59040397  0.20303562  0.40653700  1
  Pd  Pd167  1  0.60294154  0.81141582  0.60226342  1
  Pd  Pd168  1  0.59939203  0.59352133  0.79322517  1
  Pd  Pd169  1  0.18818406  0.60659440  0.19675422  1
  Pd  Pd170  1  0.59807680  0.00573654  0.60448138  1
  Pd  Pd171  1  0.60157335  0.60249509  0.39860043  1
  Pd  Pd172  1  0.60262174  0.20045397  0.79190612  1
  Pd  Pd173  1  0.20286917  0.39381849  0.59064316  1
  Pd  Pd174  1  0.39323031  0.79642225  0.00168889  1
  Pd  Pd175  1  0.20614852  0.80007674  0.80207981  1
  Pd  Pd176  1  0.79470690  0.80287954  0.39828894  1
  Pd  Pd177  1  0.00471336  0.00861549  0.81003611  1
  Pd  Pd178  1  0.40168572  0.79029191  0.79422968  1
  Pd  Pd179  1  0.20588454  0.59633669  0.40420694  1
  Pd  Pd180  1  0.19968410  0.80762066  0.60856749  1
  Pd  Pd181  1  0.20954295  0.81064017  0.40019172  1
  Pd  Pd182  1  0.20387112  0.00134082  0.80136134  1
  Pd  Pd183  1  0.19201803  0.60896585  0.00113045  1
  Pd  Pd184  1  -0.00378823  0.59765567  0.78450528  1
  Pd  Pd185  1  0.59770811  0.40023511  0.20608918  1
  Pd  Pd186  1  0.59401486  0.58844529  0.60811712  1
  Pd  Pd187  1  0.59028977  0.59026783  0.00970682  1
  Pd  Pd188  1  0.39498339  0.59504662  0.59285134  1
  Pd  Pd189  1  0.19941106  0.40253427  0.40198266  1
  Pd  Pd190  1  0.39842104  0.80527461  0.40229498  1
  Pd  Pd191  1  0.00552665  -0.00039539  -0.00540966  1
  Pd  Pd192  1  0.00850408  -0.00292965  0.39103244  1
  Pd  Pd193  1  0.40455187  0.39044826  0.81307772  1
  Pd  Pd194  1  0.41252582  0.59421816  0.19675653  1
  Pd  Pd195  1  0.60483751  0.39467471  0.40357370  1
  Pd  Pd196  1  0.60129910  0.40427715  0.60527071  1
  Pd  Pd197  1  0.39430261  0.19663475  0.60297582  1
  Pd  Pd198  1  0.59762800  0.19785544  0.19645109  1
  Pd  Pd199  1  0.00475000  0.80916644  0.40405008  1
  Rh  Rh200  1  0.01223878  0.00121431  0.60888931  1
  Rh  Rh201  1  -0.00105443  0.20573757  -0.00038413  1
  Rh  Rh202  1  0.39591407  0.01257900  0.60636965  1
  Rh  Rh203  1  0.19608160  0.19647584  0.39624854  1
  Rh  Rh204  1  0.39072532  0.40081429  0.59342641  1
  Rh  Rh205  1  0.19848993  0.79691122  0.19058215  1
  Rh  Rh206  1  0.19923323  0.59927431  0.79896554  1
  Rh  Rh207  1  0.18956050  0.39811232  -0.01073631  1
  Rh  Rh208  1  0.19691358  0.39696787  0.80275749  1
  Rh  Rh209  1  0.40299771  0.59666591  0.00626793  1
  Rh  Rh210  1  -0.00259908  0.80084364  0.20093532  1
  Rh  Rh211  1  0.40013173  -0.00159436  -0.00529823  1
  Rh  Rh212  1  0.80305166  -0.00374764  0.00212195  1
  Rh  Rh213  1  0.20494635  0.20265186  0.01019393  1
  Rh  Rh214  1  0.79122151  0.40195263  0.59137602  1
  Rh  Rh215  1  0.19568832  -0.00913049  -0.01113486  1
  Rh  Rh216  1  0.80011236  0.01000843  0.59516587  1
  Rh  Rh217  1  0.00629580  0.58541693  0.01143155  1
  Rh  Rh218  1  0.80188077  0.00616257  0.40007771  1
  Rh  Rh219  1  -0.00797367  0.79880940  0.79455245  1
  Rh  Rh220  1  0.40280477  0.00464297  0.80249351  1
  Rh  Rh221  1  0.79652629  0.20756152  0.20201117  1
  Rh  Rh222  1  0.80237653  0.39856085  0.20452123  1
  Rh  Rh223  1  0.78636466  0.40553179  0.80094752  1
  Rh  Rh224  1  0.60232039  0.80673412  -0.01370830  1
  Rh  Rh225  1  0.39869243  -0.00355021  0.40172250  1
  Rh  Rh226  1  0.79596373  0.60491353  -0.00397553  1
  Rh  Rh227  1  0.19570221  0.59404758  0.59575368  1
  Rh  Rh228  1  -0.00324112  0.59589823  0.39580877  1
  Rh  Rh229  1  0.59966366  0.40076091  -0.00397654  1
  Rh  Rh230  1  0.80484793  0.80937598  0.60397079  1
  Rh  Rh231  1  0.39717359  0.39887497  0.40742783  1
  Rh  Rh232  1  0.80150228  0.20470346  0.00094668  1
  Rh  Rh233  1  0.00225807  0.19825988  0.79609825  1
  Rh  Rh234  1  -0.00440945  0.39199488  0.39893298  1
  Rh  Rh235  1  0.39412921  0.79564424  0.60631060  1
  Rh  Rh236  1  0.20431488  0.39281305  0.20787044  1
  Rh  Rh237  1  0.79647583  -0.00829436  0.20516862  1
  Rh  Rh238  1  -0.00291929  0.40476246  0.18695141  1
  Rh  Rh239  1  0.39964319  0.79793343  0.20105033  1
  Rh  Rh240  1  0.00862960  0.39646190  0.60159595  1
  Rh  Rh241  1  0.81294416  0.19498926  0.59662182  1
  Rh  Rh242  1  0.20124792  0.19966276  0.79469064  1
  Rh  Rh243  1  0.79622374  0.00478906  0.79497489  1
  Rh  Rh244  1  0.40605446  0.00384094  0.19664868  1
  Rh  Rh245  1  -0.00056828  0.81236366  -0.00579871  1
  Rh  Rh246  1  0.40098017  0.60222608  0.79842333  1
  Rh  Rh247  1  0.01165415  0.19411571  0.19034632  1
  Rh  Rh248  1  0.59361999  0.19811383  0.59401349  1
  Rh  Rh249  1  -0.00313299  0.20819964  0.40555753  1
