# generated using pymatgen
data_ZrScNbPdRh
_symmetry_space_group_name_H-M   'P 1'
_cell_length_a   16.55255436
_cell_length_b   16.55364045
_cell_length_c   16.55378717
_cell_angle_alpha   90.02028010
_cell_angle_beta   89.97375850
_cell_angle_gamma   89.97042438
_symmetry_Int_Tables_number   1
_chemical_formula_structural   ZrScNbPdRh
_chemical_formula_sum   'Zr50 Sc50 Nb50 Pd50 Rh50'
_cell_volume   4535.81964078
_cell_formula_units_Z   50
loop_
 _symmetry_equiv_pos_site_id
 _symmetry_equiv_pos_as_xyz
  1  'x, y, z'
loop_
 _atom_site_type_symbol
 _atom_site_label
 _atom_site_symmetry_multiplicity
 _atom_site_fract_x
 _atom_site_fract_y
 _atom_site_fract_z
 _atom_site_occupancy
  Zr  Zr0  1  0.10622068  0.69677959  0.89458972  1
  Zr  Zr1  1  0.08429022  0.09333708  0.30927147  1
  Zr  Zr2  1  0.09647851  0.10201887  0.10056046  1
  Zr  Zr3  1  0.09453998  0.29897992  0.89941510  1
  Zr  Zr4  1  0.09543469  0.89368681  0.69603629  1
  Zr  Zr5  1  0.09427447  0.69992683  0.69755519  1
  Zr  Zr6  1  0.90555980  0.09921303  0.49619226  1
  Zr  Zr7  1  0.09384016  0.89606821  0.89182296  1
  Zr  Zr8  1  0.29073508  0.30318157  0.50272968  1
  Zr  Zr9  1  0.50504481  0.49635943  0.11142038  1
  Zr  Zr10  1  0.09266011  0.29775650  0.09985132  1
  Zr  Zr11  1  0.51286718  0.29780051  0.89999571  1
  Zr  Zr12  1  0.69585862  0.30295042  0.70992466  1
  Zr  Zr13  1  0.90182090  0.49595437  0.10084405  1
  Zr  Zr14  1  0.09847994  0.50479981  0.89956182  1
  Zr  Zr15  1  0.50622252  0.10606681  0.69991760  1
  Zr  Zr16  1  0.29266929  0.89943325  0.30425170  1
  Zr  Zr17  1  0.70259903  0.89394255  0.68719689  1
  Zr  Zr18  1  0.09560320  0.50013290  0.70344861  1
  Zr  Zr19  1  0.29366443  0.50462673  0.89976783  1
  Zr  Zr20  1  0.09743321  0.70480187  0.30080920  1
  Zr  Zr21  1  0.49313167  0.09833401  0.09896941  1
  Zr  Zr22  1  0.69688347  0.50585352  0.50268810  1
  Zr  Zr23  1  0.88808691  0.69869076  0.89733708  1
  Zr  Zr24  1  0.50049203  0.69576752  0.10391357  1
  Zr  Zr25  1  0.70256498  0.50189203  0.69894669  1
  Zr  Zr26  1  0.70133536  0.09628147  0.49805698  1
  Zr  Zr27  1  0.29984991  0.10122516  0.90128943  1
  Zr  Zr28  1  0.69986567  0.49110379  0.10131430  1
  Zr  Zr29  1  0.49920889  0.90030129  0.69260493  1
  Zr  Zr30  1  0.89867601  0.50414070  0.70182294  1
  Zr  Zr31  1  0.70549142  0.90816874  0.09486118  1
  Zr  Zr32  1  0.30035439  0.91768830  0.10336879  1
  Zr  Zr33  1  0.90127967  0.89427621  0.09396856  1
  Zr  Zr34  1  0.49588653  0.70507849  0.90008165  1
  Zr  Zr35  1  0.29778320  0.69726247  0.90004149  1
  Zr  Zr36  1  0.50609128  0.49073581  0.68933537  1
  Zr  Zr37  1  0.49976735  0.29682584  0.29557752  1
  Zr  Zr38  1  0.50100043  0.30621296  0.50997850  1
  Zr  Zr39  1  0.10072279  0.89933589  0.11375784  1
  Zr  Zr40  1  0.50656307  0.10314461  0.50342429  1
  Zr  Zr41  1  0.50702763  0.49163673  0.90786643  1
  Zr  Zr42  1  0.50920098  0.10669953  0.30526360  1
  Zr  Zr43  1  0.10122780  0.29577815  0.30333372  1
  Zr  Zr44  1  0.09427111  0.50241507  0.10518497  1
  Zr  Zr45  1  0.70418802  0.70079798  0.49854526  1
  Zr  Zr46  1  0.70233318  0.29316898  0.29405991  1
  Zr  Zr47  1  0.90371729  0.89418483  0.69603433  1
  Zr  Zr48  1  0.30340464  0.69924208  0.50095382  1
  Zr  Zr49  1  0.69633785  0.70708894  0.30859664  1
  Sc  Sc50  1  0.70460419  0.11084755  0.69572568  1
  Sc  Sc51  1  0.70862773  0.49579344  0.30529993  1
  Sc  Sc52  1  0.90246629  0.29735135  0.49966272  1
  Sc  Sc53  1  0.50179968  0.30579383  0.09920299  1
  Sc  Sc54  1  0.89840427  0.10146574  0.89921378  1
  Sc  Sc55  1  0.30574620  0.50331027  0.09978739  1
  Sc  Sc56  1  0.50073024  0.90590297  0.09487497  1
  Sc  Sc57  1  0.30264771  0.69617281  0.09396872  1
  Sc  Sc58  1  0.50435945  0.09594330  0.90285191  1
  Sc  Sc59  1  0.30166981  0.89956076  0.69202022  1
  Sc  Sc60  1  0.69828946  0.90238814  0.89676140  1
  Sc  Sc61  1  0.90379708  0.70117200  0.50236917  1
  Sc  Sc62  1  0.90583554  0.30398228  0.09644635  1
  Sc  Sc63  1  0.89629246  0.09860077  0.10370319  1
  Sc  Sc64  1  0.49755614  0.51006481  0.50515737  1
  Sc  Sc65  1  0.89233834  0.50079507  0.50083426  1
  Sc  Sc66  1  0.89921641  0.89790576  0.50489248  1
  Sc  Sc67  1  0.28078909  0.30031991  0.69959423  1
  Sc  Sc68  1  0.50177247  0.90452372  0.88910690  1
  Sc  Sc69  1  0.70525890  0.70099341  0.69786850  1
  Sc  Sc70  1  0.30627876  0.90513008  0.89680776  1
  Sc  Sc71  1  0.89157691  0.29668978  0.30262587  1
  Sc  Sc72  1  0.29797460  0.49895087  0.69166931  1
  Sc  Sc73  1  0.10079231  0.29380074  0.50328379  1
  Sc  Sc74  1  0.49864861  0.69686168  0.49736512  1
  Sc  Sc75  1  0.51424496  0.89313964  0.30700888  1
  Sc  Sc76  1  0.10138042  0.09836170  0.89199782  1
  Sc  Sc77  1  0.29796089  0.89399622  0.50197857  1
  Sc  Sc78  1  0.10111468  0.90305656  0.49284021  1
  Sc  Sc79  1  0.09852409  0.09964551  0.69296171  1
  Sc  Sc80  1  0.70991035  0.30473209  0.49807843  1
  Sc  Sc81  1  0.28795800  0.10071447  0.70174545  1
  Sc  Sc82  1  0.30128761  0.50154833  0.30111309  1
  Sc  Sc83  1  0.50161000  0.69092079  0.30599149  1
  Sc  Sc84  1  0.91092778  0.89794051  0.30328470  1
  Sc  Sc85  1  0.29051230  0.10022888  0.50405433  1
  Sc  Sc86  1  0.70780496  0.49376794  0.90229345  1
  Sc  Sc87  1  0.30089635  0.50001186  0.50546458  1
  Sc  Sc88  1  0.09818492  0.70060708  0.10601084  1
  Sc  Sc89  1  0.69459195  0.69387622  0.10095411  1
  Sc  Sc90  1  0.89527251  0.89538461  0.90036496  1
  Sc  Sc91  1  0.29924369  0.29126636  0.30109279  1
  Sc  Sc92  1  0.30903724  0.10227761  0.29182888  1
  Sc  Sc93  1  0.90860430  0.70108795  0.31221472  1
  Sc  Sc94  1  0.69526436  0.09752997  0.90066647  1
  Sc  Sc95  1  0.90046512  0.09805343  0.68405872  1
  Sc  Sc96  1  0.50076989  0.70603253  0.69344407  1
  Sc  Sc97  1  0.29820384  0.70296093  0.69233889  1
  Sc  Sc98  1  0.30165132  0.70202123  0.30803654  1
  Sc  Sc99  1  0.09773650  0.49634496  0.51075027  1
  Nb  Nb100  1  0.30263473  0.10216962  0.09667409  1
  Nb  Nb101  1  0.91101237  0.50124546  0.29585796  1
  Nb  Nb102  1  0.10096511  0.89510033  0.30143815  1
  Nb  Nb103  1  0.70850653  0.10259118  0.29423306  1
  Nb  Nb104  1  0.89736259  0.70225641  0.10059240  1
  Nb  Nb105  1  0.50649890  0.90880383  0.50108590  1
  Nb  Nb106  1  0.70424022  0.29826251  0.10118350  1
  Nb  Nb107  1  0.89747869  0.70129093  0.69522517  1
  Nb  Nb108  1  0.89578307  0.49701167  0.90501533  1
  Nb  Nb109  1  0.29896907  0.29496456  0.10013062  1
  Nb  Nb110  1  0.49972764  0.49581987  0.30380323  1
  Nb  Nb111  1  0.10105397  0.70250965  0.50168527  1
  Nb  Nb112  1  0.29778504  0.30081918  0.89988248  1
  Nb  Nb113  1  0.70810520  0.29732585  0.89725629  1
  Nb  Nb114  1  0.69616827  0.89727308  0.48875988  1
  Nb  Nb115  1  0.89468035  0.30171229  0.90090867  1
  Nb  Nb116  1  0.70597979  0.09742383  0.10076725  1
  Nb  Nb117  1  0.09455609  0.50418412  0.29424303  1
  Nb  Nb118  1  0.69422810  0.69780612  0.89458618  1
  Nb  Nb119  1  0.50267181  0.30252756  0.70127390  1
  Nb  Nb120  1  0.09217700  0.30008323  0.70055727  1
  Nb  Nb121  1  0.70195441  0.89724233  0.30390674  1
  Nb  Nb122  1  0.08789478  0.10334914  0.50187267  1
  Nb  Nb123  1  0.89358247  0.29819926  0.70775971  1
  Nb  Nb124  1  0.89087676  0.10208154  0.30636550  1
  Nb  Nb125  1  0.20482998  0.20135299  0.00215210  1
  Nb  Nb126  1  0.39968949  0.39567248  0.79932047  1
  Nb  Nb127  1  0.40842697  -0.00082577  0.40595142  1
  Nb  Nb128  1  0.79989216  0.79747696  0.20211510  1
  Nb  Nb129  1  0.40145327  0.80372359  0.20043937  1
  Nb  Nb130  1  0.59908038  0.79691793  -0.00359787  1
  Nb  Nb131  1  0.40624968  0.59287743  0.79892412  1
  Nb  Nb132  1  0.19674810  0.39760579  0.19726771  1
  Nb  Nb133  1  0.19064663  0.59975484  0.40139540  1
  Nb  Nb134  1  0.79554665  -0.00097268  0.39453584  1
  Nb  Nb135  1  0.39953141  0.20505756  0.60823137  1
  Nb  Nb136  1  0.00258921  -0.00407138  0.00093820  1
  Nb  Nb137  1  0.19988971  0.80649952  0.00076252  1
  Nb  Nb138  1  0.20054632  0.39461461  0.00432046  1
  Nb  Nb139  1  -0.00673342  0.20739614  0.79508702  1
  Nb  Nb140  1  0.80121078  -0.00103104  0.79110701  1
  Nb  Nb141  1  0.40453911  0.39840058  0.40029319  1
  Nb  Nb142  1  0.61226664  0.00547531  0.20319293  1
  Nb  Nb143  1  -0.00920010  0.60202844  -0.00063686  1
  Nb  Nb144  1  0.59795727  0.60029287  0.80175683  1
  Nb  Nb145  1  0.79656645  0.20329735  0.00000439  1
  Nb  Nb146  1  0.80748334  0.60397352  0.20231446  1
  Nb  Nb147  1  0.00195745  0.40532597  0.39328790  1
  Nb  Nb148  1  0.59437054  0.40113666  0.39759041  1
  Nb  Nb149  1  0.39906514  0.20904783  0.79794224  1
  Pd  Pd150  1  0.20942681  0.80497259  0.80021610  1
  Pd  Pd151  1  0.60965969  0.21057349  0.40700932  1
  Pd  Pd152  1  0.39764516  0.01032301  0.79265741  1
  Pd  Pd153  1  0.60189923  0.60138803  -0.00401309  1
  Pd  Pd154  1  0.61120240  0.59204422  0.21255516  1
  Pd  Pd155  1  0.21179553  0.79360881  0.19435338  1
  Pd  Pd156  1  0.00569187  0.59298608  0.41243840  1
  Pd  Pd157  1  -0.01167443  0.20088393  0.20697217  1
  Pd  Pd158  1  0.20735852  0.59948252  0.20459203  1
  Pd  Pd159  1  -0.00850623  -0.00002478  0.19921645  1
  Pd  Pd160  1  0.39555441  0.00914665  0.59614909  1
  Pd  Pd161  1  0.19947674  0.18759291  0.39994230  1
  Pd  Pd162  1  0.39560276  0.79540104  0.79125011  1
  Pd  Pd163  1  0.80083812  0.20582117  0.59648055  1
  Pd  Pd164  1  -0.00922894  0.00897283  0.79855598  1
  Pd  Pd165  1  0.20430221  0.00789661  0.39791975  1
  Pd  Pd166  1  0.59917832  0.19564178  0.18803850  1
  Pd  Pd167  1  0.80502365  0.59934741  0.39504310  1
  Pd  Pd168  1  0.39435338  0.19904093  0.41235511  1
  Pd  Pd169  1  0.79656071  0.80518849  0.79809151  1
  Pd  Pd170  1  0.39552071  0.40001665  -0.00183114  1
  Pd  Pd171  1  0.39580029  0.60664507  0.20764824  1
  Pd  Pd172  1  0.61072358  0.00173256  0.78928349  1
  Pd  Pd173  1  -0.00918870  0.60492967  0.80443331  1
  Pd  Pd174  1  0.40501631  0.59292033  -0.00178251  1
  Pd  Pd175  1  0.59860329  0.79474843  0.59137714  1
  Pd  Pd176  1  0.19177703  0.00009724  -0.00307714  1
  Pd  Pd177  1  0.60818314  0.00235714  0.60579547  1
  Pd  Pd178  1  0.00864998  0.79553970  -0.00220967  1
  Pd  Pd179  1  0.80566981  0.40142153  0.20414219  1
  Pd  Pd180  1  0.20155218  -0.00676747  0.79423058  1
  Pd  Pd181  1  0.40677152  0.80792612  0.39818306  1
  Pd  Pd182  1  0.19698803  0.59968596  0.59737777  1
  Pd  Pd183  1  0.39957891  0.20284293  -0.00427421  1
  Pd  Pd184  1  0.19290174  -0.00337805  0.59641907  1
  Pd  Pd185  1  0.79824583  0.59982515  0.00581605  1
  Pd  Pd186  1  0.41515547  -0.00722113  0.21531360  1
  Pd  Pd187  1  -0.00843277  0.39921731  0.80347702  1
  Pd  Pd188  1  -0.00563598  0.39517656  0.59461837  1
  Pd  Pd189  1  0.38908775  0.39517681  0.20600001  1
  Pd  Pd190  1  0.60064987  0.80904590  0.19019394  1
  Pd  Pd191  1  0.19683586  0.01321677  0.21146668  1
  Pd  Pd192  1  0.80136075  0.39736952  0.60206885  1
  Pd  Pd193  1  0.80596149  -0.00899917  0.20792915  1
  Pd  Pd194  1  0.20126962  0.40224295  0.80086843  1
  Pd  Pd195  1  0.39835359  0.81054985  0.00630041  1
  Pd  Pd196  1  0.19823538  0.41010852  0.39447133  1
  Pd  Pd197  1  0.78621917  0.79398680  0.00181898  1
  Pd  Pd198  1  0.20034713  0.19564021  0.19863359  1
  Pd  Pd199  1  0.60815093  0.19955987  0.00590813  1
  Rh  Rh200  1  0.80107289  0.79822490  0.59171756  1
  Rh  Rh201  1  -0.00060151  0.20545101  0.60648188  1
  Rh  Rh202  1  0.38886309  0.39123019  0.60098313  1
  Rh  Rh203  1  0.80277695  0.40504247  0.80126993  1
  Rh  Rh204  1  0.60089733  0.79552381  0.80327098  1
  Rh  Rh205  1  0.59467692  0.79459641  0.40826518  1
  Rh  Rh206  1  0.80676375  0.80714990  0.39836555  1
  Rh  Rh207  1  0.00491743  0.80477345  0.40576969  1
  Rh  Rh208  1  -0.00841534  0.61096252  0.19398101  1
  Rh  Rh209  1  0.80385127  0.19206459  0.80517004  1
  Rh  Rh210  1  0.60025621  0.59352074  0.39886093  1
  Rh  Rh211  1  -0.00833647  0.79018513  0.79994707  1
  Rh  Rh212  1  0.19499458  0.79271663  0.40451315  1
  Rh  Rh213  1  0.59830170  -0.00476203  0.00487199  1
  Rh  Rh214  1  0.00544822  -0.00492974  0.59492356  1
  Rh  Rh215  1  0.19521571  0.80232375  0.59637825  1
  Rh  Rh216  1  -0.00608967  -0.00584008  0.40299217  1
  Rh  Rh217  1  0.40254463  -0.00019551  -0.00721931  1
  Rh  Rh218  1  0.60572070  0.39934175  0.20646295  1
  Rh  Rh219  1  0.19274564  0.20166499  0.80315298  1
  Rh  Rh220  1  0.40502620  0.80324713  0.59357150  1
  Rh  Rh221  1  0.79580489  0.59744409  0.79852268  1
  Rh  Rh222  1  0.79528508  -0.00456381  0.59541893  1
  Rh  Rh223  1  -0.00170629  0.18909779  -0.01086293  1
  Rh  Rh224  1  0.60442066  0.00216478  0.39222819  1
  Rh  Rh225  1  0.40405867  0.20245631  0.19307268  1
  Rh  Rh226  1  0.80590921  0.20265131  0.18925833  1
  Rh  Rh227  1  0.80327936  0.60496924  0.60008817  1
  Rh  Rh228  1  0.60157949  0.60721524  0.60698366  1
  Rh  Rh229  1  0.40202734  0.60415026  0.60708453  1
  Rh  Rh230  1  0.59994928  0.19745491  0.80295231  1
  Rh  Rh231  1  0.19412713  0.19941063  0.60033527  1
  Rh  Rh232  1  0.60307313  0.20839938  0.59893709  1
  Rh  Rh233  1  0.79859494  0.19480597  0.40626493  1
  Rh  Rh234  1  0.60194838  0.40570812  0.80273279  1
  Rh  Rh235  1  0.20915763  0.59949933  0.78555580  1
  Rh  Rh236  1  0.39144553  0.59007636  0.40240444  1
  Rh  Rh237  1  0.00312311  0.38847156  0.21095455  1
  Rh  Rh238  1  0.18953785  0.60265673  0.00949600  1
  Rh  Rh239  1  0.80612461  0.00918327  -0.01181229  1
  Rh  Rh240  1  -0.00318882  0.20827171  0.39870278  1
  Rh  Rh241  1  0.00183386  0.40982448  -0.00713156  1
  Rh  Rh242  1  -0.00697224  0.79613408  0.20487898  1
  Rh  Rh243  1  -0.00368580  0.60123547  0.59949201  1
  Rh  Rh244  1  0.00300531  0.79788942  0.59480690  1
  Rh  Rh245  1  0.61218126  0.39665098  0.59244302  1
  Rh  Rh246  1  0.79764153  0.39096863  0.00052260  1
  Rh  Rh247  1  0.19127392  0.40025606  0.60491532  1
  Rh  Rh248  1  0.61034500  0.39196955  0.00258254  1
  Rh  Rh249  1  0.80551672  0.40329638  0.39725045  1
