# generated using pymatgen
data_ZrScNbPdRh
_symmetry_space_group_name_H-M   'P 1'
_cell_length_a   16.56115126
_cell_length_b   16.56012450
_cell_length_c   16.56131891
_cell_angle_alpha   89.96320394
_cell_angle_beta   90.03406990
_cell_angle_gamma   89.99639246
_symmetry_Int_Tables_number   1
_chemical_formula_structural   ZrScNbPdRh
_chemical_formula_sum   'Zr50 Sc50 Nb50 Pd50 Rh50'
_cell_volume   4542.01824317
_cell_formula_units_Z   50
loop_
 _symmetry_equiv_pos_site_id
 _symmetry_equiv_pos_as_xyz
  1  'x, y, z'
loop_
 _atom_site_type_symbol
 _atom_site_label
 _atom_site_symmetry_multiplicity
 _atom_site_fract_x
 _atom_site_fract_y
 _atom_site_fract_z
 _atom_site_occupancy
  Zr  Zr0  1  0.70022804  0.50779119  0.90135552  1
  Zr  Zr1  1  0.70617766  0.30217756  0.31168161  1
  Zr  Zr2  1  0.30233057  0.30073029  0.30247329  1
  Zr  Zr3  1  0.09870729  0.29842835  0.10295010  1
  Zr  Zr4  1  0.70130249  0.69847475  0.09919946  1
  Zr  Zr5  1  0.09721826  0.89597354  0.90822750  1
  Zr  Zr6  1  0.10702626  0.68564605  0.69963823  1
  Zr  Zr7  1  0.30348644  0.50125875  0.29924250  1
  Zr  Zr8  1  0.70557193  0.10159697  0.70838307  1
  Zr  Zr9  1  0.08949800  0.89965729  0.10305462  1
  Zr  Zr10  1  0.90257044  0.69949202  0.89635720  1
  Zr  Zr11  1  0.29875648  0.29578913  0.09405511  1
  Zr  Zr12  1  0.90814253  0.29939755  0.29636222  1
  Zr  Zr13  1  0.29839006  0.09877959  0.91004634  1
  Zr  Zr14  1  0.30295680  0.10105099  0.30255613  1
  Zr  Zr15  1  0.68707558  0.29646652  0.10715626  1
  Zr  Zr16  1  0.90063121  0.69405960  0.30419180  1
  Zr  Zr17  1  0.29943125  0.89745025  0.10168678  1
  Zr  Zr18  1  0.69919779  0.89329490  0.89678256  1
  Zr  Zr19  1  0.28654189  0.51355302  0.69574104  1
  Zr  Zr20  1  0.89950627  0.31115319  0.71015448  1
  Zr  Zr21  1  0.89091781  0.10172212  0.89597457  1
  Zr  Zr22  1  0.50451019  0.89443999  0.89610885  1
  Zr  Zr23  1  0.09603145  0.91837879  0.70111501  1
  Zr  Zr24  1  0.29714406  0.69785480  0.89045783  1
  Zr  Zr25  1  0.90144433  0.08556469  0.69828839  1
  Zr  Zr26  1  0.89352109  0.30841407  0.48518552  1
  Zr  Zr27  1  0.29787012  0.29624212  0.90423582  1
  Zr  Zr28  1  0.50197720  0.09794719  0.30958586  1
  Zr  Zr29  1  0.09810360  0.89677871  0.30176010  1
  Zr  Zr30  1  0.49808635  0.88829800  0.69707578  1
  Zr  Zr31  1  0.10147527  0.30255360  0.90496815  1
  Zr  Zr32  1  0.89268166  0.90295084  0.28909557  1
  Zr  Zr33  1  0.90470230  0.49389131  0.30595734  1
  Zr  Zr34  1  0.71081859  0.30256638  0.88883458  1
  Zr  Zr35  1  0.50056902  0.09683502  0.90279560  1
  Zr  Zr36  1  0.71400522  0.89156379  0.10432665  1
  Zr  Zr37  1  0.89440768  0.69714223  0.50044246  1
  Zr  Zr38  1  0.49966657  0.70880534  0.49764799  1
  Zr  Zr39  1  0.89531987  0.09697448  0.49811670  1
  Zr  Zr40  1  0.30754699  0.70510444  0.69667747  1
  Zr  Zr41  1  0.90546304  0.69563045  0.69999505  1
  Zr  Zr42  1  0.51119526  0.30124151  0.28977512  1
  Zr  Zr43  1  0.70204261  0.89086346  0.49285852  1
  Zr  Zr44  1  0.30331213  0.10018407  0.09672150  1
  Zr  Zr45  1  0.30282235  0.51163094  0.10549232  1
  Zr  Zr46  1  0.90226478  0.50861616  0.49894978  1
  Zr  Zr47  1  0.50020647  0.69724731  0.09963425  1
  Zr  Zr48  1  0.89598154  0.50093490  0.89405242  1
  Zr  Zr49  1  0.09810373  0.08549577  0.89588075  1
  Sc  Sc50  1  0.09326416  0.50598478  0.09981549  1
  Sc  Sc51  1  0.09091971  0.70104199  0.10252513  1
  Sc  Sc52  1  0.09911412  0.49513095  0.50284283  1
  Sc  Sc53  1  0.30449483  0.30396605  0.68824099  1
  Sc  Sc54  1  0.29645562  0.70051544  0.50766106  1
  Sc  Sc55  1  0.70160342  0.09746889  0.09713278  1
  Sc  Sc56  1  0.50044584  0.30112833  0.51329112  1
  Sc  Sc57  1  0.69879329  0.50905977  0.09525417  1
  Sc  Sc58  1  0.29712081  0.90152572  0.90808522  1
  Sc  Sc59  1  0.30075909  0.49395273  0.50003676  1
  Sc  Sc60  1  0.49577560  0.89892997  0.49373785  1
  Sc  Sc61  1  0.69220678  0.50245012  0.70597013  1
  Sc  Sc62  1  0.69830622  0.09686494  0.89924091  1
  Sc  Sc63  1  0.90221447  0.08802314  0.10577480  1
  Sc  Sc64  1  0.50644230  0.50411609  0.10229964  1
  Sc  Sc65  1  0.10278907  0.10000268  0.29255917  1
  Sc  Sc66  1  0.90298892  0.30004010  0.10071914  1
  Sc  Sc67  1  0.29383806  0.90045175  0.50518958  1
  Sc  Sc68  1  0.89628819  0.70119105  0.09902225  1
  Sc  Sc69  1  0.30219540  0.50118489  0.89252704  1
  Sc  Sc70  1  0.30871073  0.10342051  0.49835393  1
  Sc  Sc71  1  0.70443998  0.70900169  0.70632399  1
  Sc  Sc72  1  0.29531561  0.30039378  0.49760881  1
  Sc  Sc73  1  0.50256000  0.50193719  0.49766845  1
  Sc  Sc74  1  0.49755432  0.49941416  0.70049199  1
  Sc  Sc75  1  0.89489251  0.30900360  0.90119557  1
  Sc  Sc76  1  0.09177719  0.50245319  0.90107608  1
  Sc  Sc77  1  0.09413820  0.70182428  0.29628448  1
  Sc  Sc78  1  0.90094251  0.50758434  0.09794164  1
  Sc  Sc79  1  0.69633555  0.50388290  0.49718527  1
  Sc  Sc80  1  0.70570585  0.09265879  0.30520921  1
  Sc  Sc81  1  0.09815433  0.70284237  0.49487228  1
  Sc  Sc82  1  0.49846535  0.10524912  0.69155559  1
  Sc  Sc83  1  0.50394911  0.30144144  0.89972243  1
  Sc  Sc84  1  0.69383981  0.51003940  0.30729833  1
  Sc  Sc85  1  0.09264150  0.50384553  0.29422034  1
  Sc  Sc86  1  0.49696760  0.50531745  0.30397849  1
  Sc  Sc87  1  0.30553729  0.70234964  0.10699881  1
  Sc  Sc88  1  0.30006559  0.09394811  0.68684408  1
  Sc  Sc89  1  0.90230100  0.89542470  0.90295026  1
  Sc  Sc90  1  0.29620552  0.89412689  0.30152015  1
  Sc  Sc91  1  0.50180286  0.88506871  0.09598136  1
  Sc  Sc92  1  0.09812679  0.30166491  0.29967623  1
  Sc  Sc93  1  0.50750573  0.30282402  0.69760717  1
  Sc  Sc94  1  0.50659001  0.70326719  0.89412131  1
  Sc  Sc95  1  0.51184822  0.10825275  0.09581446  1
  Sc  Sc96  1  0.50672113  0.50499129  0.89624441  1
  Sc  Sc97  1  0.70682969  0.09358332  0.49847129  1
  Sc  Sc98  1  0.89181079  0.90222752  0.50394670  1
  Sc  Sc99  1  0.09990322  0.09537892  0.10183775  1
  Nb  Nb100  1  0.30292458  0.89682043  0.70139347  1
  Nb  Nb101  1  0.69982593  0.70715416  0.30900285  1
  Nb  Nb102  1  0.09574952  0.90173694  0.49883135  1
  Nb  Nb103  1  0.49444025  0.70911141  0.30104629  1
  Nb  Nb104  1  0.90062833  0.10219381  0.30248718  1
  Nb  Nb105  1  0.89304428  0.89674800  0.70161093  1
  Nb  Nb106  1  0.90132968  0.89559959  0.10082785  1
  Nb  Nb107  1  0.70046108  0.30367391  0.50616391  1
  Nb  Nb108  1  0.70498899  0.90452089  0.70087349  1
  Nb  Nb109  1  0.50188323  0.89504441  0.30032406  1
  Nb  Nb110  1  0.49931470  0.70395369  0.69726497  1
  Nb  Nb111  1  0.30228434  0.69116913  0.29384245  1
  Nb  Nb112  1  0.70178332  0.69700842  0.49144401  1
  Nb  Nb113  1  0.69933966  0.89467950  0.29851671  1
  Nb  Nb114  1  0.10122711  0.29641547  0.50356311  1
  Nb  Nb115  1  0.70116205  0.30258417  0.69324673  1
  Nb  Nb116  1  0.09275769  0.49496598  0.69642531  1
  Nb  Nb117  1  0.09473358  0.10221573  0.69853919  1
  Nb  Nb118  1  0.50118958  0.30009947  0.10165645  1
  Nb  Nb119  1  0.09989029  0.30270172  0.69616080  1
  Nb  Nb120  1  0.09790801  0.70144145  0.89869655  1
  Nb  Nb121  1  0.70278504  0.69803497  0.90172393  1
  Nb  Nb122  1  0.09520248  0.09514912  0.51016951  1
  Nb  Nb123  1  0.49970103  0.09667625  0.50387847  1
  Nb  Nb124  1  0.91131677  0.50327968  0.69607817  1
  Nb  Nb125  1  0.00043388  0.80568361  0.60392923  1
  Nb  Nb126  1  0.40902381  -0.00061137  0.20145829  1
  Nb  Nb127  1  0.39316367  0.19561070  0.80062793  1
  Nb  Nb128  1  0.19706048  0.80274439  0.79598340  1
  Nb  Nb129  1  0.00496285  0.20066845  0.79686886  1
  Nb  Nb130  1  0.00413223  0.19428991  0.40772580  1
  Nb  Nb131  1  0.60255310  -0.00412771  0.59986615  1
  Nb  Nb132  1  0.19837134  0.60661442  -0.00295337  1
  Nb  Nb133  1  -0.00052920  0.20376826  0.60044989  1
  Nb  Nb134  1  0.40525983  0.19876872  0.19904315  1
  Nb  Nb135  1  0.59860743  0.61341620  0.59981524  1
  Nb  Nb136  1  0.39953609  -0.00074616  0.79789584  1
  Nb  Nb137  1  0.40215428  0.39946173  0.00471384  1
  Nb  Nb138  1  0.59915219  -0.01081463  0.20651297  1
  Nb  Nb139  1  0.20509412  0.60070115  0.39188305  1
  Nb  Nb140  1  0.00149761  0.00187928  0.40148042  1
  Nb  Nb141  1  0.20386469  0.40212865  0.19629188  1
  Nb  Nb142  1  0.19329564  0.39772195  0.79180493  1
  Nb  Nb143  1  0.60242799  0.19992980  0.40885365  1
  Nb  Nb144  1  0.80256863  0.20922201  0.60176231  1
  Nb  Nb145  1  0.79903395  0.40296119  0.60246072  1
  Nb  Nb146  1  -0.00132933  0.19560755  -0.00662456  1
  Nb  Nb147  1  0.19690213  0.19977364  0.79210946  1
  Nb  Nb148  1  0.79721882  0.39875578  0.20375379  1
  Nb  Nb149  1  0.80105145  0.20196209  0.20627439  1
  Pd  Pd150  1  0.40904265  0.60077557  0.79737796  1
  Pd  Pd151  1  0.60270355  -0.01064854  0.01135022  1
  Pd  Pd152  1  0.19923408  0.79188661  0.00096938  1
  Pd  Pd153  1  0.41176280  0.21107627  0.40209785  1
  Pd  Pd154  1  0.40956213  0.39254146  0.40482420  1
  Pd  Pd155  1  0.20387082  0.00123876  0.59513059  1
  Pd  Pd156  1  0.60072271  0.79749359  0.20049830  1
  Pd  Pd157  1  0.60300885  -0.00008366  0.40392653  1
  Pd  Pd158  1  0.80118132  -0.00443208  -0.00254956  1
  Pd  Pd159  1  0.39734321  0.79422757  -0.00684762  1
  Pd  Pd160  1  0.18964172  0.80498399  0.60745678  1
  Pd  Pd161  1  0.21162475  -0.00022383  0.79753015  1
  Pd  Pd162  1  0.78811967  0.59450838  0.60714619  1
  Pd  Pd163  1  0.59192027  0.00003684  0.78889023  1
  Pd  Pd164  1  0.59774150  0.40146971  -0.00308186  1
  Pd  Pd165  1  0.19580188  0.00619716  0.40596937  1
  Pd  Pd166  1  0.40001256  0.40516912  0.60068379  1
  Pd  Pd167  1  0.19196492  0.40785700  0.39239486  1
  Pd  Pd168  1  0.59457958  0.39478487  0.40670422  1
  Pd  Pd169  1  0.20591860  0.41795771  0.00129403  1
  Pd  Pd170  1  0.80417450  0.20118591  0.01065179  1
  Pd  Pd171  1  0.39359455  0.39378931  0.80194090  1
  Pd  Pd172  1  0.60844038  0.41473128  0.20108799  1
  Pd  Pd173  1  0.38723840  0.80057586  0.40106923  1
  Pd  Pd174  1  0.19792079  0.79272489  0.20059225  1
  Pd  Pd175  1  0.20512011  -0.00287174  0.19934435  1
  Pd  Pd176  1  0.20413328  0.20446797  0.20137954  1
  Pd  Pd177  1  0.20368058  0.79035206  0.39742355  1
  Pd  Pd178  1  0.59393071  0.20240120  0.80084008  1
  Pd  Pd179  1  0.79949533  0.59846108  0.79193682  1
  Pd  Pd180  1  0.20073985  0.19798688  0.60004600  1
  Pd  Pd181  1  0.39856096  0.39785171  0.19331645  1
  Pd  Pd182  1  0.40718423  0.59764268  0.59630304  1
  Pd  Pd183  1  0.39933550  0.59708356  -0.00621168  1
  Pd  Pd184  1  -0.00967365  0.80814020  0.40653576  1
  Pd  Pd185  1  -0.00660469  0.39515604  0.59171728  1
  Pd  Pd186  1  0.59698154  0.60403509  0.20991270  1
  Pd  Pd187  1  0.41165254  -0.00600114  0.00576010  1
  Pd  Pd188  1  0.39374356  -0.00915212  0.39925388  1
  Pd  Pd189  1  -0.00678771  0.39938860  0.00328081  1
  Pd  Pd190  1  0.19178365  0.19265253  0.40379898  1
  Pd  Pd191  1  0.60916961  0.18930388  0.59472712  1
  Pd  Pd192  1  0.39546627  0.60403134  0.40631314  1
  Pd  Pd193  1  0.00723198  0.80508201  0.79143365  1
  Pd  Pd194  1  0.60676777  0.20558063  -0.01102235  1
  Pd  Pd195  1  0.79730023  0.40242306  0.01228170  1
  Pd  Pd196  1  0.60074359  0.39877426  0.80081977  1
  Pd  Pd197  1  0.80178672  0.79678558  0.60166604  1
  Pd  Pd198  1  0.79985163  0.59555369  0.20639679  1
  Pd  Pd199  1  0.60742679  0.80074558  0.59930458  1
  Rh  Rh200  1  0.59831007  0.60593115  -0.00464727  1
  Rh  Rh201  1  0.00154399  0.60585628  -0.00385552  1
  Rh  Rh202  1  0.01092386  0.59817036  0.40373729  1
  Rh  Rh203  1  0.80529437  0.20283102  0.79368800  1
  Rh  Rh204  1  0.00619799  0.40247518  0.80307265  1
  Rh  Rh205  1  0.00638498  0.60762566  0.59365716  1
  Rh  Rh206  1  0.59741826  0.61067169  0.79201842  1
  Rh  Rh207  1  0.80475099  -0.00958291  0.39480427  1
  Rh  Rh208  1  0.39701541  0.80385628  0.59262038  1
  Rh  Rh209  1  0.41280231  0.60422890  0.20400307  1
  Rh  Rh210  1  0.80216888  0.60372855  -0.00386804  1
  Rh  Rh211  1  -0.00582347  0.19227976  0.19654294  1
  Rh  Rh212  1  0.00143923  -0.00158545  0.20781807  1
  Rh  Rh213  1  -0.00668527  0.60301747  0.19991436  1
  Rh  Rh214  1  -0.00522356  0.79561829  0.00392421  1
  Rh  Rh215  1  0.19472428  -0.00392675  0.01119313  1
  Rh  Rh216  1  0.01073083  0.39597738  0.40354352  1
  Rh  Rh217  1  0.00224834  0.59431931  0.80190027  1
  Rh  Rh218  1  0.41279278  0.20766804  -0.00015263  1
  Rh  Rh219  1  0.80243767  0.79601125  -0.00410617  1
  Rh  Rh220  1  0.79848628  0.59838253  0.39584258  1
  Rh  Rh221  1  -0.00656368  0.00119867  0.00008748  1
  Rh  Rh222  1  -0.00549096  -0.00598879  0.59373048  1
  Rh  Rh223  1  0.79008722  0.00068040  0.60284773  1
  Rh  Rh224  1  0.79802240  0.19702273  0.40111936  1
  Rh  Rh225  1  0.80246745  -0.01031850  0.80765699  1
  Rh  Rh226  1  0.18962015  0.59411558  0.80823567  1
  Rh  Rh227  1  0.20139944  0.40213035  0.60264634  1
  Rh  Rh228  1  0.39871477  0.20206499  0.60227501  1
  Rh  Rh229  1  0.60525079  0.41409650  0.59977945  1
  Rh  Rh230  1  0.19449583  0.59884754  0.19895524  1
  Rh  Rh231  1  -0.00773637  0.79799085  0.19876293  1
  Rh  Rh232  1  0.59367105  0.61168242  0.40256901  1
  Rh  Rh233  1  0.60740293  0.79491275  -0.00066127  1
  Rh  Rh234  1  0.80065205  0.80150869  0.80268864  1
  Rh  Rh235  1  0.00067791  0.40424789  0.19268617  1
  Rh  Rh236  1  0.40772994  -0.00630120  0.60252974  1
  Rh  Rh237  1  0.39238038  0.80636361  0.80660601  1
  Rh  Rh238  1  0.59921522  0.79767191  0.39677755  1
  Rh  Rh239  1  0.79593890  0.41265267  0.79143693  1
  Rh  Rh240  1  0.18324475  0.18688044  -0.00529043  1
  Rh  Rh241  1  0.19392301  0.59451077  0.58438447  1
  Rh  Rh242  1  0.60449088  0.18568686  0.21118047  1
  Rh  Rh243  1  0.80307549  0.78953483  0.20484120  1
  Rh  Rh244  1  0.79300625  0.00586073  0.19995247  1
  Rh  Rh245  1  0.80525410  0.80036685  0.39510347  1
  Rh  Rh246  1  -0.01008902  -0.00363246  0.80626657  1
  Rh  Rh247  1  0.39952419  0.80333074  0.20526066  1
  Rh  Rh248  1  0.79330216  0.41449261  0.40072309  1
  Rh  Rh249  1  0.60627637  0.79624815  0.79754440  1
