# generated using pymatgen
data_ZrScNbPdRh
_symmetry_space_group_name_H-M   'P 1'
_cell_length_a   16.55372267
_cell_length_b   16.55462304
_cell_length_c   16.55096772
_cell_angle_alpha   90.01091524
_cell_angle_beta   90.01119845
_cell_angle_gamma   89.98529993
_symmetry_Int_Tables_number   1
_chemical_formula_structural   ZrScNbPdRh
_chemical_formula_sum   'Zr50 Sc50 Nb50 Pd50 Rh50'
_cell_volume   4535.63744809
_cell_formula_units_Z   50
loop_
 _symmetry_equiv_pos_site_id
 _symmetry_equiv_pos_as_xyz
  1  'x, y, z'
loop_
 _atom_site_type_symbol
 _atom_site_label
 _atom_site_symmetry_multiplicity
 _atom_site_fract_x
 _atom_site_fract_y
 _atom_site_fract_z
 _atom_site_occupancy
  Zr  Zr0  1  0.08912902  0.70047760  0.30522048  1
  Zr  Zr1  1  0.30106443  0.90283232  0.09809920  1
  Zr  Zr2  1  0.50428062  0.89788682  0.70572799  1
  Zr  Zr3  1  0.50191007  0.30481345  0.89015185  1
  Zr  Zr4  1  0.70248926  0.90148136  0.10129867  1
  Zr  Zr5  1  0.70936858  0.70230865  0.49447914  1
  Zr  Zr6  1  0.70423319  0.71035105  0.69823328  1
  Zr  Zr7  1  0.48815465  0.90597240  0.09671915  1
  Zr  Zr8  1  0.89931676  0.69397036  0.29511219  1
  Zr  Zr9  1  0.89802711  0.89743084  0.89374788  1
  Zr  Zr10  1  0.29821790  0.29552031  0.31190540  1
  Zr  Zr11  1  0.29910837  0.90349034  0.29641375  1
  Zr  Zr12  1  0.29343581  0.70491331  0.90010516  1
  Zr  Zr13  1  0.09908896  0.50228649  0.90349961  1
  Zr  Zr14  1  0.69943285  0.31319361  0.50007809  1
  Zr  Zr15  1  0.89432607  0.69408829  0.10180164  1
  Zr  Zr16  1  0.09835807  0.69399814  0.89215216  1
  Zr  Zr17  1  0.50576050  0.50675250  0.90150580  1
  Zr  Zr18  1  0.10054173  0.30507884  0.09929130  1
  Zr  Zr19  1  0.10090977  0.10951254  0.09968638  1
  Zr  Zr20  1  0.49847323  0.10319711  0.30888938  1
  Zr  Zr21  1  0.70846084  0.89961197  0.50344762  1
  Zr  Zr22  1  0.09903029  0.89691566  0.69234358  1
  Zr  Zr23  1  0.49069950  0.70790241  0.89660646  1
  Zr  Zr24  1  0.49487311  0.69701801  0.70588745  1
  Zr  Zr25  1  0.30317005  0.48718770  0.30787575  1
  Zr  Zr26  1  0.30080483  0.69896763  0.30265504  1
  Zr  Zr27  1  0.09771172  0.09268425  0.29801668  1
  Zr  Zr28  1  0.09353050  0.50343724  0.50665941  1
  Zr  Zr29  1  0.70558544  0.90111800  0.69688603  1
  Zr  Zr30  1  0.30881606  0.89505083  0.90805577  1
  Zr  Zr31  1  0.29805500  0.29403111  0.10466727  1
  Zr  Zr32  1  0.50160720  0.90916144  0.50370828  1
  Zr  Zr33  1  0.50035308  0.50028205  0.70871206  1
  Zr  Zr34  1  0.11149839  0.09382946  0.70231855  1
  Zr  Zr35  1  0.90089575  0.29814531  0.50744778  1
  Zr  Zr36  1  0.29640856  0.69275467  0.50573155  1
  Zr  Zr37  1  0.69751924  0.09571787  0.50545211  1
  Zr  Zr38  1  0.49823284  0.89904049  0.30147425  1
  Zr  Zr39  1  0.89768074  0.49904765  0.89223154  1
  Zr  Zr40  1  0.90935669  0.69884371  0.49471331  1
  Zr  Zr41  1  0.29838591  0.10094324  0.70089290  1
  Zr  Zr42  1  0.09303261  0.69015670  0.09367791  1
  Zr  Zr43  1  0.70435608  0.10269353  0.10555600  1
  Zr  Zr44  1  0.69935664  0.29709160  0.89871418  1
  Zr  Zr45  1  0.49621324  0.30215761  0.09999799  1
  Zr  Zr46  1  0.70338917  0.09983598  0.29934796  1
  Zr  Zr47  1  0.89855439  0.09497365  0.29243806  1
  Zr  Zr48  1  0.89037582  0.49857042  0.49980089  1
  Zr  Zr49  1  0.50360304  0.70039333  0.49686486  1
  Sc  Sc50  1  0.10293165  0.91146442  0.10567036  1
  Sc  Sc51  1  0.69405325  0.30704329  0.09922171  1
  Sc  Sc52  1  0.90399954  0.90425239  0.30396903  1
  Sc  Sc53  1  0.28988852  0.90588994  0.70199122  1
  Sc  Sc54  1  0.50987749  0.49877003  0.09972801  1
  Sc  Sc55  1  0.49719425  0.30388800  0.29354121  1
  Sc  Sc56  1  0.49004308  0.11035291  0.09793496  1
  Sc  Sc57  1  0.29006567  0.10146354  0.89977172  1
  Sc  Sc58  1  0.50464015  0.49714563  0.49289486  1
  Sc  Sc59  1  0.28778622  0.48946351  0.09537450  1
  Sc  Sc60  1  0.09398606  0.49205605  0.29418719  1
  Sc  Sc61  1  0.70014670  0.69922727  0.29892207  1
  Sc  Sc62  1  0.69930100  0.49368877  0.90601032  1
  Sc  Sc63  1  0.90256168  0.30368446  0.10409327  1
  Sc  Sc64  1  0.89663803  0.30778093  0.89932249  1
  Sc  Sc65  1  0.89874668  0.29735938  0.70004054  1
  Sc  Sc66  1  0.70308762  0.90000848  0.30778864  1
  Sc  Sc67  1  0.89992582  0.09128158  0.50689742  1
  Sc  Sc68  1  0.10682571  0.28797580  0.69477447  1
  Sc  Sc69  1  0.70671235  0.90646591  0.88727218  1
  Sc  Sc70  1  0.89548723  0.49976190  0.29263886  1
  Sc  Sc71  1  0.30251835  0.50891582  0.70440806  1
  Sc  Sc72  1  0.70182219  0.69328885  0.90794220  1
  Sc  Sc73  1  0.49544467  0.09648819  0.50609813  1
  Sc  Sc74  1  0.88889702  0.09779551  0.89483329  1
  Sc  Sc75  1  0.90405877  0.70245179  0.90308882  1
  Sc  Sc76  1  0.50939455  0.69752040  0.10531348  1
  Sc  Sc77  1  0.69757523  0.30560980  0.29505174  1
  Sc  Sc78  1  0.29850951  0.10481113  0.30480968  1
  Sc  Sc79  1  0.28687108  0.50083130  0.89401271  1
  Sc  Sc80  1  0.90886315  0.49797853  0.69306895  1
  Sc  Sc81  1  0.30662596  0.09940963  0.49803239  1
  Sc  Sc82  1  0.50264419  0.10903774  0.89979302  1
  Sc  Sc83  1  0.89712541  0.49759069  0.10020726  1
  Sc  Sc84  1  0.09685693  0.50795775  0.70649804  1
  Sc  Sc85  1  0.70257420  0.69557716  0.10300777  1
  Sc  Sc86  1  0.10894606  0.29351347  0.29715682  1
  Sc  Sc87  1  0.70160500  0.49881668  0.30425585  1
  Sc  Sc88  1  0.90671633  0.70949415  0.70085607  1
  Sc  Sc89  1  0.69030910  0.29709908  0.69745867  1
  Sc  Sc90  1  0.50440301  0.49827026  0.29749719  1
  Sc  Sc91  1  0.50376735  0.10653438  0.69350893  1
  Sc  Sc92  1  0.70293759  0.09920188  0.70640897  1
  Sc  Sc93  1  0.09161647  0.89955181  0.30042576  1
  Sc  Sc94  1  0.10308079  0.30166712  0.90340883  1
  Sc  Sc95  1  0.09595647  0.09676147  0.51025770  1
  Sc  Sc96  1  0.50848189  0.69782401  0.29939536  1
  Sc  Sc97  1  0.10969918  0.89400144  0.89429875  1
  Sc  Sc98  1  0.89740978  0.89850333  0.10085000  1
  Sc  Sc99  1  0.10925005  0.29206953  0.49545612  1
  Nb  Nb100  1  0.90074789  0.09849061  0.10055146  1
  Nb  Nb101  1  0.10449918  0.69958985  0.69268850  1
  Nb  Nb102  1  0.29575777  0.69885258  0.09771066  1
  Nb  Nb103  1  0.90783830  0.90246575  0.50580825  1
  Nb  Nb104  1  0.30674588  0.30130990  0.70660127  1
  Nb  Nb105  1  0.89766301  0.30415975  0.30417980  1
  Nb  Nb106  1  0.89552444  0.90410995  0.69687203  1
  Nb  Nb107  1  0.49442047  0.90146144  0.90360825  1
  Nb  Nb108  1  0.30175011  0.30483528  0.49298738  1
  Nb  Nb109  1  0.09978100  0.89359751  0.49849700  1
  Nb  Nb110  1  0.70002954  0.50960852  0.08966176  1
  Nb  Nb111  1  0.70270365  0.50798501  0.69403544  1
  Nb  Nb112  1  0.30030487  0.90021020  0.50142578  1
  Nb  Nb113  1  0.30203428  0.30731098  0.88971086  1
  Nb  Nb114  1  0.50611660  0.29386020  0.50882779  1
  Nb  Nb115  1  0.90956016  0.09887222  0.69601568  1
  Nb  Nb116  1  0.09818760  0.70397068  0.50331989  1
  Nb  Nb117  1  0.29973699  0.49338662  0.49703957  1
  Nb  Nb118  1  0.70431615  0.50168926  0.50312839  1
  Nb  Nb119  1  0.29275798  0.09295866  0.09951201  1
  Nb  Nb120  1  0.09986089  0.49620886  0.09866288  1
  Nb  Nb121  1  0.09639370  0.10149655  0.89735139  1
  Nb  Nb122  1  0.69878459  0.10273128  0.90101635  1
  Nb  Nb123  1  0.30370970  0.69855188  0.70387567  1
  Nb  Nb124  1  0.49381937  0.30104984  0.69843740  1
  Nb  Nb125  1  0.19994296  0.79194015  0.19757165  1
  Nb  Nb126  1  0.80018901  0.59756702  0.79492309  1
  Nb  Nb127  1  0.19768318  -0.00946128  0.40702962  1
  Nb  Nb128  1  0.00170982  0.19097530  0.80062665  1
  Nb  Nb129  1  0.80156512  0.20264191  0.40078237  1
  Nb  Nb130  1  0.59668288  0.00242727  0.19597831  1
  Nb  Nb131  1  -0.00079509  0.00835608  -0.00626679  1
  Nb  Nb132  1  0.39689230  0.80258739  0.40708519  1
  Nb  Nb133  1  0.21241982  0.39871879  0.59767228  1
  Nb  Nb134  1  0.39894037  0.39417620  0.60051849  1
  Nb  Nb135  1  -0.00754367  0.19944163  0.39765309  1
  Nb  Nb136  1  -0.00473049  0.39174217  0.40050086  1
  Nb  Nb137  1  -0.00027640  0.00165924  0.79834211  1
  Nb  Nb138  1  0.60064898  0.00082985  -0.00086997  1
  Nb  Nb139  1  0.59691256  0.81059321  -0.00240361  1
  Nb  Nb140  1  0.19643858  0.59795017  0.40227321  1
  Nb  Nb141  1  0.40253449  -0.00162723  0.80432482  1
  Nb  Nb142  1  0.60259143  0.20491024  0.40618766  1
  Nb  Nb143  1  0.19971995  0.60033140  0.20210223  1
  Nb  Nb144  1  0.39347652  0.59869088  0.00470008  1
  Nb  Nb145  1  0.79888875  0.19671450  0.00223803  1
  Nb  Nb146  1  0.39054032  0.59615965  0.19473830  1
  Nb  Nb147  1  0.60807191  0.59855571  0.59931228  1
  Nb  Nb148  1  0.39717822  0.39932127  -0.00657132  1
  Nb  Nb149  1  0.39543226  0.79968837  0.59965983  1
  Pd  Pd150  1  0.40075660  0.01289121  0.20269343  1
  Pd  Pd151  1  0.80433803  0.20050009  0.80046523  1
  Pd  Pd152  1  0.38862083  0.20429831  -0.00914602  1
  Pd  Pd153  1  0.19318896  -0.00045694  -0.00532706  1
  Pd  Pd154  1  0.60802334  0.79817813  0.81163765  1
  Pd  Pd155  1  0.40961658  0.59362962  0.59672730  1
  Pd  Pd156  1  0.79937689  0.39753185  0.61138199  1
  Pd  Pd157  1  0.21147757  0.20234671  0.59353556  1
  Pd  Pd158  1  0.39431511  0.19669308  0.20334028  1
  Pd  Pd159  1  0.80108887  0.21007378  0.19863249  1
  Pd  Pd160  1  0.60407409  0.19866980  0.00319283  1
  Pd  Pd161  1  0.80080390  0.00370692  -0.00145906  1
  Pd  Pd162  1  0.80573785  0.60911439  0.60544480  1
  Pd  Pd163  1  -0.00146949  0.20613591  0.20519105  1
  Pd  Pd164  1  0.19951258  0.40076097  0.20424573  1
  Pd  Pd165  1  0.19210060  0.39856847  0.78877915  1
  Pd  Pd166  1  0.01330179  0.38958988  0.60010008  1
  Pd  Pd167  1  0.79425342  0.40552530  0.79052676  1
  Pd  Pd168  1  0.59301829  0.40911488  0.60354499  1
  Pd  Pd169  1  0.20460198  0.20565111  -0.00534169  1
  Pd  Pd170  1  0.80983080  0.80313468  0.39617835  1
  Pd  Pd171  1  0.60823685  0.59689070  0.40183584  1
  Pd  Pd172  1  0.41561086  0.39219335  0.40508429  1
  Pd  Pd173  1  0.00947116  0.38742712  0.79314443  1
  Pd  Pd174  1  0.20687555  0.79902277  0.60453081  1
  Pd  Pd175  1  0.39898161  0.79002839  0.20010520  1
  Pd  Pd176  1  0.60841365  0.40084125  0.79595380  1
  Pd  Pd177  1  0.40035446  0.19055368  0.80222646  1
  Pd  Pd178  1  0.00301886  0.80369677  0.19288464  1
  Pd  Pd179  1  0.18862903  0.80157396  0.00825144  1
  Pd  Pd180  1  0.59544492  0.79679920  0.59764878  1
  Pd  Pd181  1  0.61137089  0.60606100  0.79874575  1
  Pd  Pd182  1  0.00013499  0.58679858  0.39612394  1
  Pd  Pd183  1  0.79405697  0.40467290  0.19466743  1
  Pd  Pd184  1  0.60289483  0.80597932  0.19629771  1
  Pd  Pd185  1  -0.01283944  0.19699677  -0.00934991  1
  Pd  Pd186  1  0.40040474  0.60081414  0.39407690  1
  Pd  Pd187  1  0.79590383  0.19768394  0.59930313  1
  Pd  Pd188  1  0.60455377  0.40698032  0.19849917  1
  Pd  Pd189  1  0.00629710  0.81233224  0.00402332  1
  Pd  Pd190  1  -0.00422147  0.40341981  -0.00024837  1
  Pd  Pd191  1  0.39387250  0.20399186  0.59568750  1
  Pd  Pd192  1  -0.00877748  0.59195521  -0.00072991  1
  Pd  Pd193  1  0.19992358  0.79911780  0.39499255  1
  Pd  Pd194  1  0.59381914  0.00688048  0.80389744  1
  Pd  Pd195  1  0.60258633  0.00303100  0.39789381  1
  Pd  Pd196  1  0.00319467  0.80384771  0.79589346  1
  Pd  Pd197  1  0.19912914  0.59248088  0.60155393  1
  Pd  Pd198  1  0.79971295  0.80205699  0.20707720  1
  Pd  Pd199  1  0.79277357  0.79940499  -0.00458849  1
  Rh  Rh200  1  0.18991685  0.18185798  0.40434670  1
  Rh  Rh201  1  -0.00518341  0.80578022  0.40353054  1
  Rh  Rh202  1  0.40281911  0.01626046  -0.00917719  1
  Rh  Rh203  1  0.38972399  0.81103047  0.78836787  1
  Rh  Rh204  1  0.80521182  0.00508974  0.79210576  1
  Rh  Rh205  1  0.59604937  0.80483891  0.40159567  1
  Rh  Rh206  1  0.00179679  0.59184174  0.19501137  1
  Rh  Rh207  1  0.80246376  0.40037702  0.39939261  1
  Rh  Rh208  1  0.39775006  -0.00629001  0.61333462  1
  Rh  Rh209  1  0.80487816  0.59688737  -0.00622674  1
  Rh  Rh210  1  0.19883377  0.60673629  0.79378322  1
  Rh  Rh211  1  0.00520644  0.00248521  0.40807609  1
  Rh  Rh212  1  0.79728829  0.39470396  0.00417341  1
  Rh  Rh213  1  0.79240859  0.59457505  0.19897258  1
  Rh  Rh214  1  0.20192282  -0.00082192  0.58969775  1
  Rh  Rh215  1  0.80058344  0.00216448  0.60388568  1
  Rh  Rh216  1  0.79928503  -0.00844939  0.20213742  1
  Rh  Rh217  1  0.00318174  -0.00657156  0.60305994  1
  Rh  Rh218  1  0.39175682  -0.00564204  0.40002511  1
  Rh  Rh219  1  0.40845444  0.78738940  0.01261200  1
  Rh  Rh220  1  0.20073755  0.00009763  0.20669943  1
  Rh  Rh221  1  0.20254178  0.79519385  0.79359993  1
  Rh  Rh222  1  0.20392396  0.39248387  -0.00418055  1
  Rh  Rh223  1  0.00131911  0.39603663  0.20353364  1
  Rh  Rh224  1  0.59378448  0.61030736  0.00012359  1
  Rh  Rh225  1  -0.00524741  -0.00224633  0.18803731  1
  Rh  Rh226  1  0.59862115  0.39443825  0.39939099  1
  Rh  Rh227  1  -0.00251470  0.79946807  0.59836254  1
  Rh  Rh228  1  0.80058805  0.79235336  0.80359651  1
  Rh  Rh229  1  0.59606673  0.19426179  0.20897676  1
  Rh  Rh230  1  0.39849396  0.40791531  0.80063721  1
  Rh  Rh231  1  0.41169948  0.20678654  0.40627182  1
  Rh  Rh232  1  0.39990648  0.40683761  0.18953513  1
  Rh  Rh233  1  0.20215272  -0.00426957  0.80820182  1
  Rh  Rh234  1  0.60325657  0.00181775  0.60746411  1
  Rh  Rh235  1  -0.00596907  0.60455073  0.79521595  1
  Rh  Rh236  1  0.59795360  0.20057105  0.79465153  1
  Rh  Rh237  1  0.20105423  0.59668200  0.00396430  1
  Rh  Rh238  1  0.80031863  0.59814128  0.39537386  1
  Rh  Rh239  1  0.60169653  0.59453278  0.20152953  1
  Rh  Rh240  1  0.60414446  0.19771882  0.59901868  1
  Rh  Rh241  1  0.80663619  0.00230939  0.40480773  1
  Rh  Rh242  1  0.00144808  0.19998134  0.60247294  1
  Rh  Rh243  1  0.39118184  0.59570930  0.81450210  1
  Rh  Rh244  1  0.81300876  0.79974998  0.59429429  1
  Rh  Rh245  1  0.18459660  0.40855787  0.40796006  1
  Rh  Rh246  1  0.59546084  0.39728244  0.00058068  1
  Rh  Rh247  1  0.20450862  0.19456432  0.20123111  1
  Rh  Rh248  1  -0.00242576  0.60882422  0.60539411  1
  Rh  Rh249  1  0.19711185  0.20753756  0.80484306  1
