# generated using pymatgen
data_ZrScNbPdRh
_symmetry_space_group_name_H-M   'P 1'
_cell_length_a   16.55719988
_cell_length_b   16.56212457
_cell_length_c   16.56629357
_cell_angle_alpha   89.97867702
_cell_angle_beta   89.99209390
_cell_angle_gamma   89.99074611
_symmetry_Int_Tables_number   1
_chemical_formula_structural   ZrScNbPdRh
_chemical_formula_sum   'Zr50 Sc50 Nb50 Pd50 Rh50'
_cell_volume   4542.84848040
_cell_formula_units_Z   50
loop_
 _symmetry_equiv_pos_site_id
 _symmetry_equiv_pos_as_xyz
  1  'x, y, z'
loop_
 _atom_site_type_symbol
 _atom_site_label
 _atom_site_symmetry_multiplicity
 _atom_site_fract_x
 _atom_site_fract_y
 _atom_site_fract_z
 _atom_site_occupancy
  Zr  Zr0  1  0.89564144  0.49699563  0.68947804  1
  Zr  Zr1  1  0.29932204  0.29697241  0.70305135  1
  Zr  Zr2  1  0.29640188  0.30422656  0.11221262  1
  Zr  Zr3  1  0.69942097  0.49997850  0.89833503  1
  Zr  Zr4  1  0.90463085  0.28956309  0.89927485  1
  Zr  Zr5  1  0.90283352  0.08264320  0.30377495  1
  Zr  Zr6  1  0.50882755  0.10148080  0.90238714  1
  Zr  Zr7  1  0.09678264  0.09288652  0.70116167  1
  Zr  Zr8  1  0.49198371  0.69800865  0.09892936  1
  Zr  Zr9  1  0.69569087  0.30186778  0.10686963  1
  Zr  Zr10  1  0.69747524  0.30543864  0.30142221  1
  Zr  Zr11  1  0.70325705  0.70836556  0.89430234  1
  Zr  Zr12  1  0.09369595  0.89399791  0.51000322  1
  Zr  Zr13  1  0.89869656  0.90288181  0.48963766  1
  Zr  Zr14  1  0.09435287  0.29849719  0.70102300  1
  Zr  Zr15  1  0.29557828  0.49955082  0.69496049  1
  Zr  Zr16  1  0.08642793  0.90143726  0.29979828  1
  Zr  Zr17  1  0.90919027  0.90845539  0.69371346  1
  Zr  Zr18  1  0.90514893  0.30777094  0.30403494  1
  Zr  Zr19  1  0.89822200  0.10722767  0.69882699  1
  Zr  Zr20  1  0.50588181  0.29993296  0.30611650  1
  Zr  Zr21  1  0.50984775  0.89600266  0.89611203  1
  Zr  Zr22  1  0.90494330  0.89263970  0.89416697  1
  Zr  Zr23  1  0.29669132  0.70362795  0.29869910  1
  Zr  Zr24  1  0.89265415  0.49916600  0.30276581  1
  Zr  Zr25  1  0.70813592  0.89647288  0.30796832  1
  Zr  Zr26  1  0.69760959  0.90163308  0.50140201  1
  Zr  Zr27  1  0.29661446  0.90418428  0.90142606  1
  Zr  Zr28  1  0.70445413  0.90090317  0.09850925  1
  Zr  Zr29  1  0.30683800  0.09955214  0.50078904  1
  Zr  Zr30  1  0.08146605  0.70368443  0.90293005  1
  Zr  Zr31  1  0.09434290  0.29904433  0.10717643  1
  Zr  Zr32  1  0.89688249  0.09817228  0.08921901  1
  Zr  Zr33  1  0.50452618  0.89898470  0.69068411  1
  Zr  Zr34  1  0.49718773  0.49813951  0.49544214  1
  Zr  Zr35  1  0.09928282  0.69741114  0.49907226  1
  Zr  Zr36  1  0.29783617  0.69995661  0.10433886  1
  Zr  Zr37  1  0.49934981  0.29813746  0.89446209  1
  Zr  Zr38  1  0.29443994  0.90942168  0.69440052  1
  Zr  Zr39  1  0.50952000  0.10509019  0.10533436  1
  Zr  Zr40  1  0.50482947  0.10140700  0.50711313  1
  Zr  Zr41  1  0.29746541  0.49989755  0.30092082  1
  Zr  Zr42  1  0.70343517  0.10102128  0.68860855  1
  Zr  Zr43  1  0.90187929  0.90314151  0.10835895  1
  Zr  Zr44  1  0.89391724  0.50412967  0.10647535  1
  Zr  Zr45  1  0.10127714  0.30080026  0.49684498  1
  Zr  Zr46  1  0.29713816  0.50323773  0.50428278  1
  Zr  Zr47  1  0.30881594  0.50522934  0.10091368  1
  Zr  Zr48  1  0.10044590  0.70493395  0.30425980  1
  Zr  Zr49  1  0.50343178  0.69938416  0.50047184  1
  Sc  Sc50  1  0.70571064  0.49782296  0.30026859  1
  Sc  Sc51  1  0.89938885  0.69362856  0.70649422  1
  Sc  Sc52  1  0.69537178  0.29574235  0.50609210  1
  Sc  Sc53  1  0.90440062  0.30223551  0.50595774  1
  Sc  Sc54  1  0.50635481  0.69656331  0.30561108  1
  Sc  Sc55  1  0.30052002  0.90580065  0.50184450  1
  Sc  Sc56  1  0.29627166  0.10865154  0.88945089  1
  Sc  Sc57  1  0.29971867  0.30264384  0.89276416  1
  Sc  Sc58  1  0.29585970  0.29831306  0.30389118  1
  Sc  Sc59  1  0.30341462  0.69934924  0.68452055  1
  Sc  Sc60  1  0.08585487  0.48868945  0.29414878  1
  Sc  Sc61  1  0.50494229  0.90660857  0.30281697  1
  Sc  Sc62  1  0.70386890  0.90113631  0.89446800  1
  Sc  Sc63  1  0.09487695  0.49849206  0.90199430  1
  Sc  Sc64  1  0.29671458  0.90389314  0.11086037  1
  Sc  Sc65  1  0.29692249  0.69382904  0.91242145  1
  Sc  Sc66  1  0.30156012  0.90688540  0.29789826  1
  Sc  Sc67  1  0.29208812  0.69047240  0.49574104  1
  Sc  Sc68  1  0.10217857  0.29742197  0.30122741  1
  Sc  Sc69  1  0.50477027  0.49498508  0.30530183  1
  Sc  Sc70  1  0.30294380  0.49838049  0.90472930  1
  Sc  Sc71  1  0.49913635  0.49386297  0.89934562  1
  Sc  Sc72  1  0.50649956  0.50082385  0.69753116  1
  Sc  Sc73  1  0.89730460  0.49503139  0.90103650  1
  Sc  Sc74  1  0.49969325  0.29945184  0.69296849  1
  Sc  Sc75  1  0.50318704  0.09465607  0.30700486  1
  Sc  Sc76  1  0.09098778  0.09775354  0.90449363  1
  Sc  Sc77  1  0.09104926  0.30037859  0.90101346  1
  Sc  Sc78  1  0.29065094  0.09087261  0.11549794  1
  Sc  Sc79  1  0.09074905  0.69940321  0.69522634  1
  Sc  Sc80  1  0.50878688  0.30750929  0.10162960  1
  Sc  Sc81  1  0.29404263  0.09618062  0.30568898  1
  Sc  Sc82  1  0.70177310  0.49695984  0.70280451  1
  Sc  Sc83  1  0.69984567  0.10163404  0.09044395  1
  Sc  Sc84  1  0.89786646  0.70429173  0.29508310  1
  Sc  Sc85  1  0.70610476  0.50026050  0.49745455  1
  Sc  Sc86  1  0.30956274  0.30201242  0.50077304  1
  Sc  Sc87  1  0.70222422  0.30562252  0.69367142  1
  Sc  Sc88  1  0.69987695  0.69854479  0.70232306  1
  Sc  Sc89  1  0.70146068  0.89630758  0.70253473  1
  Sc  Sc90  1  0.89880136  0.30053020  0.09123064  1
  Sc  Sc91  1  0.70267628  0.30264776  0.90095880  1
  Sc  Sc92  1  0.50761324  0.70160206  0.69223619  1
  Sc  Sc93  1  0.69572154  0.70006965  0.49263594  1
  Sc  Sc94  1  0.10065743  0.49620086  0.69392407  1
  Sc  Sc95  1  0.50617205  0.90363022  0.49735212  1
  Sc  Sc96  1  0.71970308  0.69642621  0.09104482  1
  Sc  Sc97  1  0.10151789  0.10323864  0.48912257  1
  Sc  Sc98  1  0.70615939  0.69433755  0.30801872  1
  Sc  Sc99  1  0.50189762  0.90717127  0.10643070  1
  Nb  Nb100  1  0.89727599  0.89772068  0.30161587  1
  Nb  Nb101  1  0.70547201  0.09811240  0.50197044  1
  Nb  Nb102  1  0.50349440  0.50340385  0.09882273  1
  Nb  Nb103  1  0.88344338  0.10697706  0.90377707  1
  Nb  Nb104  1  0.90049738  0.69534503  0.50067780  1
  Nb  Nb105  1  0.89666738  0.70083034  0.90612038  1
  Nb  Nb106  1  0.49545391  0.10274312  0.69887877  1
  Nb  Nb107  1  0.09980905  0.89783994  0.89478228  1
  Nb  Nb108  1  0.50105906  0.70271500  0.89937724  1
  Nb  Nb109  1  0.90275297  0.50456935  0.49889517  1
  Nb  Nb110  1  0.90742519  0.69859392  0.08674220  1
  Nb  Nb111  1  0.88954103  0.09485288  0.50687003  1
  Nb  Nb112  1  0.09648029  0.90052937  0.70854832  1
  Nb  Nb113  1  0.10393774  0.10464798  0.29445564  1
  Nb  Nb114  1  0.30624740  0.10492445  0.69637051  1
  Nb  Nb115  1  0.69998641  0.49959848  0.10001726  1
  Nb  Nb116  1  0.10564548  0.50501922  0.50081330  1
  Nb  Nb117  1  0.09728217  0.09536186  0.10523839  1
  Nb  Nb118  1  0.90331905  0.29775758  0.69715243  1
  Nb  Nb119  1  0.69935254  0.10387664  0.30260907  1
  Nb  Nb120  1  0.09715875  0.49649258  0.10307924  1
  Nb  Nb121  1  0.70683217  0.10407381  0.89706608  1
  Nb  Nb122  1  0.09780360  0.90689627  0.09218963  1
  Nb  Nb123  1  0.50027110  0.30140077  0.49541836  1
  Nb  Nb124  1  0.09379292  0.69850189  0.09713394  1
  Nb  Nb125  1  0.20014104  0.20191192  0.00845762  1
  Nb  Nb126  1  0.80262751  0.19700712  0.20842127  1
  Nb  Nb127  1  0.19686833  0.79968172  0.80228141  1
  Nb  Nb128  1  0.18910782  0.60016977  0.19360425  1
  Nb  Nb129  1  0.39745565  0.80594093  -0.00204369  1
  Nb  Nb130  1  -0.00230929  0.59748022  0.40454739  1
  Nb  Nb131  1  0.19727669  0.39894009  0.00947419  1
  Nb  Nb132  1  0.39577923  0.79937410  0.80201206  1
  Nb  Nb133  1  -0.00372328  0.19060782  0.20170824  1
  Nb  Nb134  1  0.60344488  0.19398728  0.79604477  1
  Nb  Nb135  1  0.19177147  0.80403942  0.00098225  1
  Nb  Nb136  1  0.20121051  0.60706183  0.80125913  1
  Nb  Nb137  1  0.60453861  0.59869386  0.18984769  1
  Nb  Nb138  1  0.40365569  0.19937786  0.19915301  1
  Nb  Nb139  1  0.39985098  0.79886604  0.40022576  1
  Nb  Nb140  1  0.80103643  0.19296175  0.40050110  1
  Nb  Nb141  1  0.39554521  0.19675541  0.00793032  1
  Nb  Nb142  1  0.39799025  0.60740288  0.79996341  1
  Nb  Nb143  1  0.60702035  0.79300460  0.19793448  1
  Nb  Nb144  1  0.20435356  0.19811304  0.60446166  1
  Nb  Nb145  1  0.80614808  0.79814542  0.59460919  1
  Nb  Nb146  1  0.60011722  0.59999996  0.00189810  1
  Nb  Nb147  1  0.40268617  0.00052540  0.79684470  1
  Nb  Nb148  1  0.19837487  0.40617169  0.40480137  1
  Nb  Nb149  1  0.40016100  0.00463474  -0.00309152  1
  Pd  Pd150  1  0.40684125  0.59711647  0.21256552  1
  Pd  Pd151  1  0.39760716  0.80112906  0.59213082  1
  Pd  Pd152  1  0.40275215  0.40021872  0.60288210  1
  Pd  Pd153  1  0.60380346  -0.00216216  -0.00078373  1
  Pd  Pd154  1  0.00213603  0.40397962  0.59615471  1
  Pd  Pd155  1  -0.00793828  0.79524669  0.60362752  1
  Pd  Pd156  1  0.18921675  0.19900531  0.80181331  1
  Pd  Pd157  1  0.20768025  0.81117852  0.40353489  1
  Pd  Pd158  1  0.39602269  0.39088558  0.00178429  1
  Pd  Pd159  1  0.60030371  0.40219913  -0.00343277  1
  Pd  Pd160  1  0.79179059  0.60601750  0.59778019  1
  Pd  Pd161  1  0.18938830  0.80424918  0.19395700  1
  Pd  Pd162  1  -0.00649693  -0.00142055  -0.00781590  1
  Pd  Pd163  1  -0.00674140  0.40406211  0.79719742  1
  Pd  Pd164  1  0.19246738  0.00820771  0.59473888  1
  Pd  Pd165  1  0.19412399  -0.00675080  0.39954354  1
  Pd  Pd166  1  0.60495949  0.19739964  0.40661194  1
  Pd  Pd167  1  0.40159492  0.60488803  0.39795213  1
  Pd  Pd168  1  0.80474375  0.39265975  0.79639958  1
  Pd  Pd169  1  0.20359073  0.00571881  -0.00006877  1
  Pd  Pd170  1  0.20193275  0.00282455  0.80077718  1
  Pd  Pd171  1  0.80139801  0.39737042  0.00024803  1
  Pd  Pd172  1  -0.01005345  0.01006025  0.80973359  1
  Pd  Pd173  1  0.19151406  0.59735658  0.00016250  1
  Pd  Pd174  1  0.41108011  0.80726245  0.20629714  1
  Pd  Pd175  1  0.00025107  0.59253107  0.79736144  1
  Pd  Pd176  1  0.61044586  -0.00406032  0.20491336  1
  Pd  Pd177  1  0.80332423  -0.00139424  0.79824619  1
  Pd  Pd178  1  0.60136190  0.00577449  0.79132965  1
  Pd  Pd179  1  0.60726737  0.59511040  0.59581968  1
  Pd  Pd180  1  0.40339598  0.40942704  0.79222090  1
  Pd  Pd181  1  0.80639884  0.80740790  -0.00058399  1
  Pd  Pd182  1  0.00577937  0.19332698  0.59418481  1
  Pd  Pd183  1  0.19702826  0.40721420  0.80958887  1
  Pd  Pd184  1  0.79895202  0.79191880  0.19839940  1
  Pd  Pd185  1  0.39915591  0.19732297  0.39284684  1
  Pd  Pd186  1  -0.00062980  0.60510264  0.20640611  1
  Pd  Pd187  1  0.40901477  0.39646639  0.20632677  1
  Pd  Pd188  1  0.59840576  0.79431802  0.00979270  1
  Pd  Pd189  1  0.19900804  0.79732803  0.60400022  1
  Pd  Pd190  1  0.00665345  0.00301998  0.40668292  1
  Pd  Pd191  1  0.60169117  0.40366552  0.59529831  1
  Pd  Pd192  1  -0.00568244  0.58874364  -0.00136736  1
  Pd  Pd193  1  0.80447969  0.59905399  0.80402857  1
  Pd  Pd194  1  0.79220846  0.00653486  0.19984358  1
  Pd  Pd195  1  -0.00888291  0.19435453  0.39671201  1
  Pd  Pd196  1  0.59381671  0.60001116  0.80490278  1
  Pd  Pd197  1  0.79312929  0.20982881  0.79351294  1
  Pd  Pd198  1  0.79744959  0.39045633  0.41300617  1
  Pd  Pd199  1  -0.00062504  0.79837387  0.19373317  1
  Rh  Rh200  1  -0.00770885  0.79266196  0.40057515  1
  Rh  Rh201  1  0.18890060  -0.00782485  0.20988399  1
  Rh  Rh202  1  -0.00207416  0.79686871  0.79393147  1
  Rh  Rh203  1  0.79058183  0.20733064  0.00613735  1
  Rh  Rh204  1  0.39991662  0.20532487  0.59762010  1
  Rh  Rh205  1  0.19955189  0.38929111  0.59356169  1
  Rh  Rh206  1  0.80700603  0.60170900  0.40112401  1
  Rh  Rh207  1  0.60111863  0.20030300  0.20690940  1
  Rh  Rh208  1  0.79906634  -0.00954600  0.60254212  1
  Rh  Rh209  1  0.80319608  0.39849626  0.59733999  1
  Rh  Rh210  1  -0.00096944  0.80930918  0.00654056  1
  Rh  Rh211  1  0.40481104  0.00925005  0.19831595  1
  Rh  Rh212  1  0.18548747  0.58855074  0.38373484  1
  Rh  Rh213  1  0.19804553  0.19605133  0.19929322  1
  Rh  Rh214  1  0.20550190  0.20789851  0.40713672  1
  Rh  Rh215  1  0.60419613  0.40187578  0.40764895  1
  Rh  Rh216  1  0.19316371  0.60528665  0.61091031  1
  Rh  Rh217  1  0.60207501  0.00210474  0.60206084  1
  Rh  Rh218  1  -0.00292455  0.19401984  0.80160308  1
  Rh  Rh219  1  0.59810906  0.79691012  0.79277100  1
  Rh  Rh220  1  0.40931941  0.19360636  0.80475518  1
  Rh  Rh221  1  0.80415447  0.20778484  0.59369068  1
  Rh  Rh222  1  0.79360119  0.00393966  0.39981768  1
  Rh  Rh223  1  0.19844539  0.41137424  0.20360613  1
  Rh  Rh224  1  0.59920396  0.41131562  0.20302016  1
  Rh  Rh225  1  0.80650704  0.79389254  0.40610484  1
  Rh  Rh226  1  -0.01156420  0.39318844  0.19246017  1
  Rh  Rh227  1  0.00654987  0.40932417  0.41079986  1
  Rh  Rh228  1  0.39408738  0.40037332  0.39990695  1
  Rh  Rh229  1  0.40541041  -0.00029763  0.60230780  1
  Rh  Rh230  1  0.60530675  0.59081006  0.39477977  1
  Rh  Rh231  1  0.00640013  0.19356072  0.00595738  1
  Rh  Rh232  1  0.80163657  0.39421754  0.19679052  1
  Rh  Rh233  1  0.60647456  0.00435414  0.40285385  1
  Rh  Rh234  1  0.00077514  0.59533894  0.59660256  1
  Rh  Rh235  1  0.59626716  0.19990705  0.60288440  1
  Rh  Rh236  1  0.40569638  0.59647355  0.60397142  1
  Rh  Rh237  1  0.80807335  0.79952898  0.79114244  1
  Rh  Rh238  1  0.00259987  0.00144658  0.19935113  1
  Rh  Rh239  1  0.59300168  0.80147756  0.39238830  1
  Rh  Rh240  1  0.59959065  0.39028800  0.79716223  1
  Rh  Rh241  1  0.00126546  0.40406375  0.00370119  1
  Rh  Rh242  1  0.80041046  -0.00698006  -0.00869906  1
  Rh  Rh243  1  0.40186982  -0.00537316  0.40383384  1
  Rh  Rh244  1  0.41161194  0.60184510  -0.01166221  1
  Rh  Rh245  1  0.79922542  0.59651006  -0.00820174  1
  Rh  Rh246  1  0.61255109  0.79743576  0.59823330  1
  Rh  Rh247  1  0.79873856  0.60381900  0.19820764  1
  Rh  Rh248  1  0.00351073  0.00655359  0.59249552  1
  Rh  Rh249  1  0.60280842  0.20762797  -0.00979431  1
