# generated using pymatgen
data_ZrScNbPdRh
_symmetry_space_group_name_H-M   'P 1'
_cell_length_a   16.55472669
_cell_length_b   16.55281553
_cell_length_c   16.55566175
_cell_angle_alpha   89.99864692
_cell_angle_beta   89.97019039
_cell_angle_gamma   90.02074466
_symmetry_Int_Tables_number   1
_chemical_formula_structural   ZrScNbPdRh
_chemical_formula_sum   'Zr50 Sc50 Nb50 Pd50 Rh50'
_cell_volume   4536.70299242
_cell_formula_units_Z   50
loop_
 _symmetry_equiv_pos_site_id
 _symmetry_equiv_pos_as_xyz
  1  'x, y, z'
loop_
 _atom_site_type_symbol
 _atom_site_label
 _atom_site_symmetry_multiplicity
 _atom_site_fract_x
 _atom_site_fract_y
 _atom_site_fract_z
 _atom_site_occupancy
  Zr  Zr0  1  0.09855841  0.90316083  0.49885758  1
  Zr  Zr1  1  0.90028395  0.70465974  0.10030922  1
  Zr  Zr2  1  0.70457428  0.89734948  0.89249631  1
  Zr  Zr3  1  0.70482806  0.29638317  0.29011293  1
  Zr  Zr4  1  0.49580875  0.30080843  0.50167216  1
  Zr  Zr5  1  0.29944826  0.89836766  0.90367493  1
  Zr  Zr6  1  0.49941250  0.50161514  0.91555291  1
  Zr  Zr7  1  0.69430918  0.10889645  0.10013638  1
  Zr  Zr8  1  0.89563200  0.29382209  0.89985826  1
  Zr  Zr9  1  0.48835400  0.09858587  0.50151278  1
  Zr  Zr10  1  0.10036759  0.28958056  0.10307082  1
  Zr  Zr11  1  0.10057957  0.88812875  0.89515955  1
  Zr  Zr12  1  0.30709097  0.30137975  0.10455091  1
  Zr  Zr13  1  0.10052112  0.30082936  0.30885622  1
  Zr  Zr14  1  0.50239298  0.09302470  0.09378102  1
  Zr  Zr15  1  0.89991393  0.90401302  0.50204682  1
  Zr  Zr16  1  0.30493211  0.50350515  0.10232248  1
  Zr  Zr17  1  0.10659176  0.50166517  0.30020038  1
  Zr  Zr18  1  0.09688609  0.90298686  0.30167612  1
  Zr  Zr19  1  0.09547963  0.70743663  0.50661509  1
  Zr  Zr20  1  0.30361286  0.10494069  0.09834361  1
  Zr  Zr21  1  0.90079322  0.69562015  0.69263567  1
  Zr  Zr22  1  0.50227120  0.70238312  0.29676884  1
  Zr  Zr23  1  0.29779257  0.49862718  0.90694881  1
  Zr  Zr24  1  0.90193036  0.29937271  0.30364993  1
  Zr  Zr25  1  0.69182498  0.49536913  0.09703398  1
  Zr  Zr26  1  0.68974838  0.31248264  0.50241015  1
  Zr  Zr27  1  0.70474060  0.09221331  0.49539855  1
  Zr  Zr28  1  0.90326016  0.70165086  0.49863787  1
  Zr  Zr29  1  0.29698955  0.29978412  0.30155518  1
  Zr  Zr30  1  0.69920356  0.09807888  0.30094829  1
  Zr  Zr31  1  0.89755486  0.50839512  0.49984654  1
  Zr  Zr32  1  0.90182851  0.09407725  0.50459643  1
  Zr  Zr33  1  0.70874087  0.49288163  0.69162126  1
  Zr  Zr34  1  0.09119693  0.10471204  0.90785046  1
  Zr  Zr35  1  0.70025095  0.49955930  0.90002309  1
  Zr  Zr36  1  0.89562935  0.10308974  0.30417871  1
  Zr  Zr37  1  0.50402323  0.49205836  0.49523690  1
  Zr  Zr38  1  0.90175156  0.90247745  0.10353529  1
  Zr  Zr39  1  0.50523505  0.30346579  0.09454897  1
  Zr  Zr40  1  0.69916307  0.29424096  0.90308788  1
  Zr  Zr41  1  0.09408157  0.09472949  0.10494214  1
  Zr  Zr42  1  0.50240599  0.70721191  0.69312403  1
  Zr  Zr43  1  0.10059125  0.50470851  0.90712481  1
  Zr  Zr44  1  0.10042885  0.30206468  0.90410821  1
  Zr  Zr45  1  0.10052241  0.10697934  0.30233053  1
  Zr  Zr46  1  0.50540795  0.29156418  0.69941754  1
  Zr  Zr47  1  0.29801686  0.49780698  0.30080190  1
  Zr  Zr48  1  0.90007123  0.09928862  0.69462362  1
  Zr  Zr49  1  0.10588335  0.70756503  0.70663765  1
  Sc  Sc50  1  0.90181808  0.89450707  0.30188635  1
  Sc  Sc51  1  0.29215617  0.89553755  0.69668376  1
  Sc  Sc52  1  0.10620582  0.50110262  0.09378225  1
  Sc  Sc53  1  0.90899486  0.71464980  0.89884655  1
  Sc  Sc54  1  0.29688418  0.30551716  0.69208349  1
  Sc  Sc55  1  0.90619910  0.29324648  0.49527656  1
  Sc  Sc56  1  0.70257457  0.29904187  0.69749754  1
  Sc  Sc57  1  0.30130299  0.49675465  0.69717392  1
  Sc  Sc58  1  0.50056035  0.70113011  0.49452706  1
  Sc  Sc59  1  0.29846936  0.09056594  0.69157145  1
  Sc  Sc60  1  0.10557512  0.29696736  0.69585562  1
  Sc  Sc61  1  0.89307847  0.29767341  0.69720433  1
  Sc  Sc62  1  0.49074644  0.49943778  0.68929525  1
  Sc  Sc63  1  0.50756792  0.70100398  0.91408244  1
  Sc  Sc64  1  0.69939044  0.09521406  0.70096548  1
  Sc  Sc65  1  0.69488957  0.50705698  0.29373082  1
  Sc  Sc66  1  0.10932495  0.70128833  0.30075674  1
  Sc  Sc67  1  0.49968529  0.49812290  0.30239085  1
  Sc  Sc68  1  0.09191650  0.89535088  0.10207582  1
  Sc  Sc69  1  0.89977420  0.49904508  0.09214141  1
  Sc  Sc70  1  0.49479282  0.30460733  0.30753540  1
  Sc  Sc71  1  0.90442170  0.09582266  0.09046174  1
  Sc  Sc72  1  0.30879715  0.70543926  0.49928126  1
  Sc  Sc73  1  0.89369505  0.49745260  0.69425623  1
  Sc  Sc74  1  0.69441250  0.70744326  0.29633612  1
  Sc  Sc75  1  0.30477618  0.10797565  0.30440236  1
  Sc  Sc76  1  0.29979334  0.88904386  0.29833827  1
  Sc  Sc77  1  0.88923147  0.70174847  0.29938002  1
  Sc  Sc78  1  0.10652973  0.90161072  0.69562989  1
  Sc  Sc79  1  0.29796293  0.90802985  0.50363316  1
  Sc  Sc80  1  0.50052557  0.10076521  0.30702034  1
  Sc  Sc81  1  0.88824210  0.90654400  0.70520116  1
  Sc  Sc82  1  0.50773402  0.89815555  0.91088470  1
  Sc  Sc83  1  0.49879538  0.90072661  0.50452736  1
  Sc  Sc84  1  0.68910779  0.89860184  0.70635346  1
  Sc  Sc85  1  0.10752152  0.29745332  0.49643413  1
  Sc  Sc86  1  0.69785446  0.90215321  0.49381213  1
  Sc  Sc87  1  0.69515009  0.69834262  0.10867578  1
  Sc  Sc88  1  0.88720577  0.29811422  0.10217372  1
  Sc  Sc89  1  0.50722238  0.89177479  0.29902208  1
  Sc  Sc90  1  0.50425508  0.11152809  0.89692982  1
  Sc  Sc91  1  0.29879127  0.70084773  0.29831043  1
  Sc  Sc92  1  0.11326733  0.49509161  0.70313067  1
  Sc  Sc93  1  0.50299807  0.09828426  0.69734052  1
  Sc  Sc94  1  0.29437289  0.70879253  0.10016017  1
  Sc  Sc95  1  0.29870559  0.30078395  0.49847170  1
  Sc  Sc96  1  0.70323753  0.69714263  0.49166119  1
  Sc  Sc97  1  0.50074512  0.50060538  0.09785706  1
  Sc  Sc98  1  0.28653717  0.70003074  0.90623656  1
  Sc  Sc99  1  0.10079364  0.50157856  0.48954097  1
  Nb  Nb100  1  0.49917135  0.70212371  0.10220070  1
  Nb  Nb101  1  0.89672698  0.09543201  0.89997721  1
  Nb  Nb102  1  0.29934800  0.09757991  0.49779313  1
  Nb  Nb103  1  0.70192085  0.49673438  0.50344155  1
  Nb  Nb104  1  0.69080812  0.90178526  0.10120588  1
  Nb  Nb105  1  0.49611347  0.89310313  0.09673260  1
  Nb  Nb106  1  0.49564006  0.90081932  0.70729692  1
  Nb  Nb107  1  0.30547269  0.90285785  0.09668465  1
  Nb  Nb108  1  0.70057694  0.70520716  0.89654758  1
  Nb  Nb109  1  0.70043900  0.29775335  0.10154707  1
  Nb  Nb110  1  0.30550233  0.29274124  0.89969870  1
  Nb  Nb111  1  0.69974569  0.70459752  0.70746523  1
  Nb  Nb112  1  0.89672822  0.91013150  0.90251651  1
  Nb  Nb113  1  0.70779113  0.10186316  0.90169015  1
  Nb  Nb114  1  0.90000553  0.49887696  0.89613861  1
  Nb  Nb115  1  0.30743472  0.49791561  0.50801752  1
  Nb  Nb116  1  0.90909432  0.49861499  0.30385765  1
  Nb  Nb117  1  0.09898007  0.09799877  0.70125071  1
  Nb  Nb118  1  0.30581959  0.69545941  0.69753018  1
  Nb  Nb119  1  0.10314151  0.09461023  0.50670556  1
  Nb  Nb120  1  0.49980847  0.30117951  0.89332283  1
  Nb  Nb121  1  0.70116932  0.89976137  0.29442969  1
  Nb  Nb122  1  0.30331273  0.09777814  0.90067541  1
  Nb  Nb123  1  0.09481757  0.69632418  0.08708147  1
  Nb  Nb124  1  0.09763530  0.69966246  0.90627129  1
  Nb  Nb125  1  0.40145310  0.60471856  0.19672916  1
  Nb  Nb126  1  0.80089503  0.60497172  0.80351911  1
  Nb  Nb127  1  0.79573333  0.80457472  -0.00064780  1
  Nb  Nb128  1  0.79610366  0.79689394  0.60304834  1
  Nb  Nb129  1  0.20390941  0.19354467  0.80534772  1
  Nb  Nb130  1  0.40239264  0.39788472  0.80700641  1
  Nb  Nb131  1  0.20282607  -0.00001060  0.00232242  1
  Nb  Nb132  1  0.79989911  0.40694948  0.39804684  1
  Nb  Nb133  1  0.60603790  0.59954584  0.60147553  1
  Nb  Nb134  1  0.00187042  0.40163744  0.60017600  1
  Nb  Nb135  1  -0.00208403  0.40277173  0.80058836  1
  Nb  Nb136  1  -0.00149908  0.00573125  0.80335905  1
  Nb  Nb137  1  0.00016486  0.59596354  0.80481063  1
  Nb  Nb138  1  0.00029342  0.40385161  0.20402007  1
  Nb  Nb139  1  0.20669221  0.60414349  0.59878706  1
  Nb  Nb140  1  0.40012608  0.79747109  0.79975316  1
  Nb  Nb141  1  0.20647472  -0.00056500  0.19575722  1
  Nb  Nb142  1  0.59440636  0.40322607  0.80179114  1
  Nb  Nb143  1  0.40276731  0.60239958  0.80251840  1
  Nb  Nb144  1  0.40032902  -0.00725207  0.19317600  1
  Nb  Nb145  1  0.00195482  0.59683831  0.19935742  1
  Nb  Nb146  1  0.80005978  0.60734460  -0.00827097  1
  Nb  Nb147  1  0.79304855  -0.00248662  0.19997898  1
  Nb  Nb148  1  0.60105234  0.59905519  0.79568108  1
  Nb  Nb149  1  0.39915314  -0.00477559  0.80367195  1
  Pd  Pd150  1  0.20308119  0.60290144  0.79744538  1
  Pd  Pd151  1  0.59344806  -0.00529803  0.40038978  1
  Pd  Pd152  1  0.60321406  0.59872774  0.40340950  1
  Pd  Pd153  1  0.20516818  0.39462237  0.00630689  1
  Pd  Pd154  1  0.40792589  0.20205909  -0.00114500  1
  Pd  Pd155  1  0.00384577  0.20267865  0.79501726  1
  Pd  Pd156  1  0.19874103  0.00596137  0.80495278  1
  Pd  Pd157  1  0.20290547  0.80038596  0.40625921  1
  Pd  Pd158  1  0.39109088  0.19580269  0.78923139  1
  Pd  Pd159  1  0.59960682  0.20152858  0.40169472  1
  Pd  Pd160  1  0.01606209  0.58781284  0.60999574  1
  Pd  Pd161  1  0.79095210  -0.00209262  0.00762673  1
  Pd  Pd162  1  0.59325408  0.00403922  0.80799215  1
  Pd  Pd163  1  0.40976676  0.19508694  0.20333540  1
  Pd  Pd164  1  -0.00178134  0.00359716  0.39789389  1
  Pd  Pd165  1  0.39768145  0.79204418  -0.00501866  1
  Pd  Pd166  1  0.80554250  0.59282297  0.19438752  1
  Pd  Pd167  1  0.79303171  0.20211244  0.59292347  1
  Pd  Pd168  1  0.59898505  -0.00096143  0.59945389  1
  Pd  Pd169  1  0.20320798  0.19356969  0.60182210  1
  Pd  Pd170  1  0.39825366  -0.00837469  0.38925068  1
  Pd  Pd171  1  0.79750736  0.80427569  0.40474184  1
  Pd  Pd172  1  0.79244850  0.20849558  0.40882985  1
  Pd  Pd173  1  0.79788621  0.40170397  -0.00032867  1
  Pd  Pd174  1  0.60638627  0.19003768  0.59486324  1
  Pd  Pd175  1  -0.00740733  0.81299083  0.60972073  1
  Pd  Pd176  1  0.58886004  0.20351791  0.20483617  1
  Pd  Pd177  1  0.59436167  -0.00327678  0.20287135  1
  Pd  Pd178  1  0.00305708  0.61169610  0.39021094  1
  Pd  Pd179  1  0.39794490  0.59882759  0.39430510  1
  Pd  Pd180  1  0.40176291  0.80658835  0.40082495  1
  Pd  Pd181  1  0.19448700  0.80288859  0.19306751  1
  Pd  Pd182  1  0.80510392  0.41021393  0.20469809  1
  Pd  Pd183  1  -0.00453119  0.39383782  0.00433351  1
  Pd  Pd184  1  -0.00646040  0.80696498  0.79243758  1
  Pd  Pd185  1  0.60514546  0.00299307  -0.00967427  1
  Pd  Pd186  1  0.20204636  0.19640535  -0.00189238  1
  Pd  Pd187  1  0.39140728  0.19961088  0.60420453  1
  Pd  Pd188  1  0.39674976  0.80806741  0.60088723  1
  Pd  Pd189  1  0.00628587  0.20509961  0.59714550  1
  Pd  Pd190  1  0.79567870  0.19518530  0.79524815  1
  Pd  Pd191  1  -0.00980775  0.20386913  0.19654896  1
  Pd  Pd192  1  0.20906786  0.60425151  0.41164713  1
  Pd  Pd193  1  0.20695525  0.00267507  0.39192832  1
  Pd  Pd194  1  0.00470318  0.78859418  0.20764690  1
  Pd  Pd195  1  0.20329535  0.39049162  0.80223218  1
  Pd  Pd196  1  0.19353509  0.39776586  0.19516946  1
  Pd  Pd197  1  0.60901197  0.79690483  0.59088230  1
  Pd  Pd198  1  0.59375370  0.39819179  0.20504928  1
  Pd  Pd199  1  0.79325633  0.59674966  0.39143911  1
  Rh  Rh200  1  0.40285236  0.39274488  0.60314863  1
  Rh  Rh201  1  0.60996300  0.60840006  0.00398510  1
  Rh  Rh202  1  0.80075937  0.00816635  0.79817512  1
  Rh  Rh203  1  0.60934001  0.20180632  0.79965696  1
  Rh  Rh204  1  0.20175189  0.19347116  0.40700813  1
  Rh  Rh205  1  0.60873654  0.79671446  0.00756981  1
  Rh  Rh206  1  0.78824580  -0.00992948  0.60310999  1
  Rh  Rh207  1  0.60162462  0.80240831  0.40118318  1
  Rh  Rh208  1  0.79305386  0.80993367  0.19208371  1
  Rh  Rh209  1  0.80861171  0.79807211  0.79902737  1
  Rh  Rh210  1  0.58894459  0.60066209  0.19727044  1
  Rh  Rh211  1  0.19164644  0.80548981  0.00698974  1
  Rh  Rh212  1  0.58676253  0.79611853  0.80590525  1
  Rh  Rh213  1  0.40020990  -0.00278619  0.60668800  1
  Rh  Rh214  1  0.20528109  0.79382042  0.59564746  1
  Rh  Rh215  1  0.81440702  0.39013276  0.58405763  1
  Rh  Rh216  1  0.20297642  0.60363743  0.00598935  1
  Rh  Rh217  1  0.59780491  0.80163386  0.19500282  1
  Rh  Rh218  1  0.80425658  0.18776503  0.19222191  1
  Rh  Rh219  1  0.61101575  0.40110374  0.38871770  1
  Rh  Rh220  1  0.40420348  0.40748903  0.20204188  1
  Rh  Rh221  1  0.19800713  0.00184338  0.59722945  1
  Rh  Rh222  1  0.78829047  0.61198230  0.60320373  1
  Rh  Rh223  1  0.20891757  0.79337026  0.79905291  1
  Rh  Rh224  1  0.59928412  0.20289922  -0.00293971  1
  Rh  Rh225  1  0.40144484  0.59985281  0.59858948  1
  Rh  Rh226  1  0.20711484  0.40245689  0.40495694  1
  Rh  Rh227  1  0.00502089  -0.00294225  0.61015589  1
  Rh  Rh228  1  0.39347906  0.40131034  0.40150594  1
  Rh  Rh229  1  -0.00420472  0.39823026  0.40385168  1
  Rh  Rh230  1  0.39348053  0.60919179  0.00461479  1
  Rh  Rh231  1  -0.00818865  0.60210089  -0.00023093  1
  Rh  Rh232  1  0.40110700  0.00260848  -0.00296891  1
  Rh  Rh233  1  0.80037148  0.40108140  0.80151497  1
  Rh  Rh234  1  0.00002168  0.79533517  0.39439868  1
  Rh  Rh235  1  0.39791068  0.20307870  0.40537339  1
  Rh  Rh236  1  0.80032515  0.19491953  0.00325034  1
  Rh  Rh237  1  0.59291594  0.40581909  0.60966049  1
  Rh  Rh238  1  -0.00420128  0.00245130  0.20935720  1
  Rh  Rh239  1  0.80155837  -0.00746055  0.39033718  1
  Rh  Rh240  1  0.60439953  0.39129062  -0.00360150  1
  Rh  Rh241  1  -0.01132028  0.20642541  0.00497194  1
  Rh  Rh242  1  0.39715404  0.39226698  -0.00261365  1
  Rh  Rh243  1  0.00694053  0.19114692  0.40988584  1
  Rh  Rh244  1  0.40359664  0.79832256  0.19815173  1
  Rh  Rh245  1  -0.00466154  0.80729799  -0.00083243  1
  Rh  Rh246  1  0.00859681  -0.00998798  -0.00978728  1
  Rh  Rh247  1  0.20001450  0.60788468  0.19129366  1
  Rh  Rh248  1  0.20295478  0.19629005  0.20314622  1
  Rh  Rh249  1  0.19397676  0.41079409  0.58855450  1
