# generated using pymatgen
data_ZrScNbPdRh
_symmetry_space_group_name_H-M   'P 1'
_cell_length_a   16.56147260
_cell_length_b   16.56492112
_cell_length_c   16.56120584
_cell_angle_alpha   90.00768870
_cell_angle_beta   89.97007061
_cell_angle_gamma   89.99531070
_symmetry_Int_Tables_number   1
_chemical_formula_structural   ZrScNbPdRh
_chemical_formula_sum   'Zr50 Sc50 Nb50 Pd50 Rh50'
_cell_volume   4543.39204320
_cell_formula_units_Z   50
loop_
 _symmetry_equiv_pos_site_id
 _symmetry_equiv_pos_as_xyz
  1  'x, y, z'
loop_
 _atom_site_type_symbol
 _atom_site_label
 _atom_site_symmetry_multiplicity
 _atom_site_fract_x
 _atom_site_fract_y
 _atom_site_fract_z
 _atom_site_occupancy
  Zr  Zr0  1  0.90038010  0.49521880  0.10727035  1
  Zr  Zr1  1  0.28828402  0.50386692  0.69268614  1
  Zr  Zr2  1  0.50330272  0.29359850  0.90002434  1
  Zr  Zr3  1  0.69744957  0.89903693  0.30021644  1
  Zr  Zr4  1  0.89667184  0.71158143  0.90357802  1
  Zr  Zr5  1  0.30185087  0.50944471  0.30293894  1
  Zr  Zr6  1  0.50319161  0.29459511  0.69544082  1
  Zr  Zr7  1  0.29910291  0.90401499  0.90715870  1
  Zr  Zr8  1  0.09990565  0.70561154  0.90268131  1
  Zr  Zr9  1  0.49871846  0.10330744  0.08902497  1
  Zr  Zr10  1  0.90792723  0.68480875  0.29925044  1
  Zr  Zr11  1  0.69794280  0.90308531  0.70310471  1
  Zr  Zr12  1  0.30149333  0.49512197  0.90688777  1
  Zr  Zr13  1  0.11599619  0.90002240  0.30167752  1
  Zr  Zr14  1  0.49510897  0.70832915  0.30431203  1
  Zr  Zr15  1  0.50461030  0.70034338  0.49506703  1
  Zr  Zr16  1  0.90308384  0.09152802  0.88903903  1
  Zr  Zr17  1  0.09837284  0.89259920  0.68689790  1
  Zr  Zr18  1  0.09691401  0.69961607  0.50211837  1
  Zr  Zr19  1  0.70159303  0.71837377  0.09726835  1
  Zr  Zr20  1  0.70984117  0.90640472  0.89964868  1
  Zr  Zr21  1  0.49672260  0.11116997  0.49625838  1
  Zr  Zr22  1  0.30784246  0.89849663  0.29929775  1
  Zr  Zr23  1  0.50114095  0.50143337  0.69784742  1
  Zr  Zr24  1  0.69758883  0.70189949  0.69660498  1
  Zr  Zr25  1  0.50459735  0.69264390  0.69547447  1
  Zr  Zr26  1  0.10180738  0.49991731  0.50559730  1
  Zr  Zr27  1  0.89582455  0.90417410  0.30656795  1
  Zr  Zr28  1  0.69914021  0.30341383  0.50592762  1
  Zr  Zr29  1  0.89128625  0.69184337  0.50237026  1
  Zr  Zr30  1  0.90436872  0.70368466  0.09853502  1
  Zr  Zr31  1  0.09631811  0.29707914  0.30274336  1
  Zr  Zr32  1  0.90282193  0.70310999  0.69539095  1
  Zr  Zr33  1  0.50138338  0.90710244  0.69692357  1
  Zr  Zr34  1  0.90418218  0.49586625  0.49941229  1
  Zr  Zr35  1  0.49856493  0.69411123  0.90176755  1
  Zr  Zr36  1  0.09735717  0.49499001  0.69625150  1
  Zr  Zr37  1  0.90074376  0.49841426  0.68734069  1
  Zr  Zr38  1  0.50127200  0.51147500  0.29721226  1
  Zr  Zr39  1  0.50255424  0.09929519  0.70297369  1
  Zr  Zr40  1  0.10880323  0.29388344  0.10081983  1
  Zr  Zr41  1  0.30234977  0.30753276  0.09960829  1
  Zr  Zr42  1  0.71019153  0.89305629  0.49663503  1
  Zr  Zr43  1  0.49890377  0.49263276  0.10287080  1
  Zr  Zr44  1  0.90074620  0.91328703  0.69389829  1
  Zr  Zr45  1  0.69428741  0.49106876  0.29153602  1
  Zr  Zr46  1  0.49712069  0.69490322  0.10243656  1
  Zr  Zr47  1  0.69576683  0.31155672  0.10211742  1
  Zr  Zr48  1  0.10631223  0.48606516  0.89228981  1
  Zr  Zr49  1  0.69136070  0.50078289  0.70030607  1
  Sc  Sc50  1  0.50409597  0.49805832  0.90104092  1
  Sc  Sc51  1  0.28375676  0.29877385  0.90274209  1
  Sc  Sc52  1  0.10595535  0.10163888  0.89886087  1
  Sc  Sc53  1  0.29302889  0.90747928  0.69556166  1
  Sc  Sc54  1  0.50089451  0.90737594  0.89697200  1
  Sc  Sc55  1  0.89782720  0.48658945  0.89255467  1
  Sc  Sc56  1  0.89689532  0.29888849  0.11212803  1
  Sc  Sc57  1  0.90191162  0.49181978  0.30520365  1
  Sc  Sc58  1  0.29893193  0.10328585  0.09230793  1
  Sc  Sc59  1  0.70791799  0.29797104  0.30083250  1
  Sc  Sc60  1  0.70587754  0.10115577  0.70168258  1
  Sc  Sc61  1  0.09832101  0.29582919  0.49867330  1
  Sc  Sc62  1  0.29794085  0.90465204  0.49430184  1
  Sc  Sc63  1  0.30050297  0.70775880  0.30481451  1
  Sc  Sc64  1  0.29794475  0.28951699  0.29537767  1
  Sc  Sc65  1  0.09925693  0.09029386  0.09767158  1
  Sc  Sc66  1  0.30353610  0.09694754  0.30412511  1
  Sc  Sc67  1  0.29542395  0.90307843  0.10531562  1
  Sc  Sc68  1  0.70669491  0.50179691  0.50020767  1
  Sc  Sc69  1  0.90210812  0.30064237  0.30781850  1
  Sc  Sc70  1  0.89487573  0.29911165  0.69670143  1
  Sc  Sc71  1  0.09728322  0.70766134  0.10059831  1
  Sc  Sc72  1  0.08802529  0.50108907  0.30558125  1
  Sc  Sc73  1  0.10018900  0.10345887  0.30657408  1
  Sc  Sc74  1  0.50135217  0.09918094  0.89734209  1
  Sc  Sc75  1  0.29646223  0.70041728  0.90584967  1
  Sc  Sc76  1  0.29583521  0.09824409  0.89964664  1
  Sc  Sc77  1  0.50046474  0.90671783  0.49634172  1
  Sc  Sc78  1  0.09657855  0.48761151  0.11299361  1
  Sc  Sc79  1  0.69872209  0.71373035  0.89412281  1
  Sc  Sc80  1  0.68927116  0.70232749  0.30628595  1
  Sc  Sc81  1  0.89857066  0.10598577  0.30377013  1
  Sc  Sc82  1  0.10000535  0.90677347  0.91303786  1
  Sc  Sc83  1  0.30810345  0.70601597  0.10425249  1
  Sc  Sc84  1  0.10062952  0.90988789  0.50142925  1
  Sc  Sc85  1  0.89622513  0.30344731  0.50182399  1
  Sc  Sc86  1  0.69922890  0.30366727  0.89546107  1
  Sc  Sc87  1  0.49913780  0.51282212  0.50469526  1
  Sc  Sc88  1  0.10573469  0.09666845  0.70369553  1
  Sc  Sc89  1  0.70053518  0.29623140  0.69806791  1
  Sc  Sc90  1  0.30146859  0.68596669  0.49581916  1
  Sc  Sc91  1  0.49400679  0.29056990  0.29694337  1
  Sc  Sc92  1  0.90283535  0.09220556  0.10663090  1
  Sc  Sc93  1  0.49217521  0.89739648  0.09759909  1
  Sc  Sc94  1  0.90066536  0.09286603  0.50113563  1
  Sc  Sc95  1  0.69999579  0.10600265  0.49452749  1
  Sc  Sc96  1  0.89993611  0.90076909  0.09433270  1
  Sc  Sc97  1  0.29415659  0.11014170  0.50048424  1
  Sc  Sc98  1  0.30087536  0.10661179  0.70089279  1
  Sc  Sc99  1  0.89772372  0.29212989  0.88187181  1
  Nb  Nb100  1  0.50061984  0.29779791  0.10003747  1
  Nb  Nb101  1  0.29799951  0.49755845  0.49965402  1
  Nb  Nb102  1  0.29963915  0.29833462  0.69568153  1
  Nb  Nb103  1  0.90350628  0.89933737  0.89210227  1
  Nb  Nb104  1  0.70087528  0.90716309  0.10197568  1
  Nb  Nb105  1  0.69662949  0.69971276  0.49894426  1
  Nb  Nb106  1  0.30687206  0.29567159  0.49952940  1
  Nb  Nb107  1  0.10596121  0.69905343  0.70167029  1
  Nb  Nb108  1  0.30275945  0.50354537  0.10221998  1
  Nb  Nb109  1  0.70017119  0.49343835  0.09690214  1
  Nb  Nb110  1  0.50722646  0.09272465  0.30003915  1
  Nb  Nb111  1  0.09603914  0.29718156  0.89786744  1
  Nb  Nb112  1  0.10135820  0.69860732  0.30104615  1
  Nb  Nb113  1  0.90338117  0.10595720  0.70003801  1
  Nb  Nb114  1  0.09804621  0.10578199  0.49639178  1
  Nb  Nb115  1  0.90765203  0.89538662  0.50205047  1
  Nb  Nb116  1  0.29550674  0.70182820  0.70227294  1
  Nb  Nb117  1  0.69553405  0.09925494  0.29426629  1
  Nb  Nb118  1  0.49894371  0.30056649  0.50121040  1
  Nb  Nb119  1  0.70121586  0.49895754  0.90397551  1
  Nb  Nb120  1  0.09822028  0.29956960  0.71180467  1
  Nb  Nb121  1  0.70011071  0.09577528  0.09613506  1
  Nb  Nb122  1  0.09633941  0.90095113  0.10519748  1
  Nb  Nb123  1  0.49550028  0.90525279  0.30415316  1
  Nb  Nb124  1  0.70087469  0.10128118  0.90254476  1
  Nb  Nb125  1  0.20933010  0.39915279  0.40480421  1
  Nb  Nb126  1  0.39386710  0.59908252  0.79630525  1
  Nb  Nb127  1  0.60048321  0.00224720  0.19875118  1
  Nb  Nb128  1  -0.00138067  0.80076084  0.40083867  1
  Nb  Nb129  1  0.00475070  0.80539128  0.20999613  1
  Nb  Nb130  1  0.39989262  0.39847366  0.40667925  1
  Nb  Nb131  1  0.39908548  0.79552069  0.60487159  1
  Nb  Nb132  1  0.61166712  0.59655867  0.00465019  1
  Nb  Nb133  1  0.60079970  0.19172724  0.19563940  1
  Nb  Nb134  1  0.79343616  0.59847380  0.19149563  1
  Nb  Nb135  1  0.19730308  0.59178721  0.00990955  1
  Nb  Nb136  1  0.00258915  0.80197489  0.79710456  1
  Nb  Nb137  1  0.39492692  0.39868840  0.79174598  1
  Nb  Nb138  1  0.79855858  0.59461133  -0.00145166  1
  Nb  Nb139  1  0.00110826  0.58920067  -0.00503156  1
  Nb  Nb140  1  0.00163630  0.39011010  -0.00309294  1
  Nb  Nb141  1  0.80093620  0.60008634  0.80258824  1
  Nb  Nb142  1  -0.00408968  0.20190554  -0.00383047  1
  Nb  Nb143  1  0.39564723  0.39685922  0.59669907  1
  Nb  Nb144  1  -0.00029088  0.60417884  0.80137004  1
  Nb  Nb145  1  0.59050730  0.39724107  0.40273545  1
  Nb  Nb146  1  0.79905696  0.19394462  0.00019467  1
  Nb  Nb147  1  0.39644587  0.79566249  0.79228177  1
  Nb  Nb148  1  0.19814719  0.60227490  0.19971810  1
  Nb  Nb149  1  0.00173656  0.19540991  0.60547566  1
  Pd  Pd150  1  0.79621657  0.40293352  0.79034505  1
  Pd  Pd151  1  0.79791482  0.00585312  0.40297382  1
  Pd  Pd152  1  0.19954185  0.60073833  0.80925334  1
  Pd  Pd153  1  0.80352974  0.19987155  0.40443393  1
  Pd  Pd154  1  0.80091446  0.80267288  0.60319985  1
  Pd  Pd155  1  0.79122590  0.59404637  0.38932484  1
  Pd  Pd156  1  0.00406022  -0.00123061  0.39793315  1
  Pd  Pd157  1  0.79514967  0.19859964  0.19437046  1
  Pd  Pd158  1  0.60683150  0.00683289  0.59109686  1
  Pd  Pd159  1  0.20049038  0.00893447  0.59542764  1
  Pd  Pd160  1  0.40518365  0.39336447  -0.00640391  1
  Pd  Pd161  1  0.19104881  0.20361498  0.60314716  1
  Pd  Pd162  1  0.19589978  -0.00623307  0.79975161  1
  Pd  Pd163  1  0.59627244  0.39759900  0.80202750  1
  Pd  Pd164  1  0.60843076  0.60569546  0.19175543  1
  Pd  Pd165  1  0.39494981  -0.00320656  0.79993663  1
  Pd  Pd166  1  0.60080857  0.20925650  0.39199358  1
  Pd  Pd167  1  0.60468795  0.19306236  0.60215373  1
  Pd  Pd168  1  0.20043389  0.18859487  0.20022750  1
  Pd  Pd169  1  0.39940285  0.80221356  -0.00523127  1
  Pd  Pd170  1  0.39086030  0.20424037  -0.00846857  1
  Pd  Pd171  1  0.59153185  0.80513960  0.80239823  1
  Pd  Pd172  1  0.40354126  0.00443464  0.19348048  1
  Pd  Pd173  1  0.59722701  -0.00724263  0.00162378  1
  Pd  Pd174  1  0.59695838  0.80521598  -0.00495394  1
  Pd  Pd175  1  0.80937341  0.00195810  -0.00064121  1
  Pd  Pd176  1  0.40145771  0.39805137  0.20966413  1
  Pd  Pd177  1  0.00095901  0.19704024  0.19528904  1
  Pd  Pd178  1  0.39321030  0.20523080  0.80572114  1
  Pd  Pd179  1  0.19872634  0.38643634  0.59554652  1
  Pd  Pd180  1  0.20253057  0.79754523  0.01056774  1
  Pd  Pd181  1  0.59083895  0.81113200  0.20098327  1
  Pd  Pd182  1  0.79881245  0.00079871  0.20235134  1
  Pd  Pd183  1  0.20407816  0.00786844  0.20048709  1
  Pd  Pd184  1  0.21053490  0.79609603  0.58882960  1
  Pd  Pd185  1  0.60938366  0.20598307  0.00187195  1
  Pd  Pd186  1  0.80792438  0.79592094  0.20781882  1
  Pd  Pd187  1  0.00212553  -0.00429088  0.20945139  1
  Pd  Pd188  1  0.39355278  0.00173402  0.59509647  1
  Pd  Pd189  1  0.20319572  0.40654612  0.21241837  1
  Pd  Pd190  1  0.59479006  0.80586325  0.59256947  1
  Pd  Pd191  1  0.19932907  0.81120939  0.80246660  1
  Pd  Pd192  1  0.60496581  -0.00228143  0.40270335  1
  Pd  Pd193  1  0.39528473  0.00796619  0.40748866  1
  Pd  Pd194  1  0.40334290  0.19054689  0.19930238  1
  Pd  Pd195  1  0.19920610  0.79802520  0.40889264  1
  Pd  Pd196  1  0.81033578  0.39050310  -0.00334733  1
  Pd  Pd197  1  0.80569094  0.79006935  0.39397403  1
  Pd  Pd198  1  0.01297080  -0.00630033  0.79721730  1
  Pd  Pd199  1  0.79672621  0.00625032  0.59597979  1
  Rh  Rh200  1  0.79985570  0.81133738  0.00001044  1
  Rh  Rh201  1  -0.00043129  0.38757537  0.20189174  1
  Rh  Rh202  1  0.58852741  0.38655557  0.20816865  1
  Rh  Rh203  1  0.19715201  0.60670154  0.59676382  1
  Rh  Rh204  1  0.40362544  0.80362741  0.20282401  1
  Rh  Rh205  1  -0.00335056  0.40101708  0.79616612  1
  Rh  Rh206  1  0.60948595  0.59841283  0.59015957  1
  Rh  Rh207  1  0.59580824  0.40433809  0.59095676  1
  Rh  Rh208  1  0.19568175  0.79455603  0.19767737  1
  Rh  Rh209  1  0.00329915  0.38402167  0.60170204  1
  Rh  Rh210  1  0.19264858  0.40331797  0.00950768  1
  Rh  Rh211  1  0.79411739  0.19496487  0.80355694  1
  Rh  Rh212  1  0.20215326  0.20273868  0.79866330  1
  Rh  Rh213  1  0.80706159  0.80366247  0.79012533  1
  Rh  Rh214  1  0.39997114  0.59895403  -0.00178930  1
  Rh  Rh215  1  0.60629120  0.19504237  0.79951236  1
  Rh  Rh216  1  0.79262655  0.59948087  0.60538214  1
  Rh  Rh217  1  0.00305101  0.19737554  0.79687082  1
  Rh  Rh218  1  0.00762537  0.39715837  0.40578688  1
  Rh  Rh219  1  0.20125456  0.20523606  0.39807502  1
  Rh  Rh220  1  0.39773534  0.00178843  -0.00075575  1
  Rh  Rh221  1  -0.00124420  0.79626791  0.59623205  1
  Rh  Rh222  1  0.80480141  0.40281615  0.20787240  1
  Rh  Rh223  1  0.40125430  0.19823271  0.39501711  1
  Rh  Rh224  1  -0.00172324  0.00398333  -0.00183262  1
  Rh  Rh225  1  0.00666065  0.60358120  0.60424632  1
  Rh  Rh226  1  0.39213605  0.60237821  0.60527198  1
  Rh  Rh227  1  0.20031566  -0.00063389  0.00653397  1
  Rh  Rh228  1  0.00247123  0.60074912  0.40847428  1
  Rh  Rh229  1  0.00448451  0.60684509  0.19016584  1
  Rh  Rh230  1  0.59358608  0.40078783  -0.00295047  1
  Rh  Rh231  1  0.39235556  0.60792528  0.20296179  1
  Rh  Rh232  1  0.79536499  0.40011814  0.60225582  1
  Rh  Rh233  1  0.00107335  0.80942978  0.00141636  1
  Rh  Rh234  1  -0.00656351  0.19830295  0.41105788  1
  Rh  Rh235  1  0.19390670  0.19715596  -0.00035192  1
  Rh  Rh236  1  0.79178578  0.39991558  0.39998861  1
  Rh  Rh237  1  0.40030522  0.80268856  0.40943564  1
  Rh  Rh238  1  0.60523207  0.59271181  0.40345430  1
  Rh  Rh239  1  0.60511269  0.00663601  0.80327184  1
  Rh  Rh240  1  0.60665995  0.60048128  0.81484669  1
  Rh  Rh241  1  0.40345541  0.59935082  0.40001698  1
  Rh  Rh242  1  0.19272814  0.59292809  0.39398545  1
  Rh  Rh243  1  0.79801049  0.00313172  0.79625660  1
  Rh  Rh244  1  0.80859526  0.19637984  0.59864770  1
  Rh  Rh245  1  0.40219216  0.19885858  0.60245403  1
  Rh  Rh246  1  0.20146061  0.00885039  0.40256407  1
  Rh  Rh247  1  0.59743093  0.80860573  0.40411062  1
  Rh  Rh248  1  0.00473320  0.01083636  0.59764133  1
  Rh  Rh249  1  0.20664462  0.39124406  0.79303379  1
