# generated using pymatgen
data_ZrScNbPdRh
_symmetry_space_group_name_H-M   'P 1'
_cell_length_a   16.56067255
_cell_length_b   16.56302384
_cell_length_c   16.56044913
_cell_angle_alpha   89.96685929
_cell_angle_beta   90.01044043
_cell_angle_gamma   89.97219744
_symmetry_Int_Tables_number   1
_chemical_formula_structural   ZrScNbPdRh
_chemical_formula_sum   'Zr50 Sc50 Nb50 Pd50 Rh50'
_cell_volume   4542.44394651
_cell_formula_units_Z   50
loop_
 _symmetry_equiv_pos_site_id
 _symmetry_equiv_pos_as_xyz
  1  'x, y, z'
loop_
 _atom_site_type_symbol
 _atom_site_label
 _atom_site_symmetry_multiplicity
 _atom_site_fract_x
 _atom_site_fract_y
 _atom_site_fract_z
 _atom_site_occupancy
  Zr  Zr0  1  0.90105730  0.89349916  0.70601166  1
  Zr  Zr1  1  0.89384542  0.69810408  0.70280960  1
  Zr  Zr2  1  0.50121688  0.89707446  0.69854551  1
  Zr  Zr3  1  0.09395607  0.90487910  0.69239616  1
  Zr  Zr4  1  0.29523722  0.89594403  0.70577226  1
  Zr  Zr5  1  0.69080522  0.70208653  0.09697990  1
  Zr  Zr6  1  0.09891308  0.29693193  0.49535464  1
  Zr  Zr7  1  0.90097986  0.89723695  0.90336355  1
  Zr  Zr8  1  0.49557814  0.89512260  0.90765314  1
  Zr  Zr9  1  0.48682737  0.70427420  0.30548991  1
  Zr  Zr10  1  0.10210598  0.89987593  0.89203134  1
  Zr  Zr11  1  0.49574572  0.70247901  0.50772147  1
  Zr  Zr12  1  0.69730991  0.09230828  0.49375960  1
  Zr  Zr13  1  0.10119989  0.30337880  0.88133887  1
  Zr  Zr14  1  0.88995503  0.49965785  0.49314133  1
  Zr  Zr15  1  0.69448040  0.29153047  0.30809616  1
  Zr  Zr16  1  0.69652810  0.69746130  0.90114552  1
  Zr  Zr17  1  0.49976597  0.30901962  0.70063788  1
  Zr  Zr18  1  0.90418371  0.10911004  0.49370600  1
  Zr  Zr19  1  0.50928832  0.09984889  0.30218290  1
  Zr  Zr20  1  0.10860459  0.49750772  0.69763675  1
  Zr  Zr21  1  0.30612039  0.29757877  0.50174983  1
  Zr  Zr22  1  0.89049793  0.90272075  0.28777670  1
  Zr  Zr23  1  0.10459946  0.69566201  0.90485044  1
  Zr  Zr24  1  0.10027276  0.50404697  0.50052366  1
  Zr  Zr25  1  0.50403328  0.50947471  0.29967534  1
  Zr  Zr26  1  0.50150432  0.70036905  0.90144095  1
  Zr  Zr27  1  0.90601153  0.30169599  0.70544283  1
  Zr  Zr28  1  0.89621262  0.09943062  0.29592737  1
  Zr  Zr29  1  0.90104684  0.29924617  0.09742338  1
  Zr  Zr30  1  0.90304895  0.29744324  0.30381430  1
  Zr  Zr31  1  0.50883348  0.50436569  0.88963160  1
  Zr  Zr32  1  0.10869593  0.69718815  0.49679837  1
  Zr  Zr33  1  0.10510818  0.69795002  0.30231797  1
  Zr  Zr34  1  0.69966200  0.50315073  0.09127022  1
  Zr  Zr35  1  0.09809256  0.09940667  0.10382211  1
  Zr  Zr36  1  0.29758254  0.29558080  0.89737568  1
  Zr  Zr37  1  0.90533916  0.49881974  0.10215365  1
  Zr  Zr38  1  0.29924810  0.10517731  0.09770419  1
  Zr  Zr39  1  0.30410386  0.89572776  0.30455852  1
  Zr  Zr40  1  0.09672632  0.10085755  0.30204062  1
  Zr  Zr41  1  0.50278113  0.09178197  0.89950196  1
  Zr  Zr42  1  0.51052967  0.89956260  0.50361917  1
  Zr  Zr43  1  0.70520876  0.89672132  0.69299122  1
  Zr  Zr44  1  0.31499450  0.29984694  0.09981716  1
  Zr  Zr45  1  0.31155093  0.70177499  0.68753386  1
  Zr  Zr46  1  0.30483609  0.10454023  0.69917094  1
  Zr  Zr47  1  0.50542749  0.29794663  0.50122537  1
  Zr  Zr48  1  0.70015039  0.09085179  0.70451221  1
  Zr  Zr49  1  0.49501172  0.10734843  0.10496962  1
  Sc  Sc50  1  0.09697567  0.09979623  0.70512659  1
  Sc  Sc51  1  0.29792823  0.10599123  0.90518862  1
  Sc  Sc52  1  0.70019254  0.50396617  0.89490521  1
  Sc  Sc53  1  0.50530299  0.69830521  0.10341892  1
  Sc  Sc54  1  0.29216675  0.09361877  0.30108102  1
  Sc  Sc55  1  0.11379845  0.50545051  0.88620335  1
  Sc  Sc56  1  0.90498911  0.09505582  0.09948507  1
  Sc  Sc57  1  0.29700366  0.30258494  0.30101662  1
  Sc  Sc58  1  0.30588347  0.30420839  0.70657558  1
  Sc  Sc59  1  0.69866856  0.49850907  0.50463412  1
  Sc  Sc60  1  0.48777524  0.50117262  0.10129446  1
  Sc  Sc61  1  0.50082886  0.90006256  0.10296231  1
  Sc  Sc62  1  0.89732548  0.70240607  0.89247051  1
  Sc  Sc63  1  0.69971645  0.09110017  0.29998732  1
  Sc  Sc64  1  0.28838283  0.89413482  0.50405461  1
  Sc  Sc65  1  0.90507876  0.69630217  0.29734329  1
  Sc  Sc66  1  0.49875278  0.09697839  0.69585569  1
  Sc  Sc67  1  0.29426464  0.50603856  0.50695992  1
  Sc  Sc68  1  0.88894485  0.50396188  0.89265579  1
  Sc  Sc69  1  0.49851307  0.28900765  0.29783836  1
  Sc  Sc70  1  0.09170696  0.90170982  0.09719155  1
  Sc  Sc71  1  0.89545767  0.29792237  0.89498313  1
  Sc  Sc72  1  0.50161733  0.89862278  0.29503023  1
  Sc  Sc73  1  0.10125582  0.10454692  0.89920306  1
  Sc  Sc74  1  0.48827314  0.29682641  0.89765562  1
  Sc  Sc75  1  0.50863056  0.50280438  0.50929725  1
  Sc  Sc76  1  0.30806510  0.91234155  0.09960125  1
  Sc  Sc77  1  0.30184739  0.50852340  0.89971511  1
  Sc  Sc78  1  0.90874063  0.71176056  0.10212425  1
  Sc  Sc79  1  0.90638439  0.09484684  0.70167335  1
  Sc  Sc80  1  0.10147685  0.09605935  0.50117855  1
  Sc  Sc81  1  0.89706694  0.09856250  0.90040397  1
  Sc  Sc82  1  0.49867774  0.10162636  0.50675468  1
  Sc  Sc83  1  0.10627214  0.50422127  0.11158922  1
  Sc  Sc84  1  0.89632453  0.89904162  0.51675683  1
  Sc  Sc85  1  0.30472230  0.69940654  0.89071722  1
  Sc  Sc86  1  0.70747547  0.31256886  0.70791154  1
  Sc  Sc87  1  0.69328660  0.09848020  0.09319777  1
  Sc  Sc88  1  0.70265049  0.70054787  0.69850431  1
  Sc  Sc89  1  0.09202430  0.30538948  0.10951778  1
  Sc  Sc90  1  0.09947176  0.69367127  0.70069419  1
  Sc  Sc91  1  0.69904874  0.50019569  0.31187027  1
  Sc  Sc92  1  0.11339711  0.90982332  0.29800234  1
  Sc  Sc93  1  0.89806655  0.90624981  0.09969220  1
  Sc  Sc94  1  0.89887031  0.69199949  0.50237860  1
  Sc  Sc95  1  0.68346463  0.69975344  0.29336568  1
  Sc  Sc96  1  0.29978917  0.68353495  0.09127505  1
  Sc  Sc97  1  0.09731808  0.69764284  0.10294649  1
  Sc  Sc98  1  0.29828441  0.50274178  0.29406513  1
  Sc  Sc99  1  0.10092524  0.49879287  0.29462943  1
  Nb  Nb100  1  0.29485057  0.49076130  0.09863295  1
  Nb  Nb101  1  0.30391204  0.10206207  0.50411955  1
  Nb  Nb102  1  0.50136742  0.70042603  0.69934163  1
  Nb  Nb103  1  0.10164597  0.30140929  0.70020928  1
  Nb  Nb104  1  0.09475316  0.89921974  0.49897757  1
  Nb  Nb105  1  0.51052459  0.50799782  0.69576474  1
  Nb  Nb106  1  0.70110826  0.89845246  0.10844834  1
  Nb  Nb107  1  0.89780349  0.30055868  0.49869302  1
  Nb  Nb108  1  0.50291552  0.29669544  0.10432778  1
  Nb  Nb109  1  0.69872677  0.89542916  0.49888711  1
  Nb  Nb110  1  0.69837788  0.29743222  0.09664325  1
  Nb  Nb111  1  0.30282234  0.50473867  0.69733432  1
  Nb  Nb112  1  0.30094148  0.70233240  0.48884970  1
  Nb  Nb113  1  0.30173055  0.89688824  0.90081926  1
  Nb  Nb114  1  0.09915529  0.30055008  0.29917711  1
  Nb  Nb115  1  0.70435636  0.28974062  0.90755084  1
  Nb  Nb116  1  0.29978918  0.70755972  0.31686486  1
  Nb  Nb117  1  0.69885711  0.90470323  0.29612898  1
  Nb  Nb118  1  0.70410188  0.29963150  0.49769187  1
  Nb  Nb119  1  0.88539847  0.49820334  0.69757217  1
  Nb  Nb120  1  0.69662943  0.09484961  0.89811376  1
  Nb  Nb121  1  0.89626095  0.49797914  0.29933519  1
  Nb  Nb122  1  0.69572285  0.90944639  0.90091332  1
  Nb  Nb123  1  0.69623249  0.71181943  0.50151803  1
  Nb  Nb124  1  0.68928196  0.49979770  0.70132145  1
  Nb  Nb125  1  0.79982701  0.59480200  0.19934429  1
  Nb  Nb126  1  0.20029603  0.40096673  0.00239299  1
  Nb  Nb127  1  0.39575788  -0.00751218  0.80368312  1
  Nb  Nb128  1  0.20194690  0.20374526  0.60071035  1
  Nb  Nb129  1  0.79652353  0.20545925  0.19639396  1
  Nb  Nb130  1  0.59902976  0.39052840  0.00278850  1
  Nb  Nb131  1  -0.00286433  -0.00898064  0.40210267  1
  Nb  Nb132  1  0.59972340  0.80236097  0.80254846  1
  Nb  Nb133  1  0.60243039  0.39427724  0.19396810  1
  Nb  Nb134  1  0.20847621  0.79833918  0.19660582  1
  Nb  Nb135  1  -0.00478613  0.39969369  0.59866373  1
  Nb  Nb136  1  0.79832774  0.20484423  0.59680472  1
  Nb  Nb137  1  0.79457564  0.39794711  0.20045238  1
  Nb  Nb138  1  -0.00244619  0.39887335  0.40146867  1
  Nb  Nb139  1  -0.00174333  0.80751917  0.40137041  1
  Nb  Nb140  1  0.39750219  0.00050789  0.40707624  1
  Nb  Nb141  1  0.19656986  0.20298611  0.20035436  1
  Nb  Nb142  1  0.20300902  0.80261421  -0.00000545  1
  Nb  Nb143  1  0.79546448  0.80435662  0.39874958  1
  Nb  Nb144  1  0.78952944  0.80765999  0.00040803  1
  Nb  Nb145  1  0.60676796  0.19776747  0.80289317  1
  Nb  Nb146  1  0.00246800  0.59338043  -0.00267347  1
  Nb  Nb147  1  0.00659277  0.40779683  -0.00772697  1
  Nb  Nb148  1  0.61156188  0.20572016  0.60463088  1
  Nb  Nb149  1  0.40360717  0.40217514  0.40254467  1
  Pd  Pd150  1  0.20202614  0.40644359  0.39698334  1
  Pd  Pd151  1  0.79888273  0.39651233  0.60060999  1
  Pd  Pd152  1  0.80616538  -0.00392005  0.80233591  1
  Pd  Pd153  1  0.40168037  0.40929354  0.59564790  1
  Pd  Pd154  1  0.00436246  0.20916579  -0.00858037  1
  Pd  Pd155  1  0.40252049  0.40440052  -0.00777910  1
  Pd  Pd156  1  0.39815199  0.19624800  0.39433822  1
  Pd  Pd157  1  0.39181004  0.60580702  0.20184207  1
  Pd  Pd158  1  0.60653471  0.38898969  0.81256384  1
  Pd  Pd159  1  0.40434842  0.59684501  -0.00225948  1
  Pd  Pd160  1  0.19535798  0.79438625  0.60230161  1
  Pd  Pd161  1  0.20951346  0.60837335  0.20469081  1
  Pd  Pd162  1  0.80558117  0.00811305  0.59755609  1
  Pd  Pd163  1  0.39613536  0.41287309  0.80093893  1
  Pd  Pd164  1  0.20011577  0.39241606  0.60217205  1
  Pd  Pd165  1  0.19824595  0.79160223  0.80001631  1
  Pd  Pd166  1  0.18763990  0.21453248  0.00922233  1
  Pd  Pd167  1  0.19873712  0.00673704  0.59900543  1
  Pd  Pd168  1  0.20277540  0.19591290  0.40002043  1
  Pd  Pd169  1  0.40769613  0.40015283  0.21166436  1
  Pd  Pd170  1  0.39287013  0.78984865  0.18933786  1
  Pd  Pd171  1  0.40164648  0.00646035  0.20992520  1
  Pd  Pd172  1  0.80173025  0.39886397  -0.00465703  1
  Pd  Pd173  1  0.80336973  0.18718306  0.00553416  1
  Pd  Pd174  1  0.78997788  0.60169798  0.60025829  1
  Pd  Pd175  1  0.00035964  0.59823845  0.39469490  1
  Pd  Pd176  1  0.59743205  -0.00449089  0.01069079  1
  Pd  Pd177  1  0.00327086  0.00226954  -0.00626264  1
  Pd  Pd178  1  0.19820413  -0.00603667  0.00072593  1
  Pd  Pd179  1  0.79106132  0.61429539  0.39136301  1
  Pd  Pd180  1  -0.00358243  0.59246849  0.80080330  1
  Pd  Pd181  1  -0.00136593  0.79021701  0.59490431  1
  Pd  Pd182  1  0.39513626  -0.01022975  0.59904231  1
  Pd  Pd183  1  0.79768573  0.19719489  0.79373413  1
  Pd  Pd184  1  0.40153632  0.59802970  0.79341258  1
  Pd  Pd185  1  0.39744349  0.58935749  0.40823301  1
  Pd  Pd186  1  -0.00468748  0.41331942  0.79804344  1
  Pd  Pd187  1  0.20537100  0.00874958  0.80424706  1
  Pd  Pd188  1  0.39171407  0.79443298  0.00982391  1
  Pd  Pd189  1  0.60241132  0.60628040  0.40998044  1
  Pd  Pd190  1  0.00597424  0.79486934  0.79990043  1
  Pd  Pd191  1  0.81275187  0.61592130  0.00752073  1
  Pd  Pd192  1  0.00194605  0.20210012  0.60465330  1
  Pd  Pd193  1  0.01288212  0.80851489  0.21012435  1
  Pd  Pd194  1  0.80702464  -0.00987046  0.40611043  1
  Pd  Pd195  1  0.60093779  0.80245878  0.39162123  1
  Pd  Pd196  1  0.59159416  0.20245052  -0.00754255  1
  Pd  Pd197  1  -0.00528023  0.59140252  0.60608850  1
  Pd  Pd198  1  0.59250444  0.39973583  0.39557687  1
  Pd  Pd199  1  0.79441373  0.78815156  0.20070563  1
  Rh  Rh200  1  0.20056497  0.00168266  0.18977450  1
  Rh  Rh201  1  0.40201951  0.20602479  0.60645401  1
  Rh  Rh202  1  0.19373048  0.59460514  0.00251064  1
  Rh  Rh203  1  -0.00055166  0.19537592  0.80183954  1
  Rh  Rh204  1  0.60060344  0.19421858  0.40897094  1
  Rh  Rh205  1  0.79112095  0.01226781  0.18878852  1
  Rh  Rh206  1  0.60799069  0.19891868  0.19955631  1
  Rh  Rh207  1  0.21133349  0.60542188  0.78791424  1
  Rh  Rh208  1  0.21341809  0.40374544  0.80019866  1
  Rh  Rh209  1  0.60162726  -0.00019330  0.19644121  1
  Rh  Rh210  1  0.20467530  0.38942248  0.19412689  1
  Rh  Rh211  1  0.39851528  0.00504152  -0.00603182  1
  Rh  Rh212  1  0.59300568  -0.00514655  0.39945795  1
  Rh  Rh213  1  -0.00196280  0.00305951  0.59678776  1
  Rh  Rh214  1  0.40463648  0.81225259  0.41069186  1
  Rh  Rh215  1  0.58855926  0.58834468  0.00414811  1
  Rh  Rh216  1  0.59530066  0.80403982  0.20257206  1
  Rh  Rh217  1  0.00219326  -0.00457152  0.20690327  1
  Rh  Rh218  1  0.39020221  0.19456547  0.20805482  1
  Rh  Rh219  1  0.40788883  0.80353654  0.79899369  1
  Rh  Rh220  1  0.78868217  0.80543413  0.81035661  1
  Rh  Rh221  1  -0.00392238  0.40373032  0.20686856  1
  Rh  Rh222  1  0.60361666  0.00465687  0.59914400  1
  Rh  Rh223  1  0.60583489  0.80843411  -0.00220174  1
  Rh  Rh224  1  -0.00062155  0.19650081  0.20327441  1
  Rh  Rh225  1  0.79236229  0.59675673  0.79136904  1
  Rh  Rh226  1  0.60522828  0.39556165  0.60215313  1
  Rh  Rh227  1  0.79625491  -0.00342739  0.00286715  1
  Rh  Rh228  1  0.60430903  0.58937304  0.19541439  1
  Rh  Rh229  1  0.20652938  0.60857465  0.60155223  1
  Rh  Rh230  1  0.20452006  0.59308464  0.39595097  1
  Rh  Rh231  1  0.40968553  0.18834894  0.79900545  1
  Rh  Rh232  1  0.19104575  0.80471786  0.39577924  1
  Rh  Rh233  1  0.79609007  0.19797252  0.39870178  1
  Rh  Rh234  1  0.39701125  0.80461667  0.59294385  1
  Rh  Rh235  1  0.20218571  0.00047700  0.41113504  1
  Rh  Rh236  1  -0.00585039  0.59940596  0.19789201  1
  Rh  Rh237  1  0.19967610  0.19801238  0.78892991  1
  Rh  Rh238  1  0.60210820  0.79508408  0.60877477  1
  Rh  Rh239  1  0.59274701  -0.00380915  0.79654744  1
  Rh  Rh240  1  0.60316105  0.61024584  0.79114260  1
  Rh  Rh241  1  0.40162475  0.59571681  0.59810405  1
  Rh  Rh242  1  0.40658969  0.19739197  -0.00325491  1
  Rh  Rh243  1  0.80173828  0.39733595  0.39471823  1
  Rh  Rh244  1  0.80322723  0.79236057  0.59340883  1
  Rh  Rh245  1  -0.00185625  -0.00022371  0.80433487  1
  Rh  Rh246  1  0.79388006  0.40304100  0.80666048  1
  Rh  Rh247  1  0.60600631  0.60739887  0.60046536  1
  Rh  Rh248  1  0.00221266  0.79301713  -0.00759740  1
  Rh  Rh249  1  0.00312422  0.19985131  0.39633982  1
