# generated using pymatgen
data_ZrScNbPdRh
_symmetry_space_group_name_H-M   'P 1'
_cell_length_a   16.55963676
_cell_length_b   16.55851031
_cell_length_c   16.55797660
_cell_angle_alpha   90.03326421
_cell_angle_beta   89.98737541
_cell_angle_gamma   89.99713155
_symmetry_Int_Tables_number   1
_chemical_formula_structural   ZrScNbPdRh
_chemical_formula_sum   'Zr50 Sc50 Nb50 Pd50 Rh50'
_cell_volume   4540.24458683
_cell_formula_units_Z   50
loop_
 _symmetry_equiv_pos_site_id
 _symmetry_equiv_pos_as_xyz
  1  'x, y, z'
loop_
 _atom_site_type_symbol
 _atom_site_label
 _atom_site_symmetry_multiplicity
 _atom_site_fract_x
 _atom_site_fract_y
 _atom_site_fract_z
 _atom_site_occupancy
  Zr  Zr0  1  0.09602102  0.91079188  0.09929946  1
  Zr  Zr1  1  0.90419433  0.10343525  0.69533072  1
  Zr  Zr2  1  0.70364099  0.90419796  0.69788622  1
  Zr  Zr3  1  0.70155270  0.49822309  0.29654035  1
  Zr  Zr4  1  0.50128815  0.49367807  0.69285001  1
  Zr  Zr5  1  0.49943738  0.70031093  0.68269653  1
  Zr  Zr6  1  0.10482676  0.68825970  0.90225524  1
  Zr  Zr7  1  0.10571956  0.29716669  0.29772555  1
  Zr  Zr8  1  0.51349746  0.29891635  0.69714067  1
  Zr  Zr9  1  0.09531379  0.10308936  0.50648067  1
  Zr  Zr10  1  0.09929390  0.50405156  0.09334055  1
  Zr  Zr11  1  0.10273265  0.49144201  0.89661680  1
  Zr  Zr12  1  0.70113437  0.89908030  0.10079981  1
  Zr  Zr13  1  0.30289869  0.90449711  0.31496569  1
  Zr  Zr14  1  0.30127978  0.70749708  0.89362084  1
  Zr  Zr15  1  0.50002334  0.70243150  0.90441515  1
  Zr  Zr16  1  0.69303023  0.29692057  0.30177747  1
  Zr  Zr17  1  0.89712935  0.49918728  0.10199851  1
  Zr  Zr18  1  0.29022372  0.49536228  0.49999618  1
  Zr  Zr19  1  0.10332277  0.29689651  0.10213590  1
  Zr  Zr20  1  0.50377464  0.30026454  0.30002557  1
  Zr  Zr21  1  0.90524621  0.89746726  0.70061101  1
  Zr  Zr22  1  0.90195238  0.90443893  0.89503954  1
  Zr  Zr23  1  0.29923448  0.30034833  0.09699030  1
  Zr  Zr24  1  0.90542444  0.10162730  0.10280611  1
  Zr  Zr25  1  0.30714981  0.69758968  0.10142740  1
  Zr  Zr26  1  0.32204465  0.29755484  0.70116861  1
  Zr  Zr27  1  0.10226693  0.10254309  0.10634400  1
  Zr  Zr28  1  0.50614737  0.50252801  0.90321556  1
  Zr  Zr29  1  0.89918994  0.49477415  0.89811506  1
  Zr  Zr30  1  0.50593416  0.87978606  0.10051022  1
  Zr  Zr31  1  0.30046872  0.29841819  0.30558152  1
  Zr  Zr32  1  0.69445991  0.70390373  0.69518391  1
  Zr  Zr33  1  0.69592863  0.29632782  0.49933356  1
  Zr  Zr34  1  0.70165901  0.09562864  0.50334797  1
  Zr  Zr35  1  0.49499890  0.68855379  0.09250318  1
  Zr  Zr36  1  0.89218509  0.09861408  0.49819774  1
  Zr  Zr37  1  0.10083863  0.69839921  0.48954079  1
  Zr  Zr38  1  0.30708112  0.49936351  0.09856774  1
  Zr  Zr39  1  0.31002384  0.09147846  0.90355718  1
  Zr  Zr40  1  0.09252106  0.90520120  0.69775492  1
  Zr  Zr41  1  0.09214874  0.09869307  0.91422364  1
  Zr  Zr42  1  0.69891465  0.69754340  0.49571089  1
  Zr  Zr43  1  0.90118669  0.30212149  0.29867130  1
  Zr  Zr44  1  0.48550150  0.88558468  0.50151430  1
  Zr  Zr45  1  0.30160867  0.30195328  0.90533482  1
  Zr  Zr46  1  0.31359866  0.71333933  0.50233036  1
  Zr  Zr47  1  0.11294858  0.49925378  0.69390663  1
  Zr  Zr48  1  0.29600151  0.69581809  0.30411371  1
  Zr  Zr49  1  0.89301376  0.09724213  0.30099732  1
  Sc  Sc50  1  0.69199446  0.70087086  0.10306267  1
  Sc  Sc51  1  0.89329884  0.10769927  0.90404693  1
  Sc  Sc52  1  0.69374033  0.48598453  0.70104491  1
  Sc  Sc53  1  0.09409811  0.90476666  0.30062175  1
  Sc  Sc54  1  0.90410591  0.69157393  0.10894661  1
  Sc  Sc55  1  0.69619300  0.09888379  0.90153462  1
  Sc  Sc56  1  0.49648138  0.30274049  0.49998730  1
  Sc  Sc57  1  0.70238728  0.10124240  0.09427999  1
  Sc  Sc58  1  0.69661785  0.50109382  0.89928341  1
  Sc  Sc59  1  0.29803943  0.09929316  0.49041865  1
  Sc  Sc60  1  0.11070614  0.51082495  0.31062086  1
  Sc  Sc61  1  0.49386321  0.90111941  0.29887583  1
  Sc  Sc62  1  0.50638869  0.89529553  0.69939124  1
  Sc  Sc63  1  0.10605678  0.10173103  0.30274922  1
  Sc  Sc64  1  0.68837324  0.10015031  0.69980869  1
  Sc  Sc65  1  0.89967127  0.69973251  0.89689174  1
  Sc  Sc66  1  0.90233390  0.70037762  0.48634052  1
  Sc  Sc67  1  0.49746382  0.29837374  0.90167038  1
  Sc  Sc68  1  0.91036257  0.30141471  0.10680493  1
  Sc  Sc69  1  0.70020228  0.90631563  0.50035221  1
  Sc  Sc70  1  0.49729958  0.09821265  0.30366675  1
  Sc  Sc71  1  0.69669836  0.09825296  0.31009341  1
  Sc  Sc72  1  0.50550361  0.10523973  0.08918388  1
  Sc  Sc73  1  0.89702486  0.89898712  0.30327838  1
  Sc  Sc74  1  0.10130656  0.70467439  0.69700954  1
  Sc  Sc75  1  0.90243115  0.70095739  0.29996216  1
  Sc  Sc76  1  0.09433425  0.90461711  0.49902588  1
  Sc  Sc77  1  0.29116474  0.49249642  0.89444897  1
  Sc  Sc78  1  0.90074387  0.90831608  0.11546778  1
  Sc  Sc79  1  0.30575869  0.29730682  0.49279633  1
  Sc  Sc80  1  0.69073725  0.50587840  0.49215567  1
  Sc  Sc81  1  0.09351787  0.09478831  0.70273696  1
  Sc  Sc82  1  0.68577312  0.29993090  0.10730372  1
  Sc  Sc83  1  0.30419953  0.91169839  0.10057322  1
  Sc  Sc84  1  0.69588516  0.69685490  0.90117968  1
  Sc  Sc85  1  0.70575829  0.89610270  0.30006007  1
  Sc  Sc86  1  0.29962493  0.09858819  0.30318788  1
  Sc  Sc87  1  0.30267367  0.49845540  0.30329588  1
  Sc  Sc88  1  0.50772902  0.49732097  0.30346608  1
  Sc  Sc89  1  0.69728613  0.90256096  0.89523293  1
  Sc  Sc90  1  0.49532870  0.89937600  0.90355677  1
  Sc  Sc91  1  0.49981145  0.69916908  0.28452060  1
  Sc  Sc92  1  0.89728882  0.50984942  0.29651735  1
  Sc  Sc93  1  0.70765350  0.69469864  0.30002810  1
  Sc  Sc94  1  0.49404251  0.11139499  0.70136475  1
  Sc  Sc95  1  0.09849622  0.90780660  0.89679569  1
  Sc  Sc96  1  0.10879545  0.30450995  0.50497659  1
  Sc  Sc97  1  0.49584190  0.10039010  0.50257381  1
  Sc  Sc98  1  0.08365382  0.29623467  0.69797023  1
  Sc  Sc99  1  0.70246257  0.29531619  0.88898810  1
  Nb  Nb100  1  0.90151578  0.49792036  0.50068330  1
  Nb  Nb101  1  0.69942271  0.49851816  0.09725478  1
  Nb  Nb102  1  0.29224537  0.90332590  0.71163935  1
  Nb  Nb103  1  0.09966117  0.70404379  0.29496487  1
  Nb  Nb104  1  0.29980165  0.10348967  0.09885124  1
  Nb  Nb105  1  0.50005210  0.10517596  0.89808497  1
  Nb  Nb106  1  0.90410070  0.70053081  0.69509857  1
  Nb  Nb107  1  0.50720761  0.69520301  0.50175746  1
  Nb  Nb108  1  0.30055776  0.50506709  0.70046066  1
  Nb  Nb109  1  0.89542789  0.90003696  0.50411411  1
  Nb  Nb110  1  0.89847639  0.30577789  0.88691156  1
  Nb  Nb111  1  0.10188454  0.70354220  0.10164846  1
  Nb  Nb112  1  0.29874932  0.89839673  0.89838891  1
  Nb  Nb113  1  0.88944929  0.30782086  0.70002735  1
  Nb  Nb114  1  0.89902324  0.49080464  0.69482816  1
  Nb  Nb115  1  0.29814276  0.70087164  0.70113031  1
  Nb  Nb116  1  0.29905001  0.90129514  0.50281836  1
  Nb  Nb117  1  0.50290660  0.50627435  0.49659810  1
  Nb  Nb118  1  0.10259833  0.29984025  0.89985029  1
  Nb  Nb119  1  0.29960805  0.10003222  0.70575241  1
  Nb  Nb120  1  0.90297592  0.30446713  0.50802513  1
  Nb  Nb121  1  0.50458237  0.49496872  0.09531642  1
  Nb  Nb122  1  0.69827387  0.29928616  0.69860284  1
  Nb  Nb123  1  0.49761227  0.30179906  0.10125076  1
  Nb  Nb124  1  0.09785319  0.50000709  0.50116687  1
  Nb  Nb125  1  0.80079528  0.20946471  0.60359646  1
  Nb  Nb126  1  -0.00359887  0.59446660  0.59895585  1
  Nb  Nb127  1  0.19885285  0.80321802  0.00349775  1
  Nb  Nb128  1  0.80674085  0.79672278  0.60008879  1
  Nb  Nb129  1  0.20100957  0.19917329  0.80197017  1
  Nb  Nb130  1  0.19586008  0.79906774  0.19840758  1
  Nb  Nb131  1  0.80557160  0.39855160  0.40479598  1
  Nb  Nb132  1  0.39678195  0.60062066  0.79073911  1
  Nb  Nb133  1  0.80065225  0.39685049  0.00044691  1
  Nb  Nb134  1  0.59582727  0.79414571  0.40199162  1
  Nb  Nb135  1  -0.00414167  0.59305533  0.78957712  1
  Nb  Nb136  1  0.38569253  -0.00390503  0.60771680  1
  Nb  Nb137  1  0.79749855  0.20082487  0.20361834  1
  Nb  Nb138  1  0.80635508  0.80198536  0.00239190  1
  Nb  Nb139  1  -0.00153961  0.40232749  0.40627294  1
  Nb  Nb140  1  0.80580673  0.59724140  0.78728891  1
  Nb  Nb141  1  0.00237793  0.79920683  0.00516595  1
  Nb  Nb142  1  0.40051675  0.20351479  0.19260908  1
  Nb  Nb143  1  0.60000529  -0.00266858  0.19646284  1
  Nb  Nb144  1  0.20725890  0.80793684  0.60263496  1
  Nb  Nb145  1  0.80672747  0.59777845  0.60223974  1
  Nb  Nb146  1  0.40716817  0.39649144  0.19467754  1
  Nb  Nb147  1  -0.00491458  0.20769776  0.40564814  1
  Nb  Nb148  1  0.20827136  0.19502358  0.61138948  1
  Nb  Nb149  1  0.40659774  0.60226680  0.40717029  1
  Pd  Pd150  1  0.00168662  0.19899460  0.80578562  1
  Pd  Pd151  1  0.40664624  0.40724609  0.80630861  1
  Pd  Pd152  1  0.80002607  0.01117096  0.79777097  1
  Pd  Pd153  1  -0.00852915  0.21181446  -0.00481549  1
  Pd  Pd154  1  0.79468971  0.19406000  0.79131668  1
  Pd  Pd155  1  -0.00289173  0.39152028  -0.00155261  1
  Pd  Pd156  1  -0.00642729  0.60450775  -0.00429179  1
  Pd  Pd157  1  0.78730604  0.40319282  0.59159762  1
  Pd  Pd158  1  0.59103320  0.00380512  0.80000185  1
  Pd  Pd159  1  0.20107744  0.38405168  0.78640177  1
  Pd  Pd160  1  0.79793803  0.79242206  0.80149700  1
  Pd  Pd161  1  0.79651059  0.60193822  -0.00296390  1
  Pd  Pd162  1  0.79506124  0.39287681  0.19733415  1
  Pd  Pd163  1  -0.00146915  0.80462475  0.39699604  1
  Pd  Pd164  1  0.60083288  0.59631728  0.19762544  1
  Pd  Pd165  1  0.41026097  -0.00346567  0.79475963  1
  Pd  Pd166  1  0.80368944  -0.00549930  -0.00010741  1
  Pd  Pd167  1  0.38903505  0.80505622  0.20382847  1
  Pd  Pd168  1  0.19937186  0.61267862  0.59363218  1
  Pd  Pd169  1  0.41064458  0.01070723  0.19078551  1
  Pd  Pd170  1  0.19953126  0.59989184  0.19856950  1
  Pd  Pd171  1  0.20760203  0.38472523  0.60915955  1
  Pd  Pd172  1  0.00415834  0.40242087  0.79327103  1
  Pd  Pd173  1  0.01183483  0.41427396  0.21205808  1
  Pd  Pd174  1  0.40770945  0.79698201  0.79407993  1
  Pd  Pd175  1  0.20192674  0.00246385  0.59723387  1
  Pd  Pd176  1  0.59454181  -0.00452518  0.00193361  1
  Pd  Pd177  1  0.60825542  0.39155841  -0.00708386  1
  Pd  Pd178  1  0.80332225  0.79233041  0.19461800  1
  Pd  Pd179  1  0.58451642  -0.00128129  0.59865031  1
  Pd  Pd180  1  -0.00203615  0.00612980  0.39911883  1
  Pd  Pd181  1  0.60289436  0.20660805  -0.00586530  1
  Pd  Pd182  1  0.20313977  0.40783471  0.20078433  1
  Pd  Pd183  1  0.59766704  0.59960749  0.79172354  1
  Pd  Pd184  1  0.19399998  0.80750904  0.40069327  1
  Pd  Pd185  1  0.00802737  0.79119876  0.80860499  1
  Pd  Pd186  1  0.19325604  0.00953403  0.80898393  1
  Pd  Pd187  1  0.20397701  -0.00320490  0.20620787  1
  Pd  Pd188  1  0.20253149  0.19628566  -0.00565001  1
  Pd  Pd189  1  0.18866811  0.80219047  0.80128634  1
  Pd  Pd190  1  0.40016648  0.40361008  0.59084818  1
  Pd  Pd191  1  0.59713031  0.80115820  0.80471748  1
  Pd  Pd192  1  0.40910198  -0.00392395  0.00624987  1
  Pd  Pd193  1  0.21097582  0.60096974  -0.00039824  1
  Pd  Pd194  1  0.39551681  0.59335383  0.59699277  1
  Pd  Pd195  1  0.80125705  0.21397228  0.00975489  1
  Pd  Pd196  1  0.59153903  0.19487880  0.40610867  1
  Pd  Pd197  1  0.39181980  0.59262554  -0.01583620  1
  Pd  Pd198  1  0.59405812  -0.01090486  0.39770306  1
  Pd  Pd199  1  0.00677489  0.59588284  0.20648771  1
  Rh  Rh200  1  0.39192682  0.18943328  0.59218751  1
  Rh  Rh201  1  0.60982030  0.79938046  -0.00693449  1
  Rh  Rh202  1  0.40173582  0.19754161  0.00172661  1
  Rh  Rh203  1  0.21105006  0.19485776  0.20006480  1
  Rh  Rh204  1  0.80464841  0.59227175  0.40192200  1
  Rh  Rh205  1  0.78731409  0.01219557  0.20360038  1
  Rh  Rh206  1  0.79550836  0.60227058  0.19503106  1
  Rh  Rh207  1  0.40352076  0.40516208  -0.00074067  1
  Rh  Rh208  1  0.60339126  0.39981992  0.40464222  1
  Rh  Rh209  1  0.80427237  -0.00000560  0.60656732  1
  Rh  Rh210  1  0.59840415  0.19887621  0.80367361  1
  Rh  Rh211  1  0.59240202  0.60871312  0.38901442  1
  Rh  Rh212  1  0.60831362  0.59099317  0.60492572  1
  Rh  Rh213  1  0.00567030  0.40289703  0.59858522  1
  Rh  Rh214  1  0.41110616  0.78885386  0.38860093  1
  Rh  Rh215  1  0.60540038  0.60004086  0.00569597  1
  Rh  Rh216  1  0.40339563  0.41029508  0.39884304  1
  Rh  Rh217  1  0.19067234  0.19882578  0.41034112  1
  Rh  Rh218  1  0.40729869  0.58308539  0.20709514  1
  Rh  Rh219  1  0.79230191  0.40424631  0.80527793  1
  Rh  Rh220  1  0.60449433  0.19841802  0.59700810  1
  Rh  Rh221  1  0.59854554  0.39399649  0.80451711  1
  Rh  Rh222  1  -0.00351284  0.20300209  0.59682537  1
  Rh  Rh223  1  0.60064436  0.40147008  0.59086652  1
  Rh  Rh224  1  0.38955021  0.81192958  0.61751015  1
  Rh  Rh225  1  0.79855725  -0.00994260  0.39974469  1
  Rh  Rh226  1  0.39923084  0.19925676  0.81065510  1
  Rh  Rh227  1  -0.00519662  0.01162153  0.80529447  1
  Rh  Rh228  1  0.59611077  0.40731375  0.19729282  1
  Rh  Rh229  1  0.20683402  -0.00280627  -0.00413253  1
  Rh  Rh230  1  0.79469249  0.80263467  0.40796970  1
  Rh  Rh231  1  0.00065198  0.59623989  0.39915509  1
  Rh  Rh232  1  0.59866918  0.18388041  0.19910996  1
  Rh  Rh233  1  0.19415852  0.39745414  0.39914183  1
  Rh  Rh234  1  -0.00687866  -0.00327830  0.59682118  1
  Rh  Rh235  1  0.20197697  0.59984851  0.79744737  1
  Rh  Rh236  1  0.00210474  0.00613816  0.20888581  1
  Rh  Rh237  1  0.80520168  0.20991705  0.40231759  1
  Rh  Rh238  1  0.00161774  0.79524952  0.58915503  1
  Rh  Rh239  1  -0.01104901  -0.00428660  0.00180666  1
  Rh  Rh240  1  0.20841789  0.60387671  0.40815725  1
  Rh  Rh241  1  0.19572392  -0.00057185  0.40285390  1
  Rh  Rh242  1  0.00431607  0.80164384  0.19898729  1
  Rh  Rh243  1  0.38851736  0.80721399  0.00135078  1
  Rh  Rh244  1  0.60426653  0.80578601  0.21227388  1
  Rh  Rh245  1  -0.00314221  0.19240004  0.21085427  1
  Rh  Rh246  1  0.40316091  0.19891473  0.39242422  1
  Rh  Rh247  1  0.61254764  0.80794030  0.58941308  1
  Rh  Rh248  1  0.19393867  0.39983285  0.00487216  1
  Rh  Rh249  1  0.40276975  0.00215653  0.41115866  1
