# generated using pymatgen
data_ZrScNbPdRh
_symmetry_space_group_name_H-M   'P 1'
_cell_length_a   16.55548660
_cell_length_b   16.55696718
_cell_length_c   16.55723828
_cell_angle_alpha   90.01445230
_cell_angle_beta   89.98972400
_cell_angle_gamma   90.01059071
_symmetry_Int_Tables_number   1
_chemical_formula_structural   ZrScNbPdRh
_chemical_formula_sum   'Zr50 Sc50 Nb50 Pd50 Rh50'
_cell_volume   4538.48191189
_cell_formula_units_Z   50
loop_
 _symmetry_equiv_pos_site_id
 _symmetry_equiv_pos_as_xyz
  1  'x, y, z'
loop_
 _atom_site_type_symbol
 _atom_site_label
 _atom_site_symmetry_multiplicity
 _atom_site_fract_x
 _atom_site_fract_y
 _atom_site_fract_z
 _atom_site_occupancy
  Zr  Zr0  1  0.50218451  0.30474699  0.30294910  1
  Zr  Zr1  1  0.90097461  0.31184053  0.70391716  1
  Zr  Zr2  1  0.49386491  0.70336407  0.09645326  1
  Zr  Zr3  1  0.90216673  0.89362342  0.09449931  1
  Zr  Zr4  1  0.49509326  0.09835616  0.10333912  1
  Zr  Zr5  1  0.30256585  0.50326258  0.69954661  1
  Zr  Zr6  1  0.70158194  0.30185183  0.10346931  1
  Zr  Zr7  1  0.29613609  0.30360235  0.10215324  1
  Zr  Zr8  1  0.29989151  0.09544319  0.70730465  1
  Zr  Zr9  1  0.29258952  0.29914403  0.68145470  1
  Zr  Zr10  1  0.90303269  0.10024561  0.30135142  1
  Zr  Zr11  1  0.70319598  0.68075162  0.09808083  1
  Zr  Zr12  1  0.09723712  0.09265468  0.30049951  1
  Zr  Zr13  1  0.69720438  0.50270302  0.29628563  1
  Zr  Zr14  1  0.09855884  0.89437476  0.10657854  1
  Zr  Zr15  1  0.50034954  0.50313891  0.69460634  1
  Zr  Zr16  1  0.49805881  0.89364276  0.70192852  1
  Zr  Zr17  1  0.69986899  0.50312784  0.49677583  1
  Zr  Zr18  1  0.89987166  0.30647398  0.09248130  1
  Zr  Zr19  1  0.29102329  0.09664506  0.90540943  1
  Zr  Zr20  1  0.89629581  0.70442724  0.69824452  1
  Zr  Zr21  1  0.29511610  0.09265031  0.30190365  1
  Zr  Zr22  1  0.10516698  0.50055703  0.90678123  1
  Zr  Zr23  1  0.10909877  0.10232994  0.09241123  1
  Zr  Zr24  1  0.68520121  0.29626951  0.88698075  1
  Zr  Zr25  1  0.69911233  0.49649715  0.10109253  1
  Zr  Zr26  1  0.69281178  0.88437648  0.49558627  1
  Zr  Zr27  1  0.88430766  0.50867309  0.09351824  1
  Zr  Zr28  1  0.70329026  0.89058272  0.30136168  1
  Zr  Zr29  1  0.50471606  0.10609484  0.89897864  1
  Zr  Zr30  1  0.09885961  0.09702790  0.49344525  1
  Zr  Zr31  1  0.90036695  0.49173886  0.90021245  1
  Zr  Zr32  1  0.89805812  0.10201170  0.10891326  1
  Zr  Zr33  1  0.10388492  0.89559957  0.89939644  1
  Zr  Zr34  1  0.49117959  0.29689353  0.09974609  1
  Zr  Zr35  1  0.89314793  0.89549103  0.89668226  1
  Zr  Zr36  1  0.30388704  0.31165811  0.91106433  1
  Zr  Zr37  1  0.29909193  0.70024996  0.70058928  1
  Zr  Zr38  1  0.10177016  0.50149480  0.69397465  1
  Zr  Zr39  1  0.28869474  0.50085991  0.09498005  1
  Zr  Zr40  1  0.89577002  0.10058677  0.49910660  1
  Zr  Zr41  1  0.90913617  0.90208102  0.29187340  1
  Zr  Zr42  1  0.10060693  0.70243104  0.69544472  1
  Zr  Zr43  1  0.29900941  0.89943968  0.70025863  1
  Zr  Zr44  1  0.11166034  0.90197367  0.30284983  1
  Zr  Zr45  1  0.49451762  0.89132535  0.30151693  1
  Zr  Zr46  1  0.70079215  0.10598191  0.29759753  1
  Zr  Zr47  1  0.29652023  0.69554418  0.90779945  1
  Zr  Zr48  1  0.89828043  0.08990683  0.69691455  1
  Zr  Zr49  1  0.49517367  0.09841438  0.29594851  1
  Sc  Sc50  1  0.70205014  0.50750493  0.69918666  1
  Sc  Sc51  1  0.91014555  0.09400046  0.89108536  1
  Sc  Sc52  1  0.49769976  0.89629329  0.10106375  1
  Sc  Sc53  1  0.50336854  0.89257668  0.90643502  1
  Sc  Sc54  1  0.90205924  0.70103397  0.31187785  1
  Sc  Sc55  1  0.29905569  0.69494166  0.10540097  1
  Sc  Sc56  1  0.30390847  0.31175831  0.29569940  1
  Sc  Sc57  1  0.09394922  0.30470265  0.70005883  1
  Sc  Sc58  1  0.09532542  0.30649743  0.29698550  1
  Sc  Sc59  1  0.69890392  0.31100830  0.69690037  1
  Sc  Sc60  1  0.50717650  0.30485529  0.70332973  1
  Sc  Sc61  1  0.10138506  0.89686755  0.69922644  1
  Sc  Sc62  1  0.29696081  0.70267978  0.29694502  1
  Sc  Sc63  1  0.90097764  0.89080393  0.50422616  1
  Sc  Sc64  1  0.10128800  0.49744331  0.10423510  1
  Sc  Sc65  1  0.10440125  0.69493127  0.30989996  1
  Sc  Sc66  1  0.70298499  0.90326250  0.08866374  1
  Sc  Sc67  1  0.29813226  0.88421143  0.10593903  1
  Sc  Sc68  1  0.50771311  0.71213264  0.50159965  1
  Sc  Sc69  1  0.10824476  0.29821620  0.50647096  1
  Sc  Sc70  1  0.09733484  0.08988133  0.70034299  1
  Sc  Sc71  1  0.50981172  0.69826631  0.70026328  1
  Sc  Sc72  1  0.90281236  0.89937074  0.70243359  1
  Sc  Sc73  1  0.71012946  0.88652000  0.70640771  1
  Sc  Sc74  1  0.09965895  0.50530957  0.30154951  1
  Sc  Sc75  1  0.69378814  0.70419965  0.89305897  1
  Sc  Sc76  1  0.70086493  0.69271741  0.31274792  1
  Sc  Sc77  1  0.29592409  0.70385428  0.49763845  1
  Sc  Sc78  1  0.09661486  0.30523340  0.09558704  1
  Sc  Sc79  1  0.49459601  0.09948815  0.70405501  1
  Sc  Sc80  1  0.70031766  0.50658617  0.89286813  1
  Sc  Sc81  1  0.28673051  0.11363922  0.50904119  1
  Sc  Sc82  1  0.90191768  0.49599503  0.30745196  1
  Sc  Sc83  1  0.50423958  0.51274419  0.10850251  1
  Sc  Sc84  1  0.89221476  0.49692576  0.70036733  1
  Sc  Sc85  1  0.69814587  0.29918199  0.49854453  1
  Sc  Sc86  1  0.29435739  0.50968109  0.29036323  1
  Sc  Sc87  1  0.70088602  0.10839907  0.50236645  1
  Sc  Sc88  1  0.29804315  0.90089570  0.89575273  1
  Sc  Sc89  1  0.50835884  0.49765873  0.30088209  1
  Sc  Sc90  1  0.90186392  0.49956941  0.50398777  1
  Sc  Sc91  1  0.70262681  0.10252223  0.69789893  1
  Sc  Sc92  1  0.10284456  0.70301355  0.09125095  1
  Sc  Sc93  1  0.89992649  0.29614494  0.29940476  1
  Sc  Sc94  1  0.70848737  0.69736257  0.50119533  1
  Sc  Sc95  1  0.69777108  0.30769238  0.30258245  1
  Sc  Sc96  1  0.50117035  0.31054199  0.50147362  1
  Sc  Sc97  1  0.30479010  0.50148720  0.51308913  1
  Sc  Sc98  1  0.69901998  0.09639210  0.09574181  1
  Sc  Sc99  1  0.50631790  0.11306278  0.49911492  1
  Nb  Nb100  1  0.70271156  0.90565475  0.89423511  1
  Nb  Nb101  1  0.49814480  0.70015371  0.90141499  1
  Nb  Nb102  1  0.10343922  0.10040926  0.90181310  1
  Nb  Nb103  1  0.09971483  0.70233339  0.89704463  1
  Nb  Nb104  1  0.89827326  0.30082420  0.50572983  1
  Nb  Nb105  1  0.70159256  0.09907883  0.89594681  1
  Nb  Nb106  1  0.10505491  0.51411866  0.49640733  1
  Nb  Nb107  1  0.30668340  0.89208624  0.49533529  1
  Nb  Nb108  1  0.11062613  0.89389036  0.49781292  1
  Nb  Nb109  1  0.09102868  0.29800125  0.89978222  1
  Nb  Nb110  1  0.09307452  0.69143003  0.49931280  1
  Nb  Nb111  1  0.90829566  0.69942282  0.91156297  1
  Nb  Nb112  1  0.29978663  0.49964614  0.89866347  1
  Nb  Nb113  1  0.91194711  0.69912769  0.50294725  1
  Nb  Nb114  1  0.49962899  0.30477299  0.89689455  1
  Nb  Nb115  1  0.90650201  0.30252425  0.89492239  1
  Nb  Nb116  1  0.89883049  0.69902538  0.09636262  1
  Nb  Nb117  1  0.30418459  0.10789094  0.10185309  1
  Nb  Nb118  1  0.29979777  0.30497384  0.49945149  1
  Nb  Nb119  1  0.49845079  0.89508169  0.50172747  1
  Nb  Nb120  1  0.29815277  0.89245305  0.31021588  1
  Nb  Nb121  1  0.69998529  0.69627875  0.70449450  1
  Nb  Nb122  1  0.49055237  0.49594356  0.88977819  1
  Nb  Nb123  1  0.49812091  0.69404646  0.29491296  1
  Nb  Nb124  1  0.50005446  0.50484878  0.49673294  1
  Nb  Nb125  1  0.20246507  0.39849489  0.80497393  1
  Nb  Nb126  1  0.00522174  -0.00086362  -0.00009998  1
  Nb  Nb127  1  0.40245335  0.79279677  0.80480145  1
  Nb  Nb128  1  0.40219499  -0.00376908  0.58907852  1
  Nb  Nb129  1  0.60583926  -0.00400430  0.80101033  1
  Nb  Nb130  1  0.39369638  0.20294599  0.40118272  1
  Nb  Nb131  1  0.39254151  0.20712583  0.80371248  1
  Nb  Nb132  1  0.00078012  0.60573981  0.80614435  1
  Nb  Nb133  1  0.59047629  0.40066680  -0.00763087  1
  Nb  Nb134  1  0.59617767  -0.00788267  0.59871371  1
  Nb  Nb135  1  0.59741609  -0.00326554  0.40365632  1
  Nb  Nb136  1  0.80155664  0.79062689  0.19498052  1
  Nb  Nb137  1  0.19692576  0.20560950  0.80766895  1
  Nb  Nb138  1  0.39603673  0.00344323  0.00385525  1
  Nb  Nb139  1  -0.00907813  0.60522820  0.19441568  1
  Nb  Nb140  1  0.20304614  0.40600648  0.40794802  1
  Nb  Nb141  1  -0.00778051  0.19945568  0.59749337  1
  Nb  Nb142  1  0.80210555  0.20198762  -0.01272766  1
  Nb  Nb143  1  0.39856726  0.00000307  0.40844508  1
  Nb  Nb144  1  0.60526744  0.79214672  0.19847360  1
  Nb  Nb145  1  0.40563043  0.60114621  0.40037214  1
  Nb  Nb146  1  0.20398267  0.19791054  0.19871501  1
  Nb  Nb147  1  0.79611690  -0.00271137  0.39976623  1
  Nb  Nb148  1  0.59572770  0.20028322  0.19920558  1
  Nb  Nb149  1  0.80480566  0.20315964  0.80364481  1
  Pd  Pd150  1  0.79931666  0.39668451  0.40209872  1
  Pd  Pd151  1  0.78799421  -0.01110838  0.59401039  1
  Pd  Pd152  1  0.60750543  0.79811281  0.00510350  1
  Pd  Pd153  1  -0.00767009  0.19323183  -0.00013793  1
  Pd  Pd154  1  -0.00897608  0.59592616  0.60862065  1
  Pd  Pd155  1  0.39318823  0.39216599  0.78723504  1
  Pd  Pd156  1  0.00932230  0.20114029  0.19797025  1
  Pd  Pd157  1  0.40271373  0.41350944  0.19608642  1
  Pd  Pd158  1  0.40858178  0.41530804  0.01023727  1
  Pd  Pd159  1  0.00920101  0.39942677  0.41029829  1
  Pd  Pd160  1  0.00604160  0.59549840  0.00373135  1
  Pd  Pd161  1  0.20440180  -0.01245354  0.00854541  1
  Pd  Pd162  1  0.60229659  0.40472849  0.59651471  1
  Pd  Pd163  1  0.40536592  0.61303447  0.59048557  1
  Pd  Pd164  1  0.80727366  0.39973025  0.20859039  1
  Pd  Pd165  1  0.80303944  0.20935908  0.61021905  1
  Pd  Pd166  1  -0.00565083  -0.01146251  0.40908833  1
  Pd  Pd167  1  0.40666242  0.19932932  0.59947359  1
  Pd  Pd168  1  0.00456041  0.39940035  0.59023646  1
  Pd  Pd169  1  0.39782837  0.19642594  -0.00774881  1
  Pd  Pd170  1  0.59289890  -0.00262280  -0.00457693  1
  Pd  Pd171  1  0.00149456  0.21084164  0.40638641  1
  Pd  Pd172  1  0.59353064  0.59077149  -0.01282835  1
  Pd  Pd173  1  0.40471720  0.60667834  0.79991660  1
  Pd  Pd174  1  0.79509827  -0.00826299  0.20150947  1
  Pd  Pd175  1  0.00266136  -0.00502310  0.59261336  1
  Pd  Pd176  1  -0.00803754  0.41095497  0.19522184  1
  Pd  Pd177  1  0.00090603  0.19517610  0.78902962  1
  Pd  Pd178  1  0.38878131  -0.01268295  0.19812214  1
  Pd  Pd179  1  0.59810573  0.19845684  0.60770328  1
  Pd  Pd180  1  0.80954753  0.59733630  0.40364837  1
  Pd  Pd181  1  0.19853631  0.79684300  0.59496579  1
  Pd  Pd182  1  0.79960184  0.79647296  0.59893260  1
  Pd  Pd183  1  -0.00289165  0.79807369  0.79876971  1
  Pd  Pd184  1  0.00148915  0.78639100  0.20464058  1
  Pd  Pd185  1  0.19554167  0.59642335  0.80066363  1
  Pd  Pd186  1  0.40072837  0.59321095  0.00194955  1
  Pd  Pd187  1  0.20571745  -0.00263951  0.59422035  1
  Pd  Pd188  1  0.60420819  0.60683339  0.59521171  1
  Pd  Pd189  1  0.00614937  0.80483964  0.40225338  1
  Pd  Pd190  1  0.60531188  0.20422431  0.00683393  1
  Pd  Pd191  1  0.20425087  0.21418049  0.38772587  1
  Pd  Pd192  1  0.80916441  0.60714285  0.80437839  1
  Pd  Pd193  1  0.81026400  0.01056517  -0.00577431  1
  Pd  Pd194  1  0.79878061  0.20245736  0.39781809  1
  Pd  Pd195  1  0.20834899  -0.00055299  0.19192762  1
  Pd  Pd196  1  0.39279519  0.40923575  0.40227718  1
  Pd  Pd197  1  0.78570421  0.39261101  -0.01432608  1
  Pd  Pd198  1  0.78933554  0.79192654  -0.00159907  1
  Pd  Pd199  1  0.60641166  -0.00514148  0.20216824  1
  Rh  Rh200  1  0.80800382  0.60480432  0.21269393  1
  Rh  Rh201  1  0.19536363  0.40777796  0.59622970  1
  Rh  Rh202  1  0.59772157  0.80193587  0.80038869  1
  Rh  Rh203  1  0.59209698  0.60298551  0.40423904  1
  Rh  Rh204  1  0.19879740  0.21103578  0.00119400  1
  Rh  Rh205  1  0.40101515  0.79264268  0.39673418  1
  Rh  Rh206  1  0.21282441  0.59468580  0.40577042  1
  Rh  Rh207  1  0.19825600  0.60335114  0.00256128  1
  Rh  Rh208  1  0.80328179  0.79069024  0.80684407  1
  Rh  Rh209  1  0.79383080  0.40470662  0.59514459  1
  Rh  Rh210  1  0.40716927  0.39921087  0.60187039  1
  Rh  Rh211  1  0.00033733  0.40494170  0.00312913  1
  Rh  Rh212  1  0.00388193  0.80558088  -0.00283814  1
  Rh  Rh213  1  0.60198841  0.60599355  0.20608182  1
  Rh  Rh214  1  0.59315930  0.79400121  0.39008219  1
  Rh  Rh215  1  0.19590251  0.79455387  0.20735812  1
  Rh  Rh216  1  0.00740557  0.80276084  0.59528451  1
  Rh  Rh217  1  0.18195129  0.19439286  0.61180252  1
  Rh  Rh218  1  0.79690501  0.60432591  -0.01456694  1
  Rh  Rh219  1  -0.00344870  0.59746211  0.39680441  1
  Rh  Rh220  1  0.18673026  0.60558542  0.19615738  1
  Rh  Rh221  1  0.19058475  0.00244055  0.79869932  1
  Rh  Rh222  1  0.59805891  0.19106168  0.78966531  1
  Rh  Rh223  1  0.19594092  0.39619372  0.20855907  1
  Rh  Rh224  1  0.39620894  0.20439747  0.21184634  1
  Rh  Rh225  1  0.40197992  0.79577890  0.20336354  1
  Rh  Rh226  1  0.39386494  0.80549115  -0.00766396  1
  Rh  Rh227  1  0.39712754  0.79869318  0.60901175  1
  Rh  Rh228  1  0.60437678  0.40465548  0.40633356  1
  Rh  Rh229  1  0.41414464  -0.00371575  0.81128219  1
  Rh  Rh230  1  0.01016946  0.41407808  0.80369674  1
  Rh  Rh231  1  0.19608469  0.79332195  0.40339437  1
  Rh  Rh232  1  0.80298284  0.60310168  0.59861790  1
  Rh  Rh233  1  0.79339655  0.39550765  0.80151709  1
  Rh  Rh234  1  0.79409591  0.00492984  0.79597814  1
  Rh  Rh235  1  0.20821711  -0.00504613  0.41139260  1
  Rh  Rh236  1  0.20274986  0.79700581  -0.00103590  1
  Rh  Rh237  1  0.59397678  0.39409086  0.18985248  1
  Rh  Rh238  1  0.59356192  0.19963819  0.39187409  1
  Rh  Rh239  1  0.59967823  0.41450498  0.80076473  1
  Rh  Rh240  1  0.81178291  0.80262165  0.39689721  1
  Rh  Rh241  1  0.00617019  -0.00776659  0.80779015  1
  Rh  Rh242  1  0.60958097  0.79742799  0.60971033  1
  Rh  Rh243  1  0.00575605  0.00457632  0.19121494  1
  Rh  Rh244  1  0.20734902  0.79727140  0.80216214  1
  Rh  Rh245  1  0.59386462  0.59905896  0.80088542  1
  Rh  Rh246  1  0.19239340  0.39635870  -0.00427391  1
  Rh  Rh247  1  0.39886779  0.59990041  0.20521079  1
  Rh  Rh248  1  0.79426461  0.20387165  0.19575673  1
  Rh  Rh249  1  0.20237005  0.60589813  0.59548506  1
