# generated using pymatgen
data_ZrScNbPdRh
_symmetry_space_group_name_H-M   'P 1'
_cell_length_a   16.55209873
_cell_length_b   16.55480971
_cell_length_c   16.55792711
_cell_angle_alpha   89.99287729
_cell_angle_beta   90.02644990
_cell_angle_gamma   90.00657709
_symmetry_Int_Tables_number   1
_chemical_formula_structural   ZrScNbPdRh
_chemical_formula_sum   'Zr50 Sc50 Nb50 Pd50 Rh50'
_cell_volume   4537.15039246
_cell_formula_units_Z   50
loop_
 _symmetry_equiv_pos_site_id
 _symmetry_equiv_pos_as_xyz
  1  'x, y, z'
loop_
 _atom_site_type_symbol
 _atom_site_label
 _atom_site_symmetry_multiplicity
 _atom_site_fract_x
 _atom_site_fract_y
 _atom_site_fract_z
 _atom_site_occupancy
  Zr  Zr0  1  0.49610038  0.10214957  0.70185401  1
  Zr  Zr1  1  0.50057599  0.49929968  0.50424848  1
  Zr  Zr2  1  0.30444709  0.90487541  0.30311416  1
  Zr  Zr3  1  0.70058063  0.69826704  0.30227055  1
  Zr  Zr4  1  0.09784194  0.88629513  0.70184956  1
  Zr  Zr5  1  0.69920411  0.49607104  0.10475333  1
  Zr  Zr6  1  0.90594094  0.10496488  0.90335776  1
  Zr  Zr7  1  0.30030947  0.30845963  0.29741982  1
  Zr  Zr8  1  0.89835315  0.49847928  0.69639189  1
  Zr  Zr9  1  0.29945486  0.11268300  0.30124752  1
  Zr  Zr10  1  0.70338728  0.30252883  0.30309397  1
  Zr  Zr11  1  0.89482609  0.69088405  0.29866187  1
  Zr  Zr12  1  0.10200953  0.49954848  0.30522874  1
  Zr  Zr13  1  0.09223332  0.69688034  0.29301618  1
  Zr  Zr14  1  0.09853422  0.89306519  0.10132927  1
  Zr  Zr15  1  0.90083057  0.48928590  0.09111683  1
  Zr  Zr16  1  0.10599901  0.49572608  0.69522847  1
  Zr  Zr17  1  0.69894333  0.69558530  0.49823208  1
  Zr  Zr18  1  0.50111803  0.69916022  0.69415996  1
  Zr  Zr19  1  0.68849080  0.70616242  0.70464696  1
  Zr  Zr20  1  0.91108866  0.70319440  0.09954062  1
  Zr  Zr21  1  0.69871680  0.10597975  0.70096333  1
  Zr  Zr22  1  0.29844714  0.90297257  0.09444359  1
  Zr  Zr23  1  0.89561591  0.30202762  0.90576770  1
  Zr  Zr24  1  0.09855645  0.90306594  0.49789785  1
  Zr  Zr25  1  0.30340845  0.29474910  0.48960613  1
  Zr  Zr26  1  0.70155953  0.90123658  0.49783646  1
  Zr  Zr27  1  0.50079389  0.70177660  0.50371825  1
  Zr  Zr28  1  0.09871204  0.71063470  0.50801853  1
  Zr  Zr29  1  0.90085144  0.90099738  0.09319920  1
  Zr  Zr30  1  0.49916543  0.90271336  0.90048337  1
  Zr  Zr31  1  0.50183222  0.30075110  0.09517123  1
  Zr  Zr32  1  0.09786439  0.09992777  0.89544752  1
  Zr  Zr33  1  0.09074716  0.50182147  0.90619853  1
  Zr  Zr34  1  0.10463708  0.10369162  0.49317009  1
  Zr  Zr35  1  0.09794065  0.10202527  0.30107491  1
  Zr  Zr36  1  0.70168985  0.50080713  0.68984999  1
  Zr  Zr37  1  0.69739560  0.30319955  0.09991446  1
  Zr  Zr38  1  0.70393109  0.69604489  0.10844482  1
  Zr  Zr39  1  0.90064648  0.89929333  0.89852537  1
  Zr  Zr40  1  0.89363480  0.29447349  0.70762893  1
  Zr  Zr41  1  0.69187473  0.29528608  0.89797878  1
  Zr  Zr42  1  0.28966501  0.49358518  0.49853775  1
  Zr  Zr43  1  0.09522846  0.49211696  0.49897964  1
  Zr  Zr44  1  0.29317735  0.09415137  0.90205970  1
  Zr  Zr45  1  0.09475464  0.49527075  0.09814938  1
  Zr  Zr46  1  0.29549209  0.70464518  0.10048790  1
  Zr  Zr47  1  0.29812689  0.69485479  0.29823953  1
  Zr  Zr48  1  0.50551599  0.70499554  0.88915095  1
  Zr  Zr49  1  0.29256377  0.29623675  0.09792624  1
  Sc  Sc50  1  0.50396380  0.70609955  0.30522063  1
  Sc  Sc51  1  0.90631931  0.90913453  0.29614639  1
  Sc  Sc52  1  0.09485366  0.29821730  0.29463277  1
  Sc  Sc53  1  0.69745383  0.48911041  0.89863545  1
  Sc  Sc54  1  0.30104286  0.70752601  0.50048274  1
  Sc  Sc55  1  0.50577429  0.90091116  0.30209346  1
  Sc  Sc56  1  0.50070132  0.30035162  0.50355289  1
  Sc  Sc57  1  0.29723252  0.89989875  0.49686950  1
  Sc  Sc58  1  0.49936247  0.91237398  0.10164898  1
  Sc  Sc59  1  0.89993234  0.10108105  0.48361330  1
  Sc  Sc60  1  0.70635948  0.09572864  0.49252194  1
  Sc  Sc61  1  0.90170645  0.30148275  0.48382150  1
  Sc  Sc62  1  0.49803343  0.89279256  0.49740319  1
  Sc  Sc63  1  0.29747548  0.48531815  0.90360447  1
  Sc  Sc64  1  0.50187426  0.10252918  0.90611708  1
  Sc  Sc65  1  0.10431871  0.29295000  0.90651990  1
  Sc  Sc66  1  0.29384578  0.70862675  0.69388843  1
  Sc  Sc67  1  0.50089408  0.48730618  0.89981253  1
  Sc  Sc68  1  0.50148636  0.89309249  0.70432021  1
  Sc  Sc69  1  0.30390663  0.29326415  0.90668874  1
  Sc  Sc70  1  0.30225152  0.49558072  0.11004012  1
  Sc  Sc71  1  0.89822530  0.69789220  0.49443429  1
  Sc  Sc72  1  0.49418742  0.48990437  0.29255991  1
  Sc  Sc73  1  0.69771000  0.89995082  0.30652788  1
  Sc  Sc74  1  0.10232777  0.10166744  0.08874459  1
  Sc  Sc75  1  0.09897317  0.90232994  0.30746659  1
  Sc  Sc76  1  0.69850357  0.49423752  0.49942726  1
  Sc  Sc77  1  0.90562223  0.08830882  0.09657905  1
  Sc  Sc78  1  0.50551054  0.50194801  0.69641688  1
  Sc  Sc79  1  0.10275567  0.29702167  0.70361761  1
  Sc  Sc80  1  0.30294537  0.10267961  0.70427764  1
  Sc  Sc81  1  0.69426265  0.30226990  0.69887302  1
  Sc  Sc82  1  0.50142764  0.70175616  0.10950999  1
  Sc  Sc83  1  0.49257253  0.11242281  0.51224535  1
  Sc  Sc84  1  0.09711504  0.29957438  0.09996454  1
  Sc  Sc85  1  0.70048055  0.09152937  0.29930059  1
  Sc  Sc86  1  0.70129849  0.50177045  0.29807380  1
  Sc  Sc87  1  0.69198298  0.09852903  0.90093399  1
  Sc  Sc88  1  0.89971341  0.50193373  0.49644580  1
  Sc  Sc89  1  0.49339897  0.30036098  0.29730906  1
  Sc  Sc90  1  0.91242704  0.71384532  0.70989156  1
  Sc  Sc91  1  0.29911184  0.10743763  0.50056560  1
  Sc  Sc92  1  0.90138461  0.90286685  0.49445366  1
  Sc  Sc93  1  0.70375570  0.90372113  0.89768776  1
  Sc  Sc94  1  0.89782739  0.10102256  0.71386639  1
  Sc  Sc95  1  0.30963356  0.10273183  0.09876706  1
  Sc  Sc96  1  0.30020658  0.89870003  0.90080677  1
  Sc  Sc97  1  0.30015912  0.90775298  0.70952747  1
  Sc  Sc98  1  0.29742175  0.29755172  0.71492570  1
  Sc  Sc99  1  0.90462562  0.49558403  0.30274950  1
  Nb  Nb100  1  0.10056976  0.30011155  0.49913089  1
  Nb  Nb101  1  0.49825377  0.09690295  0.29184128  1
  Nb  Nb102  1  0.51091110  0.10282117  0.10624340  1
  Nb  Nb103  1  0.70044683  0.69826463  0.90106385  1
  Nb  Nb104  1  0.69752452  0.09762823  0.09575870  1
  Nb  Nb105  1  0.90140954  0.50233078  0.90286672  1
  Nb  Nb106  1  0.70756614  0.90611049  0.09248945  1
  Nb  Nb107  1  0.90070996  0.10929350  0.30064270  1
  Nb  Nb108  1  0.90212714  0.28927940  0.29549239  1
  Nb  Nb109  1  0.30158623  0.69634396  0.90201885  1
  Nb  Nb110  1  0.09876614  0.10082031  0.70125468  1
  Nb  Nb111  1  0.50237741  0.29650870  0.89954281  1
  Nb  Nb112  1  0.89821836  0.30079561  0.10177940  1
  Nb  Nb113  1  0.49921631  0.29155359  0.69516363  1
  Nb  Nb114  1  0.09665846  0.70244342  0.89126771  1
  Nb  Nb115  1  0.70576444  0.90637295  0.69676175  1
  Nb  Nb116  1  0.50206218  0.49996501  0.09631556  1
  Nb  Nb117  1  0.10172119  0.69747423  0.09882635  1
  Nb  Nb118  1  0.10014700  0.70323834  0.70236466  1
  Nb  Nb119  1  0.69678561  0.29343681  0.49889998  1
  Nb  Nb120  1  0.89605278  0.90333231  0.69840937  1
  Nb  Nb121  1  0.29833205  0.49897219  0.70281462  1
  Nb  Nb122  1  0.30180216  0.49698895  0.30712776  1
  Nb  Nb123  1  0.90265584  0.69616905  0.90154548  1
  Nb  Nb124  1  0.11012849  0.90578249  0.89673475  1
  Nb  Nb125  1  -0.00120046  0.19668930  0.59857485  1
  Nb  Nb126  1  0.79702078  0.20024622  0.00901148  1
  Nb  Nb127  1  0.59867687  0.19785615  0.39691115  1
  Nb  Nb128  1  0.80077191  0.60125407  -0.00568460  1
  Nb  Nb129  1  0.59962941  0.60225944  0.00003413  1
  Nb  Nb130  1  -0.00408638  0.40213821  0.80321786  1
  Nb  Nb131  1  0.19073643  0.00334671  0.60408294  1
  Nb  Nb132  1  0.39455480  0.39880792  0.60672133  1
  Nb  Nb133  1  0.00640153  0.60454594  0.60506211  1
  Nb  Nb134  1  0.80379967  0.19714285  0.19710016  1
  Nb  Nb135  1  0.80040656  0.80366454  0.19548543  1
  Nb  Nb136  1  0.79927933  0.80673446  0.60592496  1
  Nb  Nb137  1  0.39140071  0.59791633  0.80111624  1
  Nb  Nb138  1  0.80328203  0.60335310  0.80645479  1
  Nb  Nb139  1  0.00070257  0.00489917  0.60486766  1
  Nb  Nb140  1  0.60322752  -0.00057036  0.60262781  1
  Nb  Nb141  1  0.19874770  0.60578035  -0.00306840  1
  Nb  Nb142  1  0.20016466  0.60257857  0.80252658  1
  Nb  Nb143  1  0.39536227  0.80425268  0.20006837  1
  Nb  Nb144  1  0.40373169  0.00994876  0.39628929  1
  Nb  Nb145  1  0.60762467  0.79806090  0.00231350  1
  Nb  Nb146  1  0.20310323  0.00246443  0.20078355  1
  Nb  Nb147  1  0.40171323  0.60129424  -0.00305041  1
  Nb  Nb148  1  0.39531678  0.59396737  0.39990055  1
  Nb  Nb149  1  0.80342229  0.20105562  0.59397599  1
  Pd  Pd150  1  0.39108069  0.59468412  0.59966871  1
  Pd  Pd151  1  0.59115424  0.59439756  0.20384894  1
  Pd  Pd152  1  0.79800952  0.79666590  0.79767168  1
  Pd  Pd153  1  0.19173154  0.40034012  0.81005493  1
  Pd  Pd154  1  0.00032295  0.59471501  0.79224819  1
  Pd  Pd155  1  0.60736214  -0.00651586  0.19739375  1
  Pd  Pd156  1  0.59422506  0.39404110  0.39751014  1
  Pd  Pd157  1  0.19826728  0.60564094  0.60236738  1
  Pd  Pd158  1  0.40488228  0.00830712  0.00033276  1
  Pd  Pd159  1  0.39854876  0.40056556  0.00331341  1
  Pd  Pd160  1  0.59645657  -0.00146299  0.79428508  1
  Pd  Pd161  1  0.40747616  0.40094109  0.79348232  1
  Pd  Pd162  1  0.80536973  0.00627013  0.59546069  1
  Pd  Pd163  1  0.39287826  0.79599381  0.79578320  1
  Pd  Pd164  1  0.00939035  0.80263233  -0.00909030  1
  Pd  Pd165  1  -0.00117314  0.19384808  0.18882304  1
  Pd  Pd166  1  0.80530418  0.80452019  0.39616483  1
  Pd  Pd167  1  0.59162938  0.59289564  0.39540533  1
  Pd  Pd168  1  0.00907526  0.00374410  0.19816036  1
  Pd  Pd169  1  0.59335243  0.39742920  0.79080791  1
  Pd  Pd170  1  0.20025015  0.80776455  0.20897165  1
  Pd  Pd171  1  0.19810652  0.79584097  0.39504751  1
  Pd  Pd172  1  0.19579399  0.40221107  0.20143545  1
  Pd  Pd173  1  0.00243200  -0.00586117  0.79697031  1
  Pd  Pd174  1  -0.00409779  0.59014917  0.19729253  1
  Pd  Pd175  1  0.60238099  0.81235224  0.19361768  1
  Pd  Pd176  1  0.80061552  0.40597957  0.80304011  1
  Pd  Pd177  1  0.19855856  0.59132465  0.19416590  1
  Pd  Pd178  1  0.79855902  0.00660137  0.80820198  1
  Pd  Pd179  1  0.80640553  0.39742524  0.20711028  1
  Pd  Pd180  1  0.79836573  -0.00035512  0.20304402  1
  Pd  Pd181  1  0.40444653  0.60331759  0.20257780  1
  Pd  Pd182  1  0.79631247  0.79429794  0.00201246  1
  Pd  Pd183  1  -0.00712602  0.79787225  0.39475252  1
  Pd  Pd184  1  0.80322460  0.38830249  0.58834246  1
  Pd  Pd185  1  0.40133678  0.20498821  0.19389976  1
  Pd  Pd186  1  0.41291243  0.79504976  0.00669096  1
  Pd  Pd187  1  0.40121452  0.19652076  0.80856862  1
  Pd  Pd188  1  0.19902455  0.60777299  0.40605542  1
  Pd  Pd189  1  0.19361638  0.79690681  -0.00923940  1
  Pd  Pd190  1  0.80189017  0.40307352  0.40100215  1
  Pd  Pd191  1  0.59971801  0.58851835  0.80573959  1
  Pd  Pd192  1  -0.00708473  0.39199132  0.60304261  1
  Pd  Pd193  1  0.39398268  0.81095314  0.60388831  1
  Pd  Pd194  1  0.20872831  0.38325862  0.60141377  1
  Pd  Pd195  1  0.20070722  0.19986945  0.60533665  1
  Pd  Pd196  1  0.60674484  0.20122808  0.20828748  1
  Pd  Pd197  1  0.58630171  0.01114609  0.41246254  1
  Pd  Pd198  1  0.39890971  -0.00461054  0.59271789  1
  Pd  Pd199  1  0.81147818  0.61759763  0.61104813  1
  Rh  Rh200  1  0.19931831  0.40172948  0.00287154  1
  Rh  Rh201  1  0.38796983  0.21267048  0.60781488  1
  Rh  Rh202  1  0.81010229  0.59818026  0.19407457  1
  Rh  Rh203  1  0.19767163  0.00054513  0.00491724  1
  Rh  Rh204  1  0.00249314  0.60795420  0.00188873  1
  Rh  Rh205  1  0.19352308  0.20990201  0.39366629  1
  Rh  Rh206  1  0.79372227  0.39833852  -0.00321609  1
  Rh  Rh207  1  0.21282690  0.00576238  0.40028408  1
  Rh  Rh208  1  0.20024185  0.19555744  0.80525656  1
  Rh  Rh209  1  0.60770625  0.80920724  0.59765038  1
  Rh  Rh210  1  0.59539653  0.40042558  0.20076178  1
  Rh  Rh211  1  0.40082852  0.79802569  0.39260531  1
  Rh  Rh212  1  0.00144494  0.39432802  0.39432935  1
  Rh  Rh213  1  0.20419321  0.79604118  0.80518172  1
  Rh  Rh214  1  0.39712306  -0.00187665  0.20458934  1
  Rh  Rh215  1  0.79103994  0.19616890  0.80729386  1
  Rh  Rh216  1  0.79057203  0.19885739  0.39529525  1
  Rh  Rh217  1  0.60001852  0.19716788  0.00105777  1
  Rh  Rh218  1  0.40339793  0.40630341  0.40878971  1
  Rh  Rh219  1  0.79597055  0.59112071  0.39869428  1
  Rh  Rh220  1  0.20589623  0.81159384  0.60200695  1
  Rh  Rh221  1  0.60137452  0.79708489  0.40520557  1
  Rh  Rh222  1  -0.00328254  0.00372006  0.40163388  1
  Rh  Rh223  1  -0.00399067  0.80158004  0.20550274  1
  Rh  Rh224  1  0.39915605  0.39684918  0.19275447  1
  Rh  Rh225  1  0.59378106  0.39398699  0.60252495  1
  Rh  Rh226  1  0.00072038  0.80873357  0.80878346  1
  Rh  Rh227  1  0.00557273  0.60183829  0.41083390  1
  Rh  Rh228  1  0.00552243  0.20974360  0.79695674  1
  Rh  Rh229  1  0.79923816  0.01165488  -0.00702987  1
  Rh  Rh230  1  0.19227669  0.39167072  0.39462577  1
  Rh  Rh231  1  0.59979743  -0.00472761  0.00310792  1
  Rh  Rh232  1  0.20174955  0.19675343  0.00057909  1
  Rh  Rh233  1  0.61059827  0.19274437  0.59264528  1
  Rh  Rh234  1  -0.00237636  0.39931468  0.20331700  1
  Rh  Rh235  1  0.40320664  0.00219640  0.80628533  1
  Rh  Rh236  1  0.00269205  0.38819697  -0.00486736  1
  Rh  Rh237  1  0.60493439  0.59959972  0.59698156  1
  Rh  Rh238  1  0.40715386  0.19740940  0.00189020  1
  Rh  Rh239  1  0.59881674  0.40300499  0.00038586  1
  Rh  Rh240  1  0.19694335  0.19375989  0.19575667  1
  Rh  Rh241  1  0.60705395  0.81254549  0.80624363  1
  Rh  Rh242  1  0.41365530  0.19436538  0.39476713  1
  Rh  Rh243  1  0.19842205  0.00104306  0.79469972  1
  Rh  Rh244  1  0.00598715  0.20479550  0.40371499  1
  Rh  Rh245  1  0.59314192  0.20181751  0.80001708  1
  Rh  Rh246  1  0.00772157  -0.00945850  -0.00636727  1
  Rh  Rh247  1  -0.01217591  0.80232197  0.59654699  1
  Rh  Rh248  1  0.80602317  -0.00184982  0.38977139  1
  Rh  Rh249  1  -0.00697622  0.20395917  0.00491040  1
