# generated using pymatgen
data_ZrScNbPdRh
_symmetry_space_group_name_H-M   'P 1'
_cell_length_a   16.56423775
_cell_length_b   16.56234715
_cell_length_c   16.56068234
_cell_angle_alpha   89.97532603
_cell_angle_beta   89.98744159
_cell_angle_gamma   90.00396324
_symmetry_Int_Tables_number   1
_chemical_formula_structural   ZrScNbPdRh
_chemical_formula_sum   'Zr50 Sc50 Nb50 Pd50 Rh50'
_cell_volume   4543.30103473
_cell_formula_units_Z   50
loop_
 _symmetry_equiv_pos_site_id
 _symmetry_equiv_pos_as_xyz
  1  'x, y, z'
loop_
 _atom_site_type_symbol
 _atom_site_label
 _atom_site_symmetry_multiplicity
 _atom_site_fract_x
 _atom_site_fract_y
 _atom_site_fract_z
 _atom_site_occupancy
  Zr  Zr0  1  0.89526794  0.90637842  0.69725851  1
  Zr  Zr1  1  0.89586495  0.50264539  0.89258872  1
  Zr  Zr2  1  0.70409592  0.90039013  0.90205755  1
  Zr  Zr3  1  0.10146368  0.89297437  0.49305749  1
  Zr  Zr4  1  0.90957062  0.69705805  0.90587031  1
  Zr  Zr5  1  0.10390424  0.09372665  0.49307483  1
  Zr  Zr6  1  0.09957328  0.69366771  0.89486274  1
  Zr  Zr7  1  0.08927795  0.90390648  0.30346763  1
  Zr  Zr8  1  0.30052936  0.30074982  0.11531855  1
  Zr  Zr9  1  0.50044357  0.89841156  0.09954345  1
  Zr  Zr10  1  0.90871620  0.90699847  0.49942828  1
  Zr  Zr11  1  0.09797012  0.50101102  0.10599153  1
  Zr  Zr12  1  0.11160114  0.69358537  0.50771827  1
  Zr  Zr13  1  0.10898564  0.50389719  0.30694941  1
  Zr  Zr14  1  0.69700207  0.49626328  0.50284807  1
  Zr  Zr15  1  0.50415409  0.09722254  0.50230899  1
  Zr  Zr16  1  0.49900184  0.69960431  0.69766011  1
  Zr  Zr17  1  0.89513520  0.50386207  0.09622250  1
  Zr  Zr18  1  0.49681612  0.10785739  0.89881106  1
  Zr  Zr19  1  0.69978376  0.29675279  0.49967906  1
  Zr  Zr20  1  0.89318739  0.90370236  0.90253022  1
  Zr  Zr21  1  0.30184316  0.69833329  0.89879817  1
  Zr  Zr22  1  0.29400015  0.09197162  0.10596457  1
  Zr  Zr23  1  0.70519758  0.89927990  0.09729207  1
  Zr  Zr24  1  0.90599325  0.10372364  0.69932653  1
  Zr  Zr25  1  0.69892897  0.70294454  0.90578088  1
  Zr  Zr26  1  0.29245880  0.29468651  0.69444337  1
  Zr  Zr27  1  0.29364890  0.50356366  0.89782710  1
  Zr  Zr28  1  0.10030187  0.30923499  0.50328485  1
  Zr  Zr29  1  0.69501308  0.31235865  0.09584287  1
  Zr  Zr30  1  0.70223799  0.71124629  0.69742609  1
  Zr  Zr31  1  0.09270553  0.70383802  0.08758103  1
  Zr  Zr32  1  0.49950573  0.30420157  0.29179334  1
  Zr  Zr33  1  0.50177167  0.90202075  0.69885975  1
  Zr  Zr34  1  0.90662899  0.51282464  0.29371396  1
  Zr  Zr35  1  0.90458514  0.30257486  0.50708516  1
  Zr  Zr36  1  0.09964385  0.50059706  0.90187660  1
  Zr  Zr37  1  0.49423484  0.10755716  0.69638521  1
  Zr  Zr38  1  0.49591554  0.70019375  0.89503886  1
  Zr  Zr39  1  0.09456409  0.29654029  0.89990603  1
  Zr  Zr40  1  0.30474600  0.89900317  0.69821500  1
  Zr  Zr41  1  0.70525819  0.89797981  0.70358961  1
  Zr  Zr42  1  0.90017808  0.90046800  0.10688226  1
  Zr  Zr43  1  0.09363391  0.89723370  0.69030486  1
  Zr  Zr44  1  0.70331290  0.09901200  0.30779755  1
  Zr  Zr45  1  0.29600542  0.89288934  0.49953263  1
  Zr  Zr46  1  0.29888071  0.50423404  0.11009103  1
  Zr  Zr47  1  0.29211880  0.29892030  0.89525809  1
  Zr  Zr48  1  0.91550376  0.49783919  0.50248920  1
  Zr  Zr49  1  0.89544095  0.69652909  0.11045402  1
  Sc  Sc50  1  0.69050498  0.49922032  0.30034602  1
  Sc  Sc51  1  0.89802936  0.09125371  0.29887167  1
  Sc  Sc52  1  0.30734058  0.69255842  0.69173648  1
  Sc  Sc53  1  0.10358293  0.09125103  0.29574494  1
  Sc  Sc54  1  0.50621931  0.50265359  0.70155293  1
  Sc  Sc55  1  0.70343605  0.90511259  0.51150707  1
  Sc  Sc56  1  0.30051186  0.10245879  0.49753409  1
  Sc  Sc57  1  0.70435941  0.09268016  0.10950005  1
  Sc  Sc58  1  0.90893246  0.69822822  0.50075250  1
  Sc  Sc59  1  0.29520834  0.69772738  0.09595300  1
  Sc  Sc60  1  0.09774101  0.09909582  0.70624559  1
  Sc  Sc61  1  0.50642978  0.50437582  0.89593576  1
  Sc  Sc62  1  0.69950370  0.49337419  0.70612842  1
  Sc  Sc63  1  0.90097165  0.10703553  0.89386712  1
  Sc  Sc64  1  0.09305497  0.29970522  0.10199829  1
  Sc  Sc65  1  0.29830767  0.68848964  0.28652466  1
  Sc  Sc66  1  0.29606754  0.09072358  0.89358604  1
  Sc  Sc67  1  0.50744564  0.50348076  0.50618287  1
  Sc  Sc68  1  0.50234819  0.49643848  0.09969281  1
  Sc  Sc69  1  0.09563695  0.70019385  0.29777906  1
  Sc  Sc70  1  0.28569425  0.29260432  0.49653466  1
  Sc  Sc71  1  0.50719381  0.29578027  0.50497784  1
  Sc  Sc72  1  0.28626322  0.89449279  0.29620557  1
  Sc  Sc73  1  0.90391461  0.30515900  0.89639195  1
  Sc  Sc74  1  0.50283095  0.30304732  0.10384190  1
  Sc  Sc75  1  0.29599878  0.89322649  0.09457778  1
  Sc  Sc76  1  0.69451411  0.30351479  0.69930325  1
  Sc  Sc77  1  0.10242374  0.50642573  0.69363160  1
  Sc  Sc78  1  0.30304845  0.09946870  0.69888881  1
  Sc  Sc79  1  0.10069032  0.89334619  0.90621373  1
  Sc  Sc80  1  0.90407016  0.29886576  0.09724356  1
  Sc  Sc81  1  0.30230901  0.89747395  0.90015174  1
  Sc  Sc82  1  0.10312220  0.90033982  0.10666120  1
  Sc  Sc83  1  0.51057452  0.29876025  0.89858730  1
  Sc  Sc84  1  0.50290949  0.10208228  0.10541804  1
  Sc  Sc85  1  0.10001443  0.29685173  0.69691884  1
  Sc  Sc86  1  0.70121059  0.49265570  0.90253985  1
  Sc  Sc87  1  0.50764712  0.90338421  0.50896837  1
  Sc  Sc88  1  0.29394660  0.11077489  0.30527590  1
  Sc  Sc89  1  0.90568439  0.69882306  0.70992248  1
  Sc  Sc90  1  0.89854457  0.10203275  0.10613446  1
  Sc  Sc91  1  0.48922838  0.70181437  0.09363856  1
  Sc  Sc92  1  0.51419582  0.09893517  0.30177283  1
  Sc  Sc93  1  0.11029636  0.30495935  0.30163186  1
  Sc  Sc94  1  0.70744190  0.10649864  0.69808367  1
  Sc  Sc95  1  0.49355804  0.89072406  0.90240046  1
  Sc  Sc96  1  0.89043058  0.09909468  0.50374775  1
  Sc  Sc97  1  0.49669170  0.49954117  0.29391450  1
  Sc  Sc98  1  0.90127267  0.29078423  0.29579350  1
  Sc  Sc99  1  0.70174347  0.50515612  0.08997076  1
  Nb  Nb100  1  0.70340220  0.70230270  0.10623482  1
  Nb  Nb101  1  0.09885491  0.70176027  0.69992233  1
  Nb  Nb102  1  0.69951832  0.69760814  0.49785581  1
  Nb  Nb103  1  0.09718362  0.09773511  0.09688279  1
  Nb  Nb104  1  0.70064930  0.30537180  0.29991031  1
  Nb  Nb105  1  0.69485582  0.90518147  0.29979392  1
  Nb  Nb106  1  0.70369536  0.70170478  0.29902586  1
  Nb  Nb107  1  0.90062929  0.89442554  0.30029888  1
  Nb  Nb108  1  0.30787520  0.69532327  0.50108872  1
  Nb  Nb109  1  0.49990828  0.70123236  0.30044922  1
  Nb  Nb110  1  0.49233112  0.30157972  0.70130268  1
  Nb  Nb111  1  0.09364857  0.10345801  0.90482607  1
  Nb  Nb112  1  0.89102012  0.70345121  0.29310433  1
  Nb  Nb113  1  0.50479861  0.69734066  0.49861266  1
  Nb  Nb114  1  0.69826576  0.29932239  0.90346514  1
  Nb  Nb115  1  0.50513917  0.89962379  0.30214210  1
  Nb  Nb116  1  0.10592435  0.50270124  0.49919238  1
  Nb  Nb117  1  0.69484536  0.10489848  0.49913908  1
  Nb  Nb118  1  0.89863230  0.49875866  0.69648657  1
  Nb  Nb119  1  0.90700755  0.30668428  0.69627352  1
  Nb  Nb120  1  0.69801082  0.10577589  0.90091458  1
  Nb  Nb121  1  0.29053137  0.50779704  0.50287112  1
  Nb  Nb122  1  0.29912298  0.49545749  0.30130920  1
  Nb  Nb123  1  0.30720903  0.49753995  0.69514074  1
  Nb  Nb124  1  0.30260182  0.30865097  0.30276715  1
  Nb  Nb125  1  0.19719100  0.79466273  0.79150887  1
  Nb  Nb126  1  0.00074114  0.00564020  0.00199670  1
  Nb  Nb127  1  0.40142500  -0.00473293  0.20944154  1
  Nb  Nb128  1  0.79774855  0.79825907  0.39581120  1
  Nb  Nb129  1  0.60339399  0.79628652  0.39865652  1
  Nb  Nb130  1  0.40670386  0.79470025  0.39820735  1
  Nb  Nb131  1  0.39407173  0.40102272  0.59841788  1
  Nb  Nb132  1  0.79112777  0.20318362  -0.00468303  1
  Nb  Nb133  1  0.60137831  0.61298484  0.20007188  1
  Nb  Nb134  1  0.60335913  0.00214230  -0.00724924  1
  Nb  Nb135  1  0.80209451  0.40208999  0.39636319  1
  Nb  Nb136  1  0.00275933  0.19891826  0.40306177  1
  Nb  Nb137  1  0.60119791  0.00485533  0.80505619  1
  Nb  Nb138  1  0.79786393  0.40119070  0.20513636  1
  Nb  Nb139  1  0.40381097  -0.00855173  0.39465820  1
  Nb  Nb140  1  0.80122783  0.59791737  0.59770122  1
  Nb  Nb141  1  0.39036615  0.20316873  0.00219081  1
  Nb  Nb142  1  0.39456428  0.39570187  -0.00489276  1
  Nb  Nb143  1  0.39864414  0.59983940  0.40278078  1
  Nb  Nb144  1  0.39698656  0.39778127  0.79607114  1
  Nb  Nb145  1  0.39260275  0.40392077  0.40445335  1
  Nb  Nb146  1  0.60292011  0.79783347  0.20506191  1
  Nb  Nb147  1  0.79769795  0.60221579  0.40133895  1
  Nb  Nb148  1  0.19800634  -0.00647172  0.59810535  1
  Nb  Nb149  1  0.19759473  0.19423826  0.00304604  1
  Pd  Pd150  1  0.20738254  0.78488284  0.39188275  1
  Pd  Pd151  1  0.81093071  0.79275107  0.59274997  1
  Pd  Pd152  1  0.59730658  0.80602259  0.80266670  1
  Pd  Pd153  1  0.00021803  0.60898491  0.39846947  1
  Pd  Pd154  1  0.00672467  0.19376999  0.59442884  1
  Pd  Pd155  1  0.19092920  0.20116583  0.19966706  1
  Pd  Pd156  1  0.00710560  0.19495438  0.20843393  1
  Pd  Pd157  1  0.60903206  0.60127285  0.60929197  1
  Pd  Pd158  1  0.19315278  -0.00056122  -0.00343788  1
  Pd  Pd159  1  0.40135455  0.19010640  0.20332849  1
  Pd  Pd160  1  0.59772479  0.60525420  0.00675060  1
  Pd  Pd161  1  0.40749119  -0.00141676  0.80221135  1
  Pd  Pd162  1  0.20147427  0.39289930  0.01029794  1
  Pd  Pd163  1  0.00088143  0.80773712  0.80164761  1
  Pd  Pd164  1  -0.00670747  0.79296617  0.60059564  1
  Pd  Pd165  1  0.79840326  0.39066433  0.79907166  1
  Pd  Pd166  1  0.79589662  0.00920591  0.79980989  1
  Pd  Pd167  1  0.39970054  0.80414972  0.20243689  1
  Pd  Pd168  1  0.79825102  0.20481841  0.60350071  1
  Pd  Pd169  1  -0.00476094  0.39801884  0.20691014  1
  Pd  Pd170  1  0.20343942  0.60378777  0.78868447  1
  Pd  Pd171  1  0.00415806  -0.00541303  0.80888474  1
  Pd  Pd172  1  0.80749611  0.20527609  0.40143475  1
  Pd  Pd173  1  0.60105960  0.20047721  0.79088178  1
  Pd  Pd174  1  0.59634511  0.20478557  0.39645184  1
  Pd  Pd175  1  0.79691783  -0.00725545  0.40332531  1
  Pd  Pd176  1  0.40180261  0.59060286  0.00093039  1
  Pd  Pd177  1  0.40789022  0.80013895  0.59453562  1
  Pd  Pd178  1  0.80442401  0.21093389  0.80111165  1
  Pd  Pd179  1  0.19680915  0.19162721  0.80209982  1
  Pd  Pd180  1  0.79345003  0.20792103  0.19202728  1
  Pd  Pd181  1  0.60971802  0.20063833  0.19958641  1
  Pd  Pd182  1  -0.00415713  0.78965260  0.39783397  1
  Pd  Pd183  1  0.39511440  0.20675120  0.58951607  1
  Pd  Pd184  1  0.19246154  -0.00910960  0.79541742  1
  Pd  Pd185  1  -0.00364276  0.39265671  0.38896676  1
  Pd  Pd186  1  0.60857121  0.00746023  0.61064088  1
  Pd  Pd187  1  0.00671698  0.40463264  0.79135446  1
  Pd  Pd188  1  0.40576063  0.00622148  0.00710363  1
  Pd  Pd189  1  0.79447080  0.60349185  0.79544722  1
  Pd  Pd190  1  0.80753881  0.79209213  0.00162673  1
  Pd  Pd191  1  0.19216600  0.79548744  0.19916765  1
  Pd  Pd192  1  0.59237626  0.39811628  0.40069097  1
  Pd  Pd193  1  0.60082244  0.19593708  0.01106043  1
  Pd  Pd194  1  0.19684434  0.40420407  0.78913252  1
  Pd  Pd195  1  0.40650302  0.20285243  0.39831618  1
  Pd  Pd196  1  0.79924676  0.40349931  0.59786020  1
  Pd  Pd197  1  -0.00449116  0.40347171  -0.00094393  1
  Pd  Pd198  1  0.60900191  0.60161901  0.79798647  1
  Pd  Pd199  1  0.59807152  0.60025659  0.39318719  1
  Rh  Rh200  1  0.80497868  0.01653572  -0.00235983  1
  Rh  Rh201  1  0.40580181  0.59684863  0.20215539  1
  Rh  Rh202  1  0.38954148  0.00034622  0.58858911  1
  Rh  Rh203  1  -0.00249348  0.20686340  0.79619684  1
  Rh  Rh204  1  0.00062739  0.59203185  0.79481684  1
  Rh  Rh205  1  0.79747062  0.00639595  0.60034676  1
  Rh  Rh206  1  0.80524183  0.39267151  0.00309551  1
  Rh  Rh207  1  0.19468795  0.18496127  0.60165851  1
  Rh  Rh208  1  0.59713698  0.79789784  0.59561015  1
  Rh  Rh209  1  0.20226948  0.79627800  -0.00966349  1
  Rh  Rh210  1  0.20338878  0.79738886  0.60679480  1
  Rh  Rh211  1  0.59671702  -0.00589652  0.19033600  1
  Rh  Rh212  1  0.19146796  0.20248084  0.39688300  1
  Rh  Rh213  1  0.59529096  0.39615009  0.80077854  1
  Rh  Rh214  1  -0.00163062  0.59193199  0.00047861  1
  Rh  Rh215  1  0.79401812  0.81155374  0.20639398  1
  Rh  Rh216  1  0.78796272  0.58753449  0.20546072  1
  Rh  Rh217  1  -0.00242653  0.60044537  0.60571361  1
  Rh  Rh218  1  0.59872543  0.80094567  0.00616591  1
  Rh  Rh219  1  0.80116778  -0.00482659  0.20862302  1
  Rh  Rh220  1  0.60136423  0.19963327  0.60465859  1
  Rh  Rh221  1  0.79849873  0.60554750  -0.00484183  1
  Rh  Rh222  1  0.59092242  0.39580972  0.60605435  1
  Rh  Rh223  1  0.19667607  0.40120786  0.19999394  1
  Rh  Rh224  1  -0.00431983  0.19439065  0.00121568  1
  Rh  Rh225  1  -0.00695795  0.00758064  0.39852013  1
  Rh  Rh226  1  0.19639622  0.59980351  0.00411348  1
  Rh  Rh227  1  -0.00245229  -0.00025787  0.19631893  1
  Rh  Rh228  1  0.20078492  0.40524067  0.59869904  1
  Rh  Rh229  1  0.00510577  0.00622598  0.59614847  1
  Rh  Rh230  1  0.39263034  0.79667211  0.79638852  1
  Rh  Rh231  1  0.80768933  0.79386707  0.80599442  1
  Rh  Rh232  1  0.20318871  -0.00330405  0.20301196  1
  Rh  Rh233  1  0.39420118  0.79689962  -0.00052555  1
  Rh  Rh234  1  0.60685383  0.41118747  0.19601724  1
  Rh  Rh235  1  0.60093507  -0.00306572  0.41080502  1
  Rh  Rh236  1  0.20590252  0.40319778  0.40590781  1
  Rh  Rh237  1  0.39525467  0.20580654  0.80609030  1
  Rh  Rh238  1  0.19209121  0.60301892  0.19639843  1
  Rh  Rh239  1  0.20236880  0.60137069  0.60597027  1
  Rh  Rh240  1  0.40198997  0.40576397  0.20028892  1
  Rh  Rh241  1  0.00228967  0.79857810  0.20027215  1
  Rh  Rh242  1  0.59113706  0.40420676  -0.00588699  1
  Rh  Rh243  1  0.21162896  -0.00074145  0.40230716  1
  Rh  Rh244  1  0.20608218  0.60485235  0.39766077  1
  Rh  Rh245  1  0.00695111  0.60690374  0.19841471  1
  Rh  Rh246  1  0.00951681  0.40538281  0.60807720  1
  Rh  Rh247  1  0.40190270  0.59282677  0.79713164  1
  Rh  Rh248  1  -0.00531902  0.81091299  0.00544540  1
  Rh  Rh249  1  0.40652633  0.59186045  0.59405114  1
