# generated using pymatgen
data_ZrScNbPdRh
_symmetry_space_group_name_H-M   'P 1'
_cell_length_a   16.56489886
_cell_length_b   16.55857128
_cell_length_c   16.55884759
_cell_angle_alpha   90.00100825
_cell_angle_beta   90.00113567
_cell_angle_gamma   90.01440542
_symmetry_Int_Tables_number   1
_chemical_formula_structural   ZrScNbPdRh
_chemical_formula_sum   'Zr50 Sc50 Nb50 Pd50 Rh50'
_cell_volume   4541.94369099
_cell_formula_units_Z   50
loop_
 _symmetry_equiv_pos_site_id
 _symmetry_equiv_pos_as_xyz
  1  'x, y, z'
loop_
 _atom_site_type_symbol
 _atom_site_label
 _atom_site_symmetry_multiplicity
 _atom_site_fract_x
 _atom_site_fract_y
 _atom_site_fract_z
 _atom_site_occupancy
  Zr  Zr0  1  0.90627539  0.09846192  0.89944277  1
  Zr  Zr1  1  0.70447913  0.89583196  0.10145936  1
  Zr  Zr2  1  0.69336068  0.50034824  0.50130552  1
  Zr  Zr3  1  0.90258046  0.30436248  0.69691504  1
  Zr  Zr4  1  0.89773539  0.70923948  0.49655344  1
  Zr  Zr5  1  0.48583565  0.29649792  0.70255465  1
  Zr  Zr6  1  0.11032594  0.30224556  0.69565214  1
  Zr  Zr7  1  0.29750412  0.49720429  0.29701597  1
  Zr  Zr8  1  0.10625835  0.70177992  0.70389707  1
  Zr  Zr9  1  0.70314257  0.50109499  0.70552893  1
  Zr  Zr10  1  0.10291055  0.89892255  0.10520907  1
  Zr  Zr11  1  0.70576683  0.30056889  0.70669416  1
  Zr  Zr12  1  0.70411020  0.10294057  0.09955929  1
  Zr  Zr13  1  0.49555124  0.89843635  0.50293204  1
  Zr  Zr14  1  0.10527243  0.09962255  0.89261775  1
  Zr  Zr15  1  0.50371100  0.70009200  0.50320492  1
  Zr  Zr16  1  0.70233725  0.89834793  0.69514771  1
  Zr  Zr17  1  0.30036246  0.69851145  0.70305588  1
  Zr  Zr18  1  0.09660337  0.49792322  0.49206206  1
  Zr  Zr19  1  0.69693005  0.30026362  0.49166634  1
  Zr  Zr20  1  0.70592358  0.29704590  0.90577941  1
  Zr  Zr21  1  0.89755903  0.09964306  0.30404362  1
  Zr  Zr22  1  0.49623914  0.49694735  0.30119164  1
  Zr  Zr23  1  0.90135536  0.10296131  0.49242680  1
  Zr  Zr24  1  0.29283421  0.09257020  0.49990139  1
  Zr  Zr25  1  0.90372862  0.50266038  0.29966151  1
  Zr  Zr26  1  0.49392619  0.29648021  0.49406632  1
  Zr  Zr27  1  0.10350975  0.49542984  0.69387483  1
  Zr  Zr28  1  0.49456881  0.69643031  0.89819885  1
  Zr  Zr29  1  0.70245565  0.49832461  0.09960215  1
  Zr  Zr30  1  0.10634560  0.29696731  0.30324459  1
  Zr  Zr31  1  0.70205272  0.89812727  0.89596709  1
  Zr  Zr32  1  0.89927544  0.48897161  0.69776593  1
  Zr  Zr33  1  0.90184572  0.69220805  0.90546938  1
  Zr  Zr34  1  0.30207208  0.09147307  0.10273760  1
  Zr  Zr35  1  0.10506019  0.10200267  0.50551414  1
  Zr  Zr36  1  0.70102808  0.09553656  0.69159085  1
  Zr  Zr37  1  0.89409470  0.30182859  0.09668349  1
  Zr  Zr38  1  0.49998462  0.49856523  0.71513638  1
  Zr  Zr39  1  0.49187469  0.31300860  0.90064605  1
  Zr  Zr40  1  0.30327744  0.69758286  0.29740431  1
  Zr  Zr41  1  0.09714179  0.89745814  0.30136837  1
  Zr  Zr42  1  0.50686100  0.09961662  0.50609546  1
  Zr  Zr43  1  0.50051774  0.70391411  0.70022747  1
  Zr  Zr44  1  0.10189524  0.70070366  0.89866183  1
  Zr  Zr45  1  0.50688307  0.90699148  0.30134260  1
  Zr  Zr46  1  0.29949191  0.71756811  0.10187954  1
  Zr  Zr47  1  0.29953923  0.90301174  0.29209349  1
  Zr  Zr48  1  0.89113379  0.50345716  0.90298048  1
  Zr  Zr49  1  0.49885713  0.70378741  0.30483809  1
  Sc  Sc50  1  0.09659041  0.90598030  0.70042800  1
  Sc  Sc51  1  0.29956459  0.70877100  0.89667433  1
  Sc  Sc52  1  0.08971949  0.50141573  0.90466716  1
  Sc  Sc53  1  0.89748500  0.09345170  0.69845584  1
  Sc  Sc54  1  0.10642364  0.29927802  0.89754680  1
  Sc  Sc55  1  0.89081725  0.69412307  0.10556103  1
  Sc  Sc56  1  0.70765753  0.69536068  0.89368748  1
  Sc  Sc57  1  0.30316689  0.49827273  0.50000544  1
  Sc  Sc58  1  0.89674240  0.91049357  0.89815765  1
  Sc  Sc59  1  0.09825445  0.29051163  0.50197661  1
  Sc  Sc60  1  0.09735418  0.90961839  0.50055943  1
  Sc  Sc61  1  0.29970502  0.29588165  0.50217269  1
  Sc  Sc62  1  0.72010150  0.09967691  0.89523564  1
  Sc  Sc63  1  0.31325414  0.50184971  0.10955565  1
  Sc  Sc64  1  0.30283025  0.09788179  0.30485227  1
  Sc  Sc65  1  0.49145291  0.89330810  0.89541476  1
  Sc  Sc66  1  0.48803557  0.90049560  0.10048904  1
  Sc  Sc67  1  0.09365164  0.09904016  0.08861918  1
  Sc  Sc68  1  0.29450825  0.49664289  0.69673549  1
  Sc  Sc69  1  0.69446938  0.70320433  0.70075645  1
  Sc  Sc70  1  0.47932728  0.09113008  0.89472321  1
  Sc  Sc71  1  0.30032307  0.10257509  0.70524623  1
  Sc  Sc72  1  0.09600121  0.69392006  0.29947952  1
  Sc  Sc73  1  0.09688801  0.09576965  0.31827369  1
  Sc  Sc74  1  0.89658613  0.30086251  0.89824890  1
  Sc  Sc75  1  0.29779714  0.29713449  0.88881561  1
  Sc  Sc76  1  0.49479424  0.70105649  0.09669687  1
  Sc  Sc77  1  0.09764287  0.70154070  0.49457442  1
  Sc  Sc78  1  0.70001986  0.30239051  0.10457755  1
  Sc  Sc79  1  0.09581953  0.69797903  0.10487953  1
  Sc  Sc80  1  0.31516365  0.29722875  0.30527947  1
  Sc  Sc81  1  0.89905733  0.90199591  0.69513717  1
  Sc  Sc82  1  0.49515864  0.09411449  0.10856458  1
  Sc  Sc83  1  0.49917616  0.50847807  0.49787490  1
  Sc  Sc84  1  0.69175004  0.49826101  0.90377587  1
  Sc  Sc85  1  0.69275373  0.70386032  0.50672081  1
  Sc  Sc86  1  0.09946189  0.89913684  0.88927960  1
  Sc  Sc87  1  0.31278043  0.69458886  0.50083197  1
  Sc  Sc88  1  0.49906358  0.89590782  0.69688436  1
  Sc  Sc89  1  0.29994854  0.30339958  0.10874868  1
  Sc  Sc90  1  0.88944480  0.29648649  0.31124551  1
  Sc  Sc91  1  0.90058990  0.50665923  0.09686887  1
  Sc  Sc92  1  0.90053714  0.70281168  0.29710345  1
  Sc  Sc93  1  0.90304544  0.09653594  0.09012489  1
  Sc  Sc94  1  0.50312108  0.30274456  0.10403367  1
  Sc  Sc95  1  0.70533782  0.71091035  0.29126966  1
  Sc  Sc96  1  0.69948421  0.90504911  0.50135203  1
  Sc  Sc97  1  0.89434485  0.70949007  0.69716463  1
  Sc  Sc98  1  0.10330042  0.30035477  0.09464104  1
  Sc  Sc99  1  0.90390898  0.89547036  0.30658208  1
  Nb  Nb100  1  0.29960272  0.90286030  0.50265493  1
  Nb  Nb101  1  0.90203415  0.90452895  0.09753670  1
  Nb  Nb102  1  0.29737610  0.30385339  0.69947593  1
  Nb  Nb103  1  0.70025062  0.90662542  0.29254257  1
  Nb  Nb104  1  0.30106854  0.89478911  0.69483426  1
  Nb  Nb105  1  0.31412101  0.49931546  0.91440412  1
  Nb  Nb106  1  0.70380136  0.09959486  0.50150901  1
  Nb  Nb107  1  0.89651189  0.49092713  0.50048198  1
  Nb  Nb108  1  0.69696017  0.49761298  0.29641583  1
  Nb  Nb109  1  0.68696025  0.29714989  0.29871682  1
  Nb  Nb110  1  0.29907640  0.90153195  0.10110060  1
  Nb  Nb111  1  0.30394447  0.90328434  0.90119264  1
  Nb  Nb112  1  0.10349223  0.49906069  0.10662365  1
  Nb  Nb113  1  0.50454999  0.10329832  0.70169325  1
  Nb  Nb114  1  0.50416715  0.10919233  0.30411829  1
  Nb  Nb115  1  0.10179299  0.10118752  0.69680129  1
  Nb  Nb116  1  0.49200275  0.49953772  0.91585022  1
  Nb  Nb117  1  0.10178629  0.49900199  0.29356907  1
  Nb  Nb118  1  0.89480070  0.30597996  0.50310002  1
  Nb  Nb119  1  0.89932983  0.89665219  0.50142337  1
  Nb  Nb120  1  0.70266326  0.70094420  0.10413283  1
  Nb  Nb121  1  0.29737408  0.09856945  0.90158565  1
  Nb  Nb122  1  0.69867563  0.10213118  0.30410978  1
  Nb  Nb123  1  0.50197083  0.50056206  0.07896282  1
  Nb  Nb124  1  0.50733927  0.28983609  0.30651291  1
  Nb  Nb125  1  0.59559397  0.39685186  0.60400368  1
  Nb  Nb126  1  0.19904345  0.40282149  0.39408567  1
  Nb  Nb127  1  0.60426087  0.80111177  0.00011112  1
  Nb  Nb128  1  0.59217875  0.19141574  -0.00907003  1
  Nb  Nb129  1  0.00644627  0.19760725  0.79250576  1
  Nb  Nb130  1  -0.00499658  0.80390911  0.00336910  1
  Nb  Nb131  1  0.00418571  0.39831318  0.20221192  1
  Nb  Nb132  1  0.59948986  0.00032724  -0.00656426  1
  Nb  Nb133  1  0.79979999  0.20274854  0.59096492  1
  Nb  Nb134  1  0.39776021  0.19695139  -0.00136654  1
  Nb  Nb135  1  0.60085557  0.59695717  0.19450440  1
  Nb  Nb136  1  0.20473563  0.41017396  0.00329796  1
  Nb  Nb137  1  -0.00546764  0.59633537  0.59901112  1
  Nb  Nb138  1  0.00140002  0.20400182  0.20262275  1
  Nb  Nb139  1  0.20601788  0.80470374  0.59530620  1
  Nb  Nb140  1  0.59825104  0.00562815  0.80017431  1
  Nb  Nb141  1  0.79821057  -0.00215250  0.20491353  1
  Nb  Nb142  1  0.20675985  0.80405591  0.40341121  1
  Nb  Nb143  1  0.20774609  -0.00525286  -0.00392987  1
  Nb  Nb144  1  -0.00151628  0.59884351  0.79064412  1
  Nb  Nb145  1  0.59343973  0.19376292  0.80439900  1
  Nb  Nb146  1  0.80574408  0.59501664  0.59325461  1
  Nb  Nb147  1  0.20350754  0.59478637  0.00457083  1
  Nb  Nb148  1  0.79762940  0.59510007  0.40204827  1
  Nb  Nb149  1  0.19551673  0.19607449  0.20190971  1
  Pd  Pd150  1  0.20591043  0.60138813  0.40255148  1
  Pd  Pd151  1  -0.00408761  0.00924771  0.20081161  1
  Pd  Pd152  1  0.79367533  0.40354184  0.39212825  1
  Pd  Pd153  1  0.00167483  0.39760058  0.80682491  1
  Pd  Pd154  1  0.60224071  0.00386699  0.19352082  1
  Pd  Pd155  1  -0.00819509  0.60342452  0.40267405  1
  Pd  Pd156  1  0.39968824  -0.00632784  0.78883726  1
  Pd  Pd157  1  0.40025904  0.00616621  0.60682064  1
  Pd  Pd158  1  0.20038981  0.58808983  0.81300374  1
  Pd  Pd159  1  0.60281860  0.00299302  0.40399939  1
  Pd  Pd160  1  0.20192710  0.60628538  0.19363924  1
  Pd  Pd161  1  -0.00401987  0.00115514  0.59732001  1
  Pd  Pd162  1  0.40386905  0.00464260  0.39748656  1
  Pd  Pd163  1  0.20544462  -0.00473480  0.79733377  1
  Pd  Pd164  1  0.39731440  0.19778172  0.19790110  1
  Pd  Pd165  1  -0.00021125  0.20868285  -0.00580670  1
  Pd  Pd166  1  0.20935958  0.20160002  0.00654216  1
  Pd  Pd167  1  0.79975247  -0.00733695  0.39853745  1
  Pd  Pd168  1  0.00983066  0.79824801  0.59862367  1
  Pd  Pd169  1  0.79161065  0.80061506  0.39904384  1
  Pd  Pd170  1  0.41060717  0.60090740  0.19416206  1
  Pd  Pd171  1  0.19267453  0.80400865  -0.00317349  1
  Pd  Pd172  1  0.60101314  0.39420349  0.80235906  1
  Pd  Pd173  1  0.59829637  0.19739090  0.19357809  1
  Pd  Pd174  1  0.59885153  0.60150108  0.80692327  1
  Pd  Pd175  1  0.80314714  0.79549352  -0.00014946  1
  Pd  Pd176  1  -0.00561981  0.79583982  0.19482151  1
  Pd  Pd177  1  0.80637697  0.39840199  0.20602616  1
  Pd  Pd178  1  -0.00846739  0.79840945  0.80531165  1
  Pd  Pd179  1  0.18954294  0.01082883  0.19931184  1
  Pd  Pd180  1  0.40397453  0.40588769  0.59801516  1
  Pd  Pd181  1  0.39234422  0.59505502  0.80198803  1
  Pd  Pd182  1  0.60528745  0.20950997  0.60522477  1
  Pd  Pd183  1  0.19607662  0.60758174  0.58976142  1
  Pd  Pd184  1  0.60886719  0.80339829  0.40102768  1
  Pd  Pd185  1  0.59193777  0.40203527  0.40358778  1
  Pd  Pd186  1  0.59245663  0.40523124  0.19651799  1
  Pd  Pd187  1  0.39143384  0.19223846  0.59834075  1
  Pd  Pd188  1  0.60672684  0.61131647  0.00132920  1
  Pd  Pd189  1  0.41181510  0.39728987  0.19970644  1
  Pd  Pd190  1  0.59243836  0.79627486  0.19283706  1
  Pd  Pd191  1  -0.00675839  0.19884885  0.60318047  1
  Pd  Pd192  1  0.80646738  0.80124569  0.80026005  1
  Pd  Pd193  1  0.39513296  0.80324467  0.39936461  1
  Pd  Pd194  1  0.80491187  0.19638502  0.20031379  1
  Pd  Pd195  1  0.40470261  0.59358742  0.60568514  1
  Pd  Pd196  1  0.00428819  0.39808288  0.00408862  1
  Pd  Pd197  1  0.20609181  0.41178913  0.81180568  1
  Pd  Pd198  1  0.00371197  0.39164728  0.39696392  1
  Pd  Pd199  1  0.60990410  0.60771065  0.38699720  1
  Rh  Rh200  1  0.40259652  0.80205388  -0.00169386  1
  Rh  Rh201  1  0.60178054  0.59305483  0.61112580  1
  Rh  Rh202  1  0.39058940  0.38685901  0.00752298  1
  Rh  Rh203  1  0.40159275  0.19019753  0.40556355  1
  Rh  Rh204  1  0.79916277  0.40163943  0.81161188  1
  Rh  Rh205  1  0.79159972  0.59706238  0.20827246  1
  Rh  Rh206  1  0.19614320  0.39303911  0.20112811  1
  Rh  Rh207  1  0.79585747  0.79904938  0.59634875  1
  Rh  Rh208  1  0.79564688  0.00119437  0.00770506  1
  Rh  Rh209  1  0.19872133  0.19819556  0.79189925  1
  Rh  Rh210  1  0.59865758  0.80515555  0.59781085  1
  Rh  Rh211  1  0.39701483  0.80178035  0.79767053  1
  Rh  Rh212  1  0.80868071  0.81087788  0.20095638  1
  Rh  Rh213  1  0.60457286  0.19212268  0.40104708  1
  Rh  Rh214  1  0.80993807  0.19877286  0.78857650  1
  Rh  Rh215  1  0.79120604  0.60034381  0.00365943  1
  Rh  Rh216  1  0.59605773  -0.00465747  0.60350860  1
  Rh  Rh217  1  -0.00406317  0.20502275  0.39950479  1
  Rh  Rh218  1  -0.00335264  -0.00423768  0.40775112  1
  Rh  Rh219  1  0.38958934  0.61406199  0.00452123  1
  Rh  Rh220  1  0.39630169  0.79652255  0.59968846  1
  Rh  Rh221  1  0.59714026  0.80301571  0.80600974  1
  Rh  Rh222  1  0.79054958  0.20140483  0.40281299  1
  Rh  Rh223  1  0.19619400  0.79479317  0.21207669  1
  Rh  Rh224  1  0.01382993  -0.01279438  -0.00554504  1
  Rh  Rh225  1  0.80931301  0.60027285  0.78802110  1
  Rh  Rh226  1  0.20749378  0.19919141  0.60466452  1
  Rh  Rh227  1  0.79744569  -0.00291225  0.79332237  1
  Rh  Rh228  1  0.80015329  0.19939996  0.00360543  1
  Rh  Rh229  1  0.39866348  0.59693713  0.39870490  1
  Rh  Rh230  1  0.40510905  0.80615887  0.20425403  1
  Rh  Rh231  1  -0.00276132  0.59417323  0.19674809  1
  Rh  Rh232  1  0.01010194  0.39961147  0.59132017  1
  Rh  Rh233  1  0.00840591  0.60783586  0.00175564  1
  Rh  Rh234  1  0.00803391  0.80227450  0.40305546  1
  Rh  Rh235  1  0.20099560  -0.00404069  0.60833686  1
  Rh  Rh236  1  -0.00113115  0.00709467  0.79547266  1
  Rh  Rh237  1  0.78642636  0.39677473  0.59608534  1
  Rh  Rh238  1  0.80689435  0.00169603  0.58975379  1
  Rh  Rh239  1  0.19942705  -0.00807919  0.39856081  1
  Rh  Rh240  1  0.60395169  0.38984165  0.00098843  1
  Rh  Rh241  1  0.20102270  0.39531628  0.58684905  1
  Rh  Rh242  1  0.39744555  0.20046242  0.80332059  1
  Rh  Rh243  1  0.40642978  0.00045897  0.21076162  1
  Rh  Rh244  1  0.39748577  -0.00092508  0.00112587  1
  Rh  Rh245  1  0.79723133  0.40376233  0.00023626  1
  Rh  Rh246  1  0.20949522  0.20520243  0.39572219  1
  Rh  Rh247  1  0.39836184  0.40053949  0.40018288  1
  Rh  Rh248  1  0.38939435  0.40735255  0.79888015  1
  Rh  Rh249  1  0.20607477  0.80960475  0.79162332  1
