# generated using pymatgen
data_ZrScNbPdRh
_symmetry_space_group_name_H-M   'P 1'
_cell_length_a   16.55633311
_cell_length_b   16.55916365
_cell_length_c   16.55751206
_cell_angle_alpha   90.01430652
_cell_angle_beta   89.97134495
_cell_angle_gamma   89.99618146
_symmetry_Int_Tables_number   1
_chemical_formula_structural   ZrScNbPdRh
_chemical_formula_sum   'Zr50 Sc50 Nb50 Pd50 Rh50'
_cell_volume   4539.39071579
_cell_formula_units_Z   50
loop_
 _symmetry_equiv_pos_site_id
 _symmetry_equiv_pos_as_xyz
  1  'x, y, z'
loop_
 _atom_site_type_symbol
 _atom_site_label
 _atom_site_symmetry_multiplicity
 _atom_site_fract_x
 _atom_site_fract_y
 _atom_site_fract_z
 _atom_site_occupancy
  Zr  Zr0  1  0.89917778  0.29464711  0.50659213  1
  Zr  Zr1  1  0.88433780  0.30355012  0.30127975  1
  Zr  Zr2  1  0.10522347  0.30158712  0.29943087  1
  Zr  Zr3  1  0.50551934  0.49070798  0.68600325  1
  Zr  Zr4  1  0.10590814  0.69919860  0.28914914  1
  Zr  Zr5  1  0.48683937  0.49448279  0.29402030  1
  Zr  Zr6  1  0.50064643  0.10962745  0.69775106  1
  Zr  Zr7  1  0.30511846  0.69987936  0.88775512  1
  Zr  Zr8  1  0.29660857  0.69761413  0.69543149  1
  Zr  Zr9  1  0.29336106  0.11375489  0.71068213  1
  Zr  Zr10  1  0.29793905  0.50027873  0.90242570  1
  Zr  Zr11  1  0.50249633  0.90499810  0.09963424  1
  Zr  Zr12  1  0.29563433  0.90918699  0.10458092  1
  Zr  Zr13  1  0.09524241  0.10551556  0.09224987  1
  Zr  Zr14  1  0.29789441  0.49591523  0.70206148  1
  Zr  Zr15  1  0.29896543  0.90245354  0.29957147  1
  Zr  Zr16  1  0.69309306  0.90281065  0.49701299  1
  Zr  Zr17  1  0.70831320  0.10361450  0.50242915  1
  Zr  Zr18  1  0.30156517  0.31024639  0.29280611  1
  Zr  Zr19  1  0.30590415  0.51055753  0.49630040  1
  Zr  Zr20  1  0.50391677  0.69303333  0.90602003  1
  Zr  Zr21  1  0.89431422  0.29703257  0.89673849  1
  Zr  Zr22  1  0.69270687  0.29549728  0.29437945  1
  Zr  Zr23  1  0.69907214  0.89752715  0.70740457  1
  Zr  Zr24  1  0.49392292  0.70366049  0.70887832  1
  Zr  Zr25  1  0.09903421  0.50395424  0.71360167  1
  Zr  Zr26  1  0.28958089  0.10241188  0.90952270  1
  Zr  Zr27  1  0.71348515  0.89013416  0.89389126  1
  Zr  Zr28  1  0.89394402  0.50152636  0.49551365  1
  Zr  Zr29  1  0.09961055  0.50464279  0.29505792  1
  Zr  Zr30  1  0.90083072  0.10780403  0.69939558  1
  Zr  Zr31  1  0.90058450  0.49782101  0.70558574  1
  Zr  Zr32  1  0.90279992  0.30198796  0.70450956  1
  Zr  Zr33  1  0.30129649  0.88962549  0.70916086  1
  Zr  Zr34  1  0.90176349  0.10181474  0.90312536  1
  Zr  Zr35  1  0.70409878  0.30151879  0.10403946  1
  Zr  Zr36  1  0.49886873  0.29803599  0.51002386  1
  Zr  Zr37  1  0.49865611  0.69629180  0.29838086  1
  Zr  Zr38  1  0.90327092  0.49916357  0.29869442  1
  Zr  Zr39  1  0.29620871  0.50221896  0.29306711  1
  Zr  Zr40  1  0.09438863  0.68919373  0.90242958  1
  Zr  Zr41  1  0.29320226  0.69307559  0.11227571  1
  Zr  Zr42  1  0.50247902  0.10670132  0.29486830  1
  Zr  Zr43  1  0.69780925  0.10424078  0.09692686  1
  Zr  Zr44  1  0.69637457  0.70113542  0.29665789  1
  Zr  Zr45  1  0.10582608  0.29393295  0.68299014  1
  Zr  Zr46  1  0.10205205  0.89616865  0.70506540  1
  Zr  Zr47  1  0.70573637  0.10156017  0.89942984  1
  Zr  Zr48  1  0.29693664  0.90136329  0.89995139  1
  Zr  Zr49  1  0.69198350  0.50480535  0.50727750  1
  Sc  Sc50  1  0.89700187  0.09911993  0.09880336  1
  Sc  Sc51  1  0.89819306  0.09502002  0.29398843  1
  Sc  Sc52  1  0.50761315  0.68889130  0.10055265  1
  Sc  Sc53  1  0.30877282  0.90295090  0.50762981  1
  Sc  Sc54  1  0.70655288  0.29354953  0.49146372  1
  Sc  Sc55  1  0.49441240  0.10513013  0.09854194  1
  Sc  Sc56  1  0.50263081  0.09643901  0.50441261  1
  Sc  Sc57  1  0.91586538  0.68899420  0.29633328  1
  Sc  Sc58  1  0.90548432  0.91021685  0.28917178  1
  Sc  Sc59  1  0.10473276  0.89991464  0.90446349  1
  Sc  Sc60  1  0.69773493  0.29482092  0.90334298  1
  Sc  Sc61  1  0.50318740  0.90005166  0.69461998  1
  Sc  Sc62  1  0.92092046  0.49543589  0.89436854  1
  Sc  Sc63  1  0.30803485  0.09858984  0.49811422  1
  Sc  Sc64  1  0.30217521  0.09717209  0.29447298  1
  Sc  Sc65  1  0.69250339  0.70192029  0.09185141  1
  Sc  Sc66  1  0.50482886  0.10774826  0.90642244  1
  Sc  Sc67  1  0.49470263  0.29843401  0.70356312  1
  Sc  Sc68  1  0.09450957  0.89558052  0.10777464  1
  Sc  Sc69  1  0.10102938  0.69575619  0.50542024  1
  Sc  Sc70  1  0.90562215  0.69321213  0.50046661  1
  Sc  Sc71  1  0.10077311  0.10672686  0.50732085  1
  Sc  Sc72  1  0.90199680  0.91431870  0.50098947  1
  Sc  Sc73  1  0.70351579  0.10235095  0.29315710  1
  Sc  Sc74  1  0.09851320  0.30085418  0.91642741  1
  Sc  Sc75  1  0.50622078  0.89918752  0.89662262  1
  Sc  Sc76  1  0.68835384  0.49710800  0.10091886  1
  Sc  Sc77  1  0.50387278  0.68810955  0.50084093  1
  Sc  Sc78  1  0.69416524  0.69367785  0.49420021  1
  Sc  Sc79  1  0.28612764  0.30264155  0.50146549  1
  Sc  Sc80  1  0.90417032  0.69835932  0.69588298  1
  Sc  Sc81  1  0.09170242  0.89954491  0.51054106  1
  Sc  Sc82  1  0.50300445  0.29965994  0.10395589  1
  Sc  Sc83  1  0.29724195  0.68364677  0.30123779  1
  Sc  Sc84  1  0.90778225  0.29626867  0.10321950  1
  Sc  Sc85  1  0.70925654  0.48909509  0.30071494  1
  Sc  Sc86  1  0.89807728  0.90267375  0.69699231  1
  Sc  Sc87  1  0.10163230  0.69944015  0.69750167  1
  Sc  Sc88  1  0.10251020  0.50267360  0.50388061  1
  Sc  Sc89  1  0.09828663  0.90528809  0.28904593  1
  Sc  Sc90  1  0.50626057  0.91009522  0.30333981  1
  Sc  Sc91  1  0.30328362  0.29927172  0.09707224  1
  Sc  Sc92  1  0.30482060  0.30078575  0.89528328  1
  Sc  Sc93  1  0.69363809  0.70397291  0.69742180  1
  Sc  Sc94  1  0.69209342  0.30140704  0.71689293  1
  Sc  Sc95  1  0.69689562  0.09962056  0.70489508  1
  Sc  Sc96  1  0.69681140  0.90931437  0.29441271  1
  Sc  Sc97  1  0.90440141  0.89697827  0.09148925  1
  Sc  Sc98  1  0.69344799  0.48464700  0.89904817  1
  Sc  Sc99  1  0.70055132  0.90391516  0.09875251  1
  Nb  Nb100  1  0.90530441  0.70343904  0.09493675  1
  Nb  Nb101  1  0.89807962  0.10644708  0.50031916  1
  Nb  Nb102  1  0.30155501  0.49744451  0.10497883  1
  Nb  Nb103  1  0.29666241  0.10389506  0.10111560  1
  Nb  Nb104  1  0.09169709  0.70201372  0.10128136  1
  Nb  Nb105  1  0.51007583  0.30938715  0.90251978  1
  Nb  Nb106  1  0.90184605  0.49887601  0.10119979  1
  Nb  Nb107  1  0.49722099  0.29870406  0.29686080  1
  Nb  Nb108  1  0.10179144  0.10053094  0.89794440  1
  Nb  Nb109  1  0.10119695  0.30131790  0.10354760  1
  Nb  Nb110  1  0.89130707  0.71325212  0.90583844  1
  Nb  Nb111  1  0.29809206  0.70036493  0.49643923  1
  Nb  Nb112  1  0.70316483  0.70001074  0.89620693  1
  Nb  Nb113  1  0.49507042  0.90472918  0.49347402  1
  Nb  Nb114  1  0.49841923  0.49773380  0.09106913  1
  Nb  Nb115  1  0.89784513  0.89583980  0.89435858  1
  Nb  Nb116  1  0.09983329  0.09924719  0.29931761  1
  Nb  Nb117  1  0.09581281  0.29759306  0.49503837  1
  Nb  Nb118  1  0.70092130  0.49924907  0.70401862  1
  Nb  Nb119  1  0.30013412  0.30417297  0.69899973  1
  Nb  Nb120  1  0.10392236  0.10018494  0.70647920  1
  Nb  Nb121  1  0.09608237  0.49239041  0.08494906  1
  Nb  Nb122  1  0.50233468  0.49647301  0.91123673  1
  Nb  Nb123  1  0.50142022  0.49328815  0.50015424  1
  Nb  Nb124  1  0.10470745  0.49909166  0.90548272  1
  Nb  Nb125  1  0.59007924  0.39719453  0.40026844  1
  Nb  Nb126  1  0.80441949  0.79190609  0.20074549  1
  Nb  Nb127  1  0.39486557  0.79890875  0.00714928  1
  Nb  Nb128  1  0.60164314  0.59368952  0.80189261  1
  Nb  Nb129  1  0.00126194  0.39329645  0.40211253  1
  Nb  Nb130  1  0.80724770  0.40641169  0.00268418  1
  Nb  Nb131  1  0.19670368  -0.00323662  0.40395962  1
  Nb  Nb132  1  0.80392461  0.59844644  -0.00306573  1
  Nb  Nb133  1  0.20216066  0.00312865  0.60761202  1
  Nb  Nb134  1  0.80527090  0.60209367  0.18840977  1
  Nb  Nb135  1  0.19674773  0.19918028  0.19564188  1
  Nb  Nb136  1  -0.00084173  0.20025972  0.40038595  1
  Nb  Nb137  1  -0.00492170  0.80315143  0.80687423  1
  Nb  Nb138  1  0.20173269  0.79202268  0.00572748  1
  Nb  Nb139  1  0.40109592  0.80005836  0.20095026  1
  Nb  Nb140  1  0.80665113  0.80159245  0.39573399  1
  Nb  Nb141  1  0.79722293  0.40359787  0.60721302  1
  Nb  Nb142  1  0.00385104  0.00230209  0.80376745  1
  Nb  Nb143  1  0.00230174  0.80197532  0.39729505  1
  Nb  Nb144  1  0.39553975  0.00616908  0.80091479  1
  Nb  Nb145  1  0.79643908  0.80253730  0.58978702  1
  Nb  Nb146  1  0.79688473  0.60097851  0.80818367  1
  Nb  Nb147  1  0.20099412  0.80268708  0.40102450  1
  Nb  Nb148  1  0.39883112  0.79838954  0.39985676  1
  Nb  Nb149  1  0.40231943  0.20680104  0.39443564  1
  Pd  Pd150  1  0.59215817  0.00442262  0.80280733  1
  Pd  Pd151  1  0.20290758  0.60261729  0.00383708  1
  Pd  Pd152  1  0.00353519  0.59557026  0.60163512  1
  Pd  Pd153  1  0.60384320  -0.00136329  -0.00672610  1
  Pd  Pd154  1  0.19012580  -0.00493830  0.00826876  1
  Pd  Pd155  1  0.59587735  0.80239012  0.40057673  1
  Pd  Pd156  1  0.01070879  0.20252870  0.80364873  1
  Pd  Pd157  1  0.40546623  0.19988268  0.81074030  1
  Pd  Pd158  1  0.59505284  0.58476452  0.38932983  1
  Pd  Pd159  1  0.59804258  0.80303220  -0.00252298  1
  Pd  Pd160  1  0.00173103  -0.00523987  -0.00333772  1
  Pd  Pd161  1  0.20002396  0.40789959  0.59590379  1
  Pd  Pd162  1  0.39439306  0.00234067  0.61314295  1
  Pd  Pd163  1  0.20807365  0.39545525  0.00284995  1
  Pd  Pd164  1  0.60481063  0.58903931  0.20553085  1
  Pd  Pd165  1  0.20117848  0.80494577  0.59134577  1
  Pd  Pd166  1  0.39372082  0.60374456  0.00706721  1
  Pd  Pd167  1  0.40539002  0.00054977  0.20087521  1
  Pd  Pd168  1  -0.00254890  0.40642642  0.59523752  1
  Pd  Pd169  1  0.80080547  0.60874425  0.38968637  1
  Pd  Pd170  1  0.38934216  0.20491966  0.59385920  1
  Pd  Pd171  1  0.79573107  -0.00259060  0.60510596  1
  Pd  Pd172  1  0.20340900  0.19002931  0.39467906  1
  Pd  Pd173  1  0.61319586  0.38572351  0.59653697  1
  Pd  Pd174  1  0.19554513  0.41046552  0.40384603  1
  Pd  Pd175  1  0.59808555  0.79690530  0.59258164  1
  Pd  Pd176  1  0.59471662  0.20048471  0.40443304  1
  Pd  Pd177  1  0.78909682  0.21084315  0.61374713  1
  Pd  Pd178  1  0.59901709  0.80580570  0.19924332  1
  Pd  Pd179  1  0.39900907  0.39456613  0.00159002  1
  Pd  Pd180  1  0.39956814  0.39346663  0.40891002  1
  Pd  Pd181  1  0.80141240  -0.00165088  0.39475237  1
  Pd  Pd182  1  0.40864821  0.79613869  0.59072605  1
  Pd  Pd183  1  0.40297674  -0.00103742  -0.00673868  1
  Pd  Pd184  1  0.19168827  0.21543062  0.80822859  1
  Pd  Pd185  1  -0.00778586  0.59877018  -0.00043852  1
  Pd  Pd186  1  0.79479581  0.60486710  0.60864117  1
  Pd  Pd187  1  0.00519499  0.00888583  0.60715285  1
  Pd  Pd188  1  0.00031740  0.19798495  0.20706294  1
  Pd  Pd189  1  0.60255070  0.01237410  0.40036961  1
  Pd  Pd190  1  0.80069794  -0.00416323  0.00171651  1
  Pd  Pd191  1  0.40270261  0.60142639  0.60060319  1
  Pd  Pd192  1  0.40217996  0.20653052  -0.00237564  1
  Pd  Pd193  1  0.41058375  0.58337404  0.79669666  1
  Pd  Pd194  1  0.00677852  0.00331030  0.40157952  1
  Pd  Pd195  1  0.00109944  0.39899828  0.20261829  1
  Pd  Pd196  1  0.40642538  0.40366016  0.80098680  1
  Pd  Pd197  1  0.19257470  0.39118923  0.80403322  1
  Pd  Pd198  1  0.01541086  0.38620107  0.80286736  1
  Pd  Pd199  1  0.60185546  0.00156404  0.60137019  1
  Rh  Rh200  1  0.79502843  0.19657940  0.79834700  1
  Rh  Rh201  1  0.39863263  0.00292085  0.39806832  1
  Rh  Rh202  1  0.59680300  0.60509317  0.60978094  1
  Rh  Rh203  1  0.38895123  0.39700825  0.59734707  1
  Rh  Rh204  1  0.18668968  0.58538904  0.18426608  1
  Rh  Rh205  1  0.39115614  0.20091469  0.20288307  1
  Rh  Rh206  1  0.80724759  0.18867249  0.39192548  1
  Rh  Rh207  1  0.20269543  0.59649181  0.60264502  1
  Rh  Rh208  1  0.20067453  0.20567739  0.00505956  1
  Rh  Rh209  1  -0.00851544  0.61100706  0.80297043  1
  Rh  Rh210  1  0.80340453  0.20896871  0.00475739  1
  Rh  Rh211  1  0.00358222  0.59535149  0.18679178  1
  Rh  Rh212  1  0.20452143  0.79949885  0.20007327  1
  Rh  Rh213  1  0.00943927  0.80268975  -0.00672280  1
  Rh  Rh214  1  -0.00238985  0.20208798  -0.00104814  1
  Rh  Rh215  1  0.59679323  0.79379636  0.80373742  1
  Rh  Rh216  1  0.59300716  0.40250036  0.20480504  1
  Rh  Rh217  1  0.19516651  0.60438566  0.40315118  1
  Rh  Rh218  1  0.40341698  0.40075805  0.18724694  1
  Rh  Rh219  1  0.79515917  0.40208254  0.41179431  1
  Rh  Rh220  1  0.80095320  -0.00760162  0.19172405  1
  Rh  Rh221  1  0.59986665  0.00861672  0.19460178  1
  Rh  Rh222  1  0.80134481  0.40573197  0.80435937  1
  Rh  Rh223  1  0.18669659  0.78769479  0.81060368  1
  Rh  Rh224  1  0.61000395  0.59276278  -0.00932455  1
  Rh  Rh225  1  0.00165691  0.19383985  0.59706117  1
  Rh  Rh226  1  0.80879459  0.00648412  0.79745000  1
  Rh  Rh227  1  0.40584045  0.59904691  0.19129300  1
  Rh  Rh228  1  0.19253378  0.01202990  0.19951097  1
  Rh  Rh229  1  0.59494926  0.19956250  0.80536846  1
  Rh  Rh230  1  0.59061785  0.40450849  0.80049714  1
  Rh  Rh231  1  0.59900104  0.19782313  0.19293338  1
  Rh  Rh232  1  0.59963895  0.20588509  0.00168985  1
  Rh  Rh233  1  0.80043158  0.40591536  0.18917476  1
  Rh  Rh234  1  -0.00864122  0.79964701  0.20598846  1
  Rh  Rh235  1  -0.01100090  0.79807672  0.59785097  1
  Rh  Rh236  1  0.80690698  0.79123813  0.78329801  1
  Rh  Rh237  1  0.79471013  0.79848763  0.01095545  1
  Rh  Rh238  1  0.60657102  0.20081412  0.60308750  1
  Rh  Rh239  1  0.40894753  0.80959382  0.80895382  1
  Rh  Rh240  1  -0.00008024  0.00665643  0.18957487  1
  Rh  Rh241  1  0.20030803  0.59969490  0.80055730  1
  Rh  Rh242  1  0.19796496  0.40086393  0.18807058  1
  Rh  Rh243  1  0.00977118  0.59931672  0.40456297  1
  Rh  Rh244  1  0.60524337  0.39401448  0.00646029  1
  Rh  Rh245  1  0.20461769  0.19483850  0.59646914  1
  Rh  Rh246  1  0.80158053  0.19669243  0.19710342  1
  Rh  Rh247  1  0.40483103  0.60329365  0.40195807  1
  Rh  Rh248  1  0.20064383  0.00238434  0.79662834  1
  Rh  Rh249  1  -0.00566743  0.39462087  0.00071742  1
