# generated using pymatgen
data_ZrScNbPdRh
_symmetry_space_group_name_H-M   'P 1'
_cell_length_a   16.55621193
_cell_length_b   16.55862152
_cell_length_c   16.55487835
_cell_angle_alpha   89.96414257
_cell_angle_beta   89.99838530
_cell_angle_gamma   89.98184194
_symmetry_Int_Tables_number   1
_chemical_formula_structural   ZrScNbPdRh
_chemical_formula_sum   'Zr50 Sc50 Nb50 Pd50 Rh50'
_cell_volume   4538.48644959
_cell_formula_units_Z   50
loop_
 _symmetry_equiv_pos_site_id
 _symmetry_equiv_pos_as_xyz
  1  'x, y, z'
loop_
 _atom_site_type_symbol
 _atom_site_label
 _atom_site_symmetry_multiplicity
 _atom_site_fract_x
 _atom_site_fract_y
 _atom_site_fract_z
 _atom_site_occupancy
  Zr  Zr0  1  0.89550104  0.49638955  0.10110398  1
  Zr  Zr1  1  0.70404284  0.71289412  0.10019405  1
  Zr  Zr2  1  0.50257600  0.70118659  0.09283455  1
  Zr  Zr3  1  0.10332350  0.49357556  0.09981344  1
  Zr  Zr4  1  0.30064118  0.69378145  0.90384139  1
  Zr  Zr5  1  0.29914568  0.50271309  0.70435629  1
  Zr  Zr6  1  0.29859780  0.69960605  0.29774032  1
  Zr  Zr7  1  0.50457003  0.90000723  0.09643844  1
  Zr  Zr8  1  0.09504936  0.70536336  0.50190163  1
  Zr  Zr9  1  0.09819991  0.69499337  0.69873142  1
  Zr  Zr10  1  0.50232896  0.30429794  0.49868062  1
  Zr  Zr11  1  0.28796949  0.29574984  0.10717867  1
  Zr  Zr12  1  0.49495263  0.49313799  0.29756793  1
  Zr  Zr13  1  0.70125475  0.10338847  0.90017023  1
  Zr  Zr14  1  0.29793256  0.49095219  0.29971758  1
  Zr  Zr15  1  0.51160406  0.72378205  0.69491972  1
  Zr  Zr16  1  0.88625350  0.69548810  0.30302657  1
  Zr  Zr17  1  0.49834665  0.09330981  0.70899388  1
  Zr  Zr18  1  0.50126890  0.09986145  0.49820589  1
  Zr  Zr19  1  0.49905313  0.10325821  0.30165915  1
  Zr  Zr20  1  0.49653349  0.50236683  0.90102541  1
  Zr  Zr21  1  0.28687660  0.90773179  0.50356918  1
  Zr  Zr22  1  0.70085564  0.89776281  0.29348663  1
  Zr  Zr23  1  0.50388013  0.30479271  0.90092838  1
  Zr  Zr24  1  0.48761731  0.29803067  0.30016488  1
  Zr  Zr25  1  0.09980874  0.89669956  0.49340244  1
  Zr  Zr26  1  0.29890771  0.50033791  0.49883854  1
  Zr  Zr27  1  0.50544781  0.10706334  0.90076415  1
  Zr  Zr28  1  0.69875801  0.89891260  0.09717506  1
  Zr  Zr29  1  0.30420660  0.90715799  0.11195998  1
  Zr  Zr30  1  0.90309999  0.90761018  0.30250254  1
  Zr  Zr31  1  0.09469346  0.29399880  0.51012635  1
  Zr  Zr32  1  0.09417660  0.49605322  0.69824104  1
  Zr  Zr33  1  0.70139042  0.29767960  0.50453110  1
  Zr  Zr34  1  0.29937383  0.69922888  0.70656163  1
  Zr  Zr35  1  0.50280175  0.49831856  0.09477431  1
  Zr  Zr36  1  0.09430411  0.29416068  0.08928730  1
  Zr  Zr37  1  0.89709458  0.69980632  0.50796135  1
  Zr  Zr38  1  0.50758253  0.29950719  0.10305510  1
  Zr  Zr39  1  0.30820615  0.50023976  0.89564983  1
  Zr  Zr40  1  0.50156853  0.50244143  0.71062442  1
  Zr  Zr41  1  0.10433751  0.09249288  0.50104789  1
  Zr  Zr42  1  0.09850376  0.50320376  0.50699005  1
  Zr  Zr43  1  0.90615316  0.89626318  0.49611111  1
  Zr  Zr44  1  0.50081825  0.89411333  0.51106884  1
  Zr  Zr45  1  0.50409154  0.90615038  0.88862430  1
  Zr  Zr46  1  0.89637352  0.28628282  0.49868057  1
  Zr  Zr47  1  0.89477041  0.90315603  0.09086804  1
  Zr  Zr48  1  0.10317746  0.69776047  0.09293460  1
  Zr  Zr49  1  0.91710998  0.29710563  0.70387735  1
  Sc  Sc50  1  0.70036770  0.50377517  0.89906328  1
  Sc  Sc51  1  0.30122835  0.10001800  0.29253401  1
  Sc  Sc52  1  0.29883269  0.30297243  0.49534651  1
  Sc  Sc53  1  0.70715052  0.29750996  0.09555883  1
  Sc  Sc54  1  0.70646455  0.09168604  0.30564088  1
  Sc  Sc55  1  0.70460092  0.50155631  0.69865655  1
  Sc  Sc56  1  0.29803582  0.29701110  0.90809167  1
  Sc  Sc57  1  0.90066842  0.90069669  0.89049531  1
  Sc  Sc58  1  0.90727392  0.10066782  0.10290128  1
  Sc  Sc59  1  0.10126058  0.70966087  0.30009413  1
  Sc  Sc60  1  0.10022903  0.89726801  0.70767521  1
  Sc  Sc61  1  0.89703133  0.50746454  0.69991007  1
  Sc  Sc62  1  0.29375907  0.10117415  0.50342816  1
  Sc  Sc63  1  0.29203650  0.09698993  0.09571483  1
  Sc  Sc64  1  0.29526183  0.90254853  0.89676014  1
  Sc  Sc65  1  0.90539515  0.08876499  0.90402543  1
  Sc  Sc66  1  0.10122504  0.10653472  0.70432155  1
  Sc  Sc67  1  0.70688766  0.50415445  0.30273701  1
  Sc  Sc68  1  0.50599574  0.90940899  0.29283832  1
  Sc  Sc69  1  0.29495496  0.50377444  0.09194418  1
  Sc  Sc70  1  0.09731210  0.09573698  0.09743711  1
  Sc  Sc71  1  0.89649250  0.50374786  0.90777306  1
  Sc  Sc72  1  0.50755410  0.69671278  0.89701671  1
  Sc  Sc73  1  0.09798396  0.09946857  0.90388171  1
  Sc  Sc74  1  0.28890565  0.09444079  0.69810644  1
  Sc  Sc75  1  0.29112418  0.70341331  0.50226310  1
  Sc  Sc76  1  0.89711661  0.10297538  0.48951192  1
  Sc  Sc77  1  0.10020373  0.30207666  0.28673148  1
  Sc  Sc78  1  0.90039192  0.09493629  0.71160667  1
  Sc  Sc79  1  0.89367156  0.50729386  0.50860675  1
  Sc  Sc80  1  0.70099433  0.10880602  0.70357332  1
  Sc  Sc81  1  0.29601417  0.09784784  0.90448895  1
  Sc  Sc82  1  0.90201690  0.10868069  0.29975009  1
  Sc  Sc83  1  0.29758741  0.69967977  0.10183860  1
  Sc  Sc84  1  0.70424865  0.29439011  0.28964793  1
  Sc  Sc85  1  0.50311333  0.49742990  0.48692102  1
  Sc  Sc86  1  0.51224865  0.30547582  0.70579775  1
  Sc  Sc87  1  0.10138976  0.90706934  0.10030260  1
  Sc  Sc88  1  0.70554179  0.70454786  0.89526813  1
  Sc  Sc89  1  0.70104713  0.30179809  0.69129166  1
  Sc  Sc90  1  0.49729666  0.09797649  0.09800889  1
  Sc  Sc91  1  0.70778180  0.90257027  0.90385947  1
  Sc  Sc92  1  0.70156197  0.90668931  0.48608145  1
  Sc  Sc93  1  0.70589901  0.49054145  0.09827119  1
  Sc  Sc94  1  0.70682092  0.10435571  0.09689359  1
  Sc  Sc95  1  0.09539722  0.90348855  0.90130363  1
  Sc  Sc96  1  0.10235714  0.90432905  0.30469175  1
  Sc  Sc97  1  0.49002205  0.68497301  0.30248847  1
  Sc  Sc98  1  0.10358035  0.70995220  0.90093966  1
  Sc  Sc99  1  0.08969157  0.09450635  0.29564951  1
  Nb  Nb100  1  0.70329347  0.10173221  0.50332971  1
  Nb  Nb101  1  0.29675522  0.29764884  0.70200526  1
  Nb  Nb102  1  0.50048011  0.69923966  0.49944145  1
  Nb  Nb103  1  0.90133227  0.70100156  0.89835929  1
  Nb  Nb104  1  0.50109292  0.90229031  0.69990317  1
  Nb  Nb105  1  0.29965067  0.29486922  0.30267984  1
  Nb  Nb106  1  0.31728063  0.90472382  0.70233945  1
  Nb  Nb107  1  0.90055176  0.29754060  0.29912748  1
  Nb  Nb108  1  0.70519655  0.29510524  0.90276552  1
  Nb  Nb109  1  0.69851878  0.69869230  0.30111784  1
  Nb  Nb110  1  0.89332662  0.89881185  0.70241732  1
  Nb  Nb111  1  0.29974004  0.90113249  0.30420491  1
  Nb  Nb112  1  0.10098667  0.29743720  0.70603599  1
  Nb  Nb113  1  0.69994130  0.49570539  0.50305777  1
  Nb  Nb114  1  0.88870504  0.70623623  0.70913889  1
  Nb  Nb115  1  0.08660805  0.30010526  0.89117596  1
  Nb  Nb116  1  0.70102047  0.69081950  0.49399220  1
  Nb  Nb117  1  0.90653530  0.29882790  0.90404669  1
  Nb  Nb118  1  0.70883865  0.70583339  0.69561207  1
  Nb  Nb119  1  0.09547091  0.49946233  0.29872399  1
  Nb  Nb120  1  0.90308352  0.69749093  0.09333054  1
  Nb  Nb121  1  0.09659441  0.49337678  0.90062476  1
  Nb  Nb122  1  0.90008103  0.49550235  0.29743963  1
  Nb  Nb123  1  0.69977587  0.88963296  0.70121229  1
  Nb  Nb124  1  0.89586538  0.29749811  0.10606987  1
  Nb  Nb125  1  0.59779124  0.78921216  0.39976696  1
  Nb  Nb126  1  0.80744280  0.39072238  0.80648173  1
  Nb  Nb127  1  0.39896208  0.20664307  0.60784468  1
  Nb  Nb128  1  0.19102187  0.59574643  0.39712749  1
  Nb  Nb129  1  0.19894561  0.20336706  0.39470470  1
  Nb  Nb130  1  0.39863089  0.20239332  0.79642870  1
  Nb  Nb131  1  0.60576703  -0.00554717  0.60513025  1
  Nb  Nb132  1  0.19200327  0.39326686  0.80033330  1
  Nb  Nb133  1  -0.00550218  0.40136262  0.39685641  1
  Nb  Nb134  1  -0.00125693  0.59488781  0.39287560  1
  Nb  Nb135  1  -0.00622008  -0.00653854  0.60228625  1
  Nb  Nb136  1  0.60437621  0.60189640  0.19951733  1
  Nb  Nb137  1  0.40270884  0.80441747  0.00022540  1
  Nb  Nb138  1  0.80525570  0.20829902  0.80730479  1
  Nb  Nb139  1  -0.00805658  0.79411378  0.19375709  1
  Nb  Nb140  1  0.39714407  -0.00608012  0.40077197  1
  Nb  Nb141  1  0.40122374  0.80514053  0.40119147  1
  Nb  Nb142  1  0.60195646  0.19877310  0.40305772  1
  Nb  Nb143  1  0.60243156  0.60635611  0.59375278  1
  Nb  Nb144  1  0.79882994  -0.00307181  0.60352559  1
  Nb  Nb145  1  0.80659764  0.39828789  0.39943924  1
  Nb  Nb146  1  -0.00413213  0.60038382  0.19954764  1
  Nb  Nb147  1  0.40114652  0.40111708  0.60628027  1
  Nb  Nb148  1  0.40862080  0.60224182  0.60042702  1
  Nb  Nb149  1  -0.00415402  0.60524413  0.80540233  1
  Pd  Pd150  1  0.80894642  0.39660433  0.60357218  1
  Pd  Pd151  1  0.61157906  0.60101551  0.00496467  1
  Pd  Pd152  1  0.19104545  0.80749047  0.19843869  1
  Pd  Pd153  1  -0.00105966  0.80389829  0.61221475  1
  Pd  Pd154  1  0.60432113  0.00471853  0.00193162  1
  Pd  Pd155  1  0.60893278  0.40571514  0.20517603  1
  Pd  Pd156  1  -0.01044704  0.40136573  0.59366186  1
  Pd  Pd157  1  0.18855165  0.39521677  0.39662441  1
  Pd  Pd158  1  0.19120009  0.19108182  0.20394533  1
  Pd  Pd159  1  0.61424925  -0.00329231  0.79407175  1
  Pd  Pd160  1  0.80293468  0.00752127  0.19761100  1
  Pd  Pd161  1  0.19940345  0.39673169  -0.00968252  1
  Pd  Pd162  1  0.39935109  0.20238460  0.00148181  1
  Pd  Pd163  1  0.20959193  0.80879980  0.00417518  1
  Pd  Pd164  1  0.40098250  0.00852003  0.59715709  1
  Pd  Pd165  1  0.59462659  0.19269392  0.60125222  1
  Pd  Pd166  1  0.19387123  0.59759863  0.20437974  1
  Pd  Pd167  1  0.40170444  0.59464437  0.19027943  1
  Pd  Pd168  1  0.79474473  0.80117346  0.40270633  1
  Pd  Pd169  1  0.39604888  0.39330605  0.00807667  1
  Pd  Pd170  1  0.38873520  0.79606425  0.59544185  1
  Pd  Pd171  1  0.79255433  0.60441545  -0.00044608  1
  Pd  Pd172  1  0.40004485  0.79879535  0.80903873  1
  Pd  Pd173  1  0.60770329  0.60946651  0.79059135  1
  Pd  Pd174  1  0.18763443  0.59320193  0.80916696  1
  Pd  Pd175  1  0.20420013  0.39529233  0.60623754  1
  Pd  Pd176  1  0.58780755  0.78950007  0.21265710  1
  Pd  Pd177  1  0.20309326  0.80724943  0.61202308  1
  Pd  Pd178  1  0.81184770  0.19550482  -0.00206721  1
  Pd  Pd179  1  0.20322210  0.80507789  0.79851581  1
  Pd  Pd180  1  0.60121080  0.59785223  0.39639895  1
  Pd  Pd181  1  0.60597630  0.01076980  0.19338694  1
  Pd  Pd182  1  0.60559992  0.19247866  0.20325414  1
  Pd  Pd183  1  0.79256320  0.80706660  0.58882157  1
  Pd  Pd184  1  0.39789162  -0.00483349  -0.00663282  1
  Pd  Pd185  1  0.19811537  -0.00157535  0.79901336  1
  Pd  Pd186  1  0.60880586  0.39942765  -0.00438001  1
  Pd  Pd187  1  0.39615892  0.19411720  0.18972878  1
  Pd  Pd188  1  0.61271635  0.39169656  0.38932094  1
  Pd  Pd189  1  0.20362539  0.20281076  0.80965735  1
  Pd  Pd190  1  0.39049277  0.40043626  0.18978407  1
  Pd  Pd191  1  0.80788509  0.80310228  0.19918779  1
  Pd  Pd192  1  -0.00152991  0.39798094  0.19852616  1
  Pd  Pd193  1  -0.00170682  0.80653170  0.00044924  1
  Pd  Pd194  1  0.00609832  0.59773396  -0.00362345  1
  Pd  Pd195  1  0.61608184  0.39869521  0.80215626  1
  Pd  Pd196  1  -0.00498334  0.18176340  0.60358460  1
  Pd  Pd197  1  0.40867648  0.80132855  0.20236495  1
  Pd  Pd198  1  -0.00757534  0.39943562  0.00272767  1
  Pd  Pd199  1  0.79563775  0.59862251  0.19361790  1
  Rh  Rh200  1  0.59479275  0.00161119  0.40610577  1
  Rh  Rh201  1  -0.00166580  0.00469708  0.40608398  1
  Rh  Rh202  1  0.38517313  0.60754112  0.40892245  1
  Rh  Rh203  1  0.80303133  0.59013571  0.40494272  1
  Rh  Rh204  1  0.80151034  0.00260230  -0.00023522  1
  Rh  Rh205  1  -0.00633019  0.79097284  0.38659708  1
  Rh  Rh206  1  0.20436591  0.20565231  0.59304004  1
  Rh  Rh207  1  0.00413204  -0.00183841  0.79396092  1
  Rh  Rh208  1  0.60316266  0.20830116  0.80164141  1
  Rh  Rh209  1  0.80815790  0.19129882  0.61187076  1
  Rh  Rh210  1  0.79822449  0.80367121  0.80629365  1
  Rh  Rh211  1  -0.00293141  0.19767503  0.00004422  1
  Rh  Rh212  1  0.80535909  0.00273298  0.40167337  1
  Rh  Rh213  1  0.80486102  0.59624668  0.80131914  1
  Rh  Rh214  1  0.20247076  0.39986308  0.19990613  1
  Rh  Rh215  1  0.39703852  0.39718092  0.40347480  1
  Rh  Rh216  1  -0.00339681  0.79426083  0.79939385  1
  Rh  Rh217  1  0.59566505  0.80450435  -0.01107853  1
  Rh  Rh218  1  -0.00329244  0.41129673  0.80204692  1
  Rh  Rh219  1  0.59182914  0.41627934  0.60108920  1
  Rh  Rh220  1  0.20586492  0.60181237  0.59539178  1
  Rh  Rh221  1  0.79979860  0.39436201  0.20297356  1
  Rh  Rh222  1  0.60850978  0.80319267  0.80547425  1
  Rh  Rh223  1  0.80639270  0.79887977  -0.00688556  1
  Rh  Rh224  1  0.80341285  0.39568577  -0.00529714  1
  Rh  Rh225  1  0.19121935  0.20068544  -0.00456922  1
  Rh  Rh226  1  0.80397112  0.19675050  0.19948349  1
  Rh  Rh227  1  0.18968862  -0.00802201  0.61126528  1
  Rh  Rh228  1  0.41262457  0.61551613  0.79211698  1
  Rh  Rh229  1  0.01301601  0.20811336  0.39331479  1
  Rh  Rh230  1  -0.00156966  0.18995761  0.80625476  1
  Rh  Rh231  1  0.19838757  0.00148754  0.20324764  1
  Rh  Rh232  1  -0.00039305  0.20351754  0.19594424  1
  Rh  Rh233  1  0.79240153  0.60271100  0.60300983  1
  Rh  Rh234  1  0.39347803  0.00890429  0.80405208  1
  Rh  Rh235  1  0.79409852  0.00461800  0.79578252  1
  Rh  Rh236  1  0.61603091  0.80068626  0.58852038  1
  Rh  Rh237  1  0.20624757  0.79416689  0.39559516  1
  Rh  Rh238  1  0.39028175  0.38842469  0.79896959  1
  Rh  Rh239  1  0.19888157  -0.00186994  0.00094580  1
  Rh  Rh240  1  0.00067240  -0.00397891  0.00031083  1
  Rh  Rh241  1  0.40066544  0.00416307  0.20493523  1
  Rh  Rh242  1  -0.00295023  -0.00853534  0.19800916  1
  Rh  Rh243  1  0.78907204  0.20469814  0.39468833  1
  Rh  Rh244  1  0.19621234  0.59616971  -0.00673643  1
  Rh  Rh245  1  0.39963102  0.60614613  0.00194190  1
  Rh  Rh246  1  0.39549856  0.19272503  0.40687531  1
  Rh  Rh247  1  0.59974899  0.20211431  0.00543649  1
  Rh  Rh248  1  0.20531588  0.01294375  0.39066670  1
  Rh  Rh249  1  -0.00894764  0.60902693  0.60881123  1
