# generated using pymatgen
data_ZrScNbPdRh
_symmetry_space_group_name_H-M   'P 1'
_cell_length_a   16.56066466
_cell_length_b   16.56359997
_cell_length_c   16.55512039
_cell_angle_alpha   89.98346416
_cell_angle_beta   89.98291822
_cell_angle_gamma   90.05643142
_symmetry_Int_Tables_number   1
_chemical_formula_structural   ZrScNbPdRh
_chemical_formula_sum   'Zr50 Sc50 Nb50 Pd50 Rh50'
_cell_volume   4541.13686953
_cell_formula_units_Z   50
loop_
 _symmetry_equiv_pos_site_id
 _symmetry_equiv_pos_as_xyz
  1  'x, y, z'
loop_
 _atom_site_type_symbol
 _atom_site_label
 _atom_site_symmetry_multiplicity
 _atom_site_fract_x
 _atom_site_fract_y
 _atom_site_fract_z
 _atom_site_occupancy
  Zr  Zr0  1  0.49804264  0.09433488  0.10772901  1
  Zr  Zr1  1  0.09689101  0.30357632  0.49914236  1
  Zr  Zr2  1  0.50284624  0.90464737  0.49847770  1
  Zr  Zr3  1  0.49797012  0.50797695  0.49566246  1
  Zr  Zr4  1  0.90154824  0.50738310  0.29666770  1
  Zr  Zr5  1  0.10008107  0.90632641  0.29388615  1
  Zr  Zr6  1  0.30327756  0.09083783  0.29441713  1
  Zr  Zr7  1  0.10319359  0.30373627  0.09211789  1
  Zr  Zr8  1  0.50888740  0.69728521  0.49392955  1
  Zr  Zr9  1  0.29965783  0.09666726  0.50246219  1
  Zr  Zr10  1  0.89017491  0.50287248  0.49828031  1
  Zr  Zr11  1  0.10517888  0.10798967  0.49975121  1
  Zr  Zr12  1  0.29385545  0.70725173  0.90627485  1
  Zr  Zr13  1  0.89264561  0.89895121  0.30131258  1
  Zr  Zr14  1  0.69615328  0.50907281  0.90995440  1
  Zr  Zr15  1  0.29938723  0.30574642  0.29719094  1
  Zr  Zr16  1  0.90828447  0.49900430  0.70084133  1
  Zr  Zr17  1  0.30097368  0.50284984  0.30509970  1
  Zr  Zr18  1  0.69086907  0.09167249  0.50359868  1
  Zr  Zr19  1  0.31303458  0.50268013  0.89217013  1
  Zr  Zr20  1  0.50915853  0.49713556  0.09608955  1
  Zr  Zr21  1  0.29766633  0.89410513  0.30007618  1
  Zr  Zr22  1  0.69513274  0.09599763  0.30004774  1
  Zr  Zr23  1  0.89211968  0.89679533  0.50312455  1
  Zr  Zr24  1  0.50029473  0.09347667  0.49857013  1
  Zr  Zr25  1  0.30445304  0.30219453  0.09666075  1
  Zr  Zr26  1  0.50262421  0.30027075  0.71179954  1
  Zr  Zr27  1  0.29148658  0.30586524  0.70880776  1
  Zr  Zr28  1  0.10129485  0.88739454  0.49697561  1
  Zr  Zr29  1  0.70272024  0.69735748  0.09118079  1
  Zr  Zr30  1  0.49230613  0.50405515  0.71389273  1
  Zr  Zr31  1  0.90495378  0.49815160  0.90362917  1
  Zr  Zr32  1  0.09562600  0.10373986  0.30644381  1
  Zr  Zr33  1  0.29751301  0.69810070  0.10355166  1
  Zr  Zr34  1  0.30727887  0.90760072  0.70424072  1
  Zr  Zr35  1  0.69939615  0.70360670  0.89106369  1
  Zr  Zr36  1  0.89575258  0.90108721  0.09515571  1
  Zr  Zr37  1  0.50452528  0.90118045  0.29514169  1
  Zr  Zr38  1  0.09707730  0.70113649  0.89770087  1
  Zr  Zr39  1  0.10630129  0.70192685  0.30959010  1
  Zr  Zr40  1  0.50016297  0.29761872  0.49912298  1
  Zr  Zr41  1  0.70475319  0.68862587  0.50244826  1
  Zr  Zr42  1  0.90052153  0.30754668  0.70031537  1
  Zr  Zr43  1  0.10029509  0.09939359  0.69358507  1
  Zr  Zr44  1  0.50800103  0.69948538  0.70057991  1
  Zr  Zr45  1  0.28750646  0.30011377  0.49415643  1
  Zr  Zr46  1  0.70600626  0.50474362  0.10427771  1
  Zr  Zr47  1  0.49686055  0.90513873  0.89537703  1
  Zr  Zr48  1  0.89726133  0.89614976  0.69912011  1
  Zr  Zr49  1  0.89680890  0.70156575  0.69965197  1
  Sc  Sc50  1  0.90139540  0.50339196  0.10041339  1
  Sc  Sc51  1  0.91187222  0.09431933  0.49953033  1
  Sc  Sc52  1  0.90622065  0.31003152  0.50061365  1
  Sc  Sc53  1  0.09737585  0.08860298  0.10085414  1
  Sc  Sc54  1  0.70581517  0.89994143  0.10876610  1
  Sc  Sc55  1  0.90616283  0.31379944  0.30725898  1
  Sc  Sc56  1  0.28619256  0.70342268  0.49937499  1
  Sc  Sc57  1  0.90579416  0.09117127  0.30861422  1
  Sc  Sc58  1  0.70239018  0.09981995  0.09973980  1
  Sc  Sc59  1  0.70999643  0.50289596  0.29551725  1
  Sc  Sc60  1  0.70603749  0.51295480  0.69370459  1
  Sc  Sc61  1  0.69851635  0.09692831  0.70198806  1
  Sc  Sc62  1  0.70156598  0.29928845  0.89892699  1
  Sc  Sc63  1  0.89696874  0.08441680  0.69877028  1
  Sc  Sc64  1  0.50114211  0.90125822  0.69978745  1
  Sc  Sc65  1  0.10302513  0.09416712  0.89810679  1
  Sc  Sc66  1  0.29669286  0.50071689  0.09840777  1
  Sc  Sc67  1  0.29808331  0.30066022  0.90859704  1
  Sc  Sc68  1  0.69538463  0.70394558  0.29455645  1
  Sc  Sc69  1  0.30137494  0.70961321  0.69833624  1
  Sc  Sc70  1  0.50163678  0.49626825  0.90222726  1
  Sc  Sc71  1  0.29825712  0.90027565  0.11006097  1
  Sc  Sc72  1  0.30456392  0.09824235  0.09637350  1
  Sc  Sc73  1  0.89626265  0.69368363  0.09622684  1
  Sc  Sc74  1  0.69671648  0.30363996  0.29483996  1
  Sc  Sc75  1  0.69687959  0.29595512  0.70833423  1
  Sc  Sc76  1  0.50199319  0.68967624  0.89203720  1
  Sc  Sc77  1  0.88822356  0.30405446  0.90125789  1
  Sc  Sc78  1  0.89582937  0.69817856  0.89774034  1
  Sc  Sc79  1  0.09131318  0.49957668  0.89883875  1
  Sc  Sc80  1  0.89221677  0.08978825  0.09254968  1
  Sc  Sc81  1  0.49980569  0.09051804  0.90564252  1
  Sc  Sc82  1  0.50910216  0.09516146  0.70153108  1
  Sc  Sc83  1  0.30705995  0.90228419  0.50722608  1
  Sc  Sc84  1  0.09632367  0.50548408  0.29734446  1
  Sc  Sc85  1  0.10486679  0.30442200  0.89648497  1
  Sc  Sc86  1  0.09365161  0.50276420  0.09756356  1
  Sc  Sc87  1  0.70403729  0.30743403  0.10149384  1
  Sc  Sc88  1  0.09891155  0.30506224  0.31169188  1
  Sc  Sc89  1  0.90079891  0.70216298  0.49463622  1
  Sc  Sc90  1  0.70755672  0.89951264  0.70078888  1
  Sc  Sc91  1  0.09561366  0.89593422  0.70155479  1
  Sc  Sc92  1  0.10527994  0.69169068  0.09688898  1
  Sc  Sc93  1  0.10187834  0.48935195  0.70272636  1
  Sc  Sc94  1  0.28852435  0.09624777  0.69773458  1
  Sc  Sc95  1  0.09789545  0.30185561  0.69800507  1
  Sc  Sc96  1  0.89337120  0.31156367  0.09225596  1
  Sc  Sc97  1  0.69799241  0.30267155  0.50082964  1
  Sc  Sc98  1  0.50444899  0.69558800  0.11260380  1
  Sc  Sc99  1  0.70565975  0.10716483  0.89862050  1
  Nb  Nb100  1  0.30564992  0.70123607  0.29359067  1
  Nb  Nb101  1  0.69733836  0.89306475  0.49488476  1
  Nb  Nb102  1  0.49747128  0.29897306  0.10092016  1
  Nb  Nb103  1  0.49990723  0.29987463  0.90215284  1
  Nb  Nb104  1  0.70232238  0.70571660  0.70047656  1
  Nb  Nb105  1  0.90244904  0.90823770  0.90326559  1
  Nb  Nb106  1  0.09915169  0.69975464  0.50679098  1
  Nb  Nb107  1  0.90641138  0.69355956  0.29561533  1
  Nb  Nb108  1  0.50000583  0.10158683  0.30211350  1
  Nb  Nb109  1  0.29479280  0.49455234  0.50755350  1
  Nb  Nb110  1  0.69580388  0.50180492  0.50039641  1
  Nb  Nb111  1  0.10905549  0.50218749  0.50265970  1
  Nb  Nb112  1  0.29849165  0.49805317  0.70068115  1
  Nb  Nb113  1  0.90188821  0.10045632  0.90415696  1
  Nb  Nb114  1  0.50214976  0.90305471  0.09069603  1
  Nb  Nb115  1  0.70041554  0.88912634  0.90083887  1
  Nb  Nb116  1  0.09332939  0.69879839  0.69967208  1
  Nb  Nb117  1  0.09665742  0.89905699  0.09809982  1
  Nb  Nb118  1  0.49816049  0.30139456  0.29281384  1
  Nb  Nb119  1  0.30350536  0.08920057  0.89775915  1
  Nb  Nb120  1  0.30080306  0.90175368  0.90011989  1
  Nb  Nb121  1  0.49752286  0.50509624  0.30037909  1
  Nb  Nb122  1  0.10343305  0.89254302  0.90699096  1
  Nb  Nb123  1  0.49557127  0.69374440  0.30136103  1
  Nb  Nb124  1  0.70209431  0.89883024  0.30912275  1
  Nb  Nb125  1  0.59402146  0.40913853  0.59744533  1
  Nb  Nb126  1  0.60784706  0.79679407  0.59718858  1
  Nb  Nb127  1  0.19954296  0.60220372  0.79466325  1
  Nb  Nb128  1  -0.00433149  0.19654082  -0.00225062  1
  Nb  Nb129  1  0.59115165  0.20545869  0.00599916  1
  Nb  Nb130  1  0.79922380  0.19912616  0.40211190  1
  Nb  Nb131  1  0.39767434  0.19614896  0.80311152  1
  Nb  Nb132  1  0.40536928  0.19877177  0.39513837  1
  Nb  Nb133  1  0.39815309  0.20453179  0.60239088  1
  Nb  Nb134  1  0.19967628  -0.00179707  0.40009397  1
  Nb  Nb135  1  -0.00630889  0.19470935  0.80488531  1
  Nb  Nb136  1  0.39295655  0.59410839  0.59962907  1
  Nb  Nb137  1  0.00815834  0.60253380  0.59768302  1
  Nb  Nb138  1  0.39781070  0.40133807  0.60096713  1
  Nb  Nb139  1  0.40304698  0.79237058  0.39214839  1
  Nb  Nb140  1  0.40418774  0.80457965  0.00184573  1
  Nb  Nb141  1  0.59580486  0.80462654  -0.00192008  1
  Nb  Nb142  1  0.80918045  0.19956645  0.20642294  1
  Nb  Nb143  1  0.19519602  0.20179451  0.19825346  1
  Nb  Nb144  1  -0.00258776  0.20238944  0.19437271  1
  Nb  Nb145  1  0.80077686  0.19773382  0.59482547  1
  Nb  Nb146  1  0.00082952  0.80694695  0.00156423  1
  Nb  Nb147  1  0.59304871  0.40718038  0.39743706  1
  Nb  Nb148  1  -0.00085498  0.79884987  0.19707714  1
  Nb  Nb149  1  0.20135703  -0.01027775  -0.00374758  1
  Pd  Pd150  1  0.60389307  -0.00412155  0.19972716  1
  Pd  Pd151  1  0.00285092  0.59686174  0.40861832  1
  Pd  Pd152  1  0.39385522  0.20007363  0.20297655  1
  Pd  Pd153  1  0.79129410  0.40935433  0.79996283  1
  Pd  Pd154  1  0.20421960  0.60004759  0.39972648  1
  Pd  Pd155  1  0.61021716  0.40942192  0.79701514  1
  Pd  Pd156  1  0.60750772  0.20194935  0.19361132  1
  Pd  Pd157  1  0.79593412  -0.00390921  0.80775424  1
  Pd  Pd158  1  0.19380173  0.18651708  0.00289958  1
  Pd  Pd159  1  0.60444046  0.39179123  -0.00030501  1
  Pd  Pd160  1  0.19922059  0.60148221  0.60948209  1
  Pd  Pd161  1  0.19313155  -0.00648909  0.80283533  1
  Pd  Pd162  1  0.38561874  0.60787685  0.40875112  1
  Pd  Pd163  1  0.59941984  0.40596159  0.20556094  1
  Pd  Pd164  1  0.60835851  -0.00148092  0.80281825  1
  Pd  Pd165  1  0.80451716  0.79367179  0.20187034  1
  Pd  Pd166  1  0.40364591  0.79603085  0.80637453  1
  Pd  Pd167  1  -0.00702228  0.80284799  0.80770101  1
  Pd  Pd168  1  0.40511642  0.19579428  -0.00635539  1
  Pd  Pd169  1  0.40710576  0.80361055  0.19643712  1
  Pd  Pd170  1  0.20237484  0.41211261  -0.00578591  1
  Pd  Pd171  1  0.19049840  0.79392144  0.19594851  1
  Pd  Pd172  1  0.61134203  0.00086182  -0.00155643  1
  Pd  Pd173  1  0.80862941  0.19463357  0.78905913  1
  Pd  Pd174  1  0.19247227  0.40037536  0.20227296  1
  Pd  Pd175  1  0.78749770  -0.00279806  -0.00763542  1
  Pd  Pd176  1  0.78835262  0.39446949  0.60381949  1
  Pd  Pd177  1  0.00042812  0.39674891  0.19589115  1
  Pd  Pd178  1  0.19854797  0.19655046  0.80466306  1
  Pd  Pd179  1  0.19885528  0.80004155  0.79152794  1
  Pd  Pd180  1  0.40798348  0.60719263  0.00514257  1
  Pd  Pd181  1  0.60244134  0.20559236  0.60392494  1
  Pd  Pd182  1  0.60100609  0.20797418  0.39475183  1
  Pd  Pd183  1  0.20077996  0.80617586  0.60907873  1
  Pd  Pd184  1  0.00525889  0.00010100  0.80376818  1
  Pd  Pd185  1  -0.00934351  0.00201372  0.19697614  1
  Pd  Pd186  1  0.80043787  0.59536216  0.80133005  1
  Pd  Pd187  1  0.61028704  0.59551390  0.38663123  1
  Pd  Pd188  1  0.00513397  -0.00769182  0.59483023  1
  Pd  Pd189  1  0.40305343  0.39540177  0.40141606  1
  Pd  Pd190  1  0.39986990  0.59052811  0.19282471  1
  Pd  Pd191  1  0.40100253  0.40965015  0.19399884  1
  Pd  Pd192  1  0.79877702  0.78884719  0.39618200  1
  Pd  Pd193  1  0.60133537  0.80122687  0.19506001  1
  Pd  Pd194  1  0.79037010  0.39618940  0.39703437  1
  Pd  Pd195  1  0.79797912  0.00610343  0.40670721  1
  Pd  Pd196  1  -0.01012011  0.19966210  0.60746026  1
  Pd  Pd197  1  0.19741933  0.59016576  -0.00983725  1
  Pd  Pd198  1  -0.00381723  0.80098851  0.39436502  1
  Pd  Pd199  1  0.40777299  0.79136298  0.59042494  1
  Rh  Rh200  1  0.59650886  0.80124970  0.39997148  1
  Rh  Rh201  1  0.40462651  -0.00579732  0.19882394  1
  Rh  Rh202  1  0.60657013  -0.01519879  0.60499910  1
  Rh  Rh203  1  0.59397034  0.61129377  0.00018433  1
  Rh  Rh204  1  0.40266759  0.01161218  0.61038827  1
  Rh  Rh205  1  0.79915835  0.00487812  0.20758729  1
  Rh  Rh206  1  -0.00218644  0.60850101  -0.00054715  1
  Rh  Rh207  1  0.80608905  0.80559370  0.80442306  1
  Rh  Rh208  1  0.19366536  0.41157767  0.39499756  1
  Rh  Rh209  1  0.40216635  0.40163272  0.00208341  1
  Rh  Rh210  1  0.60842121  0.59470710  0.79740692  1
  Rh  Rh211  1  0.79434016  0.79710327  0.59674389  1
  Rh  Rh212  1  0.21227185  0.19077579  0.38707002  1
  Rh  Rh213  1  0.79456795  0.40848864  -0.00200457  1
  Rh  Rh214  1  -0.00080385  0.39262369  -0.00259982  1
  Rh  Rh215  1  0.59686884  0.60044337  0.60781618  1
  Rh  Rh216  1  0.00410222  0.60892738  0.19680880  1
  Rh  Rh217  1  0.20054874  0.41064023  0.80951772  1
  Rh  Rh218  1  0.38681622  0.61208607  0.79169350  1
  Rh  Rh219  1  -0.00174471  0.38748483  0.80628552  1
  Rh  Rh220  1  0.80136848  0.80220205  -0.00525688  1
  Rh  Rh221  1  0.80550537  0.59794398  -0.00328418  1
  Rh  Rh222  1  0.79860060  0.60438191  0.39277781  1
  Rh  Rh223  1  0.59976999  0.80503289  0.79679012  1
  Rh  Rh224  1  0.80768570  0.39705957  0.20305514  1
  Rh  Rh225  1  0.79803380  0.20107501  0.00932643  1
  Rh  Rh226  1  0.00584314  0.41392247  0.40703411  1
  Rh  Rh227  1  0.39720663  -0.00466545  0.39263238  1
  Rh  Rh228  1  0.80073230  0.60656760  0.20123854  1
  Rh  Rh229  1  0.20049058  0.59865623  0.20469858  1
  Rh  Rh230  1  0.40086623  0.00919166  0.79396113  1
  Rh  Rh231  1  0.00835892  -0.01087082  0.40786605  1
  Rh  Rh232  1  0.00860891  -0.00112704  -0.00706136  1
  Rh  Rh233  1  0.39637037  0.38850149  0.80523164  1
  Rh  Rh234  1  0.59136569  0.19280370  0.81608978  1
  Rh  Rh235  1  -0.01276340  0.20600631  0.39641328  1
  Rh  Rh236  1  0.19849950  0.00697166  0.19733072  1
  Rh  Rh237  1  0.80981251  0.60311996  0.60138759  1
  Rh  Rh238  1  -0.00374381  0.79483356  0.59909465  1
  Rh  Rh239  1  0.20790984  0.80227607  0.40001486  1
  Rh  Rh240  1  0.20246339  0.80677614  0.00900734  1
  Rh  Rh241  1  0.19406707  -0.00949013  0.59249573  1
  Rh  Rh242  1  0.00524020  0.41245051  0.59298223  1
  Rh  Rh243  1  0.00551026  0.59785272  0.79237480  1
  Rh  Rh244  1  0.60163221  0.59558044  0.20404387  1
  Rh  Rh245  1  0.79584925  0.00276823  0.59329252  1
  Rh  Rh246  1  0.38944025  -0.00789911  0.00644330  1
  Rh  Rh247  1  0.19781609  0.39362572  0.60118641  1
  Rh  Rh248  1  0.20222143  0.20744176  0.60561645  1
  Rh  Rh249  1  0.60005962  -0.00518918  0.39406486  1
