# generated using pymatgen
data_ZrScNbPdRh
_symmetry_space_group_name_H-M   'P 1'
_cell_length_a   16.55745305
_cell_length_b   16.55837689
_cell_length_c   16.56088948
_cell_angle_alpha   90.00573551
_cell_angle_beta   90.03412246
_cell_angle_gamma   89.99188485
_symmetry_Int_Tables_number   1
_chemical_formula_structural   ZrScNbPdRh
_chemical_formula_sum   'Zr50 Sc50 Nb50 Pd50 Rh50'
_cell_volume   4540.40790331
_cell_formula_units_Z   50
loop_
 _symmetry_equiv_pos_site_id
 _symmetry_equiv_pos_as_xyz
  1  'x, y, z'
loop_
 _atom_site_type_symbol
 _atom_site_label
 _atom_site_symmetry_multiplicity
 _atom_site_fract_x
 _atom_site_fract_y
 _atom_site_fract_z
 _atom_site_occupancy
  Zr  Zr0  1  0.29785844  0.09893189  0.89771838  1
  Zr  Zr1  1  0.91022624  0.29957437  0.10156195  1
  Zr  Zr2  1  0.29820050  0.69318014  0.48943878  1
  Zr  Zr3  1  0.09817159  0.48664497  0.50567848  1
  Zr  Zr4  1  0.10425498  0.09430778  0.30313381  1
  Zr  Zr5  1  0.09552087  0.49956024  0.89619092  1
  Zr  Zr6  1  0.69783001  0.71327450  0.89394906  1
  Zr  Zr7  1  0.49772396  0.90119158  0.30358775  1
  Zr  Zr8  1  0.90689980  0.30500472  0.49538466  1
  Zr  Zr9  1  0.70448539  0.49256746  0.69778904  1
  Zr  Zr10  1  0.69786679  0.89736385  0.08520639  1
  Zr  Zr11  1  0.69774398  0.10607671  0.89898511  1
  Zr  Zr12  1  0.50666848  0.70398589  0.69909105  1
  Zr  Zr13  1  0.49524650  0.50340755  0.49898963  1
  Zr  Zr14  1  0.10912743  0.48808824  0.10018046  1
  Zr  Zr15  1  0.90502175  0.90121194  0.10191714  1
  Zr  Zr16  1  0.50198068  0.10265381  0.10287198  1
  Zr  Zr17  1  0.11342281  0.89831610  0.10449660  1
  Zr  Zr18  1  0.70040896  0.29864817  0.89885291  1
  Zr  Zr19  1  0.09563701  0.70063575  0.69612378  1
  Zr  Zr20  1  0.49102092  0.90166221  0.10359722  1
  Zr  Zr21  1  0.09799569  0.29669710  0.50862666  1
  Zr  Zr22  1  0.90034099  0.10029657  0.10117012  1
  Zr  Zr23  1  0.49794254  0.90155216  0.89998548  1
  Zr  Zr24  1  0.69978551  0.49849094  0.90504628  1
  Zr  Zr25  1  0.50103695  0.50231361  0.89886836  1
  Zr  Zr26  1  0.89282204  0.49290242  0.30792650  1
  Zr  Zr27  1  0.50196008  0.29613613  0.89964035  1
  Zr  Zr28  1  0.49899014  0.10520058  0.29975521  1
  Zr  Zr29  1  0.89450100  0.70769530  0.69851167  1
  Zr  Zr30  1  0.89988583  0.29941584  0.30081746  1
  Zr  Zr31  1  0.90623544  0.69710261  0.90389168  1
  Zr  Zr32  1  0.90664452  0.10051127  0.90236948  1
  Zr  Zr33  1  0.10612699  0.10367415  0.89803643  1
  Zr  Zr34  1  0.49125228  0.29889996  0.29846169  1
  Zr  Zr35  1  0.69693400  0.70017733  0.09952004  1
  Zr  Zr36  1  0.88926560  0.68856936  0.29683688  1
  Zr  Zr37  1  0.09628780  0.70117585  0.10349186  1
  Zr  Zr38  1  0.49767386  0.50446339  0.70504829  1
  Zr  Zr39  1  0.30096098  0.31327322  0.11182129  1
  Zr  Zr40  1  0.10608924  0.10294610  0.70002449  1
  Zr  Zr41  1  0.10137327  0.89230807  0.50061372  1
  Zr  Zr42  1  0.89385068  0.89686997  0.90308635  1
  Zr  Zr43  1  0.10078693  0.90557404  0.69099408  1
  Zr  Zr44  1  0.50019331  0.89713489  0.68470454  1
  Zr  Zr45  1  0.89681665  0.50189821  0.11213249  1
  Zr  Zr46  1  0.70059112  0.10063708  0.09808401  1
  Zr  Zr47  1  0.29944700  0.90658072  0.29562805  1
  Zr  Zr48  1  0.09974354  0.10555419  0.50032419  1
  Zr  Zr49  1  0.30621797  0.89975428  0.49817795  1
  Sc  Sc50  1  0.10815309  0.50499362  0.30035820  1
  Sc  Sc51  1  0.90016493  0.30271970  0.90566004  1
  Sc  Sc52  1  0.09658678  0.70007678  0.90488711  1
  Sc  Sc53  1  0.90760904  0.49206529  0.89810239  1
  Sc  Sc54  1  0.10570841  0.69991307  0.30447553  1
  Sc  Sc55  1  0.10446924  0.70516001  0.49501648  1
  Sc  Sc56  1  0.30069427  0.69379142  0.29721741  1
  Sc  Sc57  1  0.69422419  0.09628367  0.30135228  1
  Sc  Sc58  1  0.90014627  0.10014077  0.69342472  1
  Sc  Sc59  1  0.50067487  0.69836574  0.30071214  1
  Sc  Sc60  1  0.30666701  0.90311857  0.69094746  1
  Sc  Sc61  1  0.89941436  0.09592689  0.29029099  1
  Sc  Sc62  1  0.69748451  0.70371545  0.48870766  1
  Sc  Sc63  1  0.50015589  0.70559074  0.49466284  1
  Sc  Sc64  1  0.69189765  0.30737469  0.30265310  1
  Sc  Sc65  1  0.49312594  0.69743406  0.10725403  1
  Sc  Sc66  1  0.49997234  0.69331743  0.88961310  1
  Sc  Sc67  1  0.31366652  0.49188727  0.69400279  1
  Sc  Sc68  1  0.70292997  0.29655897  0.69590335  1
  Sc  Sc69  1  0.50445385  0.30137701  0.11203304  1
  Sc  Sc70  1  0.89504925  0.10392668  0.50721608  1
  Sc  Sc71  1  0.09361422  0.09449079  0.10192165  1
  Sc  Sc72  1  0.89648741  0.30216370  0.69568658  1
  Sc  Sc73  1  0.69790620  0.90194136  0.49640124  1
  Sc  Sc74  1  0.69800625  0.89850547  0.30700330  1
  Sc  Sc75  1  0.49957700  0.29814352  0.49987827  1
  Sc  Sc76  1  0.50192786  0.50434236  0.29963209  1
  Sc  Sc77  1  0.70169687  0.49319863  0.49194594  1
  Sc  Sc78  1  0.50409222  0.09669503  0.50153102  1
  Sc  Sc79  1  0.49494458  0.09934150  0.69050446  1
  Sc  Sc80  1  0.29953369  0.08703447  0.10177921  1
  Sc  Sc81  1  0.30146326  0.90321458  0.91316643  1
  Sc  Sc82  1  0.70405438  0.10754958  0.69200477  1
  Sc  Sc83  1  0.09389586  0.30975373  0.90807227  1
  Sc  Sc84  1  0.70365111  0.30150602  0.09388589  1
  Sc  Sc85  1  0.30462579  0.70646231  0.90252927  1
  Sc  Sc86  1  0.29782420  0.09804130  0.69055591  1
  Sc  Sc87  1  0.69313521  0.49670261  0.10295985  1
  Sc  Sc88  1  0.31217349  0.70029370  0.69766093  1
  Sc  Sc89  1  0.89771778  0.71285969  0.49582491  1
  Sc  Sc90  1  0.89444167  0.89821609  0.30368703  1
  Sc  Sc91  1  0.30365686  0.50463283  0.29765935  1
  Sc  Sc92  1  0.69681097  0.30145180  0.50282884  1
  Sc  Sc93  1  0.10604035  0.91051737  0.90261302  1
  Sc  Sc94  1  0.30577310  0.50168457  0.89647393  1
  Sc  Sc95  1  0.09290867  0.29199560  0.31297531  1
  Sc  Sc96  1  0.69431803  0.10267542  0.49792768  1
  Sc  Sc97  1  0.69444650  0.69736463  0.30388058  1
  Sc  Sc98  1  0.10214644  0.89829232  0.29737217  1
  Sc  Sc99  1  0.50024522  0.09958686  0.90028014  1
  Nb  Nb100  1  0.29718610  0.10902095  0.30531586  1
  Nb  Nb101  1  0.50268523  0.89928401  0.49934496  1
  Nb  Nb102  1  0.70792391  0.51010301  0.30480262  1
  Nb  Nb103  1  0.48898926  0.50050432  0.10047967  1
  Nb  Nb104  1  0.30605711  0.29185091  0.30544009  1
  Nb  Nb105  1  0.69674436  0.70064147  0.70150870  1
  Nb  Nb106  1  0.29674450  0.30290052  0.89993670  1
  Nb  Nb107  1  0.10634828  0.30177393  0.69877084  1
  Nb  Nb108  1  0.48552921  0.30709175  0.69880317  1
  Nb  Nb109  1  0.89967114  0.70151035  0.09971615  1
  Nb  Nb110  1  0.30173408  0.29983567  0.69887191  1
  Nb  Nb111  1  0.29612897  0.70195763  0.09882481  1
  Nb  Nb112  1  0.90001225  0.90196836  0.50257546  1
  Nb  Nb113  1  0.09514578  0.49496309  0.70149175  1
  Nb  Nb114  1  0.69803664  0.89966407  0.89591388  1
  Nb  Nb115  1  0.30012015  0.50519241  0.10404572  1
  Nb  Nb116  1  0.30235461  0.30160342  0.50578815  1
  Nb  Nb117  1  0.70139133  0.88197671  0.70586138  1
  Nb  Nb118  1  0.89893107  0.49522674  0.50111692  1
  Nb  Nb119  1  0.10569937  0.29990194  0.09852674  1
  Nb  Nb120  1  0.29940130  0.88983236  0.09867045  1
  Nb  Nb121  1  0.90436933  0.50152493  0.70095262  1
  Nb  Nb122  1  0.89637966  0.89909565  0.69226691  1
  Nb  Nb123  1  0.29749766  0.10470992  0.49353643  1
  Nb  Nb124  1  0.29708566  0.50019987  0.49828223  1
  Nb  Nb125  1  0.80084233  0.59868246  0.60092190  1
  Nb  Nb126  1  0.20354190  0.59830615  0.00257834  1
  Nb  Nb127  1  0.00030709  0.80896529  0.79468935  1
  Nb  Nb128  1  0.19674640  0.59139978  0.60383526  1
  Nb  Nb129  1  0.00819947  0.20218396  0.79703894  1
  Nb  Nb130  1  -0.00491152  0.59447687  0.40793721  1
  Nb  Nb131  1  0.20327518  0.20802171  0.00728689  1
  Nb  Nb132  1  -0.00365939  0.59537228  0.59776625  1
  Nb  Nb133  1  0.19657149  0.79869823  0.79714285  1
  Nb  Nb134  1  0.60763453  0.60143512  0.60206602  1
  Nb  Nb135  1  0.19789138  0.59778843  0.79532248  1
  Nb  Nb136  1  0.60787994  -0.00662218  0.79462524  1
  Nb  Nb137  1  0.39242353  0.20608267  0.79886961  1
  Nb  Nb138  1  0.20409822  0.20222727  0.20198501  1
  Nb  Nb139  1  0.20981064  0.39298512  0.40683851  1
  Nb  Nb140  1  0.39320010  0.20640176  0.00070606  1
  Nb  Nb141  1  0.20083429  0.39887083  0.79377614  1
  Nb  Nb142  1  0.80044593  0.60105787  0.79886829  1
  Nb  Nb143  1  0.80231021  0.60352085  -0.00093140  1
  Nb  Nb144  1  0.79994839  0.79617065  0.19262794  1
  Nb  Nb145  1  0.80099441  0.20320460  0.39716948  1
  Nb  Nb146  1  0.39856076  0.40084832  0.00511363  1
  Nb  Nb147  1  -0.00317655  -0.00428767  0.40770378  1
  Nb  Nb148  1  0.59669943  0.39604654  0.79835291  1
  Nb  Nb149  1  0.79442249  -0.00849793  0.79632028  1
  Pd  Pd150  1  0.59011551  0.19904959  0.78582240  1
  Pd  Pd151  1  0.59308437  0.40268234  0.60432335  1
  Pd  Pd152  1  0.60482330  -0.00675074  0.20173565  1
  Pd  Pd153  1  0.00519168  0.59748175  0.20849798  1
  Pd  Pd154  1  0.39462144  0.80598252  0.79909197  1
  Pd  Pd155  1  0.80008335  0.40088371  0.80224764  1
  Pd  Pd156  1  0.60896585  0.20440314  0.20179998  1
  Pd  Pd157  1  0.40330451  0.00731465  0.40290853  1
  Pd  Pd158  1  0.59713850  0.40389985  0.39614907  1
  Pd  Pd159  1  0.79020215  0.79780373  0.58881132  1
  Pd  Pd160  1  0.39688870  0.40332190  0.39920164  1
  Pd  Pd161  1  0.20518156  0.79342059  0.20673543  1
  Pd  Pd162  1  -0.00417198  0.79837209  0.39239021  1
  Pd  Pd163  1  0.80440603  0.20294454  0.00116318  1
  Pd  Pd164  1  0.40203233  0.60562144  0.59628805  1
  Pd  Pd165  1  0.79094316  0.39571583  0.19980283  1
  Pd  Pd166  1  0.40713841  0.79449713  0.00097159  1
  Pd  Pd167  1  0.59980550  0.60492179  0.00237857  1
  Pd  Pd168  1  0.00037727  0.00361835  0.59437429  1
  Pd  Pd169  1  0.40399020  0.00554472  0.79508782  1
  Pd  Pd170  1  -0.00810607  0.00036796  0.79412057  1
  Pd  Pd171  1  0.20713386  0.19959589  0.59727376  1
  Pd  Pd172  1  0.79206370  0.20498189  0.20629962  1
  Pd  Pd173  1  0.21197085  0.79201042  0.60376240  1
  Pd  Pd174  1  0.19731910  0.39118943  0.22135701  1
  Pd  Pd175  1  0.79900397  0.00445304  -0.00568518  1
  Pd  Pd176  1  0.81155237  0.19465704  0.79810100  1
  Pd  Pd177  1  0.00992802  0.39952290  0.20831212  1
  Pd  Pd178  1  0.58505560  0.79314438  -0.00213130  1
  Pd  Pd179  1  0.60348413  0.80374812  0.20315693  1
  Pd  Pd180  1  0.59399798  0.20538074  0.60382235  1
  Pd  Pd181  1  0.39819327  0.79608512  0.39314018  1
  Pd  Pd182  1  0.59937041  0.59463384  0.20140583  1
  Pd  Pd183  1  0.60977789  -0.00373316  0.60492926  1
  Pd  Pd184  1  0.78947796  -0.00385479  0.60319496  1
  Pd  Pd185  1  0.39493397  0.60015480  -0.00166074  1
  Pd  Pd186  1  0.00900698  0.80976579  -0.00492063  1
  Pd  Pd187  1  0.59959922  0.40766770  0.20537987  1
  Pd  Pd188  1  0.00117986  0.58923941  0.00982340  1
  Pd  Pd189  1  0.21152710  -0.01128450  0.79568923  1
  Pd  Pd190  1  0.39642393  0.00446661  0.20224230  1
  Pd  Pd191  1  0.00635934  -0.00456534  0.00334430  1
  Pd  Pd192  1  0.80483211  0.00930936  0.40216301  1
  Pd  Pd193  1  0.59567456  0.00384876  -0.00570096  1
  Pd  Pd194  1  0.79276513  -0.01031634  0.20063251  1
  Pd  Pd195  1  0.59166788  0.39590372  0.00141436  1
  Pd  Pd196  1  -0.00620640  0.80035613  0.21014513  1
  Pd  Pd197  1  0.00976032  0.19846924  0.20095545  1
  Pd  Pd198  1  0.19604112  -0.00476076  0.40566157  1
  Pd  Pd199  1  0.40707185  0.19635498  0.41172859  1
  Rh  Rh200  1  0.60440006  0.79527765  0.59106583  1
  Rh  Rh201  1  -0.00480660  0.40378438  0.00910310  1
  Rh  Rh202  1  -0.00759211  0.39669373  0.60871619  1
  Rh  Rh203  1  0.21089519  0.40232426  0.60304543  1
  Rh  Rh204  1  0.39865025  0.60154068  0.20016600  1
  Rh  Rh205  1  0.80025276  0.20739748  0.58834438  1
  Rh  Rh206  1  0.20775633  0.40606594  -0.00891128  1
  Rh  Rh207  1  0.59492262  0.80469492  0.39876858  1
  Rh  Rh208  1  0.80034216  0.79395031  0.00520936  1
  Rh  Rh209  1  0.40055164  0.79623157  0.59077621  1
  Rh  Rh210  1  0.00992222  0.40899728  0.39219838  1
  Rh  Rh211  1  0.59983612  0.59606731  0.40561424  1
  Rh  Rh212  1  0.80448998  0.40031131  0.59650950  1
  Rh  Rh213  1  0.19766939  0.79260830  -0.00574432  1
  Rh  Rh214  1  0.00308170  0.38634829  0.79333364  1
  Rh  Rh215  1  0.00215789  -0.00577670  0.20799513  1
  Rh  Rh216  1  0.20055984  0.60573208  0.19108834  1
  Rh  Rh217  1  0.40242257  0.40822684  0.20430048  1
  Rh  Rh218  1  0.39126941  0.19253041  0.19409240  1
  Rh  Rh219  1  -0.00046423  0.20407689  0.61022989  1
  Rh  Rh220  1  0.61061124  0.59030595  0.79379084  1
  Rh  Rh221  1  0.59605230  0.20149063  0.00902348  1
  Rh  Rh222  1  0.80845238  0.80042990  0.80295683  1
  Rh  Rh223  1  0.39728654  0.19777047  0.60037525  1
  Rh  Rh224  1  0.20483511  0.00186530  0.59017112  1
  Rh  Rh225  1  0.80796059  0.40774594  0.00672525  1
  Rh  Rh226  1  0.20819865  0.80505468  0.39292697  1
  Rh  Rh227  1  0.60335238  0.20022094  0.39915080  1
  Rh  Rh228  1  0.78999645  0.60373551  0.19283717  1
  Rh  Rh229  1  0.39168360  0.60391939  0.79897910  1
  Rh  Rh230  1  -0.01377277  0.18258081  0.39746868  1
  Rh  Rh231  1  0.39982406  0.39499651  0.80910520  1
  Rh  Rh232  1  0.20373689  0.20790715  0.40015352  1
  Rh  Rh233  1  0.39445299  0.79823363  0.20129541  1
  Rh  Rh234  1  0.59330233  -0.00079529  0.40028325  1
  Rh  Rh235  1  0.20363394  0.00400268  0.19942269  1
  Rh  Rh236  1  0.79960698  0.80124628  0.39395351  1
  Rh  Rh237  1  0.40332243  0.59984966  0.39753129  1
  Rh  Rh238  1  0.40191984  0.39853961  0.59135260  1
  Rh  Rh239  1  -0.00358038  0.60842732  0.79129052  1
  Rh  Rh240  1  -0.00379855  0.79956020  0.60040033  1
  Rh  Rh241  1  0.79367466  0.39167389  0.40161621  1
  Rh  Rh242  1  0.00762272  0.20094433  -0.00454579  1
  Rh  Rh243  1  0.20063151  0.00445132  0.00729904  1
  Rh  Rh244  1  0.40038250  0.00341563  0.00468347  1
  Rh  Rh245  1  0.39614101  0.00542182  0.58772120  1
  Rh  Rh246  1  0.19002698  0.59015605  0.41216480  1
  Rh  Rh247  1  0.19820918  0.21158255  0.80683555  1
  Rh  Rh248  1  0.58691815  0.80843374  0.80029708  1
  Rh  Rh249  1  0.80352713  0.60006730  0.41016616  1
