# generated using pymatgen
data_ZrScNbPdRh
_symmetry_space_group_name_H-M   'P 1'
_cell_length_a   16.55867106
_cell_length_b   16.55767812
_cell_length_c   16.55255578
_cell_angle_alpha   89.98676377
_cell_angle_beta   90.00489496
_cell_angle_gamma   89.96848827
_symmetry_Int_Tables_number   1
_chemical_formula_structural   ZrScNbPdRh
_chemical_formula_sum   'Zr50 Sc50 Nb50 Pd50 Rh50'
_cell_volume   4538.26546068
_cell_formula_units_Z   50
loop_
 _symmetry_equiv_pos_site_id
 _symmetry_equiv_pos_as_xyz
  1  'x, y, z'
loop_
 _atom_site_type_symbol
 _atom_site_label
 _atom_site_symmetry_multiplicity
 _atom_site_fract_x
 _atom_site_fract_y
 _atom_site_fract_z
 _atom_site_occupancy
  Zr  Zr0  1  0.70057713  0.49614590  0.70534696  1
  Zr  Zr1  1  0.29836763  0.50191761  0.89951088  1
  Zr  Zr2  1  0.29878820  0.50076323  0.69875535  1
  Zr  Zr3  1  0.10153828  0.10388071  0.49539269  1
  Zr  Zr4  1  0.51291085  0.89711186  0.49226069  1
  Zr  Zr5  1  0.69991839  0.70187570  0.89336301  1
  Zr  Zr6  1  0.69718526  0.30716460  0.91011500  1
  Zr  Zr7  1  0.30560759  0.70132723  0.70062737  1
  Zr  Zr8  1  0.29452525  0.49589852  0.29132430  1
  Zr  Zr9  1  0.69187004  0.90186652  0.31042070  1
  Zr  Zr10  1  0.10341848  0.69581945  0.49967525  1
  Zr  Zr11  1  0.10515716  0.09970666  0.08932919  1
  Zr  Zr12  1  0.30285294  0.89672557  0.29871108  1
  Zr  Zr13  1  0.69971115  0.28885840  0.49678126  1
  Zr  Zr14  1  0.10056796  0.69648351  0.69660967  1
  Zr  Zr15  1  0.89944691  0.50200016  0.10238724  1
  Zr  Zr16  1  0.10485842  0.70516447  0.09094318  1
  Zr  Zr17  1  0.10108337  0.50049276  0.89926424  1
  Zr  Zr18  1  0.89416225  0.50360152  0.90121003  1
  Zr  Zr19  1  0.50403361  0.69826293  0.29823549  1
  Zr  Zr20  1  0.49913603  0.70787840  0.10300326  1
  Zr  Zr21  1  0.50152672  0.29907162  0.29314272  1
  Zr  Zr22  1  0.70302695  0.70474342  0.50052504  1
  Zr  Zr23  1  0.09800992  0.10384447  0.30236719  1
  Zr  Zr24  1  0.49652210  0.49936343  0.50117316  1
  Zr  Zr25  1  0.09988824  0.69866960  0.90080153  1
  Zr  Zr26  1  0.49717002  0.09686101  0.89975304  1
  Zr  Zr27  1  0.69787670  0.10179319  0.70410123  1
  Zr  Zr28  1  0.69844150  0.88639440  0.70782812  1
  Zr  Zr29  1  0.70140907  0.70648976  0.29382277  1
  Zr  Zr30  1  0.70175972  0.49548145  0.09275410  1
  Zr  Zr31  1  0.30244969  0.49849111  0.49787512  1
  Zr  Zr32  1  0.30308030  0.69378821  0.50808720  1
  Zr  Zr33  1  0.10196216  0.90661885  0.90846518  1
  Zr  Zr34  1  0.90061392  0.90015841  0.90268643  1
  Zr  Zr35  1  0.69684979  0.49952382  0.28904676  1
  Zr  Zr36  1  0.89471237  0.10125362  0.90211269  1
  Zr  Zr37  1  0.30903579  0.10255335  0.70426317  1
  Zr  Zr38  1  0.89137593  0.69658083  0.30333095  1
  Zr  Zr39  1  0.89387632  0.70177159  0.70009321  1
  Zr  Zr40  1  0.09900577  0.30387921  0.69162200  1
  Zr  Zr41  1  0.69613619  0.10754930  0.09779579  1
  Zr  Zr42  1  0.10702923  0.49823010  0.49533422  1
  Zr  Zr43  1  0.49538656  0.49242687  0.69935445  1
  Zr  Zr44  1  0.89320604  0.70266558  0.10148477  1
  Zr  Zr45  1  0.90335579  0.29816206  0.50270453  1
  Zr  Zr46  1  0.90281730  0.10238273  0.69875756  1
  Zr  Zr47  1  0.49916977  0.09964553  0.70804380  1
  Zr  Zr48  1  0.49539433  0.29167860  0.69856350  1
  Zr  Zr49  1  0.30196705  0.69868006  0.09583834  1
  Sc  Sc50  1  0.50223524  0.69157567  0.50158265  1
  Sc  Sc51  1  0.49731477  0.50044401  0.30339306  1
  Sc  Sc52  1  0.50868861  0.89334507  0.28953837  1
  Sc  Sc53  1  0.29986729  0.30013263  0.49403668  1
  Sc  Sc54  1  0.10647918  0.49642344  0.10140701  1
  Sc  Sc55  1  0.89102164  0.30564600  0.89793162  1
  Sc  Sc56  1  0.30952928  0.90372215  0.70025749  1
  Sc  Sc57  1  0.70020753  0.30045393  0.70232831  1
  Sc  Sc58  1  0.90561831  0.30197486  0.11570348  1
  Sc  Sc59  1  0.50834367  0.50050834  0.10407592  1
  Sc  Sc60  1  0.70134576  0.69508183  0.69874153  1
  Sc  Sc61  1  0.69415939  0.10550497  0.90475095  1
  Sc  Sc62  1  0.30432164  0.29910187  0.29970249  1
  Sc  Sc63  1  0.88945402  0.50076437  0.69910402  1
  Sc  Sc64  1  0.88934177  0.90140246  0.30094039  1
  Sc  Sc65  1  0.90063392  0.69174254  0.89976859  1
  Sc  Sc66  1  0.90086966  0.09804156  0.49792012  1
  Sc  Sc67  1  0.30084044  0.10769352  0.30852252  1
  Sc  Sc68  1  0.30295488  0.30818636  0.70070313  1
  Sc  Sc69  1  0.69488296  0.90352591  0.10797220  1
  Sc  Sc70  1  0.49603550  0.70187665  0.70455318  1
  Sc  Sc71  1  0.10088141  0.31162776  0.29563256  1
  Sc  Sc72  1  0.69829624  0.69391745  0.10386865  1
  Sc  Sc73  1  0.30947901  0.90261861  0.90012738  1
  Sc  Sc74  1  0.50108468  0.10533340  0.29424779  1
  Sc  Sc75  1  0.49704536  0.10868278  0.09363740  1
  Sc  Sc76  1  0.89890155  0.49692802  0.29809826  1
  Sc  Sc77  1  0.30326193  0.69637160  0.90133363  1
  Sc  Sc78  1  0.49930963  0.70394065  0.89990836  1
  Sc  Sc79  1  0.09652161  0.90928818  0.31513576  1
  Sc  Sc80  1  0.89289340  0.49839793  0.49872598  1
  Sc  Sc81  1  0.69562857  0.49831089  0.50733901  1
  Sc  Sc82  1  0.10226844  0.08989028  0.70262550  1
  Sc  Sc83  1  0.89375303  0.30218400  0.69278212  1
  Sc  Sc84  1  0.10226258  0.30831955  0.49743473  1
  Sc  Sc85  1  0.50156210  0.29785219  0.10349710  1
  Sc  Sc86  1  0.50348053  0.29678167  0.90154857  1
  Sc  Sc87  1  0.89961983  0.09961765  0.29547800  1
  Sc  Sc88  1  0.70010828  0.09775761  0.30167111  1
  Sc  Sc89  1  0.30423595  0.30042414  0.10692793  1
  Sc  Sc90  1  0.30130391  0.90127978  0.50865390  1
  Sc  Sc91  1  0.09626755  0.90587269  0.50974734  1
  Sc  Sc92  1  0.49930486  0.10764841  0.50151963  1
  Sc  Sc93  1  0.30205955  0.68645552  0.29342852  1
  Sc  Sc94  1  0.89582654  0.10012890  0.10025658  1
  Sc  Sc95  1  0.28671678  0.30008158  0.89722180  1
  Sc  Sc96  1  0.49691043  0.29956341  0.49734355  1
  Sc  Sc97  1  0.09644486  0.30619415  0.10441277  1
  Sc  Sc98  1  0.50976371  0.50199612  0.89679877  1
  Sc  Sc99  1  0.30371844  0.10465133  0.49855880  1
  Nb  Nb100  1  0.10209719  0.69669212  0.30282481  1
  Nb  Nb101  1  0.90466694  0.90047559  0.69894903  1
  Nb  Nb102  1  0.90158302  0.29882316  0.29846761  1
  Nb  Nb103  1  0.30227810  0.50007626  0.09988672  1
  Nb  Nb104  1  0.29896783  0.10087120  0.09473731  1
  Nb  Nb105  1  0.70543807  0.49670564  0.90185166  1
  Nb  Nb106  1  0.48919770  0.89695140  0.09565007  1
  Nb  Nb107  1  0.90279726  0.89383895  0.50523748  1
  Nb  Nb108  1  0.10750215  0.50892632  0.29843229  1
  Nb  Nb109  1  0.70172594  0.29959270  0.29332538  1
  Nb  Nb110  1  0.69094428  0.30505473  0.10871901  1
  Nb  Nb111  1  0.69708683  0.08831504  0.50119396  1
  Nb  Nb112  1  0.09976911  0.50179545  0.69952600  1
  Nb  Nb113  1  0.69556276  0.89733714  0.89698103  1
  Nb  Nb114  1  0.69848062  0.90412371  0.50054219  1
  Nb  Nb115  1  0.09963753  0.30194810  0.89759082  1
  Nb  Nb116  1  0.28534387  0.10267526  0.91096776  1
  Nb  Nb117  1  0.50839730  0.90231507  0.89327706  1
  Nb  Nb118  1  0.11052232  0.10687438  0.90092067  1
  Nb  Nb119  1  0.09889988  0.89543706  0.09483350  1
  Nb  Nb120  1  0.09489089  0.89776054  0.70332073  1
  Nb  Nb121  1  0.29800047  0.89545664  0.09933824  1
  Nb  Nb122  1  0.90446429  0.89538893  0.09677184  1
  Nb  Nb123  1  0.49863779  0.90709174  0.71741229  1
  Nb  Nb124  1  0.90097226  0.69807790  0.50283040  1
  Nb  Nb125  1  0.39785675  0.40539482  0.00237026  1
  Nb  Nb126  1  0.00431895  0.80117793  0.20524917  1
  Nb  Nb127  1  0.19497643  0.80404904  0.79716074  1
  Nb  Nb128  1  0.20081110  -0.00261792  0.19303360  1
  Nb  Nb129  1  0.00376233  0.40031402  0.79994161  1
  Nb  Nb130  1  0.79681577  0.80518198  -0.00142124  1
  Nb  Nb131  1  0.39413883  -0.00117844  0.19267095  1
  Nb  Nb132  1  -0.00112887  0.60148752  0.59734483  1
  Nb  Nb133  1  0.19909896  0.19301431  0.19656571  1
  Nb  Nb134  1  0.00624898  0.20348098  0.80525819  1
  Nb  Nb135  1  0.39838888  0.79788762  0.39899356  1
  Nb  Nb136  1  0.20057255  0.79541939  0.39910630  1
  Nb  Nb137  1  0.40562573  -0.00682799  0.39428813  1
  Nb  Nb138  1  0.79896516  -0.00610498  0.79760227  1
  Nb  Nb139  1  0.19357178  0.80367346  0.20229545  1
  Nb  Nb140  1  -0.00183550  0.79509295  0.40396409  1
  Nb  Nb141  1  0.00514933  0.20284878  -0.00854639  1
  Nb  Nb142  1  0.79536907  0.38817063  0.39281013  1
  Nb  Nb143  1  0.79791087  -0.00913019  0.60115028  1
  Nb  Nb144  1  0.00226884  0.80436215  0.79619156  1
  Nb  Nb145  1  -0.00271570  0.20715043  0.39535856  1
  Nb  Nb146  1  0.19928473  0.19959598  0.60135836  1
  Nb  Nb147  1  0.00715471  0.60683545  0.20518619  1
  Nb  Nb148  1  0.60384183  -0.00394513  0.60401736  1
  Nb  Nb149  1  0.00545328  -0.00839580  0.19213070  1
  Pd  Pd150  1  0.19711833  0.20236541  0.78827673  1
  Pd  Pd151  1  0.39231493  0.20316959  0.81361520  1
  Pd  Pd152  1  0.59808046  -0.00249546  0.00443903  1
  Pd  Pd153  1  0.20586602  0.39581993  0.00671559  1
  Pd  Pd154  1  0.80531683  -0.00002168  0.40458568  1
  Pd  Pd155  1  0.40616649  0.59410382  0.19655912  1
  Pd  Pd156  1  0.80688196  0.21239770  0.01132409  1
  Pd  Pd157  1  0.39912639  0.39807450  0.39530430  1
  Pd  Pd158  1  0.40972931  0.59296619  -0.00052875  1
  Pd  Pd159  1  0.20430685  0.00513322  0.60398808  1
  Pd  Pd160  1  0.79836206  0.19208771  0.59705614  1
  Pd  Pd161  1  0.80165398  0.20307340  0.80019729  1
  Pd  Pd162  1  -0.00199749  0.00983456  0.00184447  1
  Pd  Pd163  1  0.40007645  0.80091943  -0.00911316  1
  Pd  Pd164  1  0.58871360  0.00509025  0.19271329  1
  Pd  Pd165  1  0.79073138  0.58912173  0.40300796  1
  Pd  Pd166  1  0.00271661  0.59799380  0.00951143  1
  Pd  Pd167  1  0.80239308  -0.00208435  0.19710698  1
  Pd  Pd168  1  -0.00481246  0.59815865  0.40069330  1
  Pd  Pd169  1  0.60071488  0.60125966  -0.00107638  1
  Pd  Pd170  1  0.41242025  -0.00108618  0.59193043  1
  Pd  Pd171  1  0.80457572  0.19776120  0.39710248  1
  Pd  Pd172  1  0.39928993  -0.00056329  0.00003724  1
  Pd  Pd173  1  0.60741779  0.59955397  0.39982534  1
  Pd  Pd174  1  0.59893719  0.39371975  0.80148504  1
  Pd  Pd175  1  0.21062950  -0.00490916  0.40299410  1
  Pd  Pd176  1  0.60024896  0.39174173  0.59910180  1
  Pd  Pd177  1  0.60560741  0.80331533  0.00481050  1
  Pd  Pd178  1  0.39386778  0.21193663  -0.00446281  1
  Pd  Pd179  1  -0.00528989  0.39456736  -0.00344388  1
  Pd  Pd180  1  0.59256730  0.80081736  0.60716615  1
  Pd  Pd181  1  -0.00575160  0.41341642  0.60397937  1
  Pd  Pd182  1  0.20465898  0.60598468  0.79970947  1
  Pd  Pd183  1  0.59743134  0.60075718  0.60713127  1
  Pd  Pd184  1  0.80738289  0.39116128  0.01098794  1
  Pd  Pd185  1  0.80271737  0.80431956  0.40470893  1
  Pd  Pd186  1  0.19972372  0.80783496  0.60213636  1
  Pd  Pd187  1  0.59839551  0.60222564  0.79624935  1
  Pd  Pd188  1  0.79705370  0.19972043  0.19758884  1
  Pd  Pd189  1  0.59954840  0.19630293  0.60060293  1
  Pd  Pd190  1  0.20780707  -0.00644651  0.79934855  1
  Pd  Pd191  1  0.40233300  0.39697368  0.81199098  1
  Pd  Pd192  1  -0.00178357  0.00372631  0.80556736  1
  Pd  Pd193  1  0.60505043  0.39913402  0.39886068  1
  Pd  Pd194  1  0.79902610  0.80303335  0.59875091  1
  Pd  Pd195  1  -0.00406057  0.40096601  0.39318196  1
  Pd  Pd196  1  0.59860933  0.19460744  0.39459423  1
  Pd  Pd197  1  -0.00301865  0.00515877  0.59702534  1
  Pd  Pd198  1  0.78959908  -0.00648549  -0.00145531  1
  Pd  Pd199  1  0.41173141  0.80573087  0.59726647  1
  Rh  Rh200  1  0.80318727  0.59451257  0.19918327  1
  Rh  Rh201  1  0.59500436  0.40044161  0.20067888  1
  Rh  Rh202  1  0.60185927  0.20448438  0.80503228  1
  Rh  Rh203  1  -0.00463422  0.59566188  0.78803329  1
  Rh  Rh204  1  -0.01138298  -0.00120285  0.39838549  1
  Rh  Rh205  1  0.40356326  0.40323105  0.19383222  1
  Rh  Rh206  1  0.19544393  0.60467278  0.18907442  1
  Rh  Rh207  1  0.59276415  0.40013826  0.00146157  1
  Rh  Rh208  1  0.21013709  0.80294969  -0.00743232  1
  Rh  Rh209  1  0.60764765  0.00160615  0.80024227  1
  Rh  Rh210  1  0.39353227  0.00646149  0.81198360  1
  Rh  Rh211  1  0.80217708  0.59855163  0.59662054  1
  Rh  Rh212  1  0.39113581  0.19199766  0.19972504  1
  Rh  Rh213  1  0.59162733  0.79420553  0.79891448  1
  Rh  Rh214  1  0.00455452  0.41574192  0.20662875  1
  Rh  Rh215  1  0.79839331  0.80822237  0.19343210  1
  Rh  Rh216  1  0.60402942  0.19711268  0.20087976  1
  Rh  Rh217  1  0.39790906  0.80178070  0.80332052  1
  Rh  Rh218  1  0.00969374  0.19456858  0.59729786  1
  Rh  Rh219  1  0.80274878  0.39978696  0.79902677  1
  Rh  Rh220  1  0.39706184  0.79968579  0.20303257  1
  Rh  Rh221  1  0.38983775  0.20531557  0.59746471  1
  Rh  Rh222  1  0.40031371  0.39577614  0.59598964  1
  Rh  Rh223  1  0.19036106  0.21033027  0.39942449  1
  Rh  Rh224  1  0.20153636  0.39539309  0.19875591  1
  Rh  Rh225  1  0.20396048  0.40132087  0.39303973  1
  Rh  Rh226  1  0.39742152  0.60380122  0.39779278  1
  Rh  Rh227  1  0.40342668  0.59749155  0.80013630  1
  Rh  Rh228  1  0.19672110  0.21351462  0.01018591  1
  Rh  Rh229  1  0.59917060  0.78893411  0.40056220  1
  Rh  Rh230  1  0.19302730  0.40448549  0.79517706  1
  Rh  Rh231  1  0.40707564  0.19690143  0.39790958  1
  Rh  Rh232  1  0.79039596  0.60783141  -0.00362563  1
  Rh  Rh233  1  0.59195919  0.00906467  0.40217619  1
  Rh  Rh234  1  0.20097508  0.59543575  0.00155712  1
  Rh  Rh235  1  0.19755534  0.59127047  0.60018223  1
  Rh  Rh236  1  0.59922461  0.60007430  0.19931207  1
  Rh  Rh237  1  0.79525556  0.59732581  0.80289567  1
  Rh  Rh238  1  -0.01042399  0.79368776  -0.00502613  1
  Rh  Rh239  1  0.60246350  0.80204827  0.19328818  1
  Rh  Rh240  1  0.20752782  -0.00854922  0.00057777  1
  Rh  Rh241  1  -0.00064285  0.79291356  0.59994718  1
  Rh  Rh242  1  0.80963048  0.80267141  0.80885711  1
  Rh  Rh243  1  0.00642653  0.19144849  0.19939947  1
  Rh  Rh244  1  0.79955998  0.39790869  0.20123858  1
  Rh  Rh245  1  0.40576803  0.59629764  0.60527822  1
  Rh  Rh246  1  0.79256047  0.39642061  0.59035713  1
  Rh  Rh247  1  0.21159387  0.60103517  0.40112185  1
  Rh  Rh248  1  0.20564663  0.39808643  0.60042466  1
  Rh  Rh249  1  0.59943565  0.20470496  0.00169540  1
