# generated using pymatgen
data_ZrScNbPdRh
_symmetry_space_group_name_H-M   'P 1'
_cell_length_a   16.55675564
_cell_length_b   16.56026143
_cell_length_c   16.56292647
_cell_angle_alpha   89.99103243
_cell_angle_beta   89.98060156
_cell_angle_gamma   89.97793696
_symmetry_Int_Tables_number   1
_chemical_formula_structural   ZrScNbPdRh
_chemical_formula_sum   'Zr50 Sc50 Nb50 Pd50 Rh50'
_cell_volume   4541.29212321
_cell_formula_units_Z   50
loop_
 _symmetry_equiv_pos_site_id
 _symmetry_equiv_pos_as_xyz
  1  'x, y, z'
loop_
 _atom_site_type_symbol
 _atom_site_label
 _atom_site_symmetry_multiplicity
 _atom_site_fract_x
 _atom_site_fract_y
 _atom_site_fract_z
 _atom_site_occupancy
  Zr  Zr0  1  0.89287507  0.89828469  0.90242457  1
  Zr  Zr1  1  0.50334178  0.30666633  0.29843512  1
  Zr  Zr2  1  0.10676342  0.69368720  0.69821003  1
  Zr  Zr3  1  0.90286592  0.70212501  0.91044033  1
  Zr  Zr4  1  0.48456825  0.49958375  0.29020759  1
  Zr  Zr5  1  0.30539864  0.10653660  0.89730626  1
  Zr  Zr6  1  0.90518232  0.10428299  0.69815192  1
  Zr  Zr7  1  0.29873486  0.90962123  0.29468612  1
  Zr  Zr8  1  0.10008303  0.69849312  0.09083671  1
  Zr  Zr9  1  0.09895691  0.09217567  0.69850050  1
  Zr  Zr10  1  0.69895383  0.29919587  0.30151799  1
  Zr  Zr11  1  0.69677697  0.10066298  0.29960425  1
  Zr  Zr12  1  0.68971739  0.50496419  0.90221482  1
  Zr  Zr13  1  0.48821478  0.28752780  0.89596128  1
  Zr  Zr14  1  0.50108409  0.89477494  0.89432529  1
  Zr  Zr15  1  0.68809652  0.49243323  0.30601625  1
  Zr  Zr16  1  0.69987263  0.89779292  0.50687666  1
  Zr  Zr17  1  0.49106355  0.89555456  0.09857005  1
  Zr  Zr18  1  0.50040452  0.89979523  0.29096019  1
  Zr  Zr19  1  0.29151502  0.29344927  0.89602476  1
  Zr  Zr20  1  0.29856956  0.49386228  0.90654635  1
  Zr  Zr21  1  0.49561431  0.70110346  0.10131323  1
  Zr  Zr22  1  0.69881853  0.29961538  0.69777612  1
  Zr  Zr23  1  0.30404499  0.49348227  0.49466967  1
  Zr  Zr24  1  0.89854053  0.49874506  0.90039399  1
  Zr  Zr25  1  0.90338165  0.10739135  0.89714228  1
  Zr  Zr26  1  0.50529540  0.29705423  0.69461352  1
  Zr  Zr27  1  0.50019032  0.49978188  0.09448350  1
  Zr  Zr28  1  0.29841587  0.90599361  0.50192327  1
  Zr  Zr29  1  0.90026456  0.89297522  0.30142848  1
  Zr  Zr30  1  0.29949748  0.09601086  0.70055383  1
  Zr  Zr31  1  0.30751493  0.50499761  0.11001874  1
  Zr  Zr32  1  0.48908966  0.30223840  0.49974728  1
  Zr  Zr33  1  0.50543563  0.50362248  0.69913829  1
  Zr  Zr34  1  0.49269101  0.30170997  0.10274269  1
  Zr  Zr35  1  0.89281754  0.69902946  0.29639890  1
  Zr  Zr36  1  0.70396709  0.31382789  0.49390743  1
  Zr  Zr37  1  0.89892863  0.69731067  0.70553767  1
  Zr  Zr38  1  0.49933111  0.10039444  0.50801230  1
  Zr  Zr39  1  0.69881121  0.50075361  0.09099852  1
  Zr  Zr40  1  0.69633973  0.88283929  0.30150723  1
  Zr  Zr41  1  0.10944931  0.70736562  0.50119091  1
  Zr  Zr42  1  0.29637324  0.30194493  0.08488648  1
  Zr  Zr43  1  0.10304695  0.30236040  0.49899908  1
  Zr  Zr44  1  0.10317917  0.69990345  0.29861228  1
  Zr  Zr45  1  0.90973472  0.30741675  0.49967529  1
  Zr  Zr46  1  0.30884644  0.89902622  0.90423171  1
  Zr  Zr47  1  0.70570458  0.09517963  0.89988585  1
  Zr  Zr48  1  0.49288661  0.69622637  0.50505338  1
  Zr  Zr49  1  0.69540153  0.89277010  0.89979088  1
  Sc  Sc50  1  0.89184444  0.70300026  0.50585231  1
  Sc  Sc51  1  0.90373237  0.11018644  0.50008056  1
  Sc  Sc52  1  0.10672479  0.89773647  0.29861188  1
  Sc  Sc53  1  0.29558767  0.68992099  0.30301952  1
  Sc  Sc54  1  0.89849466  0.09853646  0.09482413  1
  Sc  Sc55  1  0.11573275  0.89990324  0.10323090  1
  Sc  Sc56  1  0.69771356  0.49853899  0.69540958  1
  Sc  Sc57  1  0.09722104  0.31580249  0.30547755  1
  Sc  Sc58  1  0.69313924  0.89590070  0.09410609  1
  Sc  Sc59  1  0.10472605  0.30382574  0.10081867  1
  Sc  Sc60  1  0.10505562  0.50749552  0.89733827  1
  Sc  Sc61  1  0.50275526  0.70673985  0.30662580  1
  Sc  Sc62  1  0.50484431  0.50312405  0.50175821  1
  Sc  Sc63  1  0.89250700  0.89498781  0.50738313  1
  Sc  Sc64  1  0.10849416  0.08782301  0.30080471  1
  Sc  Sc65  1  0.09966910  0.30824830  0.69510710  1
  Sc  Sc66  1  0.49540449  0.09649059  0.29553671  1
  Sc  Sc67  1  0.90189930  0.10380524  0.30404035  1
  Sc  Sc68  1  0.89988291  0.50533740  0.69691925  1
  Sc  Sc69  1  0.49936693  0.08872607  0.10519548  1
  Sc  Sc70  1  0.90436691  0.30031801  0.09564393  1
  Sc  Sc71  1  0.90372514  0.30488361  0.70395343  1
  Sc  Sc72  1  0.70063453  0.09816729  0.51084365  1
  Sc  Sc73  1  0.30175978  0.69812352  0.90134049  1
  Sc  Sc74  1  0.70069484  0.90355645  0.69956049  1
  Sc  Sc75  1  0.30180823  0.90351137  0.70058703  1
  Sc  Sc76  1  0.90625186  0.50817142  0.09910928  1
  Sc  Sc77  1  0.10238641  0.10034684  0.50073992  1
  Sc  Sc78  1  0.68796379  0.30258742  0.09791520  1
  Sc  Sc79  1  0.49245085  0.89430951  0.49459399  1
  Sc  Sc80  1  0.50172613  0.70258092  0.89518167  1
  Sc  Sc81  1  0.48936804  0.69705086  0.70381082  1
  Sc  Sc82  1  0.10660345  0.90180683  0.90339701  1
  Sc  Sc83  1  0.90360332  0.30093930  0.31005977  1
  Sc  Sc84  1  0.89915703  0.29379856  0.89428817  1
  Sc  Sc85  1  0.29919752  0.30530964  0.32228313  1
  Sc  Sc86  1  0.70557717  0.30052659  0.89437902  1
  Sc  Sc87  1  0.10739269  0.90189742  0.49982916  1
  Sc  Sc88  1  0.50353079  0.09350689  0.70499449  1
  Sc  Sc89  1  0.70100601  0.69284244  0.70324300  1
  Sc  Sc90  1  0.10570923  0.09538829  0.10146265  1
  Sc  Sc91  1  0.29411585  0.50445316  0.69729056  1
  Sc  Sc92  1  0.09752746  0.49209298  0.50514876  1
  Sc  Sc93  1  0.30178656  0.08922793  0.09396253  1
  Sc  Sc94  1  0.10159762  0.50045979  0.11133072  1
  Sc  Sc95  1  0.91480679  0.49796395  0.28884196  1
  Sc  Sc96  1  0.69274585  0.09561044  0.69401648  1
  Sc  Sc97  1  0.89614955  0.89978333  0.09340229  1
  Sc  Sc98  1  0.69660191  0.09298702  0.09694136  1
  Sc  Sc99  1  0.09669981  0.50060384  0.69861590  1
  Nb  Nb100  1  0.49372108  0.09523368  0.89788614  1
  Nb  Nb101  1  0.29192298  0.50177419  0.29729924  1
  Nb  Nb102  1  0.30146962  0.10793420  0.48967064  1
  Nb  Nb103  1  0.89622437  0.50518723  0.50001369  1
  Nb  Nb104  1  0.69129242  0.69707216  0.49484113  1
  Nb  Nb105  1  0.10762519  0.50647993  0.30068489  1
  Nb  Nb106  1  0.49648326  0.50354809  0.89593565  1
  Nb  Nb107  1  0.30411305  0.30221892  0.69801901  1
  Nb  Nb108  1  0.69844292  0.69851956  0.29947497  1
  Nb  Nb109  1  0.10097780  0.70537474  0.89964735  1
  Nb  Nb110  1  0.29820653  0.70466406  0.68877350  1
  Nb  Nb111  1  0.70163895  0.50680093  0.50244247  1
  Nb  Nb112  1  0.69737123  0.70395447  0.90986825  1
  Nb  Nb113  1  0.10784862  0.30040449  0.90894481  1
  Nb  Nb114  1  0.50933680  0.89590919  0.71048103  1
  Nb  Nb115  1  0.90289232  0.69639250  0.10232649  1
  Nb  Nb116  1  0.30323699  0.89211885  0.09872251  1
  Nb  Nb117  1  0.10316082  0.11030591  0.89854822  1
  Nb  Nb118  1  0.10175094  0.90258101  0.69880184  1
  Nb  Nb119  1  0.90368733  0.90316019  0.70159102  1
  Nb  Nb120  1  0.29953338  0.29787334  0.50436381  1
  Nb  Nb121  1  0.29612795  0.70937862  0.10089585  1
  Nb  Nb122  1  0.30291423  0.70450994  0.51518066  1
  Nb  Nb123  1  0.70080430  0.69552424  0.10196048  1
  Nb  Nb124  1  0.29790615  0.10475274  0.30661516  1
  Nb  Nb125  1  0.80167617  0.20804654  0.59890792  1
  Nb  Nb126  1  0.00503762  0.80218422  0.79812335  1
  Nb  Nb127  1  0.79871186  -0.00211669  0.39831238  1
  Nb  Nb128  1  0.59737449  0.79531402  0.60107459  1
  Nb  Nb129  1  0.20537286  0.20050237  0.20653729  1
  Nb  Nb130  1  0.00339570  0.00543326  -0.00710021  1
  Nb  Nb131  1  0.60221364  -0.00052867  0.40038963  1
  Nb  Nb132  1  0.19643051  0.79702848  0.79553392  1
  Nb  Nb133  1  0.00624449  0.39911872  -0.00639289  1
  Nb  Nb134  1  0.40085493  0.39979315  0.79904351  1
  Nb  Nb135  1  0.20896890  0.20270396  0.59723109  1
  Nb  Nb136  1  0.79886808  -0.00059277  0.20679926  1
  Nb  Nb137  1  0.80678048  -0.00010963  0.79825628  1
  Nb  Nb138  1  0.00448625  0.80317315  0.61088094  1
  Nb  Nb139  1  -0.00204666  0.79459565  0.19405942  1
  Nb  Nb140  1  -0.00599194  -0.00588223  0.39876775  1
  Nb  Nb141  1  0.60347191  0.60325388  0.19931709  1
  Nb  Nb142  1  0.79787640  0.39711556  0.19906327  1
  Nb  Nb143  1  0.38797493  0.20187785  0.20386785  1
  Nb  Nb144  1  0.59783491  0.19860712  0.40331701  1
  Nb  Nb145  1  0.80134609  0.20095944  0.20149381  1
  Nb  Nb146  1  -0.00104641  0.60099156  0.40208683  1
  Nb  Nb147  1  0.00401576  0.19936236  0.20207101  1
  Nb  Nb148  1  0.79682148  0.59820493  0.39984586  1
  Nb  Nb149  1  0.59142161  0.19407784  -0.00646779  1
  Pd  Pd150  1  0.00060847  0.60296671  0.80602248  1
  Pd  Pd151  1  -0.00148279  0.79904476  0.40611440  1
  Pd  Pd152  1  0.60127271  0.60713863  0.79965766  1
  Pd  Pd153  1  0.80806228  0.39433349  0.00371709  1
  Pd  Pd154  1  0.59190049  0.00078603  -0.00409133  1
  Pd  Pd155  1  0.00580500  0.81153711  0.00343030  1
  Pd  Pd156  1  0.40012302  0.60644181  -0.00271187  1
  Pd  Pd157  1  0.00023427  -0.00590750  0.80941013  1
  Pd  Pd158  1  0.59398152  0.39773079  0.80630898  1
  Pd  Pd159  1  0.01414265  0.19139006  0.39169849  1
  Pd  Pd160  1  0.19895078  0.00346765  -0.00631991  1
  Pd  Pd161  1  0.19209582  0.20429365  0.78721792  1
  Pd  Pd162  1  0.40511725  -0.00554661  0.60569326  1
  Pd  Pd163  1  0.60381400  0.19204346  0.80456362  1
  Pd  Pd164  1  0.81163032  0.41353503  0.39062244  1
  Pd  Pd165  1  0.20118632  0.59671547  0.00508515  1
  Pd  Pd166  1  0.59629110  0.19510371  0.19443957  1
  Pd  Pd167  1  0.19670724  0.59533914  0.41216153  1
  Pd  Pd168  1  0.59504695  0.59844438  0.39466620  1
  Pd  Pd169  1  0.00041365  0.60661244  0.59180075  1
  Pd  Pd170  1  0.20234062  0.58986383  0.59100496  1
  Pd  Pd171  1  0.80159731  0.60362191  -0.00216185  1
  Pd  Pd172  1  0.79182432  0.58704853  0.20624014  1
  Pd  Pd173  1  0.79456948  0.59564964  0.80666986  1
  Pd  Pd174  1  0.20790097  0.60442549  0.80130818  1
  Pd  Pd175  1  0.59151093  0.38895951  -0.01188683  1
  Pd  Pd176  1  -0.00303881  -0.00590237  0.58741650  1
  Pd  Pd177  1  0.40613618  0.00323129  0.39823310  1
  Pd  Pd178  1  0.00503414  0.39906747  0.80704297  1
  Pd  Pd179  1  0.39118767  0.59685491  0.79833662  1
  Pd  Pd180  1  0.40732959  0.81075666  0.60973412  1
  Pd  Pd181  1  0.39114148  0.79201894  0.21051653  1
  Pd  Pd182  1  0.40449069  0.39951954  -0.00860563  1
  Pd  Pd183  1  0.79867474  0.80243871  0.79586160  1
  Pd  Pd184  1  0.79469493  0.79309777  0.60845917  1
  Pd  Pd185  1  0.80124600  0.80427971  0.18797401  1
  Pd  Pd186  1  0.00960046  0.20116499  0.00865919  1
  Pd  Pd187  1  0.20273030  -0.00442652  0.80831867  1
  Pd  Pd188  1  0.39664311  0.19409284  0.60608852  1
  Pd  Pd189  1  0.01208229  0.21027663  0.79484456  1
  Pd  Pd190  1  0.20131202  0.40081229  0.79575697  1
  Pd  Pd191  1  0.80560515  0.40090779  0.60510667  1
  Pd  Pd192  1  -0.00571106  -0.00201854  0.19633301  1
  Pd  Pd193  1  0.79783979  0.40737942  0.79667619  1
  Pd  Pd194  1  0.38900627  0.79655983  0.39424075  1
  Pd  Pd195  1  0.78991646  0.20547775  0.00948328  1
  Pd  Pd196  1  0.21202301  0.80224846  0.39724682  1
  Pd  Pd197  1  0.20658697  0.39147266  0.20389005  1
  Pd  Pd198  1  0.39974592  0.40868006  0.60714393  1
  Pd  Pd199  1  0.39709495  0.60032659  0.40084992  1
  Rh  Rh200  1  0.19912343  0.40761629  0.40223882  1
  Rh  Rh201  1  0.59929976  0.40263030  0.59391117  1
  Rh  Rh202  1  0.38440638  0.38884666  0.20659623  1
  Rh  Rh203  1  0.60701161  -0.01056735  0.20345219  1
  Rh  Rh204  1  0.79488274  0.79168239  0.00686866  1
  Rh  Rh205  1  0.19745238  0.19123405  0.00702225  1
  Rh  Rh206  1  -0.00556962  0.40496713  0.60192493  1
  Rh  Rh207  1  0.38997188  0.79857209  0.79565062  1
  Rh  Rh208  1  0.19887714  0.79591199  0.19970169  1
  Rh  Rh209  1  0.40067516  0.79437161  -0.00374545  1
  Rh  Rh210  1  0.59392297  0.60736998  0.00143303  1
  Rh  Rh211  1  0.20699113  0.79873830  -0.00641907  1
  Rh  Rh212  1  0.59802553  0.80265411  0.41004434  1
  Rh  Rh213  1  -0.00572737  0.39140023  0.19118430  1
  Rh  Rh214  1  0.00789853  0.60880368  0.20362782  1
  Rh  Rh215  1  0.79466015  0.79334342  0.40628916  1
  Rh  Rh216  1  0.40366870  -0.00191441  -0.00176474  1
  Rh  Rh217  1  0.20499129  0.00937670  0.59356673  1
  Rh  Rh218  1  0.00491625  0.20549135  0.60283839  1
  Rh  Rh219  1  0.80621845  0.00128953  -0.00151452  1
  Rh  Rh220  1  0.19698740  0.00042401  0.40532905  1
  Rh  Rh221  1  0.19841983  0.80798563  0.60582234  1
  Rh  Rh222  1  0.19454781  0.20218919  0.40202924  1
  Rh  Rh223  1  0.40255212  -0.00282661  0.79749159  1
  Rh  Rh224  1  0.59809655  0.79387794  0.00396414  1
  Rh  Rh225  1  0.60107958  0.60654109  0.60352280  1
  Rh  Rh226  1  0.60436103  0.41200085  0.19156885  1
  Rh  Rh227  1  0.58867941  0.40043376  0.40943870  1
  Rh  Rh228  1  0.19135695  0.41221858  0.00260938  1
  Rh  Rh229  1  0.20307276  0.39721278  0.60099094  1
  Rh  Rh230  1  0.00031124  0.41530607  0.40149275  1
  Rh  Rh231  1  0.40117953  0.40622630  0.39801753  1
  Rh  Rh232  1  0.20865469  0.00404111  0.19771131  1
  Rh  Rh233  1  0.39488230  0.59535119  0.60079160  1
  Rh  Rh234  1  0.79469250  0.60258021  0.59475415  1
  Rh  Rh235  1  0.58674446  -0.01676747  0.59478775  1
  Rh  Rh236  1  0.39969627  0.60917225  0.20193151  1
  Rh  Rh237  1  0.00400334  0.59229607  -0.00330938  1
  Rh  Rh238  1  0.20221847  0.60491708  0.19323533  1
  Rh  Rh239  1  0.79352873  0.19178775  0.78537708  1
  Rh  Rh240  1  0.60574846  0.79232058  0.79274502  1
  Rh  Rh241  1  0.81034910  0.01244614  0.60278176  1
  Rh  Rh242  1  0.60934293  0.21289837  0.58793685  1
  Rh  Rh243  1  0.60713311  0.00054717  0.80492197  1
  Rh  Rh244  1  0.40048840  0.19992205  0.78760969  1
  Rh  Rh245  1  0.40700423  0.18704375  0.01308321  1
  Rh  Rh246  1  0.39151275  0.00476994  0.19868815  1
  Rh  Rh247  1  0.40974947  0.19859369  0.39351411  1
  Rh  Rh248  1  0.78894108  0.19285211  0.40700421  1
  Rh  Rh249  1  0.60077634  0.79220148  0.19161810  1
