# generated using pymatgen
data_ZrScNbPdRh
_symmetry_space_group_name_H-M   'P 1'
_cell_length_a   16.56116573
_cell_length_b   16.56141291
_cell_length_c   16.55847535
_cell_angle_alpha   89.99954319
_cell_angle_beta   90.05778462
_cell_angle_gamma   89.97509896
_symmetry_Int_Tables_number   1
_chemical_formula_structural   ZrScNbPdRh
_chemical_formula_sum   'Zr50 Sc50 Nb50 Pd50 Rh50'
_cell_volume   4541.59468038
_cell_formula_units_Z   50
loop_
 _symmetry_equiv_pos_site_id
 _symmetry_equiv_pos_as_xyz
  1  'x, y, z'
loop_
 _atom_site_type_symbol
 _atom_site_label
 _atom_site_symmetry_multiplicity
 _atom_site_fract_x
 _atom_site_fract_y
 _atom_site_fract_z
 _atom_site_occupancy
  Zr  Zr0  1  0.90295926  0.89103262  0.30349353  1
  Zr  Zr1  1  0.68822259  0.09894327  0.69984321  1
  Zr  Zr2  1  0.49256818  0.90952311  0.10529149  1
  Zr  Zr3  1  0.91321242  0.29311635  0.49775661  1
  Zr  Zr4  1  0.10915683  0.69368613  0.49410015  1
  Zr  Zr5  1  0.09002891  0.28980295  0.69988041  1
  Zr  Zr6  1  0.09269818  0.69207713  0.09920574  1
  Zr  Zr7  1  0.10349465  0.49988391  0.49943126  1
  Zr  Zr8  1  0.90324265  0.09846847  0.49789932  1
  Zr  Zr9  1  0.69797561  0.10177857  0.89621280  1
  Zr  Zr10  1  0.50566387  0.09248673  0.29423309  1
  Zr  Zr11  1  0.69784901  0.50234706  0.09563954  1
  Zr  Zr12  1  0.89583800  0.69758928  0.89310756  1
  Zr  Zr13  1  0.29543814  0.89588081  0.69954925  1
  Zr  Zr14  1  0.69582561  0.69424500  0.09605812  1
  Zr  Zr15  1  0.90440770  0.29921381  0.29847000  1
  Zr  Zr16  1  0.89593900  0.30104312  0.89389457  1
  Zr  Zr17  1  0.30011769  0.69769679  0.09942281  1
  Zr  Zr18  1  0.29654360  0.09851475  0.49682787  1
  Zr  Zr19  1  0.30145897  0.29215000  0.49329794  1
  Zr  Zr20  1  0.50153362  0.69386076  0.89699168  1
  Zr  Zr21  1  0.30230977  0.09867567  0.30828239  1
  Zr  Zr22  1  0.88770385  0.89708549  0.90209083  1
  Zr  Zr23  1  0.70316901  0.89859108  0.09489260  1
  Zr  Zr24  1  0.90473497  0.11002473  0.30135919  1
  Zr  Zr25  1  0.49247569  0.09797944  0.50605509  1
  Zr  Zr26  1  0.69672721  0.89483826  0.89242600  1
  Zr  Zr27  1  0.69747503  0.49417745  0.70095127  1
  Zr  Zr28  1  0.70155615  0.50396594  0.49951800  1
  Zr  Zr29  1  0.70903317  0.30139529  0.29833137  1
  Zr  Zr30  1  0.10338986  0.49259856  0.10564944  1
  Zr  Zr31  1  0.69563307  0.30588553  0.09559612  1
  Zr  Zr32  1  0.90286992  0.89776011  0.50268368  1
  Zr  Zr33  1  0.30122942  0.49943862  0.10128423  1
  Zr  Zr34  1  0.30588371  0.69998330  0.50527965  1
  Zr  Zr35  1  0.70515032  0.49811080  0.29853572  1
  Zr  Zr36  1  0.50478686  0.50857086  0.50662209  1
  Zr  Zr37  1  0.49822025  0.29583940  0.89644059  1
  Zr  Zr38  1  0.10547069  0.28582627  0.90507449  1
  Zr  Zr39  1  0.70304840  0.10219059  0.30169211  1
  Zr  Zr40  1  0.10122429  0.30467468  0.30499862  1
  Zr  Zr41  1  0.49708188  0.70140826  0.48775397  1
  Zr  Zr42  1  0.09693872  0.89766942  0.69806805  1
  Zr  Zr43  1  0.29993152  0.89987597  0.09953744  1
  Zr  Zr44  1  0.69705447  0.31139244  0.89757306  1
  Zr  Zr45  1  0.29847402  0.90047960  0.90831778  1
  Zr  Zr46  1  0.70437319  0.10227756  0.50176351  1
  Zr  Zr47  1  0.10502446  0.70631326  0.70175740  1
  Zr  Zr48  1  0.49305934  0.30470013  0.30212176  1
  Zr  Zr49  1  0.10268150  0.50174406  0.30571621  1
  Sc  Sc50  1  0.90890165  0.50595309  0.09832976  1
  Sc  Sc51  1  0.69346430  0.90053880  0.30610635  1
  Sc  Sc52  1  0.90224731  0.89408601  0.69659403  1
  Sc  Sc53  1  0.50477864  0.29913682  0.09524619  1
  Sc  Sc54  1  0.69264082  0.30271808  0.71021352  1
  Sc  Sc55  1  0.29890523  0.50697114  0.49661076  1
  Sc  Sc56  1  0.49786137  0.49645969  0.70085789  1
  Sc  Sc57  1  0.90669777  0.70379582  0.30014883  1
  Sc  Sc58  1  0.31262851  0.09354687  0.69278355  1
  Sc  Sc59  1  0.30690574  0.50595331  0.69919462  1
  Sc  Sc60  1  0.11548813  0.89932452  0.10103737  1
  Sc  Sc61  1  0.29778754  0.69058568  0.90023689  1
  Sc  Sc62  1  0.90757068  0.11037830  0.09920978  1
  Sc  Sc63  1  0.89539063  0.50206148  0.89808894  1
  Sc  Sc64  1  0.49338773  0.68604200  0.09789318  1
  Sc  Sc65  1  0.10230436  0.10865973  0.09337573  1
  Sc  Sc66  1  0.29306904  0.30719931  0.09662451  1
  Sc  Sc67  1  0.70270661  0.70024682  0.71047736  1
  Sc  Sc68  1  0.49073759  0.50513143  0.29813516  1
  Sc  Sc69  1  0.91171119  0.30035610  0.10279477  1
  Sc  Sc70  1  0.49784468  0.50109154  0.10228990  1
  Sc  Sc71  1  0.09758264  0.50411706  0.90820480  1
  Sc  Sc72  1  0.50077445  0.90316267  0.30868708  1
  Sc  Sc73  1  0.29928177  0.11101333  0.90434668  1
  Sc  Sc74  1  0.69830167  0.69664245  0.49324713  1
  Sc  Sc75  1  0.49389699  0.30126781  0.50873685  1
  Sc  Sc76  1  0.31081239  0.29785418  0.70039515  1
  Sc  Sc77  1  0.69820051  0.89977962  0.70332344  1
  Sc  Sc78  1  0.10559985  0.89651119  0.50427066  1
  Sc  Sc79  1  0.29866765  0.08720998  0.09718839  1
  Sc  Sc80  1  0.68909970  0.10466940  0.10438420  1
  Sc  Sc81  1  0.11212230  0.09543852  0.30431289  1
  Sc  Sc82  1  0.69733241  0.69648347  0.30473664  1
  Sc  Sc83  1  0.89856660  0.50972968  0.70135501  1
  Sc  Sc84  1  0.09990073  0.30059667  0.09854094  1
  Sc  Sc85  1  0.89228966  0.89110687  0.10032733  1
  Sc  Sc86  1  0.70841418  0.89820644  0.49851463  1
  Sc  Sc87  1  0.91168703  0.09781616  0.70085449  1
  Sc  Sc88  1  0.09642360  0.69563672  0.88907343  1
  Sc  Sc89  1  0.50213235  0.91223782  0.70634703  1
  Sc  Sc90  1  0.49391471  0.69286814  0.69812412  1
  Sc  Sc91  1  0.10418081  0.89306929  0.89536085  1
  Sc  Sc92  1  0.09623337  0.51182673  0.69549432  1
  Sc  Sc93  1  0.89336303  0.69882542  0.10265979  1
  Sc  Sc94  1  0.30555296  0.90395330  0.50635344  1
  Sc  Sc95  1  0.89991344  0.09795615  0.89539414  1
  Sc  Sc96  1  0.50129383  0.30256877  0.69955046  1
  Sc  Sc97  1  0.89550651  0.70557276  0.49918829  1
  Sc  Sc98  1  0.90353712  0.50693196  0.49857426  1
  Sc  Sc99  1  0.30233728  0.31038398  0.30584248  1
  Nb  Nb100  1  0.49530585  0.70468190  0.30281070  1
  Nb  Nb101  1  0.69534365  0.50572420  0.89585949  1
  Nb  Nb102  1  0.28438958  0.90764790  0.29066178  1
  Nb  Nb103  1  0.09779111  0.09777405  0.70533580  1
  Nb  Nb104  1  0.30182796  0.69813214  0.30734157  1
  Nb  Nb105  1  0.49996711  0.89748117  0.89981852  1
  Nb  Nb106  1  0.29731141  0.30474669  0.89781784  1
  Nb  Nb107  1  0.90183990  0.49371329  0.29573632  1
  Nb  Nb108  1  0.29704286  0.70283435  0.70068683  1
  Nb  Nb109  1  0.29895105  0.49865475  0.29366502  1
  Nb  Nb110  1  0.10624085  0.70871106  0.30532493  1
  Nb  Nb111  1  0.30087627  0.49352011  0.89680112  1
  Nb  Nb112  1  0.50198956  0.10175402  0.70407017  1
  Nb  Nb113  1  0.49065848  0.50248831  0.89384734  1
  Nb  Nb114  1  0.90635929  0.70012042  0.70863421  1
  Nb  Nb115  1  0.09914013  0.10218718  0.50182650  1
  Nb  Nb116  1  0.50417292  0.89149092  0.50002307  1
  Nb  Nb117  1  0.69653001  0.70093653  0.89903804  1
  Nb  Nb118  1  0.50225868  0.10112281  0.90024076  1
  Nb  Nb119  1  0.10194967  0.29816167  0.50156833  1
  Nb  Nb120  1  0.49897837  0.10051194  0.09997951  1
  Nb  Nb121  1  0.70157395  0.30306873  0.50205788  1
  Nb  Nb122  1  0.89875200  0.30130377  0.69920973  1
  Nb  Nb123  1  0.09964182  0.09996378  0.89685070  1
  Nb  Nb124  1  0.10136393  0.89698440  0.30086434  1
  Nb  Nb125  1  0.79434636  0.20673279  -0.00331773  1
  Nb  Nb126  1  0.19600295  0.39239261  0.60199574  1
  Nb  Nb127  1  0.39847154  0.19554781  0.19737600  1
  Nb  Nb128  1  0.20067511  0.60457990  0.20942171  1
  Nb  Nb129  1  0.19335098  0.19825623  0.59969454  1
  Nb  Nb130  1  0.60330295  0.39876962  0.40342862  1
  Nb  Nb131  1  0.59042591  0.79692991  0.19737101  1
  Nb  Nb132  1  0.00341856  0.39602204  0.79778182  1
  Nb  Nb133  1  0.60189031  0.20584537  0.40306217  1
  Nb  Nb134  1  0.59304352  -0.00062097  -0.00409150  1
  Nb  Nb135  1  0.39662969  0.40108140  -0.01020177  1
  Nb  Nb136  1  0.39691909  0.79888283  0.20814069  1
  Nb  Nb137  1  -0.00321671  0.80135756  -0.00242045  1
  Nb  Nb138  1  0.80102852  0.20631670  0.60302577  1
  Nb  Nb139  1  0.00143688  -0.00602654  0.00125342  1
  Nb  Nb140  1  0.00645835  -0.00475002  0.39740731  1
  Nb  Nb141  1  0.00098097  -0.00441759  0.20120484  1
  Nb  Nb142  1  0.80360895  0.39352711  0.60060409  1
  Nb  Nb143  1  0.80491529  0.00243622  0.20282347  1
  Nb  Nb144  1  0.19655232  0.00656917  0.79883155  1
  Nb  Nb145  1  0.59590526  0.80046054  -0.00097505  1
  Nb  Nb146  1  0.20794900  0.20127383  0.20443923  1
  Nb  Nb147  1  0.39897577  0.80078354  0.80379637  1
  Nb  Nb148  1  0.19712964  0.39641906  0.79778259  1
  Nb  Nb149  1  0.59473806  0.80034535  0.59706927  1
  Pd  Pd150  1  0.59365224  0.20756914  0.20581640  1
  Pd  Pd151  1  0.60487001  0.61109080  0.60562201  1
  Pd  Pd152  1  0.19890508  0.59791255  0.00143512  1
  Pd  Pd153  1  0.79942527  0.60196299  0.60459543  1
  Pd  Pd154  1  0.59478055  0.40482236  0.20600553  1
  Pd  Pd155  1  0.80137508  0.00125756  0.78930153  1
  Pd  Pd156  1  0.80056719  0.01605281  0.01094310  1
  Pd  Pd157  1  0.60109390  0.00430442  0.41144937  1
  Pd  Pd158  1  0.40053980  0.19687597  0.79737769  1
  Pd  Pd159  1  0.78668176  0.80040818  0.20909438  1
  Pd  Pd160  1  0.80427051  0.00568682  0.60935264  1
  Pd  Pd161  1  -0.00194688  0.61057667  0.59773039  1
  Pd  Pd162  1  0.00329703  -0.00987534  0.80785231  1
  Pd  Pd163  1  0.80964651  0.40359947  0.18798528  1
  Pd  Pd164  1  0.21057288  0.19558053  0.78830399  1
  Pd  Pd165  1  0.20950550  0.80843856  0.40722066  1
  Pd  Pd166  1  0.80531556  0.40010238  0.40808271  1
  Pd  Pd167  1  -0.00095811  0.40658821  0.60528997  1
  Pd  Pd168  1  0.00056745  0.39841152  -0.00777465  1
  Pd  Pd169  1  0.39307812  -0.00077055  0.80729547  1
  Pd  Pd170  1  0.19636134  0.00593056  0.60525140  1
  Pd  Pd171  1  0.80392623  0.59979832  0.20468476  1
  Pd  Pd172  1  0.40871584  0.80495230  0.61144422  1
  Pd  Pd173  1  0.40309568  0.00683079  -0.00826688  1
  Pd  Pd174  1  0.20060909  0.59022540  0.79568351  1
  Pd  Pd175  1  0.39075283  0.40414443  0.59682959  1
  Pd  Pd176  1  0.39460151  0.20597048  0.00865674  1
  Pd  Pd177  1  0.40452596  0.41142196  0.41029523  1
  Pd  Pd178  1  0.59542596  0.60274486  0.20757739  1
  Pd  Pd179  1  0.60072890  0.20725427  0.59911007  1
  Pd  Pd180  1  0.58759481  0.41158087  -0.00698639  1
  Pd  Pd181  1  0.79078919  0.79309821  0.60563980  1
  Pd  Pd182  1  0.39833990  -0.00818222  0.39927711  1
  Pd  Pd183  1  0.00377898  0.78999761  0.59516152  1
  Pd  Pd184  1  0.80767463  -0.00426944  0.39383510  1
  Pd  Pd185  1  0.80113099  0.59936888  -0.00364343  1
  Pd  Pd186  1  0.81013567  0.60289724  0.39306105  1
  Pd  Pd187  1  0.38741684  0.81291183  0.39238082  1
  Pd  Pd188  1  0.59800170  -0.00921284  0.59469602  1
  Pd  Pd189  1  0.80646656  0.40041667  0.00597254  1
  Pd  Pd190  1  0.80016204  0.19496095  0.79511042  1
  Pd  Pd191  1  0.40625721  0.79281955  0.00099959  1
  Pd  Pd192  1  -0.00305321  0.40501509  0.40176647  1
  Pd  Pd193  1  0.59810441  0.59596751  0.79418877  1
  Pd  Pd194  1  0.00555858  0.80492137  0.19001736  1
  Pd  Pd195  1  -0.00498196  0.60479471  0.39630694  1
  Pd  Pd196  1  0.19022739  0.78878090  -0.00678399  1
  Pd  Pd197  1  0.79974086  0.19826680  0.18714150  1
  Pd  Pd198  1  0.20292862  0.79188275  0.19972521  1
  Pd  Pd199  1  0.00353128  0.59989249  0.21024572  1
  Rh  Rh200  1  0.01268713  0.19331782  0.39437844  1
  Rh  Rh201  1  0.39812395  0.19748010  0.60405560  1
  Rh  Rh202  1  0.00018245  0.40188649  0.20101802  1
  Rh  Rh203  1  0.20446811  0.40282657  0.40814326  1
  Rh  Rh204  1  0.79538595  0.59886379  0.80033865  1
  Rh  Rh205  1  0.60355935  0.79881132  0.40182517  1
  Rh  Rh206  1  -0.00620285  0.60884850  -0.00418430  1
  Rh  Rh207  1  0.20722673  0.59798867  0.39466469  1
  Rh  Rh208  1  0.60973564  -0.00969231  0.19186346  1
  Rh  Rh209  1  0.39887949  0.60132945  0.60088692  1
  Rh  Rh210  1  0.39822473  0.59606321  0.39695781  1
  Rh  Rh211  1  0.79537992  0.20684426  0.40867750  1
  Rh  Rh212  1  0.59874245  0.59645701  -0.00667853  1
  Rh  Rh213  1  0.39452793  0.00054589  0.20713292  1
  Rh  Rh214  1  0.59061873  0.79719582  0.79738746  1
  Rh  Rh215  1  0.39237705  0.60640911  0.20600593  1
  Rh  Rh216  1  0.39353433  0.60620712  0.79762598  1
  Rh  Rh217  1  0.39714485  0.58936243  -0.00452216  1
  Rh  Rh218  1  0.41387813  0.19306587  0.39276998  1
  Rh  Rh219  1  0.19984196  0.79455698  0.59494846  1
  Rh  Rh220  1  0.80208633  0.79860778  0.79362158  1
  Rh  Rh221  1  0.00365005  0.00092355  0.59308816  1
  Rh  Rh222  1  0.79691583  0.79749005  0.39847263  1
  Rh  Rh223  1  -0.00729776  0.80495735  0.80591627  1
  Rh  Rh224  1  0.20711975  0.19814188  0.00802471  1
  Rh  Rh225  1  0.40038055  0.39184500  0.18719763  1
  Rh  Rh226  1  0.20979024  0.80345572  0.80507406  1
  Rh  Rh227  1  0.59722786  0.00314671  0.80631435  1
  Rh  Rh228  1  0.60561045  0.40014529  0.59619754  1
  Rh  Rh229  1  0.59585899  0.59131139  0.39207275  1
  Rh  Rh230  1  0.60443174  0.19317927  -0.00464879  1
  Rh  Rh231  1  0.19129805  0.00417936  -0.00964833  1
  Rh  Rh232  1  0.00061477  0.59238130  0.80061304  1
  Rh  Rh233  1  0.80568498  0.41036625  0.79213346  1
  Rh  Rh234  1  0.40817255  -0.00518818  0.60073168  1
  Rh  Rh235  1  0.39775752  0.39825236  0.80236931  1
  Rh  Rh236  1  0.19415428  0.00843762  0.19694772  1
  Rh  Rh237  1  0.19561622  0.20399819  0.39989425  1
  Rh  Rh238  1  0.19998290  0.39817091  0.20569927  1
  Rh  Rh239  1  0.20087044  0.40088391  -0.00922922  1
  Rh  Rh240  1  -0.00106941  0.19154101  0.60004696  1
  Rh  Rh241  1  0.01845669  0.19557087  0.20775881  1
  Rh  Rh242  1  0.19619559  -0.00861832  0.40566851  1
  Rh  Rh243  1  -0.00622709  0.20206966  0.80494734  1
  Rh  Rh244  1  0.59191328  0.40566263  0.80394670  1
  Rh  Rh245  1  0.59428611  0.20215384  0.79882334  1
  Rh  Rh246  1  0.20416616  0.59868137  0.60454000  1
  Rh  Rh247  1  -0.00896274  0.19406522  -0.01026676  1
  Rh  Rh248  1  0.00554986  0.80070315  0.40736348  1
  Rh  Rh249  1  0.79763241  0.78642234  -0.00551507  1
