# generated using pymatgen
data_ZrScNbPdRh
_symmetry_space_group_name_H-M   'P 1'
_cell_length_a   16.55721440
_cell_length_b   16.55522650
_cell_length_c   16.55181107
_cell_angle_alpha   90.02119360
_cell_angle_beta   89.98582763
_cell_angle_gamma   90.01050914
_symmetry_Int_Tables_number   1
_chemical_formula_structural   ZrScNbPdRh
_chemical_formula_sum   'Zr50 Sc50 Nb50 Pd50 Rh50'
_cell_volume   4536.99049511
_cell_formula_units_Z   50
loop_
 _symmetry_equiv_pos_site_id
 _symmetry_equiv_pos_as_xyz
  1  'x, y, z'
loop_
 _atom_site_type_symbol
 _atom_site_label
 _atom_site_symmetry_multiplicity
 _atom_site_fract_x
 _atom_site_fract_y
 _atom_site_fract_z
 _atom_site_occupancy
  Zr  Zr0  1  0.69163895  0.29156703  0.89520873  1
  Zr  Zr1  1  0.50597992  0.10007452  0.89608954  1
  Zr  Zr2  1  0.89933338  0.89605493  0.89599305  1
  Zr  Zr3  1  0.49164961  0.09457385  0.69652570  1
  Zr  Zr4  1  0.29933784  0.49685678  0.29104166  1
  Zr  Zr5  1  0.49867071  0.90359014  0.70062603  1
  Zr  Zr6  1  0.89755331  0.69473891  0.90438975  1
  Zr  Zr7  1  0.89901017  0.29614546  0.30046159  1
  Zr  Zr8  1  0.89123801  0.49896003  0.49806350  1
  Zr  Zr9  1  0.09645328  0.49227387  0.89461966  1
  Zr  Zr10  1  0.29752237  0.49620514  0.89059305  1
  Zr  Zr11  1  0.10080652  0.68841172  0.69562452  1
  Zr  Zr12  1  0.50563754  0.30775491  0.70717071  1
  Zr  Zr13  1  0.10216817  0.50246118  0.50628558  1
  Zr  Zr14  1  0.50451267  0.69523631  0.89550227  1
  Zr  Zr15  1  0.70233270  0.70123536  0.10181659  1
  Zr  Zr16  1  0.30210860  0.91901240  0.69544122  1
  Zr  Zr17  1  0.89801499  0.70686652  0.49611398  1
  Zr  Zr18  1  0.49588177  0.70845241  0.10676689  1
  Zr  Zr19  1  0.10216226  0.50036525  0.29005441  1
  Zr  Zr20  1  0.90382071  0.49504466  0.90136924  1
  Zr  Zr21  1  0.50412923  0.49393833  0.89509975  1
  Zr  Zr22  1  0.50078392  0.69272067  0.48599038  1
  Zr  Zr23  1  0.29639615  0.09746317  0.89797385  1
  Zr  Zr24  1  0.70293977  0.70556235  0.89272296  1
  Zr  Zr25  1  0.90136065  0.29518631  0.50330256  1
  Zr  Zr26  1  0.90152098  0.09578443  0.50460390  1
  Zr  Zr27  1  0.70103985  0.29550363  0.29948715  1
  Zr  Zr28  1  0.90291521  0.49855703  0.09179763  1
  Zr  Zr29  1  0.50745995  0.69771552  0.70252544  1
  Zr  Zr30  1  0.49853815  0.29583611  0.30849401  1
  Zr  Zr31  1  0.28975910  0.90054873  0.49218640  1
  Zr  Zr32  1  0.49274464  0.49736458  0.30919257  1
  Zr  Zr33  1  0.29756220  0.10258281  0.10024410  1
  Zr  Zr34  1  0.09630272  0.90570961  0.89717269  1
  Zr  Zr35  1  0.70260098  0.90602988  0.90257544  1
  Zr  Zr36  1  0.90281318  0.90691367  0.69156142  1
  Zr  Zr37  1  0.70057844  0.10244165  0.90410787  1
  Zr  Zr38  1  0.90134708  0.29654103  0.09931327  1
  Zr  Zr39  1  0.69586507  0.91018793  0.30858222  1
  Zr  Zr40  1  0.89434334  0.70021265  0.10693738  1
  Zr  Zr41  1  0.29739030  0.09466333  0.51174027  1
  Zr  Zr42  1  0.11021018  0.89304668  0.10087621  1
  Zr  Zr43  1  0.29599289  0.70418245  0.09983714  1
  Zr  Zr44  1  0.69840158  0.49145172  0.30130141  1
  Zr  Zr45  1  0.09573861  0.90442367  0.69890899  1
  Zr  Zr46  1  0.30031757  0.30044310  0.30003670  1
  Zr  Zr47  1  0.70754725  0.69515703  0.50309689  1
  Zr  Zr48  1  0.50696202  0.50143826  0.69805056  1
  Zr  Zr49  1  0.29826776  0.90034772  0.90414862  1
  Sc  Sc50  1  0.09862831  0.10931380  0.89902307  1
  Sc  Sc51  1  0.29849857  0.69844567  0.89962765  1
  Sc  Sc52  1  0.70539319  0.89842833  0.70425360  1
  Sc  Sc53  1  0.09336301  0.10317993  0.10774495  1
  Sc  Sc54  1  0.49315648  0.90492186  0.89622548  1
  Sc  Sc55  1  0.49649228  0.10392838  0.49570297  1
  Sc  Sc56  1  0.50453512  0.30003577  0.10164825  1
  Sc  Sc57  1  0.10330878  0.69383071  0.90473610  1
  Sc  Sc58  1  0.48890837  0.09730011  0.10673814  1
  Sc  Sc59  1  0.70818071  0.09771876  0.30426933  1
  Sc  Sc60  1  0.10143835  0.29302758  0.49976997  1
  Sc  Sc61  1  0.89956292  0.90652912  0.30657685  1
  Sc  Sc62  1  0.09370254  0.29355970  0.29803520  1
  Sc  Sc63  1  0.89669442  0.29351178  0.70249987  1
  Sc  Sc64  1  0.69940456  0.50200202  0.69125233  1
  Sc  Sc65  1  0.70053780  0.10291341  0.70441090  1
  Sc  Sc66  1  0.29168695  0.30392030  0.69610086  1
  Sc  Sc67  1  0.50425063  0.09846233  0.30228707  1
  Sc  Sc68  1  0.90009191  0.49089860  0.29177082  1
  Sc  Sc69  1  0.70397372  0.49833297  0.90385728  1
  Sc  Sc70  1  0.09604380  0.70808120  0.49783885  1
  Sc  Sc71  1  0.70692224  0.30319241  0.49886762  1
  Sc  Sc72  1  0.29090972  0.10561280  0.29599550  1
  Sc  Sc73  1  0.29321238  0.29893247  0.10758412  1
  Sc  Sc74  1  0.09907575  0.10011285  0.70072807  1
  Sc  Sc75  1  0.89503980  0.10025217  0.10783342  1
  Sc  Sc76  1  0.70703892  0.29765629  0.09222287  1
  Sc  Sc77  1  0.10537372  0.90368230  0.31428441  1
  Sc  Sc78  1  0.70895785  0.90366847  0.11576555  1
  Sc  Sc79  1  0.90215684  0.10133106  0.90920672  1
  Sc  Sc80  1  0.70979266  0.70566152  0.29941777  1
  Sc  Sc81  1  0.50502314  0.89642737  0.48446488  1
  Sc  Sc82  1  0.89571920  0.90903871  0.10293317  1
  Sc  Sc83  1  0.89416237  0.70199854  0.70175881  1
  Sc  Sc84  1  0.69881709  0.49512946  0.09773520  1
  Sc  Sc85  1  0.69774779  0.50121136  0.50254458  1
  Sc  Sc86  1  0.29828934  0.29235275  0.49805679  1
  Sc  Sc87  1  0.09493192  0.29660978  0.70538228  1
  Sc  Sc88  1  0.10006969  0.10097714  0.49636591  1
  Sc  Sc89  1  0.30759887  0.70612729  0.30214742  1
  Sc  Sc90  1  0.10534375  0.49836411  0.09849399  1
  Sc  Sc91  1  0.28669872  0.49605267  0.69756453  1
  Sc  Sc92  1  0.70274206  0.10049246  0.49274529  1
  Sc  Sc93  1  0.30191676  0.49643945  0.49600996  1
  Sc  Sc94  1  0.90166459  0.30218125  0.89891561  1
  Sc  Sc95  1  0.30131269  0.69230379  0.70464736  1
  Sc  Sc96  1  0.90068576  0.50263973  0.70662907  1
  Sc  Sc97  1  0.10584589  0.69012789  0.10208673  1
  Sc  Sc98  1  0.30948615  0.89793031  0.10364513  1
  Sc  Sc99  1  0.28336948  0.30390306  0.89727097  1
  Nb  Nb100  1  0.30335159  0.70351101  0.49515085  1
  Nb  Nb101  1  0.09958933  0.49520957  0.69642482  1
  Nb  Nb102  1  0.90590187  0.70396917  0.30045097  1
  Nb  Nb103  1  0.49660198  0.30057975  0.89708969  1
  Nb  Nb104  1  0.09403848  0.30018171  0.90340532  1
  Nb  Nb105  1  0.30459741  0.50054425  0.10435211  1
  Nb  Nb106  1  0.69500053  0.69835074  0.69893941  1
  Nb  Nb107  1  0.50163684  0.49702188  0.49990413  1
  Nb  Nb108  1  0.50034000  0.89523919  0.29374029  1
  Nb  Nb109  1  0.50136278  0.90189378  0.10220678  1
  Nb  Nb110  1  0.90084300  0.10456058  0.69282164  1
  Nb  Nb111  1  0.69844826  0.29335150  0.69517703  1
  Nb  Nb112  1  0.90115828  0.90386642  0.50297825  1
  Nb  Nb113  1  0.49761638  0.50344391  0.10145688  1
  Nb  Nb114  1  0.29816993  0.89946906  0.30542083  1
  Nb  Nb115  1  0.10251175  0.29708412  0.08684485  1
  Nb  Nb116  1  0.08956786  0.10019155  0.30669788  1
  Nb  Nb117  1  0.70902629  0.90795583  0.50322263  1
  Nb  Nb118  1  0.30178370  0.09917195  0.69982192  1
  Nb  Nb119  1  0.49963864  0.30130879  0.49921326  1
  Nb  Nb120  1  0.09574755  0.90379004  0.50096546  1
  Nb  Nb121  1  0.70661807  0.10151132  0.09993135  1
  Nb  Nb122  1  0.91156737  0.10300700  0.29977272  1
  Nb  Nb123  1  0.09725444  0.69892358  0.30254929  1
  Nb  Nb124  1  0.50115790  0.70383598  0.30131600  1
  Nb  Nb125  1  0.00150212  0.79762385  0.20422349  1
  Nb  Nb126  1  0.00132730  0.40253025  0.60174907  1
  Nb  Nb127  1  0.19998597  0.00210001  0.00294298  1
  Nb  Nb128  1  -0.00168930  0.79823405  0.00679498  1
  Nb  Nb129  1  0.19760006  0.60194143  0.39692446  1
  Nb  Nb130  1  0.19713721  0.40279158  0.39546305  1
  Nb  Nb131  1  0.40031609  0.79645292  0.59393593  1
  Nb  Nb132  1  0.39702682  0.20258889  0.80068991  1
  Nb  Nb133  1  0.59870104  0.80765540  0.00537306  1
  Nb  Nb134  1  0.40850933  0.40226835  0.59688792  1
  Nb  Nb135  1  0.39366909  -0.00558120  0.39257617  1
  Nb  Nb136  1  0.59201643  0.59999218  0.20413356  1
  Nb  Nb137  1  0.59840651  0.20273789  0.59932225  1
  Nb  Nb138  1  0.39881223  0.20754879  -0.00776445  1
  Nb  Nb139  1  -0.00029945  0.60188285  0.39417150  1
  Nb  Nb140  1  0.59899414  -0.00246893  0.01122126  1
  Nb  Nb141  1  0.80759640  0.00327585  0.79852462  1
  Nb  Nb142  1  0.19745489  0.80445497  0.79235113  1
  Nb  Nb143  1  0.20387657  0.80245014  0.60028276  1
  Nb  Nb144  1  0.60235007  0.80083015  0.59687501  1
  Nb  Nb145  1  0.60297492  -0.00251781  0.59545745  1
  Nb  Nb146  1  0.40013016  0.40196975  0.00018537  1
  Nb  Nb147  1  0.40424863  0.59883128  0.59335479  1
  Nb  Nb148  1  0.40120258  0.59241228  0.00451768  1
  Nb  Nb149  1  0.60690565  0.19738175  0.19966106  1
  Pd  Pd150  1  0.40539371  0.39161719  0.19391047  1
  Pd  Pd151  1  0.00538393  -0.00300324  0.00830214  1
  Pd  Pd152  1  0.79918977  0.39768770  0.19347458  1
  Pd  Pd153  1  0.40088765  0.60628637  0.20172351  1
  Pd  Pd154  1  0.20059217  0.20167228  0.79520411  1
  Pd  Pd155  1  0.60529119  0.79868705  0.20152608  1
  Pd  Pd156  1  0.20684152  0.59154268  -0.00245897  1
  Pd  Pd157  1  0.59764389  0.39811770  0.19673390  1
  Pd  Pd158  1  0.00437193  -0.00982924  0.20364446  1
  Pd  Pd159  1  0.00188869  0.60117221  0.80165701  1
  Pd  Pd160  1  0.80013606  0.80593047  0.00614818  1
  Pd  Pd161  1  0.60194373  0.00976732  0.19796423  1
  Pd  Pd162  1  0.79611610  0.59654101  0.00043881  1
  Pd  Pd163  1  0.20467956  0.40364709  0.00491646  1
  Pd  Pd164  1  0.19694241  0.00098111  0.20118294  1
  Pd  Pd165  1  0.80461862  0.19633833  0.40179834  1
  Pd  Pd166  1  0.40666367  0.79446720  -0.00539000  1
  Pd  Pd167  1  0.59778555  0.60613069  0.00557270  1
  Pd  Pd168  1  0.21049864  0.60605625  0.59176882  1
  Pd  Pd169  1  0.40478045  0.21153569  0.60813179  1
  Pd  Pd170  1  0.79466289  0.39625823  0.79587964  1
  Pd  Pd171  1  0.19803412  0.79705854  0.21102389  1
  Pd  Pd172  1  0.18941297  0.20167237  0.20181591  1
  Pd  Pd173  1  0.60779192  0.60082323  0.39106047  1
  Pd  Pd174  1  0.59118052  0.19233065  0.01280123  1
  Pd  Pd175  1  0.00661669  0.39261844  0.19048451  1
  Pd  Pd176  1  0.39000481  0.80099005  0.79347482  1
  Pd  Pd177  1  0.00341744  0.79907901  0.59948836  1
  Pd  Pd178  1  0.19369288  0.19928737  0.60476559  1
  Pd  Pd179  1  0.79985951  0.80743875  0.39814282  1
  Pd  Pd180  1  0.39531079  -0.00257398  0.20848507  1
  Pd  Pd181  1  0.00582244  0.78880612  0.80562180  1
  Pd  Pd182  1  0.60497034  0.39607621  0.40781697  1
  Pd  Pd183  1  0.61062818  0.79908630  0.40369511  1
  Pd  Pd184  1  0.39847002  0.59366918  0.79612616  1
  Pd  Pd185  1  0.80593300  0.40002255  0.60776704  1
  Pd  Pd186  1  0.00541856  0.40415479  0.40657841  1
  Pd  Pd187  1  -0.01043200  0.59676248  0.59442106  1
  Pd  Pd188  1  0.59748729  0.39763662  0.00180513  1
  Pd  Pd189  1  -0.00262709  0.19665888  0.00259902  1
  Pd  Pd190  1  0.80726533  0.19496633  0.80338353  1
  Pd  Pd191  1  0.61540098  0.40544990  0.79867738  1
  Pd  Pd192  1  0.80642358  0.59528756  0.38857701  1
  Pd  Pd193  1  0.39327998  0.18859258  0.39820759  1
  Pd  Pd194  1  -0.00757632  0.01385583  0.79963231  1
  Pd  Pd195  1  0.60168596  0.80949037  0.80174199  1
  Pd  Pd196  1  0.79401279  0.59366403  0.20476231  1
  Pd  Pd197  1  0.79560576  0.79970400  0.60530469  1
  Pd  Pd198  1  0.79385709  0.59685420  0.79593016  1
  Pd  Pd199  1  -0.00163676  0.60237379  0.19862964  1
  Rh  Rh200  1  0.80477594  0.20317975  -0.00217567  1
  Rh  Rh201  1  0.80217239  0.80358168  0.79364899  1
  Rh  Rh202  1  -0.00239119  -0.00140565  0.40542236  1
  Rh  Rh203  1  0.00058230  0.20384965  0.60206875  1
  Rh  Rh204  1  0.18964046  0.00153864  0.59947878  1
  Rh  Rh205  1  0.20197789  0.01149087  0.39708059  1
  Rh  Rh206  1  0.00240252  0.39790309  0.00201174  1
  Rh  Rh207  1  0.81034502  0.00233175  0.40080825  1
  Rh  Rh208  1  0.59294191  0.19570849  0.78973188  1
  Rh  Rh209  1  0.60005173  0.39116769  0.59536695  1
  Rh  Rh210  1  0.19724008  0.20129525  0.39615557  1
  Rh  Rh211  1  0.39298205  0.59569690  0.40060962  1
  Rh  Rh212  1  0.00045093  0.39585075  0.79355210  1
  Rh  Rh213  1  0.79394502  0.00785190  0.60650242  1
  Rh  Rh214  1  0.19327753  0.60123911  0.80135873  1
  Rh  Rh215  1  0.59683253  0.60737872  0.59463608  1
  Rh  Rh216  1  0.80807810  0.80883600  0.21011243  1
  Rh  Rh217  1  0.79787865  0.19597659  0.20229494  1
  Rh  Rh218  1  0.40979621  0.20607133  0.19795579  1
  Rh  Rh219  1  0.41200103  -0.01148552  0.58023116  1
  Rh  Rh220  1  0.39680511  0.80645363  0.20644984  1
  Rh  Rh221  1  0.39151225  0.39726875  0.40815785  1
  Rh  Rh222  1  0.79880904  0.39946979  0.39825225  1
  Rh  Rh223  1  0.60910941  -0.00060000  0.79764476  1
  Rh  Rh224  1  0.80271717  0.60158485  0.60527742  1
  Rh  Rh225  1  0.59412925  0.00184098  0.40342927  1
  Rh  Rh226  1  0.39746924  0.00676490  0.80662459  1
  Rh  Rh227  1  0.39966120  0.00711453  0.00034818  1
  Rh  Rh228  1  -0.00150476  0.80388358  0.39831838  1
  Rh  Rh229  1  0.19574749  0.39391769  0.59215988  1
  Rh  Rh230  1  0.19316327  0.39099577  0.20003224  1
  Rh  Rh231  1  0.79613706  0.00338368  -0.00180969  1
  Rh  Rh232  1  0.39051098  0.39341135  0.79573048  1
  Rh  Rh233  1  0.40198676  0.80769422  0.39492491  1
  Rh  Rh234  1  0.20873609  0.60816688  0.20491272  1
  Rh  Rh235  1  -0.00372895  0.19975003  0.80162849  1
  Rh  Rh236  1  0.00590720  0.00591461  0.59458104  1
  Rh  Rh237  1  0.00156529  0.20411130  0.19751161  1
  Rh  Rh238  1  0.79981888  0.39449172  -0.00512270  1
  Rh  Rh239  1  0.20030387  0.19522636  0.00135518  1
  Rh  Rh240  1  0.18956485  0.39632185  0.79644452  1
  Rh  Rh241  1  0.60282022  0.20273250  0.40050526  1
  Rh  Rh242  1  0.00024821  0.60336006  0.00445480  1
  Rh  Rh243  1  0.19408596  0.79390917  0.40264293  1
  Rh  Rh244  1  0.19183105  0.80573832  -0.01165009  1
  Rh  Rh245  1  0.19901555  -0.00032910  0.80401616  1
  Rh  Rh246  1  -0.00174115  0.19851687  0.40317083  1
  Rh  Rh247  1  0.79218877  0.19590118  0.59844638  1
  Rh  Rh248  1  0.61070229  0.59300194  0.80288561  1
  Rh  Rh249  1  0.80411891  0.00655870  0.20986817  1
