# generated using pymatgen
data_ZrScNbPdRh
_symmetry_space_group_name_H-M   'P 1'
_cell_length_a   16.56108470
_cell_length_b   16.56000691
_cell_length_c   16.55853554
_cell_angle_alpha   90.00050798
_cell_angle_beta   90.01465105
_cell_angle_gamma   89.95876679
_symmetry_Int_Tables_number   1
_chemical_formula_structural   ZrScNbPdRh
_chemical_formula_sum   'Zr50 Sc50 Nb50 Pd50 Rh50'
_cell_volume   4541.20481835
_cell_formula_units_Z   50
loop_
 _symmetry_equiv_pos_site_id
 _symmetry_equiv_pos_as_xyz
  1  'x, y, z'
loop_
 _atom_site_type_symbol
 _atom_site_label
 _atom_site_symmetry_multiplicity
 _atom_site_fract_x
 _atom_site_fract_y
 _atom_site_fract_z
 _atom_site_occupancy
  Zr  Zr0  1  0.70160077  0.89643031  0.49371245  1
  Zr  Zr1  1  0.30092932  0.49460956  0.48843497  1
  Zr  Zr2  1  0.69952892  0.10082964  0.50032938  1
  Zr  Zr3  1  0.10042837  0.70817176  0.69910250  1
  Zr  Zr4  1  0.51054712  0.50254423  0.90006228  1
  Zr  Zr5  1  0.50006218  0.89618797  0.48950911  1
  Zr  Zr6  1  0.09402730  0.90040397  0.50009291  1
  Zr  Zr7  1  0.10572321  0.89325246  0.09779934  1
  Zr  Zr8  1  0.70059141  0.10336462  0.30790696  1
  Zr  Zr9  1  0.30763868  0.09979847  0.10212138  1
  Zr  Zr10  1  0.30110493  0.09191307  0.70282805  1
  Zr  Zr11  1  0.29971497  0.70261036  0.09824705  1
  Zr  Zr12  1  0.89216713  0.10397315  0.70127934  1
  Zr  Zr13  1  0.09716814  0.89866732  0.30531094  1
  Zr  Zr14  1  0.09763185  0.30827223  0.09993690  1
  Zr  Zr15  1  0.90557355  0.29594294  0.10666110  1
  Zr  Zr16  1  0.89228604  0.10559658  0.09680518  1
  Zr  Zr17  1  0.30138305  0.88844649  0.09707438  1
  Zr  Zr18  1  0.70496094  0.29242244  0.69768105  1
  Zr  Zr19  1  0.49989902  0.30378620  0.09878089  1
  Zr  Zr20  1  0.89711306  0.70021878  0.09925968  1
  Zr  Zr21  1  0.30762222  0.30634346  0.09884892  1
  Zr  Zr22  1  0.50696218  0.30365853  0.69751256  1
  Zr  Zr23  1  0.49355533  0.50226825  0.10179962  1
  Zr  Zr24  1  0.09897984  0.68853062  0.89794002  1
  Zr  Zr25  1  0.90469266  0.50008163  0.49820881  1
  Zr  Zr26  1  0.09386768  0.30101471  0.29444325  1
  Zr  Zr27  1  0.69240064  0.89720662  0.90658663  1
  Zr  Zr28  1  0.69493538  0.88870465  0.69525505  1
  Zr  Zr29  1  0.49816061  0.49926036  0.51042784  1
  Zr  Zr30  1  0.09608850  0.09834529  0.90333292  1
  Zr  Zr31  1  0.30250041  0.70267198  0.50161402  1
  Zr  Zr32  1  0.69844491  0.70854187  0.29459654  1
  Zr  Zr33  1  0.89372516  0.29390002  0.90470817  1
  Zr  Zr34  1  0.70404898  0.51188796  0.50274973  1
  Zr  Zr35  1  0.50316378  0.09595118  0.70147936  1
  Zr  Zr36  1  0.50833222  0.69920419  0.29942590  1
  Zr  Zr37  1  0.50001468  0.50852115  0.29799808  1
  Zr  Zr38  1  0.29795082  0.70101926  0.70004415  1
  Zr  Zr39  1  0.90068634  0.30157593  0.69711575  1
  Zr  Zr40  1  0.29118249  0.50126089  0.90062025  1
  Zr  Zr41  1  0.30660770  0.90629471  0.30324107  1
  Zr  Zr42  1  0.28927739  0.29434056  0.69809625  1
  Zr  Zr43  1  0.10033429  0.09785598  0.31037280  1
  Zr  Zr44  1  0.89806815  0.89984932  0.50180685  1
  Zr  Zr45  1  0.70512375  0.09498275  0.09737544  1
  Zr  Zr46  1  0.89346756  0.90187030  0.30404981  1
  Zr  Zr47  1  0.29674146  0.29616280  0.49949817  1
  Zr  Zr48  1  0.10100262  0.69586726  0.10436043  1
  Zr  Zr49  1  0.70100521  0.29120039  0.49398070  1
  Sc  Sc50  1  0.89883010  0.50719571  0.89623387  1
  Sc  Sc51  1  0.50819949  0.70117823  0.90097472  1
  Sc  Sc52  1  0.09580089  0.70100160  0.29824175  1
  Sc  Sc53  1  0.49630813  0.09577919  0.10864487  1
  Sc  Sc54  1  0.30043955  0.30382072  0.30822066  1
  Sc  Sc55  1  0.49860479  0.29997013  0.50143485  1
  Sc  Sc56  1  0.89827127  0.09986987  0.29722676  1
  Sc  Sc57  1  0.69629312  0.49940220  0.08761336  1
  Sc  Sc58  1  0.50075299  0.89812740  0.70215921  1
  Sc  Sc59  1  0.49490597  0.70165850  0.09915296  1
  Sc  Sc60  1  0.69897203  0.09559589  0.89844952  1
  Sc  Sc61  1  0.69801713  0.10740453  0.69879938  1
  Sc  Sc62  1  0.70297540  0.50994582  0.89681968  1
  Sc  Sc63  1  0.71392589  0.29880460  0.09530401  1
  Sc  Sc64  1  0.29451033  0.69829871  0.90771094  1
  Sc  Sc65  1  0.10016995  0.10145125  0.49686705  1
  Sc  Sc66  1  0.89598692  0.69780655  0.69685362  1
  Sc  Sc67  1  0.10301089  0.10412477  0.69848124  1
  Sc  Sc68  1  0.91140896  0.89410927  0.69235732  1
  Sc  Sc69  1  0.69724704  0.51641156  0.30586003  1
  Sc  Sc70  1  0.30970819  0.50984947  0.69822841  1
  Sc  Sc71  1  0.91235506  0.49612342  0.09891100  1
  Sc  Sc72  1  0.09309207  0.29324606  0.49807485  1
  Sc  Sc73  1  0.69704804  0.50544693  0.70100988  1
  Sc  Sc74  1  0.89946248  0.09870810  0.49713743  1
  Sc  Sc75  1  0.10064846  0.71088220  0.48897687  1
  Sc  Sc76  1  0.89643478  0.50087203  0.70047914  1
  Sc  Sc77  1  0.91226492  0.50581385  0.30678517  1
  Sc  Sc78  1  0.90643697  0.70374615  0.29546716  1
  Sc  Sc79  1  0.69646601  0.89829074  0.10013506  1
  Sc  Sc80  1  0.70122403  0.30634862  0.89898597  1
  Sc  Sc81  1  0.29631907  0.09392597  0.48881354  1
  Sc  Sc82  1  0.49726110  0.29519815  0.30991074  1
  Sc  Sc83  1  0.90668056  0.90334131  0.89989687  1
  Sc  Sc84  1  0.88882869  0.90218664  0.10339126  1
  Sc  Sc85  1  0.50761862  0.08933324  0.89873956  1
  Sc  Sc86  1  0.50301866  0.30500945  0.90629096  1
  Sc  Sc87  1  0.49470368  0.08972087  0.30405545  1
  Sc  Sc88  1  0.30191947  0.89320665  0.49671113  1
  Sc  Sc89  1  0.09728572  0.30067892  0.69312630  1
  Sc  Sc90  1  0.09261355  0.49806053  0.71433938  1
  Sc  Sc91  1  0.69477219  0.69559701  0.69556610  1
  Sc  Sc92  1  0.89791317  0.70083586  0.49924275  1
  Sc  Sc93  1  0.08885036  0.10418305  0.09601238  1
  Sc  Sc94  1  0.10952852  0.31382674  0.89395156  1
  Sc  Sc95  1  0.29407213  0.70635788  0.29716545  1
  Sc  Sc96  1  0.90004336  0.09682439  0.90835279  1
  Sc  Sc97  1  0.69702833  0.70301795  0.50433274  1
  Sc  Sc98  1  0.10256320  0.89987891  0.89436066  1
  Sc  Sc99  1  0.51093111  0.89510640  0.90003382  1
  Nb  Nb100  1  0.29963673  0.49949962  0.29741850  1
  Nb  Nb101  1  0.30111600  0.50073905  0.11542523  1
  Nb  Nb102  1  0.68792607  0.89937342  0.30660493  1
  Nb  Nb103  1  0.89038480  0.69843486  0.90595463  1
  Nb  Nb104  1  0.50018465  0.50865942  0.70329793  1
  Nb  Nb105  1  0.29928853  0.90081664  0.90218358  1
  Nb  Nb106  1  0.10447993  0.89288608  0.69449401  1
  Nb  Nb107  1  0.29518928  0.09751665  0.29750472  1
  Nb  Nb108  1  0.30479545  0.29992376  0.89839410  1
  Nb  Nb109  1  0.49704324  0.90141868  0.09796894  1
  Nb  Nb110  1  0.70617301  0.70329698  0.90379782  1
  Nb  Nb111  1  0.51089883  0.89911673  0.29428307  1
  Nb  Nb112  1  0.09841458  0.50414467  0.49157723  1
  Nb  Nb113  1  0.49702766  0.69318996  0.69902946  1
  Nb  Nb114  1  0.29541503  0.89692815  0.70477431  1
  Nb  Nb115  1  0.49804318  0.69798422  0.50678579  1
  Nb  Nb116  1  0.71361022  0.70668180  0.08709375  1
  Nb  Nb117  1  0.50100003  0.09794545  0.50164501  1
  Nb  Nb118  1  0.70299495  0.29845142  0.30398059  1
  Nb  Nb119  1  0.89341391  0.29936850  0.30636478  1
  Nb  Nb120  1  0.10075984  0.50397175  0.90667756  1
  Nb  Nb121  1  0.90057573  0.30428306  0.49577689  1
  Nb  Nb122  1  0.10630547  0.50122564  0.29365614  1
  Nb  Nb123  1  0.10364258  0.49396688  0.11164975  1
  Nb  Nb124  1  0.29826674  0.09730007  0.89894700  1
  Nb  Nb125  1  0.59824296  -0.00124311  0.59334793  1
  Nb  Nb126  1  0.60774355  0.39634291  0.20610204  1
  Nb  Nb127  1  0.80170998  0.39584619  0.59263634  1
  Nb  Nb128  1  0.20159854  0.00404941  0.20012859  1
  Nb  Nb129  1  0.19326755  0.41256914  0.59367567  1
  Nb  Nb130  1  0.60506565  0.20472650  0.20169159  1
  Nb  Nb131  1  0.79796176  -0.00923833  0.79603328  1
  Nb  Nb132  1  0.19338356  0.59675767  0.59531569  1
  Nb  Nb133  1  0.79870695  0.40373297  0.20960610  1
  Nb  Nb134  1  0.39870110  0.60055228  0.39974415  1
  Nb  Nb135  1  0.20330958  0.19789676  0.19767135  1
  Nb  Nb136  1  0.00936433  0.59693295  0.59464288  1
  Nb  Nb137  1  0.79997700  0.60019318  0.19364417  1
  Nb  Nb138  1  0.39646907  0.20198181  0.80281322  1
  Nb  Nb139  1  0.20922722  0.20316495  -0.00177577  1
  Nb  Nb140  1  0.39474269  0.80130418  0.80140872  1
  Nb  Nb141  1  -0.00210046  0.20238652  0.80213271  1
  Nb  Nb142  1  0.59966639  0.19885876  0.00904162  1
  Nb  Nb143  1  0.40123134  0.39889812  0.79914017  1
  Nb  Nb144  1  -0.00169780  0.79175222  -0.00144702  1
  Nb  Nb145  1  0.39628717  -0.00724569  -0.00271022  1
  Nb  Nb146  1  0.79795298  0.79891783  0.80529178  1
  Nb  Nb147  1  0.60496328  0.40295086  0.39843852  1
  Nb  Nb148  1  0.20068160  -0.00990707  0.60472954  1
  Nb  Nb149  1  0.39898211  0.19370941  0.60404723  1
  Pd  Pd150  1  0.20387699  0.00581158  0.00666897  1
  Pd  Pd151  1  0.40062212  0.19170917  0.40381531  1
  Pd  Pd152  1  0.60198167  0.60898382  0.00471671  1
  Pd  Pd153  1  0.20177901  0.60657421  0.39806889  1
  Pd  Pd154  1  0.00048813  0.59817685  0.00485997  1
  Pd  Pd155  1  0.79696221  0.40460958  0.79380522  1
  Pd  Pd156  1  0.40433261  0.80501914  0.60885034  1
  Pd  Pd157  1  0.39153704  0.39447986  0.60923990  1
  Pd  Pd158  1  0.39868552  0.41272319  -0.00792527  1
  Pd  Pd159  1  -0.00455464  0.80607317  0.19447924  1
  Pd  Pd160  1  0.39758057  -0.00342429  0.59253345  1
  Pd  Pd161  1  0.60208272  0.40292789  0.79838837  1
  Pd  Pd162  1  0.20675732  0.40892119  0.78927609  1
  Pd  Pd163  1  0.00104569  0.19359441  0.20548735  1
  Pd  Pd164  1  0.40196646  0.60415924  0.81177056  1
  Pd  Pd165  1  -0.00524468  0.39624451  0.80727728  1
  Pd  Pd166  1  0.19961149  0.59089954  0.01219272  1
  Pd  Pd167  1  0.40368851  -0.00680726  0.80918614  1
  Pd  Pd168  1  -0.00181058  0.00457090  0.79029996  1
  Pd  Pd169  1  0.80125894  0.79400705  0.39814099  1
  Pd  Pd170  1  0.80641501  0.61124074  0.39234367  1
  Pd  Pd171  1  0.20288731  0.60332572  0.20299754  1
  Pd  Pd172  1  0.79243942  -0.00265233  0.60648723  1
  Pd  Pd173  1  0.40693926  0.18896232  -0.01030461  1
  Pd  Pd174  1  0.00643581  0.39857840  0.39600482  1
  Pd  Pd175  1  0.40151270  0.20422760  0.21121758  1
  Pd  Pd176  1  0.20410951  0.40224900  0.00572126  1
  Pd  Pd177  1  0.20386583  0.79790972  0.80964378  1
  Pd  Pd178  1  0.40554252  0.79393848  0.39090112  1
  Pd  Pd179  1  0.79403541  0.40834195  0.39839980  1
  Pd  Pd180  1  0.59588316  0.20233106  0.81264611  1
  Pd  Pd181  1  0.00689502  0.00716145  0.60381235  1
  Pd  Pd182  1  0.19178679  -0.00224529  0.79599869  1
  Pd  Pd183  1  0.19505629  0.19853049  0.80762513  1
  Pd  Pd184  1  -0.00131364  0.40077154  -0.00939245  1
  Pd  Pd185  1  0.80662313  0.40685989  0.00482773  1
  Pd  Pd186  1  0.00318032  0.00063957  0.19563542  1
  Pd  Pd187  1  0.40618257  0.39525929  0.21147678  1
  Pd  Pd188  1  -0.00650063  0.60370621  0.79486079  1
  Pd  Pd189  1  0.40450208  0.79861293  0.20644748  1
  Pd  Pd190  1  0.60176140  0.79817546  0.18673827  1
  Pd  Pd191  1  0.61192154  0.40201681  0.59495346  1
  Pd  Pd192  1  -0.00397737  -0.01126903  0.00968371  1
  Pd  Pd193  1  0.18947403  0.39331221  0.40049139  1
  Pd  Pd194  1  0.60325907  0.00523509  0.20034445  1
  Pd  Pd195  1  -0.00310851  0.19550583  0.60143987  1
  Pd  Pd196  1  0.39818752  0.59764529  -0.00359643  1
  Pd  Pd197  1  0.78998026  -0.00537863  0.20768156  1
  Pd  Pd198  1  0.61175039  0.60073261  0.18492881  1
  Pd  Pd199  1  -0.00828809  0.79470058  0.80673775  1
  Rh  Rh200  1  0.59320283  0.20083844  0.39656106  1
  Rh  Rh201  1  0.20550543  0.39551129  0.20366850  1
  Rh  Rh202  1  0.40378489  -0.00129877  0.39875397  1
  Rh  Rh203  1  0.59060896  0.19374900  0.59612332  1
  Rh  Rh204  1  -0.00874480  0.40509330  0.20929570  1
  Rh  Rh205  1  0.80756044  0.81132770  -0.00753676  1
  Rh  Rh206  1  0.79881220  -0.00052224  0.39754187  1
  Rh  Rh207  1  0.59755006  0.79242733  0.40412754  1
  Rh  Rh208  1  0.80840469  0.20626591  0.58984956  1
  Rh  Rh209  1  -0.00709916  0.19992361  0.39797806  1
  Rh  Rh210  1  0.19887267  0.80742777  0.20766452  1
  Rh  Rh211  1  0.00035561  0.40811546  0.59553621  1
  Rh  Rh212  1  0.41268874  0.40982521  0.39501583  1
  Rh  Rh213  1  0.01491457  0.21505432  -0.01282356  1
  Rh  Rh214  1  0.80412365  0.18979946  0.80984760  1
  Rh  Rh215  1  0.20039986  0.80181170  0.59448029  1
  Rh  Rh216  1  0.80871349  0.19401712  0.40206896  1
  Rh  Rh217  1  0.59095241  0.00560401  0.01088263  1
  Rh  Rh218  1  0.59666892  0.60289792  0.60220679  1
  Rh  Rh219  1  0.60392325  0.60553495  0.79977970  1
  Rh  Rh220  1  0.80912633  0.59544470  0.60075083  1
  Rh  Rh221  1  0.20496583  0.19116855  0.58929646  1
  Rh  Rh222  1  0.79795446  0.20739907  0.20418399  1
  Rh  Rh223  1  0.79407801  0.80171230  0.20351419  1
  Rh  Rh224  1  -0.00103417  0.79010745  0.59518146  1
  Rh  Rh225  1  0.59014531  0.80062222  0.59788754  1
  Rh  Rh226  1  0.40692811  0.80640484  -0.01068672  1
  Rh  Rh227  1  0.00609972  0.60637482  0.40017813  1
  Rh  Rh228  1  0.59710157  0.00239795  0.40375252  1
  Rh  Rh229  1  -0.00780072  0.80172854  0.40004731  1
  Rh  Rh230  1  0.61131548  -0.00255563  0.78667340  1
  Rh  Rh231  1  0.80298812  0.79742879  0.60484681  1
  Rh  Rh232  1  0.19911610  -0.00705784  0.40246577  1
  Rh  Rh233  1  0.39715403  -0.01036254  0.19670980  1
  Rh  Rh234  1  0.19749877  0.59613183  0.79314075  1
  Rh  Rh235  1  0.39520199  0.60086778  0.59330669  1
  Rh  Rh236  1  0.39052180  0.60726208  0.20631495  1
  Rh  Rh237  1  -0.00019558  0.59326950  0.20087271  1
  Rh  Rh238  1  0.18852384  0.79485111  -0.00867786  1
  Rh  Rh239  1  0.19999319  0.80388582  0.39592596  1
  Rh  Rh240  1  0.59713299  0.79403489  0.00737931  1
  Rh  Rh241  1  0.58972437  0.60037507  0.41349850  1
  Rh  Rh242  1  0.79667280  0.60915248  0.79848595  1
  Rh  Rh243  1  0.59827231  0.78885155  0.79705324  1
  Rh  Rh244  1  0.19769829  0.20492521  0.39358593  1
  Rh  Rh245  1  0.60334152  0.39283380  0.00664509  1
  Rh  Rh246  1  0.78936266  0.19685167  -0.00610613  1
  Rh  Rh247  1  0.80204920  0.59155984  0.00502199  1
  Rh  Rh248  1  0.79978746  -0.00508147  -0.00872535  1
  Rh  Rh249  1  -0.00777853  0.00193038  0.40161861  1
