# generated using pymatgen
data_ZrScNbPdRh
_symmetry_space_group_name_H-M   'P 1'
_cell_length_a   16.56064487
_cell_length_b   16.56268274
_cell_length_c   16.56617425
_cell_angle_alpha   90.01162071
_cell_angle_beta   89.99035386
_cell_angle_gamma   90.00931600
_symmetry_Int_Tables_number   1
_chemical_formula_structural   ZrScNbPdRh
_chemical_formula_sum   'Zr50 Sc50 Nb50 Pd50 Rh50'
_cell_volume   4543.91429838
_cell_formula_units_Z   50
loop_
 _symmetry_equiv_pos_site_id
 _symmetry_equiv_pos_as_xyz
  1  'x, y, z'
loop_
 _atom_site_type_symbol
 _atom_site_label
 _atom_site_symmetry_multiplicity
 _atom_site_fract_x
 _atom_site_fract_y
 _atom_site_fract_z
 _atom_site_occupancy
  Zr  Zr0  1  0.49509974  0.29944374  0.29825794  1
  Zr  Zr1  1  0.90556902  0.09970199  0.51043663  1
  Zr  Zr2  1  0.10040072  0.50221172  0.48994217  1
  Zr  Zr3  1  0.09889957  0.50749002  0.10223242  1
  Zr  Zr4  1  0.70363782  0.90143537  0.30698860  1
  Zr  Zr5  1  0.09785043  0.71422511  0.89335338  1
  Zr  Zr6  1  0.10094424  0.28579852  0.10232404  1
  Zr  Zr7  1  0.09915504  0.50461156  0.90144000  1
  Zr  Zr8  1  0.10113669  0.90262239  0.90616870  1
  Zr  Zr9  1  0.49731619  0.10863130  0.08828085  1
  Zr  Zr10  1  0.69894485  0.50286540  0.71713929  1
  Zr  Zr11  1  0.50208016  0.89129629  0.69566639  1
  Zr  Zr12  1  0.50055296  0.50035856  0.49914978  1
  Zr  Zr13  1  0.08801417  0.69963023  0.50404571  1
  Zr  Zr14  1  0.30290487  0.50496382  0.90019466  1
  Zr  Zr15  1  0.90494818  0.28732087  0.69920067  1
  Zr  Zr16  1  0.10512765  0.09797977  0.49333669  1
  Zr  Zr17  1  0.30214530  0.70339012  0.69685815  1
  Zr  Zr18  1  0.70233944  0.09553288  0.90783190  1
  Zr  Zr19  1  0.70113821  0.50045358  0.09464470  1
  Zr  Zr20  1  0.70875834  0.89902245  0.08973729  1
  Zr  Zr21  1  0.90097054  0.30355825  0.49906051  1
  Zr  Zr22  1  0.49973644  0.49091280  0.09873056  1
  Zr  Zr23  1  0.90325116  0.89341212  0.49769888  1
  Zr  Zr24  1  0.30184644  0.70031899  0.90102808  1
  Zr  Zr25  1  0.49570136  0.89501052  0.09339618  1
  Zr  Zr26  1  0.29728518  0.10832350  0.10231705  1
  Zr  Zr27  1  0.50179678  0.91104341  0.49990767  1
  Zr  Zr28  1  0.10044661  0.49842454  0.68586238  1
  Zr  Zr29  1  0.90040202  0.50586856  0.70092592  1
  Zr  Zr30  1  0.90318295  0.89650903  0.29763134  1
  Zr  Zr31  1  0.10024046  0.29476300  0.89510680  1
  Zr  Zr32  1  0.28891765  0.51109552  0.30701021  1
  Zr  Zr33  1  0.89958256  0.71032417  0.10477840  1
  Zr  Zr34  1  0.69433091  0.30461211  0.09717064  1
  Zr  Zr35  1  0.29861744  0.10342679  0.30413261  1
  Zr  Zr36  1  0.30239898  0.70753883  0.29975768  1
  Zr  Zr37  1  0.30220555  0.09306244  0.50464622  1
  Zr  Zr38  1  0.29816580  0.90967154  0.69681692  1
  Zr  Zr39  1  0.30214954  0.50401350  0.09614110  1
  Zr  Zr40  1  0.70863101  0.70136116  0.29837615  1
  Zr  Zr41  1  0.09954491  0.10116927  0.29891708  1
  Zr  Zr42  1  0.49408222  0.10096442  0.90189033  1
  Zr  Zr43  1  0.70329134  0.29756954  0.90237997  1
  Zr  Zr44  1  0.70361018  0.70194525  0.69579108  1
  Zr  Zr45  1  0.49928439  0.29932717  0.49401264  1
  Zr  Zr46  1  0.70352807  0.69888299  0.10332619  1
  Zr  Zr47  1  0.09894259  0.89579807  0.71091246  1
  Zr  Zr48  1  0.09471831  0.90087980  0.10213117  1
  Zr  Zr49  1  0.49608523  0.50820303  0.89075342  1
  Sc  Sc50  1  0.49889970  0.69807239  0.70499142  1
  Sc  Sc51  1  0.50415053  0.49689987  0.30593563  1
  Sc  Sc52  1  0.90288702  0.90497444  0.90481409  1
  Sc  Sc53  1  0.89901094  0.29050179  0.89793994  1
  Sc  Sc54  1  0.29225838  0.89631692  0.09646775  1
  Sc  Sc55  1  0.89811007  0.51155054  0.08783370  1
  Sc  Sc56  1  0.10229321  0.09743345  0.90196229  1
  Sc  Sc57  1  0.50201198  0.70461506  0.09638667  1
  Sc  Sc58  1  0.70788202  0.09361807  0.29825234  1
  Sc  Sc59  1  0.29036277  0.89819326  0.89902673  1
  Sc  Sc60  1  0.90549847  0.50413890  0.49935072  1
  Sc  Sc61  1  0.69340611  0.69760665  0.90184052  1
  Sc  Sc62  1  0.09934010  0.30451739  0.50034725  1
  Sc  Sc63  1  0.90225347  0.91011162  0.69904765  1
  Sc  Sc64  1  0.09318197  0.70254926  0.09808429  1
  Sc  Sc65  1  0.90792587  0.69796450  0.90356560  1
  Sc  Sc66  1  0.30172572  0.29291573  0.30050340  1
  Sc  Sc67  1  0.50262277  0.70605240  0.29714179  1
  Sc  Sc68  1  0.69839988  0.08073949  0.50322817  1
  Sc  Sc69  1  0.89329004  0.50218968  0.90247964  1
  Sc  Sc70  1  0.30377438  0.89678144  0.29726880  1
  Sc  Sc71  1  0.30284967  0.70792186  0.09526135  1
  Sc  Sc72  1  0.49472170  0.70522146  0.89808977  1
  Sc  Sc73  1  0.29839028  0.50549665  0.50178383  1
  Sc  Sc74  1  0.30133870  0.09655697  0.89486966  1
  Sc  Sc75  1  0.70171528  0.50527948  0.30053300  1
  Sc  Sc76  1  0.10032627  0.09522532  0.10192983  1
  Sc  Sc77  1  0.90732686  0.28927906  0.30100490  1
  Sc  Sc78  1  0.70039626  0.49789869  0.90750635  1
  Sc  Sc79  1  0.70431261  0.30865212  0.30472997  1
  Sc  Sc80  1  0.49292185  0.29526599  0.90213116  1
  Sc  Sc81  1  0.89902800  0.50652042  0.30996451  1
  Sc  Sc82  1  0.49600425  0.70352944  0.50629091  1
  Sc  Sc83  1  0.49427062  0.89712866  0.30323329  1
  Sc  Sc84  1  0.47838572  0.09206110  0.69730272  1
  Sc  Sc85  1  0.89967362  0.70053087  0.50183023  1
  Sc  Sc86  1  0.49717663  0.09146782  0.30998019  1
  Sc  Sc87  1  0.70054501  0.30706950  0.49606463  1
  Sc  Sc88  1  0.30319810  0.50165964  0.69863306  1
  Sc  Sc89  1  0.71829465  0.09428589  0.69937037  1
  Sc  Sc90  1  0.30335488  0.69506094  0.49590038  1
  Sc  Sc91  1  0.29258019  0.29051183  0.70051668  1
  Sc  Sc92  1  0.70981141  0.70277625  0.50351662  1
  Sc  Sc93  1  0.29825294  0.28759657  0.49734026  1
  Sc  Sc94  1  0.70754828  0.29511329  0.70962454  1
  Sc  Sc95  1  0.90619501  0.09448323  0.29923900  1
  Sc  Sc96  1  0.70566918  0.49931622  0.48501893  1
  Sc  Sc97  1  0.89790798  0.09589873  0.89215590  1
  Sc  Sc98  1  0.70160111  0.89855533  0.68804918  1
  Sc  Sc99  1  0.30012628  0.29617986  0.89369166  1
  Nb  Nb100  1  0.49996818  0.10034378  0.49891479  1
  Nb  Nb101  1  0.10054752  0.29968312  0.30155373  1
  Nb  Nb102  1  0.50552944  0.90178997  0.89853413  1
  Nb  Nb103  1  0.49146291  0.29696372  0.10532652  1
  Nb  Nb104  1  0.09584355  0.89723824  0.49342703  1
  Nb  Nb105  1  0.90422287  0.10266872  0.69919570  1
  Nb  Nb106  1  0.90257396  0.29605547  0.10330158  1
  Nb  Nb107  1  0.90559467  0.70497019  0.69778979  1
  Nb  Nb108  1  0.70066571  0.89467793  0.50350098  1
  Nb  Nb109  1  0.10166068  0.50143692  0.29924563  1
  Nb  Nb110  1  0.28880012  0.09579952  0.69573965  1
  Nb  Nb111  1  0.90385946  0.90360751  0.10102019  1
  Nb  Nb112  1  0.70682218  0.90511755  0.89420055  1
  Nb  Nb113  1  0.09976826  0.30204787  0.70098843  1
  Nb  Nb114  1  0.09224280  0.90053738  0.30388769  1
  Nb  Nb115  1  0.29619347  0.89590879  0.49544696  1
  Nb  Nb116  1  0.30738168  0.30074638  0.10662897  1
  Nb  Nb117  1  0.50153390  0.29741354  0.70212044  1
  Nb  Nb118  1  0.09234375  0.70359452  0.70017160  1
  Nb  Nb119  1  0.09955056  0.10557229  0.69717083  1
  Nb  Nb120  1  0.50177444  0.49766486  0.70236391  1
  Nb  Nb121  1  0.89539650  0.10174824  0.10936775  1
  Nb  Nb122  1  0.89994800  0.70589639  0.30196475  1
  Nb  Nb123  1  0.09536529  0.69361246  0.30004329  1
  Nb  Nb124  1  0.69732171  0.10119822  0.10083482  1
  Nb  Nb125  1  0.79861999  0.19575558  0.40557452  1
  Nb  Nb126  1  0.00360877  0.39414480  0.00209638  1
  Nb  Nb127  1  0.79762342  0.40238068  0.60587264  1
  Nb  Nb128  1  0.00504326  0.39681734  0.79840878  1
  Nb  Nb129  1  0.00282286  0.40100699  0.19861465  1
  Nb  Nb130  1  0.19488786  0.80441154  0.59405711  1
  Nb  Nb131  1  0.81114126  0.39878014  0.19380896  1
  Nb  Nb132  1  0.60177161  0.59043792  0.60395399  1
  Nb  Nb133  1  0.80197273  0.80185695  0.79888508  1
  Nb  Nb134  1  0.59946681  -0.00233448  0.80266491  1
  Nb  Nb135  1  0.60516447  0.80622120  0.40682394  1
  Nb  Nb136  1  0.40852308  0.39510782  0.60348791  1
  Nb  Nb137  1  0.60314487  0.19388117  0.40215616  1
  Nb  Nb138  1  0.60139544  0.39945532  0.60800145  1
  Nb  Nb139  1  0.19441824  0.60646561  0.79428498  1
  Nb  Nb140  1  0.19017762  0.80153689  0.40122380  1
  Nb  Nb141  1  0.19544908  0.39912072  0.20059325  1
  Nb  Nb142  1  0.59653046  0.19045387  0.79527797  1
  Nb  Nb143  1  0.19916019  0.39560509  0.00694835  1
  Nb  Nb144  1  0.80018415  0.19539347  0.01312505  1
  Nb  Nb145  1  0.59820571  0.19700123  0.20049211  1
  Nb  Nb146  1  0.40330479  0.00307358  0.19333078  1
  Nb  Nb147  1  0.39956996  0.59841081  0.19869608  1
  Nb  Nb148  1  0.59816511  0.00267372  0.19226066  1
  Nb  Nb149  1  0.59532451  0.19954895  0.60160377  1
  Pd  Pd150  1  0.59407750  0.60190163  -0.00126554  1
  Pd  Pd151  1  0.40731975  0.60547227  0.39271072  1
  Pd  Pd152  1  0.79725507  -0.00524671  0.19670739  1
  Pd  Pd153  1  0.78760819  0.20448274  0.59207864  1
  Pd  Pd154  1  0.20543805  -0.00477263  0.20346153  1
  Pd  Pd155  1  0.39521362  0.80387709  0.59449320  1
  Pd  Pd156  1  0.79250883  0.20630837  0.20650242  1
  Pd  Pd157  1  0.60899911  0.80417814  0.80072692  1
  Pd  Pd158  1  0.38904390  0.40962234  0.21150114  1
  Pd  Pd159  1  0.60055531  -0.00492015  -0.00016214  1
  Pd  Pd160  1  0.19138857  0.79864449  0.20470675  1
  Pd  Pd161  1  -0.00907442  0.19248046  -0.00194422  1
  Pd  Pd162  1  0.39531048  0.80874045  0.80381200  1
  Pd  Pd163  1  0.20619867  0.39363811  0.39870509  1
  Pd  Pd164  1  0.81250362  0.39603515  0.80001350  1
  Pd  Pd165  1  0.38849583  -0.00605756  0.00163999  1
  Pd  Pd166  1  -0.00972132  0.59778650  0.20425480  1
  Pd  Pd167  1  -0.00612432  0.01000938  0.00445552  1
  Pd  Pd168  1  0.79567729  0.59156263  0.59471740  1
  Pd  Pd169  1  0.59144208  0.59757313  0.19941022  1
  Pd  Pd170  1  0.60106521  0.61412091  0.40796732  1
  Pd  Pd171  1  0.40089960  -0.00788618  0.80293386  1
  Pd  Pd172  1  0.00372537  0.00544278  0.80062463  1
  Pd  Pd173  1  0.19894845  0.40820133  0.80181845  1
  Pd  Pd174  1  0.38806071  0.40247491  0.40384188  1
  Pd  Pd175  1  0.00817083  -0.00367746  0.60099686  1
  Pd  Pd176  1  0.80152429  0.61149671  0.80992182  1
  Pd  Pd177  1  0.80814649  0.59197311  0.20086065  1
  Pd  Pd178  1  0.18867859  -0.00572613  0.59931454  1
  Pd  Pd179  1  -0.00246195  0.40072443  0.39172972  1
  Pd  Pd180  1  0.19614315  0.60807811  -0.00456413  1
  Pd  Pd181  1  0.20371870  -0.00753780  0.39247883  1
  Pd  Pd182  1  0.60707784  0.39854023  0.20657363  1
  Pd  Pd183  1  0.39627522  0.39435486  -0.00559247  1
  Pd  Pd184  1  0.60230690  0.80900954  0.20565440  1
  Pd  Pd185  1  0.80487125  0.79666473  -0.01065983  1
  Pd  Pd186  1  0.59812965  0.01012876  0.61409640  1
  Pd  Pd187  1  0.20556359  0.60763593  0.19630096  1
  Pd  Pd188  1  0.19906290  0.60917589  0.60035033  1
  Pd  Pd189  1  0.39436041  0.39456525  0.79372227  1
  Pd  Pd190  1  0.39925557  0.20208640  0.60373409  1
  Pd  Pd191  1  0.20754945  0.20178542  -0.00360096  1
  Pd  Pd192  1  0.00351548  0.59613488  0.79934510  1
  Pd  Pd193  1  0.01145019  0.20267694  0.59459280  1
  Pd  Pd194  1  0.19944293  0.19145046  0.79869091  1
  Pd  Pd195  1  0.60354651  0.80033167  -0.00534461  1
  Pd  Pd196  1  0.21187194  0.39366277  0.59470959  1
  Pd  Pd197  1  0.80911930  0.00313603  0.40675079  1
  Pd  Pd198  1  0.58804509  0.39601585  -0.00950535  1
  Pd  Pd199  1  0.59808107  0.39037037  0.80600048  1
  Rh  Rh200  1  0.59726006  0.60492477  0.79921680  1
  Rh  Rh201  1  0.38984684  0.20666028  -0.00277571  1
  Rh  Rh202  1  0.60281679  0.20871345  0.00009302  1
  Rh  Rh203  1  0.79634231  0.60982778  -0.00214043  1
  Rh  Rh204  1  0.00007220  0.80678068  0.60534158  1
  Rh  Rh205  1  0.19257009  0.61183835  0.40388897  1
  Rh  Rh206  1  0.79583728  0.19167010  0.80730171  1
  Rh  Rh207  1  0.40789983  0.59077597  0.60350287  1
  Rh  Rh208  1  0.81218038  0.38982982  0.00506597  1
  Rh  Rh209  1  -0.00339884  0.00258658  0.40126073  1
  Rh  Rh210  1  0.60054691  0.78910501  0.59221072  1
  Rh  Rh211  1  0.40100748  0.80028007  0.19497314  1
  Rh  Rh212  1  0.00405620  0.19662602  0.20388627  1
  Rh  Rh213  1  0.80961357  0.00612400  0.00634198  1
  Rh  Rh214  1  0.39297112  -0.00124381  0.39854223  1
  Rh  Rh215  1  0.39848297  0.19603371  0.79290193  1
  Rh  Rh216  1  -0.00295342  0.80446176  0.00245408  1
  Rh  Rh217  1  0.40399350  0.19312098  0.39992785  1
  Rh  Rh218  1  0.39876583  0.80391255  -0.00801941  1
  Rh  Rh219  1  0.00181845  0.79287154  0.39227817  1
  Rh  Rh220  1  0.00536286  0.19559574  0.79787111  1
  Rh  Rh221  1  -0.00844572  0.39882715  0.60707957  1
  Rh  Rh222  1  -0.00010550  0.60351573  -0.00135414  1
  Rh  Rh223  1  0.60235026  -0.00252428  0.39542000  1
  Rh  Rh224  1  0.19460139  0.19973540  0.59920508  1
  Rh  Rh225  1  0.80826085  -0.00541265  0.59663668  1
  Rh  Rh226  1  0.79941289  -0.00530332  0.79463199  1
  Rh  Rh227  1  0.19443335  0.00613522  0.79929029  1
  Rh  Rh228  1  0.79852192  0.79783202  0.40169754  1
  Rh  Rh229  1  0.39465530  0.60313768  0.79367469  1
  Rh  Rh230  1  0.40354036  0.80187218  0.40510567  1
  Rh  Rh231  1  0.80943384  0.39505894  0.39618813  1
  Rh  Rh232  1  -0.00321198  0.59865772  0.59878644  1
  Rh  Rh233  1  0.60204642  0.39598585  0.39778235  1
  Rh  Rh234  1  0.80087562  0.80676395  0.19929764  1
  Rh  Rh235  1  0.20654641  0.79485494  0.79124762  1
  Rh  Rh236  1  0.19942610  0.20384292  0.20568768  1
  Rh  Rh237  1  -0.01358821  0.80560806  0.79993020  1
  Rh  Rh238  1  0.19523735  0.20293595  0.40079909  1
  Rh  Rh239  1  0.20109342  0.00188109  0.00046103  1
  Rh  Rh240  1  -0.00178404  0.60460230  0.39724664  1
  Rh  Rh241  1  0.00004682  0.00004762  0.19847739  1
  Rh  Rh242  1  0.19394132  0.79975250  0.00251419  1
  Rh  Rh243  1  0.39750294  -0.00426185  0.59530387  1
  Rh  Rh244  1  0.00328263  0.80149237  0.20324162  1
  Rh  Rh245  1  0.80488665  0.60845731  0.39985745  1
  Rh  Rh246  1  0.40742171  0.19052422  0.20456588  1
  Rh  Rh247  1  0.41021401  0.60262767  0.00858915  1
  Rh  Rh248  1  -0.00156185  0.19697025  0.40251276  1
  Rh  Rh249  1  0.81044597  0.80439865  0.60687772  1
