# generated using pymatgen
data_ZrScNbPdRh
_symmetry_space_group_name_H-M   'P 1'
_cell_length_a   16.54969149
_cell_length_b   16.55410069
_cell_length_c   16.55146378
_cell_angle_alpha   89.99783844
_cell_angle_beta   89.96230741
_cell_angle_gamma   90.01910508
_symmetry_Int_Tables_number   1
_chemical_formula_structural   ZrScNbPdRh
_chemical_formula_sum   'Zr50 Sc50 Nb50 Pd50 Rh50'
_cell_volume   4534.52482840
_cell_formula_units_Z   50
loop_
 _symmetry_equiv_pos_site_id
 _symmetry_equiv_pos_as_xyz
  1  'x, y, z'
loop_
 _atom_site_type_symbol
 _atom_site_label
 _atom_site_symmetry_multiplicity
 _atom_site_fract_x
 _atom_site_fract_y
 _atom_site_fract_z
 _atom_site_occupancy
  Zr  Zr0  1  0.08824713  0.49447981  0.49859594  1
  Zr  Zr1  1  0.09747104  0.49269936  0.69689199  1
  Zr  Zr2  1  0.30333947  0.09924190  0.89908632  1
  Zr  Zr3  1  0.09776667  0.29689435  0.90221265  1
  Zr  Zr4  1  0.90303514  0.89787667  0.09385181  1
  Zr  Zr5  1  0.50531318  0.49699277  0.09944485  1
  Zr  Zr6  1  0.70892937  0.50154996  0.70419089  1
  Zr  Zr7  1  0.69575619  0.69710831  0.89906242  1
  Zr  Zr8  1  0.90145645  0.49829280  0.49960608  1
  Zr  Zr9  1  0.90131356  0.69865132  0.29914269  1
  Zr  Zr10  1  0.30092829  0.70704968  0.50466131  1
  Zr  Zr11  1  0.50809331  0.70073611  0.50547432  1
  Zr  Zr12  1  0.50370698  0.71150598  0.69504090  1
  Zr  Zr13  1  0.89532123  0.70302560  0.50183344  1
  Zr  Zr14  1  0.69685162  0.50929891  0.50439107  1
  Zr  Zr15  1  0.70723303  0.49282546  0.29652255  1
  Zr  Zr16  1  0.09439153  0.90427433  0.90152424  1
  Zr  Zr17  1  0.89805550  0.29659019  0.90419906  1
  Zr  Zr18  1  0.30232794  0.10330368  0.09692313  1
  Zr  Zr19  1  0.29763238  0.70381287  0.89682409  1
  Zr  Zr20  1  0.69848054  0.50044174  0.91034648  1
  Zr  Zr21  1  0.50019221  0.90932079  0.69650463  1
  Zr  Zr22  1  0.09556489  0.49904032  0.09844340  1
  Zr  Zr23  1  0.90051936  0.50272493  0.69690701  1
  Zr  Zr24  1  0.69693230  0.10504450  0.49019235  1
  Zr  Zr25  1  0.30691158  0.90194215  0.89856697  1
  Zr  Zr26  1  0.90372463  0.90378777  0.50040212  1
  Zr  Zr27  1  0.10067040  0.10128361  0.50247916  1
  Zr  Zr28  1  0.09458785  0.29937894  0.30205564  1
  Zr  Zr29  1  0.10978311  0.90302301  0.50042176  1
  Zr  Zr30  1  0.09369885  0.69721369  0.89703190  1
  Zr  Zr31  1  0.69839043  0.69837898  0.69179242  1
  Zr  Zr32  1  0.69769506  0.69922281  0.30296491  1
  Zr  Zr33  1  0.90174751  0.70118692  0.09528078  1
  Zr  Zr34  1  0.89917077  0.90429438  0.89476132  1
  Zr  Zr35  1  0.70706429  0.30054476  0.49960311  1
  Zr  Zr36  1  0.09509298  0.29773376  0.09730286  1
  Zr  Zr37  1  0.90336967  0.08997781  0.70280679  1
  Zr  Zr38  1  0.29386333  0.29466467  0.49962752  1
  Zr  Zr39  1  0.89281589  0.50192408  0.89743334  1
  Zr  Zr40  1  0.50987635  0.10908675  0.29822377  1
  Zr  Zr41  1  0.88799474  0.30462812  0.69858982  1
  Zr  Zr42  1  0.50485864  0.90838604  0.29444339  1
  Zr  Zr43  1  0.29514193  0.49798864  0.70515819  1
  Zr  Zr44  1  0.30673407  0.50430738  0.10511691  1
  Zr  Zr45  1  0.30263191  0.50385866  0.89521876  1
  Zr  Zr46  1  0.70585911  0.29923412  0.90378409  1
  Zr  Zr47  1  0.89799818  0.89722865  0.69939379  1
  Zr  Zr48  1  0.50591208  0.90426353  0.09442569  1
  Zr  Zr49  1  0.50122414  0.90786268  0.89975309  1
  Sc  Sc50  1  0.29844025  0.30608565  0.69875678  1
  Sc  Sc51  1  0.49517049  0.29734008  0.50157307  1
  Sc  Sc52  1  0.71172075  0.89586541  0.50524205  1
  Sc  Sc53  1  0.49869082  0.70991047  0.90131855  1
  Sc  Sc54  1  0.70108151  0.30491930  0.09954870  1
  Sc  Sc55  1  0.89312708  0.29897653  0.29891511  1
  Sc  Sc56  1  0.50283423  0.10246705  0.09220386  1
  Sc  Sc57  1  0.30610304  0.49327620  0.50603248  1
  Sc  Sc58  1  0.90001810  0.70513164  0.89625789  1
  Sc  Sc59  1  0.70644356  0.10141215  0.29277987  1
  Sc  Sc60  1  0.30467806  0.30053786  0.08904623  1
  Sc  Sc61  1  0.29400334  0.09418588  0.50243135  1
  Sc  Sc62  1  0.29904482  0.09342848  0.29641211  1
  Sc  Sc63  1  0.10526829  0.09761898  0.69964280  1
  Sc  Sc64  1  0.29773759  0.89683496  0.69530752  1
  Sc  Sc65  1  0.09834664  0.70265907  0.70837904  1
  Sc  Sc66  1  0.89818468  0.09952999  0.10048328  1
  Sc  Sc67  1  0.49948282  0.68949822  0.30411084  1
  Sc  Sc68  1  0.29823946  0.29961651  0.89720870  1
  Sc  Sc69  1  0.30938199  0.30168058  0.30003460  1
  Sc  Sc70  1  0.90409470  0.49199956  0.30535699  1
  Sc  Sc71  1  0.50164010  0.30022898  0.91198173  1
  Sc  Sc72  1  0.90047902  0.30093450  0.50031972  1
  Sc  Sc73  1  0.69286820  0.90203251  0.10048490  1
  Sc  Sc74  1  0.09464655  0.49785996  0.89253811  1
  Sc  Sc75  1  0.70453477  0.09088251  0.70356970  1
  Sc  Sc76  1  0.09821442  0.29407110  0.50393786  1
  Sc  Sc77  1  0.89266924  0.09446939  0.29650487  1
  Sc  Sc78  1  0.10284174  0.09921641  0.30617397  1
  Sc  Sc79  1  0.69986824  0.90076634  0.90188370  1
  Sc  Sc80  1  0.30023045  0.70315980  0.70693399  1
  Sc  Sc81  1  0.09717484  0.09383552  0.09573929  1
  Sc  Sc82  1  0.89692211  0.70254687  0.70453464  1
  Sc  Sc83  1  0.90342601  0.29542940  0.10061539  1
  Sc  Sc84  1  0.50646227  0.70408582  0.09626619  1
  Sc  Sc85  1  0.10319776  0.09820632  0.89791290  1
  Sc  Sc86  1  0.30060327  0.69427933  0.29574291  1
  Sc  Sc87  1  0.70290597  0.89832377  0.70352793  1
  Sc  Sc88  1  0.49856137  0.51013607  0.49807769  1
  Sc  Sc89  1  0.09439567  0.70064965  0.49393437  1
  Sc  Sc90  1  0.49297667  0.09131051  0.51026729  1
  Sc  Sc91  1  0.29625249  0.91286555  0.10610462  1
  Sc  Sc92  1  0.10430719  0.70388551  0.29107071  1
  Sc  Sc93  1  0.30680102  0.69603088  0.10419003  1
  Sc  Sc94  1  0.90243490  0.09734180  0.49870746  1
  Sc  Sc95  1  0.29971793  0.09678631  0.69934675  1
  Sc  Sc96  1  0.50303412  0.29662866  0.10126729  1
  Sc  Sc97  1  0.49970768  0.50278767  0.90272320  1
  Sc  Sc98  1  0.48775823  0.50006972  0.70443057  1
  Sc  Sc99  1  0.70130509  0.09846672  0.10023994  1
  Nb  Nb100  1  0.30384169  0.50143871  0.29689998  1
  Nb  Nb101  1  0.30539631  0.90088951  0.49769533  1
  Nb  Nb102  1  0.69287837  0.29361434  0.30760246  1
  Nb  Nb103  1  0.70664160  0.50770285  0.09712424  1
  Nb  Nb104  1  0.89351904  0.90059335  0.30046429  1
  Nb  Nb105  1  0.09837998  0.29820518  0.70389138  1
  Nb  Nb106  1  0.50811279  0.30060712  0.30146614  1
  Nb  Nb107  1  0.70014385  0.30052810  0.70081917  1
  Nb  Nb108  1  0.49670615  0.89892168  0.50289610  1
  Nb  Nb109  1  0.50475539  0.09647413  0.89664960  1
  Nb  Nb110  1  0.09585574  0.89080183  0.10494021  1
  Nb  Nb111  1  0.09809383  0.50099419  0.30169968  1
  Nb  Nb112  1  0.50324930  0.09743564  0.70495289  1
  Nb  Nb113  1  0.88415005  0.50738172  0.10267234  1
  Nb  Nb114  1  0.49452733  0.49521709  0.29795898  1
  Nb  Nb115  1  0.09555812  0.70465897  0.09706072  1
  Nb  Nb116  1  0.50064831  0.29828989  0.70354532  1
  Nb  Nb117  1  0.70411751  0.69027979  0.10205687  1
  Nb  Nb118  1  0.10724271  0.89727613  0.29125807  1
  Nb  Nb119  1  0.70314203  0.90552771  0.29788174  1
  Nb  Nb120  1  0.29784826  0.89963709  0.30172214  1
  Nb  Nb121  1  0.69797551  0.10162082  0.90250715  1
  Nb  Nb122  1  0.09002768  0.90567058  0.69952300  1
  Nb  Nb123  1  0.90012902  0.09709372  0.90112605  1
  Nb  Nb124  1  0.69320986  0.69632446  0.50124709  1
  Nb  Nb125  1  0.79733508  0.80104677  0.20152610  1
  Nb  Nb126  1  0.19605967  0.60481933  0.00029765  1
  Nb  Nb127  1  0.40216754  0.80764442  0.20739941  1
  Nb  Nb128  1  0.00194674  -0.01384536  0.20424012  1
  Nb  Nb129  1  0.60182280  -0.00599784  0.40078440  1
  Nb  Nb130  1  0.40169821  0.80867706  0.39872637  1
  Nb  Nb131  1  0.41086874  0.19706552  0.79795629  1
  Nb  Nb132  1  -0.00087304  0.59836389  0.19540095  1
  Nb  Nb133  1  0.59995751  0.39592835  0.60415005  1
  Nb  Nb134  1  0.20014135  0.40536181  0.39275148  1
  Nb  Nb135  1  0.40340808  0.19778240  0.39815557  1
  Nb  Nb136  1  0.60098026  0.19905590  0.80011846  1
  Nb  Nb137  1  0.00128895  0.81150211  0.39039247  1
  Nb  Nb138  1  0.20026437  0.40190114  0.20390252  1
  Nb  Nb139  1  -0.00378655  0.20053703  0.79991387  1
  Nb  Nb140  1  0.59923509  0.80672315  0.40245770  1
  Nb  Nb141  1  0.19494377  0.79817394  0.00423120  1
  Nb  Nb142  1  0.59805309  0.39768411  0.39724173  1
  Nb  Nb143  1  0.59920994  0.20176678  0.60976707  1
  Nb  Nb144  1  0.60167886  0.39271186  0.79683837  1
  Nb  Nb145  1  0.19740891  0.59693698  0.59692732  1
  Nb  Nb146  1  0.79814837  0.60148916  0.40290399  1
  Nb  Nb147  1  0.20082634  0.59085132  0.39955430  1
  Nb  Nb148  1  0.60532143  0.59135158  0.19906820  1
  Nb  Nb149  1  0.19848966  0.20691897  0.19811993  1
  Pd  Pd150  1  0.60092903  0.80730217  0.80143038  1
  Pd  Pd151  1  0.39631175  0.20270842  0.20282324  1
  Pd  Pd152  1  0.60320004  0.40139553  0.20083966  1
  Pd  Pd153  1  0.79764798  0.00422012  0.59559547  1
  Pd  Pd154  1  0.40562484  0.39907403  0.59878203  1
  Pd  Pd155  1  0.80072395  0.19107175  0.79894468  1
  Pd  Pd156  1  0.80221435  0.39139507  0.19710379  1
  Pd  Pd157  1  0.21320701  0.79832430  0.19232626  1
  Pd  Pd158  1  0.59971840  0.79291358  0.20351039  1
  Pd  Pd159  1  0.80006789  0.19743209  0.00956391  1
  Pd  Pd160  1  -0.00414930  0.40562288  0.19867470  1
  Pd  Pd161  1  0.00461967  0.79822360  0.59641841  1
  Pd  Pd162  1  0.19656083  -0.00618661  0.00335884  1
  Pd  Pd163  1  -0.00601816  0.39373958  0.79868910  1
  Pd  Pd164  1  0.80867628  0.19668630  0.39575053  1
  Pd  Pd165  1  0.60768970  0.20056711  0.19037841  1
  Pd  Pd166  1  0.79757195  0.79790918  0.39852194  1
  Pd  Pd167  1  0.39266849  0.60509680  0.40278381  1
  Pd  Pd168  1  0.40117057  0.60464932  -0.00078098  1
  Pd  Pd169  1  0.00458352  0.60954155  0.60610638  1
  Pd  Pd170  1  0.19279485  0.59700689  0.19801958  1
  Pd  Pd171  1  0.40229040  0.40054487  -0.00198811  1
  Pd  Pd172  1  0.40047133  0.19585890  0.60167984  1
  Pd  Pd173  1  0.40394307  0.00286861  0.19632082  1
  Pd  Pd174  1  -0.00895834  0.19835504  0.39643307  1
  Pd  Pd175  1  0.60877215  0.00160919  0.59393182  1
  Pd  Pd176  1  0.39127841  0.80663504  0.01243982  1
  Pd  Pd177  1  0.20141418  0.00127533  0.39848150  1
  Pd  Pd178  1  -0.00243328  0.59514250  0.00039449  1
  Pd  Pd179  1  0.19832571  0.19808460  0.00271745  1
  Pd  Pd180  1  0.20176280  0.19953908  0.60969803  1
  Pd  Pd181  1  0.20422902  0.40938526  0.00252008  1
  Pd  Pd182  1  0.00304630  -0.00318114  0.39292566  1
  Pd  Pd183  1  0.19535071  0.80852822  0.80287368  1
  Pd  Pd184  1  0.40213432  0.39603502  0.40331664  1
  Pd  Pd185  1  0.00235681  0.18517543  0.20337228  1
  Pd  Pd186  1  0.79667117  0.18985138  0.60145109  1
  Pd  Pd187  1  0.79573059  0.00138217  0.00017750  1
  Pd  Pd188  1  -0.00333727  0.19954692  0.60880510  1
  Pd  Pd189  1  0.40390526  0.00421113  0.39913186  1
  Pd  Pd190  1  0.40643574  0.61081989  0.79900487  1
  Pd  Pd191  1  0.19385722  0.79650900  0.60531466  1
  Pd  Pd192  1  0.79166335  0.79782689  0.00345313  1
  Pd  Pd193  1  0.39862541  0.39201878  0.19580248  1
  Pd  Pd194  1  -0.01102248  0.40656735  0.00247613  1
  Pd  Pd195  1  0.20162239  0.79283711  0.39656195  1
  Pd  Pd196  1  0.39420608  0.60316266  0.60652197  1
  Pd  Pd197  1  0.59297268  0.59356571  0.79710101  1
  Pd  Pd198  1  0.19954874  0.39591159  0.80365885  1
  Pd  Pd199  1  0.20128005  -0.00495199  0.79405383  1
  Rh  Rh200  1  0.80458898  0.39904876  0.00619320  1
  Rh  Rh201  1  0.79660726  -0.00048654  0.80642883  1
  Rh  Rh202  1  0.59198884  0.58942270  0.61320264  1
  Rh  Rh203  1  0.19035092  0.00854414  0.19925479  1
  Rh  Rh204  1  0.60548205  0.59062181  0.38830267  1
  Rh  Rh205  1  0.79660136  0.20533874  0.19905566  1
  Rh  Rh206  1  -0.00183787  0.38816036  0.60156194  1
  Rh  Rh207  1  0.59679572  0.60449172  0.00593679  1
  Rh  Rh208  1  0.60642027  0.79738883  -0.00139126  1
  Rh  Rh209  1  0.60312326  0.39983214  -0.00136973  1
  Rh  Rh210  1  0.39631351  0.00255496  0.79541003  1
  Rh  Rh211  1  0.40244490  0.00414718  0.00163175  1
  Rh  Rh212  1  0.79754357  0.79639430  0.60351019  1
  Rh  Rh213  1  0.40518720  0.39062569  0.80916602  1
  Rh  Rh214  1  0.39308223  -0.00285709  0.60484007  1
  Rh  Rh215  1  0.60406434  0.00959627  0.20110470  1
  Rh  Rh216  1  0.19881084  0.20456370  0.79677275  1
  Rh  Rh217  1  0.21155890  0.20546565  0.38929191  1
  Rh  Rh218  1  -0.00041962  0.00155085  0.00502501  1
  Rh  Rh219  1  0.60606105  0.81004268  0.59514920  1
  Rh  Rh220  1  0.40340476  0.19657586  -0.00979071  1
  Rh  Rh221  1  0.60408189  0.00314753  -0.00272193  1
  Rh  Rh222  1  0.20084789  -0.00400774  0.60133425  1
  Rh  Rh223  1  0.80562365  -0.00837165  0.19182236  1
  Rh  Rh224  1  0.58949661  0.19978006  0.41220169  1
  Rh  Rh225  1  -0.00792289  0.79959178  0.20533611  1
  Rh  Rh226  1  0.00296475  0.80236086  -0.00951157  1
  Rh  Rh227  1  0.80009632  0.60523919  0.80341795  1
  Rh  Rh228  1  0.00166727  0.38927616  0.40178359  1
  Rh  Rh229  1  0.00508045  0.00121745  0.59798710  1
  Rh  Rh230  1  0.80299007  0.60773088  -0.00938231  1
  Rh  Rh231  1  0.79683383  0.40442286  0.59478295  1
  Rh  Rh232  1  0.39901842  0.80431452  0.59954502  1
  Rh  Rh233  1  -0.00192957  0.80501944  0.79872826  1
  Rh  Rh234  1  0.00254024  0.61108180  0.38963995  1
  Rh  Rh235  1  0.41551315  0.60525794  0.19735398  1
  Rh  Rh236  1  0.60290487  0.19855187  -0.00182512  1
  Rh  Rh237  1  -0.00186401  0.19015405  -0.00885125  1
  Rh  Rh238  1  0.79532699  0.40285444  0.80615579  1
  Rh  Rh239  1  0.80137480  0.60353777  0.20883412  1
  Rh  Rh240  1  0.19466125  0.59447697  0.79767651  1
  Rh  Rh241  1  0.60903769  0.00191005  0.80543234  1
  Rh  Rh242  1  0.00286095  0.00590987  0.80160175  1
  Rh  Rh243  1  0.79584552  0.79856277  0.79972239  1
  Rh  Rh244  1  0.19294365  0.40070370  0.59360691  1
  Rh  Rh245  1  0.80423945  0.60431527  0.59604154  1
  Rh  Rh246  1  0.79447342  0.40337388  0.40424930  1
  Rh  Rh247  1  0.40590052  0.80642531  0.79401423  1
  Rh  Rh248  1  0.79361691  0.00353671  0.40172455  1
  Rh  Rh249  1  -0.00480467  0.59871397  0.79547340  1
