# generated using pymatgen
data_ZrScNbPdRh
_symmetry_space_group_name_H-M   'P 1'
_cell_length_a   16.56044084
_cell_length_b   16.55744972
_cell_length_c   16.55356285
_cell_angle_alpha   89.98688774
_cell_angle_beta   90.00207177
_cell_angle_gamma   89.97969115
_symmetry_Int_Tables_number   1
_chemical_formula_structural   ZrScNbPdRh
_chemical_formula_sum   'Zr50 Sc50 Nb50 Pd50 Rh50'
_cell_volume   4538.96445394
_cell_formula_units_Z   50
loop_
 _symmetry_equiv_pos_site_id
 _symmetry_equiv_pos_as_xyz
  1  'x, y, z'
loop_
 _atom_site_type_symbol
 _atom_site_label
 _atom_site_symmetry_multiplicity
 _atom_site_fract_x
 _atom_site_fract_y
 _atom_site_fract_z
 _atom_site_occupancy
  Zr  Zr0  1  0.50841874  0.09753162  0.90177349  1
  Zr  Zr1  1  0.70135097  0.10436163  0.89960312  1
  Zr  Zr2  1  0.70340343  0.70249436  0.69746788  1
  Zr  Zr3  1  0.89581827  0.10570130  0.10401553  1
  Zr  Zr4  1  0.89691890  0.90636982  0.69279183  1
  Zr  Zr5  1  0.70661327  0.30526359  0.31543774  1
  Zr  Zr6  1  0.49680692  0.49361119  0.89607121  1
  Zr  Zr7  1  0.10166889  0.49594684  0.08211119  1
  Zr  Zr8  1  0.69853445  0.09896102  0.49774252  1
  Zr  Zr9  1  0.89479809  0.89202316  0.90886346  1
  Zr  Zr10  1  0.70024159  0.90128055  0.69637772  1
  Zr  Zr11  1  0.10487151  0.09714031  0.89430969  1
  Zr  Zr12  1  0.69505900  0.29650646  0.89803604  1
  Zr  Zr13  1  0.89641593  0.69492136  0.68621954  1
  Zr  Zr14  1  0.30064544  0.90075897  0.12040550  1
  Zr  Zr15  1  0.29131218  0.09716840  0.90600646  1
  Zr  Zr16  1  0.49082056  0.49853065  0.49857633  1
  Zr  Zr17  1  0.91041218  0.50731848  0.51016249  1
  Zr  Zr18  1  0.70286104  0.10734396  0.30334711  1
  Zr  Zr19  1  0.90424642  0.69543401  0.89901896  1
  Zr  Zr20  1  0.50405503  0.69309112  0.30197856  1
  Zr  Zr21  1  0.09621003  0.69520702  0.90428220  1
  Zr  Zr22  1  0.70440435  0.30044195  0.09593393  1
  Zr  Zr23  1  0.30454789  0.10852171  0.49857327  1
  Zr  Zr24  1  0.70146850  0.50222504  0.90607914  1
  Zr  Zr25  1  0.89794562  0.10540066  0.30986659  1
  Zr  Zr26  1  0.29666465  0.90322408  0.90383264  1
  Zr  Zr27  1  0.09294283  0.69036850  0.49475463  1
  Zr  Zr28  1  0.50127074  0.69938281  0.91236494  1
  Zr  Zr29  1  0.31039505  0.49852018  0.10147519  1
  Zr  Zr30  1  0.48986558  0.69482485  0.69804581  1
  Zr  Zr31  1  0.30084148  0.69323712  0.69882514  1
  Zr  Zr32  1  0.09937636  0.30044299  0.29839383  1
  Zr  Zr33  1  0.90640848  0.70616243  0.09144001  1
  Zr  Zr34  1  0.89876349  0.30547659  0.70074152  1
  Zr  Zr35  1  0.48896701  0.49449893  0.70052590  1
  Zr  Zr36  1  0.09844421  0.89505191  0.10938701  1
  Zr  Zr37  1  0.70495478  0.50442978  0.09884141  1
  Zr  Zr38  1  0.09800525  0.29178408  0.69919232  1
  Zr  Zr39  1  0.30004353  0.69930473  0.89351450  1
  Zr  Zr40  1  0.50228871  0.30264599  0.29386964  1
  Zr  Zr41  1  0.29449090  0.49916229  0.89859028  1
  Zr  Zr42  1  0.09060984  0.50106976  0.89330829  1
  Zr  Zr43  1  0.29412182  0.91071484  0.49758214  1
  Zr  Zr44  1  0.11767235  0.30541104  0.50060187  1
  Zr  Zr45  1  0.69926358  0.70351711  0.49831171  1
  Zr  Zr46  1  0.70431218  0.09583021  0.70213475  1
  Zr  Zr47  1  0.29394403  0.29877712  0.10370736  1
  Zr  Zr48  1  0.48960733  0.90787976  0.29484056  1
  Zr  Zr49  1  0.90632367  0.29666476  0.29422903  1
  Sc  Sc50  1  0.70198951  0.90738222  0.50186426  1
  Sc  Sc51  1  0.89593869  0.49970236  0.09618001  1
  Sc  Sc52  1  0.50912158  0.30061647  0.10286201  1
  Sc  Sc53  1  0.69821798  0.91088852  0.31056345  1
  Sc  Sc54  1  0.49508181  0.69437125  0.49542146  1
  Sc  Sc55  1  0.29965588  0.30205598  0.69410673  1
  Sc  Sc56  1  0.70242714  0.90598392  0.08944867  1
  Sc  Sc57  1  0.89531725  0.49588630  0.29277118  1
  Sc  Sc58  1  0.30028500  0.08339317  0.30199455  1
  Sc  Sc59  1  0.50731390  0.09768559  0.30220521  1
  Sc  Sc60  1  0.49271728  0.28957497  0.51011932  1
  Sc  Sc61  1  0.28833176  0.50149014  0.49971303  1
  Sc  Sc62  1  0.09511022  0.30848967  0.90241825  1
  Sc  Sc63  1  0.69753530  0.89973464  0.89722410  1
  Sc  Sc64  1  0.09174909  0.49623278  0.69402132  1
  Sc  Sc65  1  0.50183873  0.09754509  0.69966407  1
  Sc  Sc66  1  0.89741755  0.30121272  0.49537284  1
  Sc  Sc67  1  0.29554655  0.69215746  0.50455188  1
  Sc  Sc68  1  0.29484420  0.88707045  0.70017141  1
  Sc  Sc69  1  0.49832954  0.50193875  0.29483065  1
  Sc  Sc70  1  0.69958624  0.10248292  0.10077285  1
  Sc  Sc71  1  0.10682798  0.50876343  0.30765847  1
  Sc  Sc72  1  0.10183239  0.90435686  0.89950971  1
  Sc  Sc73  1  0.09230425  0.09884610  0.30276828  1
  Sc  Sc74  1  0.50772614  0.89846568  0.90383348  1
  Sc  Sc75  1  0.31744818  0.70122503  0.09922190  1
  Sc  Sc76  1  0.51436564  0.09662172  0.10675072  1
  Sc  Sc77  1  0.91094923  0.91586693  0.30135901  1
  Sc  Sc78  1  0.29413852  0.29586404  0.30580848  1
  Sc  Sc79  1  0.29011012  0.10082330  0.70840799  1
  Sc  Sc80  1  0.29992123  0.69984479  0.29496604  1
  Sc  Sc81  1  0.71783793  0.49249579  0.70872798  1
  Sc  Sc82  1  0.28383285  0.30047010  0.89308386  1
  Sc  Sc83  1  0.90710929  0.69204762  0.28756586  1
  Sc  Sc84  1  0.10888165  0.10050495  0.10097716  1
  Sc  Sc85  1  0.70681367  0.48730138  0.48626711  1
  Sc  Sc86  1  0.50550559  0.90685923  0.49830624  1
  Sc  Sc87  1  0.30626749  0.50611456  0.30198263  1
  Sc  Sc88  1  0.08926028  0.29976718  0.09923985  1
  Sc  Sc89  1  0.10671192  0.70039232  0.69607447  1
  Sc  Sc90  1  0.50078260  0.10081797  0.50272821  1
  Sc  Sc91  1  0.70304824  0.69037548  0.09533058  1
  Sc  Sc92  1  0.49903383  0.90195025  0.70664674  1
  Sc  Sc93  1  0.70157428  0.70602176  0.90619865  1
  Sc  Sc94  1  0.09723299  0.70347158  0.29454807  1
  Sc  Sc95  1  0.69839992  0.50338750  0.29256775  1
  Sc  Sc96  1  0.90681705  0.90192661  0.49997465  1
  Sc  Sc97  1  0.50269412  0.51050619  0.10250756  1
  Sc  Sc98  1  0.09906042  0.10065892  0.50770085  1
  Sc  Sc99  1  0.49093753  0.30289102  0.70137496  1
  Nb  Nb100  1  0.11021381  0.90424006  0.30253822  1
  Nb  Nb101  1  0.89782354  0.10500700  0.89835266  1
  Nb  Nb102  1  0.30280318  0.29955592  0.50013869  1
  Nb  Nb103  1  0.90652138  0.50185965  0.70913107  1
  Nb  Nb104  1  0.09693673  0.70076905  0.09779374  1
  Nb  Nb105  1  0.90027703  0.89964832  0.09888813  1
  Nb  Nb106  1  0.49879098  0.29826798  0.90023176  1
  Nb  Nb107  1  0.70145765  0.70340924  0.29914715  1
  Nb  Nb108  1  0.90464990  0.30006597  0.09278675  1
  Nb  Nb109  1  0.29990830  0.09861988  0.09792010  1
  Nb  Nb110  1  0.89819240  0.28927056  0.90847689  1
  Nb  Nb111  1  0.90514878  0.49997298  0.88662557  1
  Nb  Nb112  1  0.29601928  0.89854135  0.30225494  1
  Nb  Nb113  1  0.89608405  0.70107432  0.49722684  1
  Nb  Nb114  1  0.10453515  0.50245381  0.49572392  1
  Nb  Nb115  1  0.09102164  0.90606994  0.68999087  1
  Nb  Nb116  1  0.70060486  0.29755741  0.50596262  1
  Nb  Nb117  1  0.49920159  0.89498202  0.10158785  1
  Nb  Nb118  1  0.30876908  0.50426868  0.70249553  1
  Nb  Nb119  1  0.90202950  0.10058011  0.69658138  1
  Nb  Nb120  1  0.90051128  0.10077397  0.50381328  1
  Nb  Nb121  1  0.70431820  0.29712149  0.69857844  1
  Nb  Nb122  1  0.50596372  0.70666703  0.10077444  1
  Nb  Nb123  1  0.08433741  0.09572321  0.70168457  1
  Nb  Nb124  1  0.09910535  0.90116458  0.49669393  1
  Nb  Nb125  1  -0.00586789  0.19362678  0.79993050  1
  Nb  Nb126  1  0.60671421  0.39790667  0.60148076  1
  Nb  Nb127  1  0.79824698  0.80351602  0.20255559  1
  Nb  Nb128  1  0.00817799  0.40388899  0.40352754  1
  Nb  Nb129  1  0.80633926  0.79557556  0.39437274  1
  Nb  Nb130  1  -0.00667190  0.00087381  0.00279219  1
  Nb  Nb131  1  0.19809861  0.80653513  0.39902707  1
  Nb  Nb132  1  0.79886156  0.19910893  0.60193926  1
  Nb  Nb133  1  0.19801976  0.60111361  0.18877237  1
  Nb  Nb134  1  0.80288959  0.60815188  0.39919677  1
  Nb  Nb135  1  0.39329187  0.80584226  0.39804343  1
  Nb  Nb136  1  0.40014606  0.00274487  0.00902321  1
  Nb  Nb137  1  0.19865195  0.40656158  0.19959456  1
  Nb  Nb138  1  0.60306488  0.59191955  0.60364787  1
  Nb  Nb139  1  0.59852095  0.79314154  0.60073957  1
  Nb  Nb140  1  0.59944136  0.59839934  0.79598940  1
  Nb  Nb141  1  0.39525171  0.39357552  0.40428226  1
  Nb  Nb142  1  0.40020255  0.39047463  -0.00332227  1
  Nb  Nb143  1  0.60292453  0.80024671  0.19901914  1
  Nb  Nb144  1  0.40052079  0.19879126  0.00123084  1
  Nb  Nb145  1  -0.00070370  0.80433610  0.79221872  1
  Nb  Nb146  1  0.19938591  0.79609870  0.00824888  1
  Nb  Nb147  1  0.39369026  0.00096361  0.60153702  1
  Nb  Nb148  1  0.39934395  0.19919966  0.81191045  1
  Nb  Nb149  1  0.39727263  0.19465490  0.19424611  1
  Pd  Pd150  1  0.80151164  0.00612790  -0.00305721  1
  Pd  Pd151  1  0.20234470  0.19618963  0.20739431  1
  Pd  Pd152  1  0.80684681  0.79803835  0.79826100  1
  Pd  Pd153  1  0.00628795  0.20742134  0.41146505  1
  Pd  Pd154  1  0.00708166  0.58926672  0.19178683  1
  Pd  Pd155  1  0.60863964  -0.00730857  0.19979921  1
  Pd  Pd156  1  0.00893701  0.19096418  -0.00248517  1
  Pd  Pd157  1  0.80060758  0.40177415  0.59705966  1
  Pd  Pd158  1  0.00316076  0.79621782  0.60070735  1
  Pd  Pd159  1  0.00841556  0.41038627  0.20344168  1
  Pd  Pd160  1  0.80705339  0.40109583  -0.00797955  1
  Pd  Pd161  1  0.80191132  -0.00194831  0.80565021  1
  Pd  Pd162  1  0.58780716  0.39543338  0.40857922  1
  Pd  Pd163  1  0.18889552  0.80440375  0.80294836  1
  Pd  Pd164  1  0.59271238  0.20297498  0.79046830  1
  Pd  Pd165  1  0.20945955  0.60897539  0.00568435  1
  Pd  Pd166  1  0.79785280  0.20781846  0.19944285  1
  Pd  Pd167  1  0.20113299  0.00526232  0.60551646  1
  Pd  Pd168  1  0.79917244  0.39392416  0.19977095  1
  Pd  Pd169  1  0.20587879  0.40831199  0.60788218  1
  Pd  Pd170  1  0.59342912  0.40401413  0.00606591  1
  Pd  Pd171  1  0.59426659  0.79305082  0.79527351  1
  Pd  Pd172  1  -0.00823624  -0.00369513  0.80848231  1
  Pd  Pd173  1  0.79527727  0.60594091  0.80518341  1
  Pd  Pd174  1  0.19709909  0.40541229  0.78828837  1
  Pd  Pd175  1  0.40497709  0.80255866  0.80524676  1
  Pd  Pd176  1  0.79613403  -0.00566078  0.20323173  1
  Pd  Pd177  1  0.60584122  0.40318550  0.19681434  1
  Pd  Pd178  1  0.40587610  0.80882300  0.58937181  1
  Pd  Pd179  1  0.19789257  0.18963219  0.39522483  1
  Pd  Pd180  1  0.79110864  0.58686140  0.59297528  1
  Pd  Pd181  1  0.80449501  0.39223604  0.81171404  1
  Pd  Pd182  1  0.19755745  -0.00890022  0.78690662  1
  Pd  Pd183  1  0.19196727  0.59218406  0.79128477  1
  Pd  Pd184  1  0.59360405  0.20391857  0.40287587  1
  Pd  Pd185  1  0.00290948  0.39400985  0.59201726  1
  Pd  Pd186  1  -0.00650450  0.80621891  0.20973266  1
  Pd  Pd187  1  0.60289592  0.40135310  0.79057667  1
  Pd  Pd188  1  0.19309583  0.20743521  -0.00052510  1
  Pd  Pd189  1  -0.00149828  0.80247945  0.39101948  1
  Pd  Pd190  1  0.39469046  0.80987463  0.00001211  1
  Pd  Pd191  1  0.19382718  0.79692341  0.59012180  1
  Pd  Pd192  1  -0.00766986  0.59404116  0.39245718  1
  Pd  Pd193  1  0.60758395  0.59141224  0.40424496  1
  Pd  Pd194  1  0.20199577  0.19301229  0.60604926  1
  Pd  Pd195  1  0.59720207  0.80802393  0.39898999  1
  Pd  Pd196  1  0.40432758  0.20084579  0.38881142  1
  Pd  Pd197  1  0.60134890  0.20379022  0.60841026  1
  Pd  Pd198  1  0.39799717  0.00426350  0.80035486  1
  Pd  Pd199  1  0.00372316  0.00768012  0.19526912  1
  Rh  Rh200  1  0.39543230  0.40204439  0.59133751  1
  Rh  Rh201  1  0.38832608  0.38871923  0.80767440  1
  Rh  Rh202  1  0.79637969  0.19848709  0.00322037  1
  Rh  Rh203  1  0.39440713  0.59971509  0.40131252  1
  Rh  Rh204  1  0.40332765  0.59221662  -0.00445937  1
  Rh  Rh205  1  -0.00047750  0.00225300  0.59122376  1
  Rh  Rh206  1  0.59112527  -0.00749353  0.60593264  1
  Rh  Rh207  1  0.40134086  0.60702061  0.20151388  1
  Rh  Rh208  1  0.80631844  -0.00241923  0.40321330  1
  Rh  Rh209  1  0.80358196  0.00628387  0.59337574  1
  Rh  Rh210  1  0.60353351  0.20414601  0.20386516  1
  Rh  Rh211  1  0.80820566  0.59896170  -0.00652629  1
  Rh  Rh212  1  0.20306188  0.40167014  0.39349846  1
  Rh  Rh213  1  0.39558783  0.59447974  0.59359288  1
  Rh  Rh214  1  0.41120719  0.79260346  0.21038313  1
  Rh  Rh215  1  0.40357326  -0.00149039  0.40820769  1
  Rh  Rh216  1  -0.01288905  0.40256787  -0.00759570  1
  Rh  Rh217  1  -0.00746294  0.20204170  0.60178018  1
  Rh  Rh218  1  0.00584930  0.60272308  0.60418320  1
  Rh  Rh219  1  0.39216886  0.38691623  0.20502875  1
  Rh  Rh220  1  0.59669173  -0.00234477  0.00005800  1
  Rh  Rh221  1  0.20628184  0.39526018  0.00517035  1
  Rh  Rh222  1  0.19100943  0.00258785  0.40218069  1
  Rh  Rh223  1  0.19971442  -0.01544584  0.01372383  1
  Rh  Rh224  1  0.01131695  0.81056728  -0.00734011  1
  Rh  Rh225  1  -0.00804846  0.59167795  0.00157223  1
  Rh  Rh226  1  0.59908663  0.00461008  0.40028930  1
  Rh  Rh227  1  0.19206611  0.20017301  0.79663310  1
  Rh  Rh228  1  0.59979545  0.20016053  0.00362506  1
  Rh  Rh229  1  0.59817920  0.59759819  -0.00376919  1
  Rh  Rh230  1  0.39341186  0.19018749  0.61341769  1
  Rh  Rh231  1  0.40413804  0.01092018  0.19414243  1
  Rh  Rh232  1  0.19590482  0.00676315  0.20279858  1
  Rh  Rh233  1  0.40458992  0.60340459  0.80927124  1
  Rh  Rh234  1  0.79354738  0.79664879  0.00935545  1
  Rh  Rh235  1  0.81426752  0.40592734  0.39748146  1
  Rh  Rh236  1  0.00428882  0.00408762  0.40707985  1
  Rh  Rh237  1  0.79831637  0.60702080  0.20180607  1
  Rh  Rh238  1  0.60178556  0.60611125  0.19693555  1
  Rh  Rh239  1  0.19832453  0.59303863  0.60555049  1
  Rh  Rh240  1  0.20108556  0.61280653  0.39163025  1
  Rh  Rh241  1  0.80590118  0.20311653  0.79430037  1
  Rh  Rh242  1  0.79732393  0.81041907  0.58809397  1
  Rh  Rh243  1  0.60632852  -0.00061057  0.80055822  1
  Rh  Rh244  1  -0.00469058  0.38870383  0.80460892  1
  Rh  Rh245  1  -0.00142197  0.19626613  0.19505551  1
  Rh  Rh246  1  0.80203857  0.20012550  0.40988056  1
  Rh  Rh247  1  0.00175272  0.60958473  0.78929599  1
  Rh  Rh248  1  0.19855584  0.78943081  0.20051989  1
  Rh  Rh249  1  0.60669079  0.80211865  0.00916473  1
