# generated using pymatgen
data_ZrScNbPdRh
_symmetry_space_group_name_H-M   'P 1'
_cell_length_a   16.55770299
_cell_length_b   16.55405601
_cell_length_c   16.55335063
_cell_angle_alpha   89.99402016
_cell_angle_beta   89.99902638
_cell_angle_gamma   89.98735211
_symmetry_Int_Tables_number   1
_chemical_formula_structural   ZrScNbPdRh
_chemical_formula_sum   'Zr50 Sc50 Nb50 Pd50 Rh50'
_cell_volume   4537.22597369
_cell_formula_units_Z   50
loop_
 _symmetry_equiv_pos_site_id
 _symmetry_equiv_pos_as_xyz
  1  'x, y, z'
loop_
 _atom_site_type_symbol
 _atom_site_label
 _atom_site_symmetry_multiplicity
 _atom_site_fract_x
 _atom_site_fract_y
 _atom_site_fract_z
 _atom_site_occupancy
  Zr  Zr0  1  0.30040967  0.90614207  0.70559705  1
  Zr  Zr1  1  0.89468851  0.48764511  0.89526006  1
  Zr  Zr2  1  0.89411139  0.90111073  0.50286006  1
  Zr  Zr3  1  0.10240342  0.30091905  0.30972182  1
  Zr  Zr4  1  0.09830066  0.70436002  0.09616798  1
  Zr  Zr5  1  0.10518136  0.89537767  0.69755925  1
  Zr  Zr6  1  0.49895077  0.50133590  0.50248051  1
  Zr  Zr7  1  0.90740354  0.29712159  0.50208072  1
  Zr  Zr8  1  0.69888100  0.50086089  0.29524274  1
  Zr  Zr9  1  0.30014254  0.90926330  0.90049434  1
  Zr  Zr10  1  0.89082157  0.90213883  0.89961474  1
  Zr  Zr11  1  0.49603662  0.49994826  0.90417619  1
  Zr  Zr12  1  0.50902127  0.91041311  0.31098790  1
  Zr  Zr13  1  0.10368623  0.50516179  0.29994657  1
  Zr  Zr14  1  0.50045880  0.29590462  0.29676057  1
  Zr  Zr15  1  0.70667122  0.49879879  0.69931435  1
  Zr  Zr16  1  0.49645252  0.29573274  0.90230221  1
  Zr  Zr17  1  0.50384587  0.69640016  0.50540555  1
  Zr  Zr18  1  0.70233272  0.70531286  0.29858279  1
  Zr  Zr19  1  0.70176543  0.69691101  0.10372799  1
  Zr  Zr20  1  0.50461456  0.69876854  0.09687822  1
  Zr  Zr21  1  0.50408616  0.70549568  0.89958272  1
  Zr  Zr22  1  0.89285611  0.49707155  0.50235096  1
  Zr  Zr23  1  0.89795161  0.90214278  0.70713607  1
  Zr  Zr24  1  0.30189113  0.90264861  0.30169155  1
  Zr  Zr25  1  0.29460730  0.68945763  0.30701341  1
  Zr  Zr26  1  0.70331299  0.29830556  0.49433348  1
  Zr  Zr27  1  0.90709504  0.50221306  0.30579847  1
  Zr  Zr28  1  0.89999824  0.70082825  0.70999047  1
  Zr  Zr29  1  0.89761427  0.70182449  0.29129975  1
  Zr  Zr30  1  0.30881004  0.30703599  0.90372143  1
  Zr  Zr31  1  0.09683218  0.69747805  0.90246781  1
  Zr  Zr32  1  0.30192321  0.70545550  0.90524455  1
  Zr  Zr33  1  0.50805212  0.50750552  0.69518319  1
  Zr  Zr34  1  0.49859103  0.30127791  0.48907828  1
  Zr  Zr35  1  0.49953794  0.30114233  0.70574154  1
  Zr  Zr36  1  0.69920502  0.30049906  0.10146222  1
  Zr  Zr37  1  0.90292837  0.89807695  0.10433117  1
  Zr  Zr38  1  0.10332754  0.69686758  0.30036564  1
  Zr  Zr39  1  0.69943739  0.89593041  0.70087690  1
  Zr  Zr40  1  0.89663912  0.09883473  0.89978466  1
  Zr  Zr41  1  0.49890604  0.09364158  0.49291269  1
  Zr  Zr42  1  0.50175992  0.30444780  0.09827720  1
  Zr  Zr43  1  0.90856966  0.29468443  0.90118480  1
  Zr  Zr44  1  0.30296729  0.29269519  0.30506855  1
  Zr  Zr45  1  0.50304042  0.90498105  0.10171298  1
  Zr  Zr46  1  0.89316530  0.28911458  0.09849654  1
  Zr  Zr47  1  0.90478899  0.49360736  0.70300781  1
  Zr  Zr48  1  0.09262748  0.10124931  0.89738131  1
  Zr  Zr49  1  0.90126850  0.30090871  0.29471561  1
  Sc  Sc50  1  0.69846605  0.50321054  0.10030395  1
  Sc  Sc51  1  0.09691675  0.10463889  0.50087290  1
  Sc  Sc52  1  0.08926342  0.49515242  0.48904930  1
  Sc  Sc53  1  0.50434559  0.50071079  0.10480839  1
  Sc  Sc54  1  0.29932420  0.69972813  0.10700577  1
  Sc  Sc55  1  0.29276207  0.71290138  0.70040646  1
  Sc  Sc56  1  0.09143154  0.09681980  0.70010232  1
  Sc  Sc57  1  0.89647239  0.70795439  0.09875157  1
  Sc  Sc58  1  0.69535083  0.90585962  0.08932399  1
  Sc  Sc59  1  0.90107919  0.10488582  0.29438891  1
  Sc  Sc60  1  0.30264202  0.10090068  0.49315502  1
  Sc  Sc61  1  0.10409975  0.09055784  0.10890984  1
  Sc  Sc62  1  0.89179108  0.69434147  0.49458014  1
  Sc  Sc63  1  0.49555871  0.10843807  0.69168564  1
  Sc  Sc64  1  0.69870904  0.29243624  0.69359997  1
  Sc  Sc65  1  0.49588073  0.69487263  0.29544451  1
  Sc  Sc66  1  0.89897859  0.30266857  0.69913659  1
  Sc  Sc67  1  0.08360428  0.30265617  0.69725135  1
  Sc  Sc68  1  0.29483523  0.90292509  0.09502181  1
  Sc  Sc69  1  0.50624237  0.10626962  0.09291585  1
  Sc  Sc70  1  0.90540130  0.09654402  0.70208598  1
  Sc  Sc71  1  0.10111740  0.90389186  0.28911968  1
  Sc  Sc72  1  0.29488144  0.90651931  0.50539995  1
  Sc  Sc73  1  0.09458453  0.49204657  0.90839124  1
  Sc  Sc74  1  0.69706561  0.10080328  0.09295438  1
  Sc  Sc75  1  0.31336318  0.49336374  0.69605824  1
  Sc  Sc76  1  0.70555268  0.50192991  0.90393154  1
  Sc  Sc77  1  0.09843356  0.30616366  0.09435508  1
  Sc  Sc78  1  0.49613377  0.89739482  0.89950390  1
  Sc  Sc79  1  0.69284714  0.29959770  0.30094018  1
  Sc  Sc80  1  0.69065956  0.88439035  0.49620622  1
  Sc  Sc81  1  0.30314683  0.49798334  0.09514698  1
  Sc  Sc82  1  0.11151879  0.70027275  0.49462083  1
  Sc  Sc83  1  0.69841858  0.70404395  0.90757415  1
  Sc  Sc84  1  0.31564529  0.29934740  0.70290184  1
  Sc  Sc85  1  0.70191980  0.08909683  0.90260143  1
  Sc  Sc86  1  0.30924137  0.29937239  0.10030215  1
  Sc  Sc87  1  0.10142305  0.89935727  0.10083548  1
  Sc  Sc88  1  0.89461244  0.89675191  0.29392476  1
  Sc  Sc89  1  0.49794437  0.49334070  0.29712328  1
  Sc  Sc90  1  0.10689336  0.90578836  0.50515288  1
  Sc  Sc91  1  0.69927257  0.89867723  0.90022959  1
  Sc  Sc92  1  0.69426458  0.70125161  0.70272667  1
  Sc  Sc93  1  0.89847153  0.49035049  0.09927359  1
  Sc  Sc94  1  0.10790437  0.10134248  0.29523970  1
  Sc  Sc95  1  0.70803011  0.30369935  0.90320910  1
  Sc  Sc96  1  0.89607594  0.10897978  0.49873969  1
  Sc  Sc97  1  0.10406310  0.49952084  0.09412332  1
  Sc  Sc98  1  0.10403607  0.89764251  0.90543361  1
  Sc  Sc99  1  0.90013069  0.70430140  0.90394804  1
  Nb  Nb100  1  0.69658389  0.50212909  0.50156611  1
  Nb  Nb101  1  0.29359809  0.30211322  0.49557469  1
  Nb  Nb102  1  0.69607425  0.69594323  0.49673804  1
  Nb  Nb103  1  0.30104640  0.09864377  0.90153063  1
  Nb  Nb104  1  0.49714281  0.10126237  0.89672551  1
  Nb  Nb105  1  0.68537667  0.08942662  0.30687351  1
  Nb  Nb106  1  0.49897365  0.09860195  0.30392725  1
  Nb  Nb107  1  0.30664503  0.50808619  0.49485827  1
  Nb  Nb108  1  0.49523881  0.89433532  0.50357911  1
  Nb  Nb109  1  0.10036662  0.69626783  0.69931724  1
  Nb  Nb110  1  0.29718953  0.09833344  0.09798850  1
  Nb  Nb111  1  0.30340157  0.10244504  0.29495136  1
  Nb  Nb112  1  0.10525990  0.29730618  0.50022264  1
  Nb  Nb113  1  0.29817146  0.50331258  0.29844177  1
  Nb  Nb114  1  0.89499519  0.09830277  0.10027019  1
  Nb  Nb115  1  0.69627057  0.10222309  0.69406586  1
  Nb  Nb116  1  0.50289387  0.89417921  0.69724080  1
  Nb  Nb117  1  0.50122058  0.70553519  0.70589049  1
  Nb  Nb118  1  0.29847023  0.10561675  0.70658572  1
  Nb  Nb119  1  0.10423212  0.29757383  0.90029912  1
  Nb  Nb120  1  0.70377967  0.10805727  0.50455059  1
  Nb  Nb121  1  0.29862766  0.49806849  0.89635219  1
  Nb  Nb122  1  0.69688602  0.90259374  0.29750274  1
  Nb  Nb123  1  0.10122314  0.49846602  0.69724503  1
  Nb  Nb124  1  0.30476494  0.69789360  0.49900886  1
  Nb  Nb125  1  0.60390800  0.59823595  0.40394405  1
  Nb  Nb126  1  0.79012972  0.00418584  0.59728340  1
  Nb  Nb127  1  0.20617700  0.40096417  0.20781086  1
  Nb  Nb128  1  0.20150976  0.39962160  0.59646494  1
  Nb  Nb129  1  0.20254534  0.20453360  0.80027978  1
  Nb  Nb130  1  0.20016106  0.59267473  0.60172657  1
  Nb  Nb131  1  0.00194708  0.60137273  0.19863243  1
  Nb  Nb132  1  0.00143453  0.79373829  0.59974319  1
  Nb  Nb133  1  0.78996484  0.00234955  0.20353473  1
  Nb  Nb134  1  -0.00366857  -0.00451212  0.39733791  1
  Nb  Nb135  1  0.59901506  0.39997733  0.79916596  1
  Nb  Nb136  1  0.00449943  0.60294163  0.60380762  1
  Nb  Nb137  1  0.40024641  0.79928674  0.40733046  1
  Nb  Nb138  1  0.00047358  0.80484931  0.40284751  1
  Nb  Nb139  1  -0.00675305  0.00241024  0.00241438  1
  Nb  Nb140  1  0.40292930  0.80171510  0.60020192  1
  Nb  Nb141  1  0.60110451  0.80627136  0.20297871  1
  Nb  Nb142  1  0.20307460  0.20849723  0.60344626  1
  Nb  Nb143  1  0.59501036  0.00269656  0.79135228  1
  Nb  Nb144  1  0.40115416  0.00954126  0.20366117  1
  Nb  Nb145  1  0.19902239  0.39921808  0.79568037  1
  Nb  Nb146  1  0.39715050  0.60546075  0.80126402  1
  Nb  Nb147  1  0.20467380  0.19568729  -0.00545525  1
  Nb  Nb148  1  0.20141317  0.59296671  0.79711626  1
  Nb  Nb149  1  0.79906763  0.19364679  0.79846978  1
  Pd  Pd150  1  0.19311646  0.00561055  0.39771311  1
  Pd  Pd151  1  0.60801020  0.19816843  0.80687796  1
  Pd  Pd152  1  0.00861473  0.40465791  0.19629755  1
  Pd  Pd153  1  0.79994086  0.39753573  0.39722893  1
  Pd  Pd154  1  0.60221733  0.19381004  0.20223763  1
  Pd  Pd155  1  0.79806202  0.40116597  0.20043263  1
  Pd  Pd156  1  0.60745740  0.19920111  -0.01064088  1
  Pd  Pd157  1  0.79650541  0.60479220  0.80639805  1
  Pd  Pd158  1  0.19719884  0.21070702  0.18991975  1
  Pd  Pd159  1  0.79578198  0.19739879  0.38841255  1
  Pd  Pd160  1  0.39838600  0.39404941  0.59310004  1
  Pd  Pd161  1  0.20178964  0.80191368  0.19789034  1
  Pd  Pd162  1  0.78540165  0.18977565  0.20846484  1
  Pd  Pd163  1  0.40483731  0.00530862  0.00652889  1
  Pd  Pd164  1  0.20434923  0.40801958  0.40114085  1
  Pd  Pd165  1  0.39718471  0.80482384  0.00554374  1
  Pd  Pd166  1  0.79385587  0.59828122  0.39634163  1
  Pd  Pd167  1  -0.01035771  0.59658334  0.00590584  1
  Pd  Pd168  1  0.40505307  0.19460790  0.19332381  1
  Pd  Pd169  1  0.40639542  0.80874968  0.20774573  1
  Pd  Pd170  1  0.60279280  -0.00195392  0.59774414  1
  Pd  Pd171  1  0.60086957  0.59626383  0.80715151  1
  Pd  Pd172  1  0.80663892  0.59885430  0.00132903  1
  Pd  Pd173  1  0.39187629  0.61187041  0.61296372  1
  Pd  Pd174  1  0.39891760  0.59930637  0.00030992  1
  Pd  Pd175  1  0.80019975  0.00198075  0.39964298  1
  Pd  Pd176  1  0.60268036  0.39220731  0.60080554  1
  Pd  Pd177  1  0.41019034  0.00574599  0.79378039  1
  Pd  Pd178  1  0.80156669  0.60595115  0.60454780  1
  Pd  Pd179  1  0.39740152  0.40395251  0.39513430  1
  Pd  Pd180  1  0.39640785  -0.00125959  0.60304491  1
  Pd  Pd181  1  0.39627357  0.20244768  0.59018330  1
  Pd  Pd182  1  0.19310623  0.00651557  0.79910089  1
  Pd  Pd183  1  0.20261250  0.01582332  0.60316764  1
  Pd  Pd184  1  0.19831854  0.79674619  0.80748788  1
  Pd  Pd185  1  0.00526202  0.59178429  0.80287000  1
  Pd  Pd186  1  0.39871749  0.59502096  0.19766191  1
  Pd  Pd187  1  0.80352028  0.80176371  0.39916463  1
  Pd  Pd188  1  0.00267084  0.19274566  0.39554600  1
  Pd  Pd189  1  0.80140023  0.79700221  0.60133163  1
  Pd  Pd190  1  -0.00657112  -0.00195676  0.59279043  1
  Pd  Pd191  1  0.00927761  0.19205058  0.01299783  1
  Pd  Pd192  1  0.00939072  0.19933981  0.19530589  1
  Pd  Pd193  1  0.59261832  0.20436550  0.59156032  1
  Pd  Pd194  1  0.60377920  0.40471474  -0.00512197  1
  Pd  Pd195  1  0.20148309  0.80843234  0.40424967  1
  Pd  Pd196  1  0.20283369  0.59850098  -0.00245818  1
  Pd  Pd197  1  0.79744183  0.39344279  0.60090715  1
  Pd  Pd198  1  0.00426213  0.80510959  0.80168982  1
  Pd  Pd199  1  0.60986071  -0.00202560  0.41917859  1
  Rh  Rh200  1  -0.00523530  0.39176711  0.40187965  1
  Rh  Rh201  1  0.59107001  0.78934255  0.39156414  1
  Rh  Rh202  1  -0.00377681  0.39590003  0.00054939  1
  Rh  Rh203  1  0.00676138  0.39835175  0.80626071  1
  Rh  Rh204  1  0.39621831  0.19404750  0.80583744  1
  Rh  Rh205  1  0.79434656  0.79337014  0.80584819  1
  Rh  Rh206  1  -0.01168820  0.00341478  0.20064715  1
  Rh  Rh207  1  0.00897871  0.79260466  0.20562713  1
  Rh  Rh208  1  0.79599038  0.19826516  -0.00681128  1
  Rh  Rh209  1  0.20119865  0.79443678  0.59424342  1
  Rh  Rh210  1  0.59897335  0.00241165  0.19637308  1
  Rh  Rh211  1  0.78675821  0.00718779  0.78691189  1
  Rh  Rh212  1  0.80537826  -0.00264133  0.01144970  1
  Rh  Rh213  1  0.60242118  0.40811104  0.40060528  1
  Rh  Rh214  1  0.20153901  0.19131009  0.40595792  1
  Rh  Rh215  1  0.39812774  0.79855330  0.79446199  1
  Rh  Rh216  1  0.78549387  0.81341849  0.19052568  1
  Rh  Rh217  1  0.19700673  0.59219445  0.18907341  1
  Rh  Rh218  1  0.19979216  0.59221028  0.41108411  1
  Rh  Rh219  1  0.79772534  0.80178228  0.00148914  1
  Rh  Rh220  1  0.39350784  0.40177880  0.20236143  1
  Rh  Rh221  1  0.60895616  0.60524940  0.59882997  1
  Rh  Rh222  1  0.21232402  -0.00220653  0.20058772  1
  Rh  Rh223  1  0.59692922  0.79258157  0.60349600  1
  Rh  Rh224  1  0.20335568  0.79995417  0.00051139  1
  Rh  Rh225  1  0.40784677  0.41070494  0.79954344  1
  Rh  Rh226  1  0.80818038  0.19366486  0.61007290  1
  Rh  Rh227  1  0.80159316  0.39537089  0.00589191  1
  Rh  Rh228  1  0.39542126  -0.00380473  0.39718534  1
  Rh  Rh229  1  -0.00357390  0.20516924  0.79384745  1
  Rh  Rh230  1  0.00583557  -0.01070155  0.80888093  1
  Rh  Rh231  1  0.60006476  0.19661403  0.40150502  1
  Rh  Rh232  1  0.60189760  0.59908793  -0.00025131  1
  Rh  Rh233  1  -0.00254370  0.80944458  -0.00408806  1
  Rh  Rh234  1  0.00243333  0.40536561  0.59142253  1
  Rh  Rh235  1  0.39679210  0.19353414  -0.00027309  1
  Rh  Rh236  1  0.40300646  0.40528120  0.00694424  1
  Rh  Rh237  1  0.40760707  0.60093544  0.39444054  1
  Rh  Rh238  1  0.20508544  0.39246605  0.00099561  1
  Rh  Rh239  1  0.59108311  0.00143509  -0.01484849  1
  Rh  Rh240  1  0.19045038  0.00679587  -0.00145744  1
  Rh  Rh241  1  0.79087746  0.38928686  0.79469803  1
  Rh  Rh242  1  0.00380661  0.19991760  0.60145549  1
  Rh  Rh243  1  0.59935464  0.39790072  0.19838483  1
  Rh  Rh244  1  0.60078530  0.80818118  0.80397680  1
  Rh  Rh245  1  0.59942420  0.80125008  0.00627132  1
  Rh  Rh246  1  0.81138756  0.59167779  0.19562836  1
  Rh  Rh247  1  0.59962291  0.60468575  0.20655586  1
  Rh  Rh248  1  0.39982762  0.19784142  0.40198828  1
  Rh  Rh249  1  -0.00141872  0.61280562  0.40044753  1
