# generated using pymatgen
data_ZrScNbPdRh
_symmetry_space_group_name_H-M   'P 1'
_cell_length_a   16.56049901
_cell_length_b   16.56036035
_cell_length_c   16.56010433
_cell_angle_alpha   90.01332130
_cell_angle_beta   89.97420979
_cell_angle_gamma   89.97507190
_symmetry_Int_Tables_number   1
_chemical_formula_structural   ZrScNbPdRh
_chemical_formula_sum   'Zr50 Sc50 Nb50 Pd50 Rh50'
_cell_volume   4541.57168399
_cell_formula_units_Z   50
loop_
 _symmetry_equiv_pos_site_id
 _symmetry_equiv_pos_as_xyz
  1  'x, y, z'
loop_
 _atom_site_type_symbol
 _atom_site_label
 _atom_site_symmetry_multiplicity
 _atom_site_fract_x
 _atom_site_fract_y
 _atom_site_fract_z
 _atom_site_occupancy
  Zr  Zr0  1  0.70123476  0.48579893  0.50728055  1
  Zr  Zr1  1  0.10679815  0.28989232  0.50272253  1
  Zr  Zr2  1  0.49736440  0.69843463  0.50128927  1
  Zr  Zr3  1  0.10640256  0.69444148  0.70160991  1
  Zr  Zr4  1  0.90328977  0.30190123  0.09660612  1
  Zr  Zr5  1  0.31427220  0.09048705  0.10233311  1
  Zr  Zr6  1  0.10053523  0.10305624  0.89877687  1
  Zr  Zr7  1  0.49474879  0.90515960  0.10604027  1
  Zr  Zr8  1  0.29532932  0.69074509  0.30149958  1
  Zr  Zr9  1  0.30392308  0.50050521  0.69528122  1
  Zr  Zr10  1  0.50598449  0.69516607  0.70244437  1
  Zr  Zr11  1  0.49526934  0.30174992  0.09874795  1
  Zr  Zr12  1  0.69264045  0.10659273  0.90704929  1
  Zr  Zr13  1  0.69576588  0.90345998  0.69934524  1
  Zr  Zr14  1  0.90063082  0.49973602  0.90031089  1
  Zr  Zr15  1  0.90342448  0.51320696  0.30304075  1
  Zr  Zr16  1  0.69855733  0.49670672  0.30116892  1
  Zr  Zr17  1  0.29942997  0.90708675  0.69876404  1
  Zr  Zr18  1  0.29728438  0.91133805  0.89935089  1
  Zr  Zr19  1  0.10135821  0.69645485  0.90153865  1
  Zr  Zr20  1  0.30029347  0.69826618  0.89918993  1
  Zr  Zr21  1  0.49432932  0.49395722  0.29932707  1
  Zr  Zr22  1  0.70003995  0.10363498  0.69710987  1
  Zr  Zr23  1  0.89379377  0.70207223  0.50195328  1
  Zr  Zr24  1  0.10037753  0.29265779  0.30466630  1
  Zr  Zr25  1  0.50546406  0.89488693  0.49551203  1
  Zr  Zr26  1  0.88634494  0.50068417  0.70281497  1
  Zr  Zr27  1  0.91065783  0.09700020  0.30295723  1
  Zr  Zr28  1  0.50243322  0.09845149  0.49858943  1
  Zr  Zr29  1  0.50976617  0.89184969  0.90244790  1
  Zr  Zr30  1  0.90033149  0.90768846  0.69063172  1
  Zr  Zr31  1  0.50728032  0.10030240  0.09279363  1
  Zr  Zr32  1  0.50159657  0.29716654  0.89762262  1
  Zr  Zr33  1  0.10709564  0.70554731  0.50178299  1
  Zr  Zr34  1  0.09981240  0.11154453  0.69033283  1
  Zr  Zr35  1  0.29695266  0.88521251  0.29914561  1
  Zr  Zr36  1  0.90613398  0.10350276  0.69340555  1
  Zr  Zr37  1  0.10282878  0.50582986  0.29165129  1
  Zr  Zr38  1  0.29485607  0.29944949  0.70264126  1
  Zr  Zr39  1  0.69950631  0.70275550  0.09918499  1
  Zr  Zr40  1  0.49869505  0.10540266  0.70637371  1
  Zr  Zr41  1  0.89500121  0.69854144  0.69911085  1
  Zr  Zr42  1  0.70991168  0.69443640  0.29680505  1
  Zr  Zr43  1  0.29786292  0.10070680  0.50373293  1
  Zr  Zr44  1  0.49215808  0.70307469  0.30902490  1
  Zr  Zr45  1  0.89403491  0.10736104  0.11140624  1
  Zr  Zr46  1  0.69740783  0.90454820  0.50096519  1
  Zr  Zr47  1  0.10118848  0.29649590  0.70742713  1
  Zr  Zr48  1  0.10375846  0.69954310  0.30090535  1
  Zr  Zr49  1  0.49707186  0.30580967  0.70787378  1
  Sc  Sc50  1  0.90420923  0.30816647  0.90621262  1
  Sc  Sc51  1  0.69575439  0.70697936  0.50306970  1
  Sc  Sc52  1  0.10385289  0.50327924  0.09366589  1
  Sc  Sc53  1  0.31009390  0.29623387  0.49900644  1
  Sc  Sc54  1  0.10888956  0.89720922  0.69144403  1
  Sc  Sc55  1  0.09564668  0.29877404  0.09302954  1
  Sc  Sc56  1  0.90719284  0.50036620  0.09003298  1
  Sc  Sc57  1  0.70172615  0.30162464  0.89650351  1
  Sc  Sc58  1  0.30234901  0.69208677  0.49722252  1
  Sc  Sc59  1  0.49790437  0.89907859  0.30743415  1
  Sc  Sc60  1  0.69847157  0.90060400  0.30646847  1
  Sc  Sc61  1  0.30569314  0.69571371  0.10337285  1
  Sc  Sc62  1  0.10135299  0.30323097  0.89698487  1
  Sc  Sc63  1  0.69324068  0.90010329  0.09703169  1
  Sc  Sc64  1  0.50228265  0.30009853  0.49765296  1
  Sc  Sc65  1  0.89070941  0.29911707  0.50442192  1
  Sc  Sc66  1  0.29810500  0.50067752  0.90699598  1
  Sc  Sc67  1  0.69695198  0.10838192  0.49911205  1
  Sc  Sc68  1  0.68226532  0.71100659  0.89815592  1
  Sc  Sc69  1  0.49255707  0.50193007  0.10193280  1
  Sc  Sc70  1  0.90120525  0.70356968  0.09900614  1
  Sc  Sc71  1  0.71098867  0.29653838  0.08681377  1
  Sc  Sc72  1  0.90409872  0.70213639  0.90535539  1
  Sc  Sc73  1  0.29068188  0.69524786  0.69760654  1
  Sc  Sc74  1  0.31020195  0.10351025  0.30250829  1
  Sc  Sc75  1  0.69706572  0.29800507  0.31113300  1
  Sc  Sc76  1  0.08716806  0.09876015  0.09891439  1
  Sc  Sc77  1  0.89412610  0.49774107  0.49944937  1
  Sc  Sc78  1  0.30015848  0.09778011  0.70617461  1
  Sc  Sc79  1  0.29913985  0.30553995  0.89936771  1
  Sc  Sc80  1  0.09691897  0.90922327  0.90616870  1
  Sc  Sc81  1  0.69589003  0.69414471  0.69841912  1
  Sc  Sc82  1  0.90776754  0.90270641  0.90428362  1
  Sc  Sc83  1  0.69128259  0.50413937  0.10462272  1
  Sc  Sc84  1  0.91145137  0.09572008  0.89428836  1
  Sc  Sc85  1  0.89698353  0.28787927  0.29833365  1
  Sc  Sc86  1  0.89143667  0.91393482  0.30561604  1
  Sc  Sc87  1  0.09370501  0.49778706  0.48843763  1
  Sc  Sc88  1  0.49693163  0.69329310  0.09313344  1
  Sc  Sc89  1  0.70307669  0.49590379  0.88967069  1
  Sc  Sc90  1  0.30537731  0.30745866  0.09952971  1
  Sc  Sc91  1  0.49886481  0.09778279  0.29424357  1
  Sc  Sc92  1  0.49887477  0.29762926  0.29958898  1
  Sc  Sc93  1  0.69811503  0.30473992  0.69076887  1
  Sc  Sc94  1  0.71369829  0.10029170  0.29924721  1
  Sc  Sc95  1  0.09444958  0.90213686  0.09464847  1
  Sc  Sc96  1  0.10199789  0.90278841  0.50683570  1
  Sc  Sc97  1  0.09524060  0.69493115  0.10029504  1
  Sc  Sc98  1  0.49727224  0.69096932  0.90175999  1
  Sc  Sc99  1  0.50264090  0.90877919  0.69709345  1
  Nb  Nb100  1  0.90298731  0.70337190  0.29874367  1
  Nb  Nb101  1  0.30004443  0.30075890  0.29682848  1
  Nb  Nb102  1  0.90368456  0.29359409  0.69722113  1
  Nb  Nb103  1  0.69294318  0.49948095  0.69967856  1
  Nb  Nb104  1  0.89985722  0.89829388  0.09422084  1
  Nb  Nb105  1  0.70015478  0.90220173  0.89948532  1
  Nb  Nb106  1  0.31262542  0.49255628  0.49770531  1
  Nb  Nb107  1  0.10191599  0.49780224  0.70413604  1
  Nb  Nb108  1  0.09857651  0.50102929  0.89348444  1
  Nb  Nb109  1  0.09959561  0.89952344  0.30346521  1
  Nb  Nb110  1  0.69948814  0.10301125  0.09783868  1
  Nb  Nb111  1  0.90154194  0.90491778  0.50039483  1
  Nb  Nb112  1  0.29946717  0.49446602  0.29500656  1
  Nb  Nb113  1  0.48549719  0.50194822  0.50688805  1
  Nb  Nb114  1  0.29733911  0.90121269  0.50449016  1
  Nb  Nb115  1  0.09925839  0.09879392  0.30396457  1
  Nb  Nb116  1  0.70110855  0.29607601  0.49921057  1
  Nb  Nb117  1  0.10098653  0.10387044  0.49252684  1
  Nb  Nb118  1  0.90984914  0.08787574  0.50067732  1
  Nb  Nb119  1  0.49912988  0.49691519  0.89506736  1
  Nb  Nb120  1  0.29816607  0.09426671  0.90364707  1
  Nb  Nb121  1  0.50539060  0.50082014  0.69979915  1
  Nb  Nb122  1  0.50064340  0.10256953  0.89927611  1
  Nb  Nb123  1  0.30322564  0.49813771  0.10921911  1
  Nb  Nb124  1  0.29730587  0.90047141  0.09858320  1
  Nb  Nb125  1  0.39872571  0.80091994  0.60344260  1
  Nb  Nb126  1  0.79492080  0.60333587  -0.00277244  1
  Nb  Nb127  1  0.59581059  0.59227367  0.40396122  1
  Nb  Nb128  1  0.20643722  0.19049306  0.00291047  1
  Nb  Nb129  1  0.59375557  0.40201396  -0.00525696  1
  Nb  Nb130  1  0.39868111  0.80277960  0.79591141  1
  Nb  Nb131  1  0.79785526  0.00098758  0.00292825  1
  Nb  Nb132  1  0.00338964  0.40092768  0.60774756  1
  Nb  Nb133  1  0.20944373  0.39957339  0.39687294  1
  Nb  Nb134  1  0.19727268  0.00039322  0.20523812  1
  Nb  Nb135  1  -0.00121908  0.80010118  0.79459347  1
  Nb  Nb136  1  0.80136831  0.80778588  0.80048510  1
  Nb  Nb137  1  0.20533160  0.80378197  0.00180481  1
  Nb  Nb138  1  -0.00238737  0.40116731  0.20422504  1
  Nb  Nb139  1  -0.00392667  0.80439654  0.39822198  1
  Nb  Nb140  1  0.80546039  0.40187342  0.20034242  1
  Nb  Nb141  1  0.00207599  0.59416490  0.60512595  1
  Nb  Nb142  1  0.59832673  0.79566864  0.20228176  1
  Nb  Nb143  1  -0.00512604  0.80424606  0.20919898  1
  Nb  Nb144  1  0.20183073  0.19383003  0.19845687  1
  Nb  Nb145  1  0.60576269  0.19648413  0.19202965  1
  Nb  Nb146  1  0.19799974  0.40211085  0.59559630  1
  Nb  Nb147  1  0.19643945  0.00173719  0.39625615  1
  Nb  Nb148  1  0.80591845  0.20003419  0.79362900  1
  Nb  Nb149  1  0.60071428  0.00546829  0.80746115  1
  Pd  Pd150  1  0.39761035  0.60213215  0.79690620  1
  Pd  Pd151  1  0.01059052  -0.00779306  0.78836378  1
  Pd  Pd152  1  0.60466210  0.01054454  0.39263073  1
  Pd  Pd153  1  0.00190156  -0.00771691  0.19768924  1
  Pd  Pd154  1  0.59145755  0.39607231  0.59717266  1
  Pd  Pd155  1  0.19548541  0.58698450  0.58878120  1
  Pd  Pd156  1  0.40508756  0.20140205  0.39823332  1
  Pd  Pd157  1  0.40131194  0.20186851  0.60309438  1
  Pd  Pd158  1  0.40539451  0.79606935  0.19712595  1
  Pd  Pd159  1  0.58867503  0.60773048  0.20891826  1
  Pd  Pd160  1  0.80516130  0.19240685  0.40728217  1
  Pd  Pd161  1  -0.00093682  0.60386948  0.79788277  1
  Pd  Pd162  1  -0.00116798  0.39245433  0.39972963  1
  Pd  Pd163  1  0.61035820  0.38499184  0.18973390  1
  Pd  Pd164  1  0.38995462  0.19790733  0.80813378  1
  Pd  Pd165  1  0.20553595  0.58818710  0.40683574  1
  Pd  Pd166  1  0.79666938  0.00437351  0.80998259  1
  Pd  Pd167  1  0.19002340  0.00580205  0.79242151  1
  Pd  Pd168  1  0.20487977  0.60292224  0.00525528  1
  Pd  Pd169  1  0.81375250  0.19154755  -0.01274112  1
  Pd  Pd170  1  0.39306665  -0.00550841  0.39807310  1
  Pd  Pd171  1  0.00098501  0.79447966  0.59965735  1
  Pd  Pd172  1  0.40928130  -0.00311048  -0.00738044  1
  Pd  Pd173  1  0.78987885  0.59879505  0.41082623  1
  Pd  Pd174  1  0.19850913  0.39509890  -0.00021422  1
  Pd  Pd175  1  0.60366793  0.59515421  0.59199774  1
  Pd  Pd176  1  0.80068692  0.80961952  0.20200888  1
  Pd  Pd177  1  0.80246024  0.80553745  0.40013728  1
  Pd  Pd178  1  -0.01004268  0.20439118  0.40801066  1
  Pd  Pd179  1  0.79875859  0.38826717  0.79324561  1
  Pd  Pd180  1  0.59195134  0.40254686  0.40755416  1
  Pd  Pd181  1  0.80985450  0.59327172  0.18688986  1
  Pd  Pd182  1  0.79886422  0.80157300  -0.00837055  1
  Pd  Pd183  1  0.60541539  0.00046416  0.20669632  1
  Pd  Pd184  1  0.79548634  0.00778751  0.59113010  1
  Pd  Pd185  1  -0.00342409  0.39763492  0.79745249  1
  Pd  Pd186  1  0.39457150  0.40581124  0.80329667  1
  Pd  Pd187  1  0.39292682  0.20168380  -0.00447326  1
  Pd  Pd188  1  -0.00026804  0.61053860  0.40880691  1
  Pd  Pd189  1  0.40611910  -0.00246001  0.59657860  1
  Pd  Pd190  1  0.59526763  0.20738060  0.60033906  1
  Pd  Pd191  1  0.80770472  0.39590299  0.39236005  1
  Pd  Pd192  1  0.79301258  0.80231600  0.60464457  1
  Pd  Pd193  1  0.18996272  0.80180652  0.18805352  1
  Pd  Pd194  1  0.19151489  0.39083947  0.19927181  1
  Pd  Pd195  1  0.60422270  0.59135729  -0.00887908  1
  Pd  Pd196  1  0.19750631  0.80558850  0.80817101  1
  Pd  Pd197  1  0.39631687  0.80097803  -0.00464490  1
  Pd  Pd198  1  0.78846133  0.61426111  0.81111351  1
  Pd  Pd199  1  0.79448067  -0.00813028  0.19196388  1
  Rh  Rh200  1  0.78669628  0.41765904  0.00750556  1
  Rh  Rh201  1  0.01048398  0.79826477  0.00050677  1
  Rh  Rh202  1  0.60958022  0.78746565  0.38894200  1
  Rh  Rh203  1  -0.00234720  0.60142506  0.19565719  1
  Rh  Rh204  1  -0.00444261  0.59821230  -0.00404530  1
  Rh  Rh205  1  0.38862427  0.80324727  0.41224134  1
  Rh  Rh206  1  0.39886464  0.39569083  0.39579297  1
  Rh  Rh207  1  0.60245088  -0.00304819  -0.00393658  1
  Rh  Rh208  1  0.39813950  0.60007235  0.20250293  1
  Rh  Rh209  1  0.78890072  0.21116907  0.20195773  1
  Rh  Rh210  1  0.00783756  -0.00702966  0.40801251  1
  Rh  Rh211  1  0.21019168  0.19723195  0.39210798  1
  Rh  Rh212  1  0.40057941  0.60540427  0.60705365  1
  Rh  Rh213  1  0.00293276  0.19915962  -0.00483245  1
  Rh  Rh214  1  0.59324361  0.80144690  0.60401002  1
  Rh  Rh215  1  0.19513882  0.01114820  0.59513224  1
  Rh  Rh216  1  0.20329656  0.40748766  0.79862899  1
  Rh  Rh217  1  -0.00631427  0.20796802  0.80785630  1
  Rh  Rh218  1  0.59648766  0.21113336  0.00394039  1
  Rh  Rh219  1  0.19901249  0.80675294  0.40933460  1
  Rh  Rh220  1  0.40492882  0.40758739  -0.00239912  1
  Rh  Rh221  1  0.59927143  0.80778183  0.79146485  1
  Rh  Rh222  1  0.39566835  0.59059321  0.00255806  1
  Rh  Rh223  1  0.40380742  0.20442489  0.19930903  1
  Rh  Rh224  1  0.79791994  0.00489634  0.40855330  1
  Rh  Rh225  1  0.01004712  0.00230395  0.59821582  1
  Rh  Rh226  1  0.79668878  0.59622765  0.59618039  1
  Rh  Rh227  1  0.21185097  0.79756500  0.59579047  1
  Rh  Rh228  1  0.80298528  0.19712853  0.59890449  1
  Rh  Rh229  1  -0.00486373  0.20435260  0.58904828  1
  Rh  Rh230  1  0.00939324  0.20614169  0.19925397  1
  Rh  Rh231  1  0.59897055  0.19704284  0.39236098  1
  Rh  Rh232  1  0.39832187  0.39782823  0.20224608  1
  Rh  Rh233  1  0.41099333  -0.00298368  0.80876315  1
  Rh  Rh234  1  0.20492447  0.59923162  0.19277566  1
  Rh  Rh235  1  0.80167699  0.39577974  0.60580615  1
  Rh  Rh236  1  -0.01387494  0.00783895  0.00921188  1
  Rh  Rh237  1  0.20606755  0.19470446  0.81095939  1
  Rh  Rh238  1  0.40088120  0.39479849  0.60531794  1
  Rh  Rh239  1  0.40084832  0.59172790  0.39527919  1
  Rh  Rh240  1  0.19913569  0.00273545  0.01316056  1
  Rh  Rh241  1  0.20424810  0.59061364  0.80435621  1
  Rh  Rh242  1  0.60830009  0.19943648  0.79752126  1
  Rh  Rh243  1  0.59364428  0.80019412  0.01335431  1
  Rh  Rh244  1  0.20848263  0.20136454  0.60034585  1
  Rh  Rh245  1  0.60062130  0.40365932  0.80129356  1
  Rh  Rh246  1  0.01275195  0.40608599  0.00026026  1
  Rh  Rh247  1  0.59703823  0.00609940  0.60192115  1
  Rh  Rh248  1  0.60103834  0.59184239  0.80253053  1
  Rh  Rh249  1  0.39233756  -0.01004106  0.21163718  1
