# generated using pymatgen
data_ZrScNbPdRh
_symmetry_space_group_name_H-M   'P 1'
_cell_length_a   16.55574015
_cell_length_b   16.55814737
_cell_length_c   16.55902709
_cell_angle_alpha   89.99386912
_cell_angle_beta   90.00178124
_cell_angle_gamma   89.94934221
_symmetry_Int_Tables_number   1
_chemical_formula_structural   ZrScNbPdRh
_chemical_formula_sum   'Zr50 Sc50 Nb50 Pd50 Rh50'
_cell_volume   4539.36379018
_cell_formula_units_Z   50
loop_
 _symmetry_equiv_pos_site_id
 _symmetry_equiv_pos_as_xyz
  1  'x, y, z'
loop_
 _atom_site_type_symbol
 _atom_site_label
 _atom_site_symmetry_multiplicity
 _atom_site_fract_x
 _atom_site_fract_y
 _atom_site_fract_z
 _atom_site_occupancy
  Zr  Zr0  1  0.09952667  0.70274346  0.89557952  1
  Zr  Zr1  1  0.50766376  0.49943064  0.89759581  1
  Zr  Zr2  1  0.90367670  0.30310344  0.70325086  1
  Zr  Zr3  1  0.89772564  0.90661257  0.89883472  1
  Zr  Zr4  1  0.28617504  0.70127636  0.89208555  1
  Zr  Zr5  1  0.30745776  0.90292990  0.30108221  1
  Zr  Zr6  1  0.30415656  0.29923223  0.29764939  1
  Zr  Zr7  1  0.89747816  0.09982567  0.90010849  1
  Zr  Zr8  1  0.28827386  0.49961007  0.10329455  1
  Zr  Zr9  1  0.48785731  0.89867502  0.09713582  1
  Zr  Zr10  1  0.29837388  0.10428925  0.91455486  1
  Zr  Zr11  1  0.89936452  0.89614994  0.29519375  1
  Zr  Zr12  1  0.09527101  0.90473667  0.29889856  1
  Zr  Zr13  1  0.30453835  0.29640266  0.90219702  1
  Zr  Zr14  1  0.10165469  0.69335871  0.50016943  1
  Zr  Zr15  1  0.29799703  0.30405944  0.50802679  1
  Zr  Zr16  1  0.50982766  0.30067680  0.49974202  1
  Zr  Zr17  1  0.30745398  0.69166106  0.49717275  1
  Zr  Zr18  1  0.70251405  0.70442899  0.89755787  1
  Zr  Zr19  1  0.10557004  0.69448578  0.70900427  1
  Zr  Zr20  1  0.70723769  0.90570701  0.89463551  1
  Zr  Zr21  1  0.50215769  0.50324128  0.50395048  1
  Zr  Zr22  1  0.71107521  0.69253490  0.69291382  1
  Zr  Zr23  1  0.69655922  0.49780872  0.89346540  1
  Zr  Zr24  1  0.89677284  0.29505376  0.10247205  1
  Zr  Zr25  1  0.71156544  0.69777886  0.30060550  1
  Zr  Zr26  1  0.09788430  0.30134778  0.69548776  1
  Zr  Zr27  1  0.31384221  0.89974009  0.49864762  1
  Zr  Zr28  1  0.30356338  0.71473513  0.09128308  1
  Zr  Zr29  1  0.09512182  0.89604439  0.89605515  1
  Zr  Zr30  1  0.29982849  0.90770746  0.68936160  1
  Zr  Zr31  1  0.50092637  0.91680851  0.30248898  1
  Zr  Zr32  1  0.49834998  0.29969803  0.30042711  1
  Zr  Zr33  1  0.30783112  0.29297700  0.69952602  1
  Zr  Zr34  1  0.49985719  0.10296752  0.30523785  1
  Zr  Zr35  1  0.10620745  0.69477887  0.09600599  1
  Zr  Zr36  1  0.09280670  0.10034079  0.50105751  1
  Zr  Zr37  1  0.10026682  0.90443343  0.11023909  1
  Zr  Zr38  1  0.10106783  0.49138008  0.29774158  1
  Zr  Zr39  1  0.49966919  0.69683035  0.49567831  1
  Zr  Zr40  1  0.08670961  0.50518149  0.70190407  1
  Zr  Zr41  1  0.70295938  0.50047246  0.09682642  1
  Zr  Zr42  1  0.90380500  0.29784038  0.30876780  1
  Zr  Zr43  1  0.10454286  0.09689821  0.10212870  1
  Zr  Zr44  1  0.70802301  0.90385092  0.10887745  1
  Zr  Zr45  1  0.29408928  0.91443992  0.10360471  1
  Zr  Zr46  1  0.69926687  0.10219178  0.90119363  1
  Zr  Zr47  1  0.30141204  0.89444760  0.91249698  1
  Zr  Zr48  1  0.30578885  0.29981423  0.09679330  1
  Zr  Zr49  1  0.50587552  0.69448919  0.69473283  1
  Sc  Sc50  1  0.49290807  0.09914235  0.10216524  1
  Sc  Sc51  1  0.69709795  0.29472189  0.09448655  1
  Sc  Sc52  1  0.09132992  0.90482674  0.50507774  1
  Sc  Sc53  1  0.69459155  0.29300016  0.50356496  1
  Sc  Sc54  1  0.49744488  0.30132407  0.91091751  1
  Sc  Sc55  1  0.49798813  0.10627114  0.90595422  1
  Sc  Sc56  1  0.89991844  0.70804463  0.89976679  1
  Sc  Sc57  1  0.49987696  0.30543313  0.69161258  1
  Sc  Sc58  1  0.09142516  0.09906392  0.30187804  1
  Sc  Sc59  1  0.89967557  0.49628293  0.49740775  1
  Sc  Sc60  1  0.90346514  0.50202389  0.89163273  1
  Sc  Sc61  1  0.50536031  0.90772162  0.69452685  1
  Sc  Sc62  1  0.09964315  0.70659625  0.29332469  1
  Sc  Sc63  1  0.70566498  0.90357154  0.70099919  1
  Sc  Sc64  1  0.09419749  0.90250707  0.70145622  1
  Sc  Sc65  1  0.50417783  0.49767880  0.29559876  1
  Sc  Sc66  1  0.09071104  0.09407418  0.69123557  1
  Sc  Sc67  1  0.09710971  0.29841222  0.49278806  1
  Sc  Sc68  1  0.69787076  0.09278705  0.69370059  1
  Sc  Sc69  1  0.50150981  0.69755757  0.10463840  1
  Sc  Sc70  1  0.50848680  0.70235609  0.89697890  1
  Sc  Sc71  1  0.09967574  0.51018147  0.90173712  1
  Sc  Sc72  1  0.50377178  0.90290997  0.89460480  1
  Sc  Sc73  1  0.69610854  0.50511832  0.49849401  1
  Sc  Sc74  1  0.89299531  0.90100092  0.50073767  1
  Sc  Sc75  1  0.89821692  0.90800099  0.70110095  1
  Sc  Sc76  1  0.89697692  0.10305438  0.30224702  1
  Sc  Sc77  1  0.70717322  0.10458642  0.09851136  1
  Sc  Sc78  1  0.09260805  0.29447327  0.90175462  1
  Sc  Sc79  1  0.29943723  0.09802264  0.51400960  1
  Sc  Sc80  1  0.70531318  0.69543350  0.10212644  1
  Sc  Sc81  1  0.88928759  0.48853681  0.30214366  1
  Sc  Sc82  1  0.30516152  0.49334534  0.69183074  1
  Sc  Sc83  1  0.69243209  0.30372648  0.90498658  1
  Sc  Sc84  1  0.89940382  0.90210449  0.09844188  1
  Sc  Sc85  1  0.30923158  0.10086823  0.30199673  1
  Sc  Sc86  1  0.09569557  0.09797994  0.90704104  1
  Sc  Sc87  1  0.30367027  0.69367618  0.29607339  1
  Sc  Sc88  1  0.88286961  0.69733085  0.49902291  1
  Sc  Sc89  1  0.70074868  0.29989363  0.31081684  1
  Sc  Sc90  1  0.10598205  0.49462216  0.49785554  1
  Sc  Sc91  1  0.49805196  0.69317258  0.29887744  1
  Sc  Sc92  1  0.29920391  0.49145319  0.89821512  1
  Sc  Sc93  1  0.29927471  0.50036559  0.29563170  1
  Sc  Sc94  1  0.50894508  0.49664897  0.10527854  1
  Sc  Sc95  1  0.09461111  0.30744959  0.10046134  1
  Sc  Sc96  1  0.50890644  0.09966317  0.50199928  1
  Sc  Sc97  1  0.69760479  0.49933854  0.29954830  1
  Sc  Sc98  1  0.89014987  0.70301119  0.09815483  1
  Sc  Sc99  1  0.70477316  0.09744479  0.49930336  1
  Nb  Nb100  1  0.70010721  0.70330690  0.49933852  1
  Nb  Nb101  1  0.90304674  0.69529643  0.30087283  1
  Nb  Nb102  1  0.29822921  0.70157978  0.70161105  1
  Nb  Nb103  1  0.89430515  0.29824308  0.89788451  1
  Nb  Nb104  1  0.29293223  0.10325283  0.09921479  1
  Nb  Nb105  1  0.89219256  0.50170212  0.69896742  1
  Nb  Nb106  1  0.68790358  0.08511714  0.29805050  1
  Nb  Nb107  1  0.30438933  0.09996617  0.70310147  1
  Nb  Nb108  1  0.50037734  0.89650014  0.49378187  1
  Nb  Nb109  1  0.89973375  0.10827862  0.51454990  1
  Nb  Nb110  1  0.30451322  0.50010689  0.49274648  1
  Nb  Nb111  1  0.10044731  0.29343731  0.30479465  1
  Nb  Nb112  1  0.89893229  0.10350591  0.69269335  1
  Nb  Nb113  1  0.90441062  0.49256397  0.09812319  1
  Nb  Nb114  1  0.89556811  0.29296928  0.49983924  1
  Nb  Nb115  1  0.70256088  0.89710650  0.49826907  1
  Nb  Nb116  1  0.90226756  0.68692677  0.69115741  1
  Nb  Nb117  1  0.69946088  0.90877560  0.30213295  1
  Nb  Nb118  1  0.09152460  0.50262419  0.10207477  1
  Nb  Nb119  1  0.69909604  0.49304970  0.70636777  1
  Nb  Nb120  1  0.69549907  0.30782717  0.70537649  1
  Nb  Nb121  1  0.49918418  0.10290271  0.70542910  1
  Nb  Nb122  1  0.51463176  0.49857926  0.69980022  1
  Nb  Nb123  1  0.89813765  0.10444718  0.09638591  1
  Nb  Nb124  1  0.50214932  0.29755924  0.10591445  1
  Nb  Nb125  1  0.60504223  0.80806104  0.20612429  1
  Nb  Nb126  1  0.20215010  0.80421990  0.40519656  1
  Nb  Nb127  1  0.20091413  -0.00425479  0.40269975  1
  Nb  Nb128  1  0.39602712  0.79967349  0.79351741  1
  Nb  Nb129  1  0.80640317  0.40040255  -0.00181633  1
  Nb  Nb130  1  -0.00408256  0.59291316  0.19726788  1
  Nb  Nb131  1  -0.00231104  0.78910376  0.60286070  1
  Nb  Nb132  1  0.39787218  0.60076740  -0.00563883  1
  Nb  Nb133  1  0.40011743  0.60258587  0.79781188  1
  Nb  Nb134  1  0.19980823  0.20270992  0.20141402  1
  Nb  Nb135  1  0.79911451  0.39889040  0.60907224  1
  Nb  Nb136  1  0.60127198  0.20221249  0.79505412  1
  Nb  Nb137  1  0.60616169  0.80026861  0.58899942  1
  Nb  Nb138  1  0.60507079  0.80608809  0.39882737  1
  Nb  Nb139  1  0.39432990  0.00354395  0.79950536  1
  Nb  Nb140  1  0.60382105  -0.00373568  0.00358664  1
  Nb  Nb141  1  0.39921772  0.40057934  0.40514339  1
  Nb  Nb142  1  0.20559435  0.00577832  0.80007491  1
  Nb  Nb143  1  -0.00336552  0.60063100  0.39075117  1
  Nb  Nb144  1  0.59787264  0.19648929  0.20443802  1
  Nb  Nb145  1  0.20018454  0.79562949  0.59780493  1
  Nb  Nb146  1  0.79747466  0.20535914  0.79560116  1
  Nb  Nb147  1  0.19742899  0.39186007  0.79527211  1
  Nb  Nb148  1  0.20281178  0.19607021  0.79719078  1
  Nb  Nb149  1  0.60570563  0.80754550  0.00633736  1
  Pd  Pd150  1  0.79144512  0.20697364  0.60821334  1
  Pd  Pd151  1  -0.01130158  0.79577231  0.78922840  1
  Pd  Pd152  1  -0.00595570  0.79082207  0.19149983  1
  Pd  Pd153  1  0.39983106  0.59380045  0.60688717  1
  Pd  Pd154  1  0.59825983  0.80339702  0.79164825  1
  Pd  Pd155  1  0.80664890  0.00604356  0.40325408  1
  Pd  Pd156  1  -0.00738854  0.39787048  0.58975387  1
  Pd  Pd157  1  -0.00002785  -0.00073437  0.00527083  1
  Pd  Pd158  1  0.39667889  0.20214993  0.41399721  1
  Pd  Pd159  1  0.19542893  0.60453943  0.38899339  1
  Pd  Pd160  1  0.59723030  0.60825806  0.00335775  1
  Pd  Pd161  1  0.60158383  0.60305442  0.39339616  1
  Pd  Pd162  1  0.20489529  0.59530020  0.60406304  1
  Pd  Pd163  1  0.20493951  0.59675296  -0.00188826  1
  Pd  Pd164  1  -0.00287846  0.40014601  -0.00960625  1
  Pd  Pd165  1  0.00098889  0.19171523  0.79742243  1
  Pd  Pd166  1  0.39933267  0.59361288  0.18969310  1
  Pd  Pd167  1  0.19691917  0.39157132  0.19967503  1
  Pd  Pd168  1  0.00013926  0.79316995  0.40991976  1
  Pd  Pd169  1  0.00521908  0.40338498  0.80788272  1
  Pd  Pd170  1  0.78887481  0.19902408  0.21042204  1
  Pd  Pd171  1  -0.00894139  0.60488143  0.00209613  1
  Pd  Pd172  1  0.79214184  0.39897116  0.41435682  1
  Pd  Pd173  1  0.40261301  0.40436624  0.79605455  1
  Pd  Pd174  1  0.80878778  0.79781510  0.79012139  1
  Pd  Pd175  1  0.00012410  0.20004461  0.00328865  1
  Pd  Pd176  1  0.19340098  0.19479710  0.60428082  1
  Pd  Pd177  1  0.40676110  0.41026005  0.01077991  1
  Pd  Pd178  1  0.79296428  0.39227023  0.19466728  1
  Pd  Pd179  1  0.80383205  0.60230220  0.80566520  1
  Pd  Pd180  1  0.80029712  0.80271349  0.39556385  1
  Pd  Pd181  1  -0.00539950  0.59840856  0.58650257  1
  Pd  Pd182  1  0.19804134  0.40634162  0.60414544  1
  Pd  Pd183  1  0.79387430  0.19003224  0.39673288  1
  Pd  Pd184  1  0.80840674  0.00834192  0.19969359  1
  Pd  Pd185  1  0.80771909  0.59305922  0.20143064  1
  Pd  Pd186  1  0.18930822  0.39810074  -0.00780340  1
  Pd  Pd187  1  0.60969100  0.39035483  0.20118163  1
  Pd  Pd188  1  -0.00372480  0.39776237  0.20742249  1
  Pd  Pd189  1  0.40928940  0.19595792  0.59508426  1
  Pd  Pd190  1  0.40495452  0.79874139  0.60433950  1
  Pd  Pd191  1  0.80601354  0.59283827  -0.00759331  1
  Pd  Pd192  1  0.20268101  0.18971568  0.39629306  1
  Pd  Pd193  1  0.00537933  0.19847642  0.19965028  1
  Pd  Pd194  1  0.20603533  0.79895005  0.20650547  1
  Pd  Pd195  1  0.60154258  -0.00447390  0.59467257  1
  Pd  Pd196  1  0.20572225  0.39777947  0.39879200  1
  Pd  Pd197  1  0.00013218  0.80105202  0.00743124  1
  Pd  Pd198  1  -0.00855324  0.00381544  0.40409814  1
  Pd  Pd199  1  0.40711878  0.79984920  0.20862877  1
  Rh  Rh200  1  0.39512986  0.00882772  0.19592224  1
  Rh  Rh201  1  0.19403338  0.60137288  0.20050224  1
  Rh  Rh202  1  0.80132063  -0.00167122  0.59719369  1
  Rh  Rh203  1  0.80171465  0.80275397  0.60549481  1
  Rh  Rh204  1  -0.01179694  0.00890841  0.19548348  1
  Rh  Rh205  1  0.19326918  -0.00317012  0.59806348  1
  Rh  Rh206  1  0.59642115  0.40264671  0.40229955  1
  Rh  Rh207  1  -0.00811775  0.60566245  0.80373079  1
  Rh  Rh208  1  0.39882894  0.19752273  0.19329778  1
  Rh  Rh209  1  0.80344861  0.59404015  0.40028068  1
  Rh  Rh210  1  0.20440519  0.01352252  0.21511269  1
  Rh  Rh211  1  0.19169261  -0.00699322  -0.00656702  1
  Rh  Rh212  1  0.41417027  0.00708491  0.60154246  1
  Rh  Rh213  1  0.40525567  0.20021983  0.00857135  1
  Rh  Rh214  1  0.40379153  0.00405608  -0.00298493  1
  Rh  Rh215  1  0.79438179  0.80431442  -0.00250851  1
  Rh  Rh216  1  0.18779913  0.80882390  0.00645728  1
  Rh  Rh217  1  0.80198956  0.39633424  0.80266678  1
  Rh  Rh218  1  0.40456917  0.19739548  0.80268489  1
  Rh  Rh219  1  -0.01131356  -0.00632255  0.59702083  1
  Rh  Rh220  1  0.60205515  -0.00211034  0.41176318  1
  Rh  Rh221  1  0.39731691  0.01251504  0.41226308  1
  Rh  Rh222  1  0.00195836  0.00759419  0.79899386  1
  Rh  Rh223  1  0.40274907  0.79272208  0.39250739  1
  Rh  Rh224  1  0.40110720  0.40451927  0.20130280  1
  Rh  Rh225  1  0.80587055  0.01402683  0.79163678  1
  Rh  Rh226  1  0.00242273  0.20846513  0.59619979  1
  Rh  Rh227  1  0.60406081  0.39973505  0.00517848  1
  Rh  Rh228  1  0.40608881  0.40486955  0.59406781  1
  Rh  Rh229  1  0.20648673  0.81723986  0.78996781  1
  Rh  Rh230  1  0.59502299  0.19367474  0.00736009  1
  Rh  Rh231  1  0.79494924  0.58688946  0.59497046  1
  Rh  Rh232  1  0.79915041  0.00182123  0.00493920  1
  Rh  Rh233  1  0.60998683  0.60000868  0.60233738  1
  Rh  Rh234  1  0.60626348  0.60722342  0.20146778  1
  Rh  Rh235  1  -0.00494413  0.19919266  0.40612548  1
  Rh  Rh236  1  0.60889550  0.19279273  0.39354752  1
  Rh  Rh237  1  0.59636037  0.00270354  0.18948630  1
  Rh  Rh238  1  0.41144772  0.78848890  -0.01205463  1
  Rh  Rh239  1  0.60880165  0.40519384  0.59737191  1
  Rh  Rh240  1  0.59122345  0.01195297  0.80914863  1
  Rh  Rh241  1  0.80209297  0.20731795  -0.00692326  1
  Rh  Rh242  1  0.20919008  0.58032871  0.79210692  1
  Rh  Rh243  1  0.19319894  0.20882452  0.00483945  1
  Rh  Rh244  1  0.60164379  0.19781763  0.60984270  1
  Rh  Rh245  1  -0.00029121  0.39901655  0.40116089  1
  Rh  Rh246  1  0.80010215  0.80098150  0.20576069  1
  Rh  Rh247  1  0.60172012  0.60223418  0.79506502  1
  Rh  Rh248  1  0.58840407  0.38921013  0.80316827  1
  Rh  Rh249  1  0.40200508  0.58821418  0.39293834  1
