# generated using pymatgen
data_ZrScNbPdRh
_symmetry_space_group_name_H-M   'P 1'
_cell_length_a   16.56133180
_cell_length_b   16.56494333
_cell_length_c   16.55997690
_cell_angle_alpha   89.97007751
_cell_angle_beta   89.96086840
_cell_angle_gamma   89.99411623
_symmetry_Int_Tables_number   1
_chemical_formula_structural   ZrScNbPdRh
_chemical_formula_sum   'Zr50 Sc50 Nb50 Pd50 Rh50'
_cell_volume   4543.02133471
_cell_formula_units_Z   50
loop_
 _symmetry_equiv_pos_site_id
 _symmetry_equiv_pos_as_xyz
  1  'x, y, z'
loop_
 _atom_site_type_symbol
 _atom_site_label
 _atom_site_symmetry_multiplicity
 _atom_site_fract_x
 _atom_site_fract_y
 _atom_site_fract_z
 _atom_site_occupancy
  Zr  Zr0  1  0.70631066  0.09834434  0.50642839  1
  Zr  Zr1  1  0.69745893  0.50212028  0.09715776  1
  Zr  Zr2  1  0.89158594  0.09483404  0.69313368  1
  Zr  Zr3  1  0.89161220  0.89912213  0.10697012  1
  Zr  Zr4  1  0.30282437  0.30305765  0.70088945  1
  Zr  Zr5  1  0.29088352  0.09796853  0.89650280  1
  Zr  Zr6  1  0.49760125  0.10647798  0.50588680  1
  Zr  Zr7  1  0.09757781  0.50786742  0.70708966  1
  Zr  Zr8  1  0.30557762  0.89432297  0.09613179  1
  Zr  Zr9  1  0.10756864  0.09324753  0.70509828  1
  Zr  Zr10  1  0.10551960  0.49421782  0.29670841  1
  Zr  Zr11  1  0.10403813  0.69868647  0.89360125  1
  Zr  Zr12  1  0.10308401  0.50834372  0.90460228  1
  Zr  Zr13  1  0.09348106  0.50269193  0.10057543  1
  Zr  Zr14  1  0.09777528  0.09846438  0.90083002  1
  Zr  Zr15  1  0.50058901  0.10051095  0.30073100  1
  Zr  Zr16  1  0.50022847  0.89165359  0.50362955  1
  Zr  Zr17  1  0.90417206  0.49804308  0.49898564  1
  Zr  Zr18  1  0.10172678  0.50443875  0.49528556  1
  Zr  Zr19  1  0.89627652  0.09942574  0.49998064  1
  Zr  Zr20  1  0.90019998  0.69599299  0.49885909  1
  Zr  Zr21  1  0.09497327  0.89751505  0.30345681  1
  Zr  Zr22  1  0.29976269  0.30628360  0.09808144  1
  Zr  Zr23  1  0.30720719  0.69170762  0.48806495  1
  Zr  Zr24  1  0.09979015  0.30783127  0.49350564  1
  Zr  Zr25  1  0.50564209  0.88945089  0.29402502  1
  Zr  Zr26  1  0.69900428  0.69591332  0.90313392  1
  Zr  Zr27  1  0.09726120  0.69980711  0.29130819  1
  Zr  Zr28  1  0.70554436  0.70214927  0.31002050  1
  Zr  Zr29  1  0.10358673  0.30076496  0.90045477  1
  Zr  Zr30  1  0.49718147  0.90048943  0.69796939  1
  Zr  Zr31  1  0.50239944  0.51099656  0.49718058  1
  Zr  Zr32  1  0.89973642  0.49489875  0.90101729  1
  Zr  Zr33  1  0.69854481  0.30080036  0.08426726  1
  Zr  Zr34  1  0.50322188  0.30511383  0.90542234  1
  Zr  Zr35  1  0.70925040  0.89169077  0.90788569  1
  Zr  Zr36  1  0.30005296  0.89145618  0.49709126  1
  Zr  Zr37  1  0.70266803  0.10055601  0.90466567  1
  Zr  Zr38  1  0.69594680  0.50106994  0.49623432  1
  Zr  Zr39  1  0.90118338  0.90072968  0.49681455  1
  Zr  Zr40  1  0.10444441  0.69553314  0.09245802  1
  Zr  Zr41  1  0.10102081  0.10222354  0.10409440  1
  Zr  Zr42  1  0.70375216  0.30262731  0.49299625  1
  Zr  Zr43  1  0.69597779  0.49128026  0.90448182  1
  Zr  Zr44  1  0.49372537  0.70821961  0.10474971  1
  Zr  Zr45  1  0.49310330  0.50378059  0.09279510  1
  Zr  Zr46  1  0.30664682  0.29448928  0.50041839  1
  Zr  Zr47  1  0.30205670  0.30608129  0.90325820  1
  Zr  Zr48  1  0.10068609  0.89139289  0.69589527  1
  Zr  Zr49  1  0.09944412  0.90437397  0.89207679  1
  Sc  Sc50  1  0.68866371  0.70519969  0.09682847  1
  Sc  Sc51  1  0.29771006  0.50949396  0.29998898  1
  Sc  Sc52  1  0.29822658  0.69759041  0.90247357  1
  Sc  Sc53  1  0.70191794  0.09705398  0.10189339  1
  Sc  Sc54  1  0.49265687  0.29908806  0.09813564  1
  Sc  Sc55  1  0.10496156  0.89895038  0.09860381  1
  Sc  Sc56  1  0.30155490  0.69837187  0.70678154  1
  Sc  Sc57  1  0.90045484  0.30258861  0.70897172  1
  Sc  Sc58  1  0.30104979  0.10380527  0.50318003  1
  Sc  Sc59  1  0.29730851  0.29366843  0.29598110  1
  Sc  Sc60  1  0.89921975  0.51620577  0.29818295  1
  Sc  Sc61  1  0.49791777  0.29185534  0.30111337  1
  Sc  Sc62  1  0.70235260  0.50345436  0.31403157  1
  Sc  Sc63  1  0.30507611  0.50334919  0.89626336  1
  Sc  Sc64  1  0.29460763  0.09991515  0.10176310  1
  Sc  Sc65  1  0.69871593  0.90897368  0.69808390  1
  Sc  Sc66  1  0.90552791  0.30540632  0.09310139  1
  Sc  Sc67  1  0.69483923  0.10191968  0.70393072  1
  Sc  Sc68  1  0.88719994  0.70542521  0.88207941  1
  Sc  Sc69  1  0.10744590  0.09268387  0.50043024  1
  Sc  Sc70  1  0.30050573  0.89365694  0.69766432  1
  Sc  Sc71  1  0.90211603  0.50833211  0.70392906  1
  Sc  Sc72  1  0.90886000  0.69609403  0.11764165  1
  Sc  Sc73  1  0.10815824  0.30956058  0.10748114  1
  Sc  Sc74  1  0.70107788  0.30133322  0.89171741  1
  Sc  Sc75  1  0.11917787  0.09234378  0.29998829  1
  Sc  Sc76  1  0.90238510  0.89693808  0.70205817  1
  Sc  Sc77  1  0.09438268  0.70343822  0.50143656  1
  Sc  Sc78  1  0.10065733  0.89833885  0.50197284  1
  Sc  Sc79  1  0.49912945  0.70662720  0.49548066  1
  Sc  Sc80  1  0.50703553  0.10345202  0.90097194  1
  Sc  Sc81  1  0.28860592  0.89610833  0.29965486  1
  Sc  Sc82  1  0.51269459  0.30058032  0.50164305  1
  Sc  Sc83  1  0.89620226  0.29491316  0.90133638  1
  Sc  Sc84  1  0.48612158  0.70485833  0.70021536  1
  Sc  Sc85  1  0.49160201  0.89572177  0.90256995  1
  Sc  Sc86  1  0.88925534  0.08698944  0.30409045  1
  Sc  Sc87  1  0.51187164  0.30074902  0.69388515  1
  Sc  Sc88  1  0.49068335  0.70022805  0.30379843  1
  Sc  Sc89  1  0.69788910  0.09834294  0.29819458  1
  Sc  Sc90  1  0.89444361  0.31102637  0.30991147  1
  Sc  Sc91  1  0.29485317  0.89653434  0.89885495  1
  Sc  Sc92  1  0.89852714  0.09691877  0.90150660  1
  Sc  Sc93  1  0.49443363  0.69704084  0.90813976  1
  Sc  Sc94  1  0.50356246  0.10516938  0.10014222  1
  Sc  Sc95  1  0.29487438  0.50046741  0.09909694  1
  Sc  Sc96  1  0.69976924  0.89324759  0.10930451  1
  Sc  Sc97  1  0.89484838  0.09975028  0.09142061  1
  Sc  Sc98  1  0.09966538  0.30213584  0.70480949  1
  Sc  Sc99  1  0.70587617  0.49515681  0.70533773  1
  Nb  Nb100  1  0.90276938  0.29823756  0.50100239  1
  Nb  Nb101  1  0.08896193  0.69697007  0.69952947  1
  Nb  Nb102  1  0.50247565  0.89616313  0.10144273  1
  Nb  Nb103  1  0.30797759  0.50625325  0.69757822  1
  Nb  Nb104  1  0.90247962  0.71601325  0.30219197  1
  Nb  Nb105  1  0.69468777  0.88793875  0.49753966  1
  Nb  Nb106  1  0.70084676  0.30785800  0.29807092  1
  Nb  Nb107  1  0.30043380  0.50332610  0.49835358  1
  Nb  Nb108  1  0.89964520  0.50205739  0.09903054  1
  Nb  Nb109  1  0.29700711  0.69931947  0.29272222  1
  Nb  Nb110  1  0.49606780  0.09893004  0.69878143  1
  Nb  Nb111  1  0.71269153  0.69641722  0.70971871  1
  Nb  Nb112  1  0.69812716  0.30697476  0.69069488  1
  Nb  Nb113  1  0.49657390  0.50927319  0.69802084  1
  Nb  Nb114  1  0.30547294  0.09283553  0.30215285  1
  Nb  Nb115  1  0.29815092  0.69665117  0.10525837  1
  Nb  Nb116  1  0.50002345  0.50511821  0.89888253  1
  Nb  Nb117  1  0.89756178  0.69898003  0.69455210  1
  Nb  Nb118  1  0.30654612  0.10626458  0.69690266  1
  Nb  Nb119  1  0.70786470  0.89549509  0.29911810  1
  Nb  Nb120  1  0.89590420  0.88904957  0.29667364  1
  Nb  Nb121  1  0.69848725  0.69945701  0.50274866  1
  Nb  Nb122  1  0.10044603  0.29604630  0.29634797  1
  Nb  Nb123  1  0.89816763  0.89868170  0.90853167  1
  Nb  Nb124  1  0.50590959  0.49819633  0.30339556  1
  Nb  Nb125  1  0.60061133  -0.00909758  0.40294543  1
  Nb  Nb126  1  0.40097504  0.41108159  0.59738766  1
  Nb  Nb127  1  0.60436699  0.79397121  0.79912666  1
  Nb  Nb128  1  0.60499369  0.60713762  0.60897081  1
  Nb  Nb129  1  0.20731037  0.40955030  0.59966468  1
  Nb  Nb130  1  0.59693391  0.60114320  0.79767211  1
  Nb  Nb131  1  -0.00195048  0.20070562  0.59465864  1
  Nb  Nb132  1  0.59878438  -0.00892817  0.00404779  1
  Nb  Nb133  1  0.40129267  0.40483533  0.40357088  1
  Nb  Nb134  1  0.80328403  0.59622214  0.00439948  1
  Nb  Nb135  1  0.40239754  -0.00432660  0.20142114  1
  Nb  Nb136  1  0.39926816  0.00879833  0.79443414  1
  Nb  Nb137  1  0.79579585  0.40314800  0.19665655  1
  Nb  Nb138  1  0.60163420  0.40313732  0.20238847  1
  Nb  Nb139  1  0.40473842  -0.00160432  0.39585464  1
  Nb  Nb140  1  0.40173675  0.19767446  0.79598624  1
  Nb  Nb141  1  0.80181864  0.20990805  0.20112186  1
  Nb  Nb142  1  0.20255985  0.59673063  0.60102570  1
  Nb  Nb143  1  0.80267948  0.39663586  0.59560567  1
  Nb  Nb144  1  -0.00226110  0.00003787  0.20298241  1
  Nb  Nb145  1  0.00171470  0.20021365  0.39760450  1
  Nb  Nb146  1  0.59614041  0.59570963  0.20515386  1
  Nb  Nb147  1  0.79431730  0.79377633  0.59934505  1
  Nb  Nb148  1  -0.00392827  0.80298763  -0.00641353  1
  Nb  Nb149  1  -0.00297192  0.19822650  0.21110080  1
  Pd  Pd150  1  0.39301932  -0.00284828  0.59693028  1
  Pd  Pd151  1  -0.00122170  -0.00667423  0.00828514  1
  Pd  Pd152  1  -0.01420976  0.61484745  -0.00940996  1
  Pd  Pd153  1  0.41040333  0.39662711  0.79379067  1
  Pd  Pd154  1  -0.00810656  0.00109832  0.79796207  1
  Pd  Pd155  1  0.60234255  0.00256632  0.59522083  1
  Pd  Pd156  1  -0.00414280  0.79835963  0.80184719  1
  Pd  Pd157  1  0.59367240  0.40643526  0.79371628  1
  Pd  Pd158  1  0.00464976  0.39494077  -0.00210489  1
  Pd  Pd159  1  0.80243866  -0.00408597  0.80219373  1
  Pd  Pd160  1  0.19915748  -0.00321184  0.00324514  1
  Pd  Pd161  1  0.79154932  0.60231875  0.19771815  1
  Pd  Pd162  1  0.39538568  0.79443791  -0.00359584  1
  Pd  Pd163  1  -0.00019559  0.39764727  0.60832857  1
  Pd  Pd164  1  0.81142674  0.78367419  0.01338285  1
  Pd  Pd165  1  0.40165350  0.40257556  0.20972246  1
  Pd  Pd166  1  -0.01054385  0.39689803  0.20604005  1
  Pd  Pd167  1  0.60653682  0.19531182  0.40079142  1
  Pd  Pd168  1  0.20134632  0.40869167  0.79878935  1
  Pd  Pd169  1  0.19900294  0.19753835  0.39828871  1
  Pd  Pd170  1  0.60794879  0.20967533  0.19484569  1
  Pd  Pd171  1  0.59239559  -0.00888128  0.81039469  1
  Pd  Pd172  1  0.19325690  0.79159370  0.40098715  1
  Pd  Pd173  1  0.20327871  0.20283126  0.79795557  1
  Pd  Pd174  1  0.79638856  0.20223176  0.79621263  1
  Pd  Pd175  1  0.39372305  0.19318408  0.19698900  1
  Pd  Pd176  1  0.80226966  0.19999042  0.39021895  1
  Pd  Pd177  1  -0.00237683  0.40123565  0.39050473  1
  Pd  Pd178  1  0.00477048  0.20581262  0.00754229  1
  Pd  Pd179  1  0.59912130  -0.00253003  0.19890455  1
  Pd  Pd180  1  0.21187872  0.39766247  0.39697629  1
  Pd  Pd181  1  0.79081312  -0.00857277  0.40194892  1
  Pd  Pd182  1  0.18974640  0.20720432  0.60116773  1
  Pd  Pd183  1  0.20443012  0.78401701  0.59949411  1
  Pd  Pd184  1  0.00271229  0.00264208  0.60144380  1
  Pd  Pd185  1  0.60587903  0.78981217  0.61456225  1
  Pd  Pd186  1  0.00006906  0.40043670  0.80396495  1
  Pd  Pd187  1  0.40665810  0.00694656  0.00043969  1
  Pd  Pd188  1  0.19705001  0.20400348  0.00449609  1
  Pd  Pd189  1  0.79564767  0.59471875  0.59854490  1
  Pd  Pd190  1  0.39837713  0.19249348  -0.00583745  1
  Pd  Pd191  1  -0.00391880  0.19207955  0.79345664  1
  Pd  Pd192  1  0.20194118  0.79667572  0.79606650  1
  Pd  Pd193  1  0.59924884  0.20310145  0.79680938  1
  Pd  Pd194  1  0.80176645  0.20993803  0.60728106  1
  Pd  Pd195  1  0.20843401  -0.00290372  0.60061326  1
  Pd  Pd196  1  0.19824012  0.80150826  0.19562287  1
  Pd  Pd197  1  0.40248210  0.59679951  0.20249510  1
  Pd  Pd198  1  0.00305985  0.60374107  0.39285664  1
  Pd  Pd199  1  0.00334426  0.00608492  0.39287379  1
  Rh  Rh200  1  0.39321057  0.80503482  0.39065793  1
  Rh  Rh201  1  0.58850387  0.40026840  0.00656299  1
  Rh  Rh202  1  0.21060631  -0.00216377  0.40932140  1
  Rh  Rh203  1  0.79697241  0.81313923  0.78912744  1
  Rh  Rh204  1  0.40189678  0.59629815  0.39036080  1
  Rh  Rh205  1  0.80129902  0.39626315  0.79440361  1
  Rh  Rh206  1  0.20380749  -0.00390048  0.19663546  1
  Rh  Rh207  1  0.20934527  -0.00483230  0.79009382  1
  Rh  Rh208  1  0.80279925  0.80042563  0.40842439  1
  Rh  Rh209  1  0.40261881  0.80557266  0.80290740  1
  Rh  Rh210  1  0.60176921  0.79865954  0.39423963  1
  Rh  Rh211  1  -0.00762993  0.79844612  0.59944029  1
  Rh  Rh212  1  0.19675859  0.79713090  -0.00082003  1
  Rh  Rh213  1  0.00151810  0.80094191  0.40359020  1
  Rh  Rh214  1  0.39903691  0.40657548  -0.00340752  1
  Rh  Rh215  1  0.79630686  -0.01309898  0.59603240  1
  Rh  Rh216  1  0.20080815  0.20044515  0.20120665  1
  Rh  Rh217  1  0.79142396  -0.00053543  0.00330462  1
  Rh  Rh218  1  0.19877076  0.40709375  -0.00312260  1
  Rh  Rh219  1  0.80249864  0.00381648  0.19970961  1
  Rh  Rh220  1  0.39244442  0.79260516  0.59756855  1
  Rh  Rh221  1  0.39299690  0.60203508  0.00222038  1
  Rh  Rh222  1  0.20664352  0.40158290  0.20366821  1
  Rh  Rh223  1  0.39138009  0.80410134  0.20375792  1
  Rh  Rh224  1  0.19419352  0.60729907  0.39913702  1
  Rh  Rh225  1  0.20309794  0.60185744  0.79358620  1
  Rh  Rh226  1  0.59118099  0.39104947  0.39275721  1
  Rh  Rh227  1  0.00442900  0.60085088  0.60028004  1
  Rh  Rh228  1  0.80609500  0.60485345  0.40169236  1
  Rh  Rh229  1  0.79688079  0.58735862  0.81015692  1
  Rh  Rh230  1  0.40786467  0.21188308  0.60569233  1
  Rh  Rh231  1  0.60010513  0.59936896  -0.00013043  1
  Rh  Rh232  1  -0.00678342  0.60704741  0.80379711  1
  Rh  Rh233  1  0.19851947  0.59842555  0.19752672  1
  Rh  Rh234  1  0.59568130  0.61290753  0.40022790  1
  Rh  Rh235  1  0.40021173  0.19957048  0.40019638  1
  Rh  Rh236  1  0.80632676  0.40328299  0.00339145  1
  Rh  Rh237  1  0.59342816  0.80788378  -0.00721727  1
  Rh  Rh238  1  0.20724604  0.59852449  0.00131387  1
  Rh  Rh239  1  0.60510811  0.78782296  0.20839786  1
  Rh  Rh240  1  0.40439729  0.60348255  0.80723587  1
  Rh  Rh241  1  0.60368145  0.41347641  0.60277251  1
  Rh  Rh242  1  0.60614184  0.19398075  0.60200986  1
  Rh  Rh243  1  0.79995761  0.20044165  0.00109973  1
  Rh  Rh244  1  0.80485320  0.40757878  0.40208495  1
  Rh  Rh245  1  0.40095456  0.60452574  0.59752896  1
  Rh  Rh246  1  0.00340435  0.59774434  0.20520561  1
  Rh  Rh247  1  0.00454909  0.80879942  0.19153459  1
  Rh  Rh248  1  0.60210414  0.19369066  -0.00024741  1
  Rh  Rh249  1  0.79368345  0.78941371  0.19818490  1
