# generated using pymatgen
data_ZrScNbPdRh
_symmetry_space_group_name_H-M   'P 1'
_cell_length_a   16.55573359
_cell_length_b   16.55592783
_cell_length_c   16.55473783
_cell_angle_alpha   90.00270907
_cell_angle_beta   90.03582583
_cell_angle_gamma   90.02664468
_symmetry_Int_Tables_number   1
_chemical_formula_structural   ZrScNbPdRh
_chemical_formula_sum   'Zr50 Sc50 Nb50 Pd50 Rh50'
_cell_volume   4537.57826322
_cell_formula_units_Z   50
loop_
 _symmetry_equiv_pos_site_id
 _symmetry_equiv_pos_as_xyz
  1  'x, y, z'
loop_
 _atom_site_type_symbol
 _atom_site_label
 _atom_site_symmetry_multiplicity
 _atom_site_fract_x
 _atom_site_fract_y
 _atom_site_fract_z
 _atom_site_occupancy
  Zr  Zr0  1  0.09380557  0.49565629  0.89486610  1
  Zr  Zr1  1  0.69952906  0.70022998  0.30612099  1
  Zr  Zr2  1  0.89524551  0.90350776  0.30310907  1
  Zr  Zr3  1  0.10434296  0.29344996  0.89897372  1
  Zr  Zr4  1  0.69739090  0.30717293  0.49435139  1
  Zr  Zr5  1  0.90315370  0.29850449  0.70223239  1
  Zr  Zr6  1  0.70006163  0.90214619  0.10074958  1
  Zr  Zr7  1  0.09809889  0.70224795  0.88901698  1
  Zr  Zr8  1  0.90505921  0.30729297  0.89726051  1
  Zr  Zr9  1  0.10733619  0.69253677  0.30185633  1
  Zr  Zr10  1  0.70071153  0.70233004  0.69722767  1
  Zr  Zr11  1  0.69738434  0.70228472  0.89051403  1
  Zr  Zr12  1  0.48892571  0.89887841  0.50654398  1
  Zr  Zr13  1  0.09071951  0.09434842  0.69863516  1
  Zr  Zr14  1  0.49480578  0.50204318  0.90239600  1
  Zr  Zr15  1  0.29639104  0.89680353  0.10466687  1
  Zr  Zr16  1  0.69479466  0.49542707  0.10293952  1
  Zr  Zr17  1  0.90495737  0.50254111  0.49523471  1
  Zr  Zr18  1  0.49253739  0.49541442  0.70430339  1
  Zr  Zr19  1  0.69915313  0.51146041  0.90471996  1
  Zr  Zr20  1  0.70355762  0.10207378  0.69722230  1
  Zr  Zr21  1  0.89646407  0.29313369  0.10506383  1
  Zr  Zr22  1  0.50490832  0.69998592  0.70394869  1
  Zr  Zr23  1  0.10108520  0.49164791  0.49258887  1
  Zr  Zr24  1  0.89984744  0.70295352  0.10202763  1
  Zr  Zr25  1  0.49865745  0.30090459  0.70160328  1
  Zr  Zr26  1  0.89974236  0.50468114  0.90017265  1
  Zr  Zr27  1  0.49651703  0.30867628  0.50012366  1
  Zr  Zr28  1  0.69956607  0.51156633  0.49712279  1
  Zr  Zr29  1  0.50036084  0.10073156  0.28500058  1
  Zr  Zr30  1  0.50130315  0.90166983  0.70417576  1
  Zr  Zr31  1  0.30755186  0.29766825  0.70312931  1
  Zr  Zr32  1  0.30031569  0.10129114  0.49907878  1
  Zr  Zr33  1  0.30059621  0.30022720  0.09798532  1
  Zr  Zr34  1  0.29944755  0.69827181  0.29925494  1
  Zr  Zr35  1  0.89981834  0.09774288  0.90349250  1
  Zr  Zr36  1  0.49426604  0.29558895  0.89563389  1
  Zr  Zr37  1  0.11468369  0.69813059  0.49841616  1
  Zr  Zr38  1  0.49507114  0.90727064  0.09444622  1
  Zr  Zr39  1  0.89889364  0.09604446  0.50121648  1
  Zr  Zr40  1  0.30249873  0.49388530  0.10168718  1
  Zr  Zr41  1  0.69771747  0.70101888  0.50245745  1
  Zr  Zr42  1  0.10261252  0.90541984  0.29740936  1
  Zr  Zr43  1  0.69668237  0.30170109  0.70074517  1
  Zr  Zr44  1  0.30169904  0.89951828  0.90476674  1
  Zr  Zr45  1  0.10070902  0.10773518  0.49627876  1
  Zr  Zr46  1  0.10277862  0.09671539  0.10241716  1
  Zr  Zr47  1  0.50500666  0.29749165  0.10208622  1
  Zr  Zr48  1  0.50261576  0.69657683  0.50153105  1
  Zr  Zr49  1  0.69729083  0.30003502  0.28299878  1
  Sc  Sc50  1  0.30262772  0.49560825  0.49530068  1
  Sc  Sc51  1  0.09430686  0.89581970  0.90114917  1
  Sc  Sc52  1  0.10334370  0.29836242  0.69355333  1
  Sc  Sc53  1  0.30186574  0.70691715  0.49143020  1
  Sc  Sc54  1  0.49855003  0.08711305  0.50253890  1
  Sc  Sc55  1  0.49770680  0.49845820  0.49850646  1
  Sc  Sc56  1  0.90075928  0.70244115  0.89535148  1
  Sc  Sc57  1  0.68998437  0.69398231  0.10436940  1
  Sc  Sc58  1  0.90709708  0.90597996  0.09040162  1
  Sc  Sc59  1  0.90610975  0.49956423  0.71137554  1
  Sc  Sc60  1  0.10194345  0.09696529  0.90152582  1
  Sc  Sc61  1  0.69480397  0.89958504  0.30284950  1
  Sc  Sc62  1  0.70438955  0.08644616  0.49925081  1
  Sc  Sc63  1  0.90586581  0.09717596  0.69684854  1
  Sc  Sc64  1  0.30226863  0.69349075  0.90246320  1
  Sc  Sc65  1  0.29256276  0.29884143  0.50551733  1
  Sc  Sc66  1  0.10316972  0.90188532  0.09224431  1
  Sc  Sc67  1  0.89649734  0.90651162  0.50421159  1
  Sc  Sc68  1  0.29868455  0.49887676  0.70849142  1
  Sc  Sc69  1  0.70161176  0.89429592  0.70420609  1
  Sc  Sc70  1  0.48525980  0.50193341  0.30130816  1
  Sc  Sc71  1  0.69352769  0.29643021  0.90585103  1
  Sc  Sc72  1  0.49647483  0.69271282  0.90440652  1
  Sc  Sc73  1  0.88894929  0.70364092  0.50556027  1
  Sc  Sc74  1  0.49300288  0.69439326  0.10023093  1
  Sc  Sc75  1  0.30441923  0.49222736  0.90069775  1
  Sc  Sc76  1  0.69606244  0.50914256  0.70424725  1
  Sc  Sc77  1  0.30260019  0.70313783  0.10114409  1
  Sc  Sc78  1  0.49883280  0.90647180  0.29344858  1
  Sc  Sc79  1  0.49649948  0.30126116  0.29046665  1
  Sc  Sc80  1  0.89737155  0.69787185  0.30667491  1
  Sc  Sc81  1  0.30244586  0.10707386  0.69556594  1
  Sc  Sc82  1  0.69946708  0.90899687  0.89559194  1
  Sc  Sc83  1  0.09766872  0.49208826  0.11454961  1
  Sc  Sc84  1  0.49703183  0.69708413  0.29945515  1
  Sc  Sc85  1  0.90494742  0.90227873  0.70430369  1
  Sc  Sc86  1  0.90394861  0.89992399  0.89914970  1
  Sc  Sc87  1  0.10739785  0.50511412  0.70473771  1
  Sc  Sc88  1  0.69964926  0.09793246  0.90676454  1
  Sc  Sc89  1  0.90782433  0.29649689  0.29113450  1
  Sc  Sc90  1  0.49546382  0.09956547  0.70406535  1
  Sc  Sc91  1  0.10567588  0.30040237  0.10890145  1
  Sc  Sc92  1  0.29582944  0.30207160  0.29306324  1
  Sc  Sc93  1  0.10377553  0.70970140  0.10181820  1
  Sc  Sc94  1  0.89583121  0.70788339  0.70616088  1
  Sc  Sc95  1  0.91262171  0.30203484  0.50095149  1
  Sc  Sc96  1  0.30407175  0.89500439  0.69458080  1
  Sc  Sc97  1  0.70200733  0.11174376  0.09383360  1
  Sc  Sc98  1  0.90937627  0.10247952  0.29692327  1
  Sc  Sc99  1  0.49468768  0.50126044  0.09622474  1
  Nb  Nb100  1  0.10377981  0.89572825  0.70180187  1
  Nb  Nb101  1  0.10645770  0.89977167  0.49893376  1
  Nb  Nb102  1  0.10692363  0.10977363  0.29966714  1
  Nb  Nb103  1  0.09825740  0.49400868  0.30593147  1
  Nb  Nb104  1  0.29737960  0.28751942  0.90247624  1
  Nb  Nb105  1  0.29646427  0.10300948  0.10166094  1
  Nb  Nb106  1  0.29319742  0.50319646  0.29746574  1
  Nb  Nb107  1  0.30031710  0.10210149  0.29272893  1
  Nb  Nb108  1  0.10296277  0.29851952  0.30794098  1
  Nb  Nb109  1  0.70812186  0.50123322  0.30186157  1
  Nb  Nb110  1  0.49399171  0.08814648  0.90537570  1
  Nb  Nb111  1  0.29287948  0.69627771  0.70855769  1
  Nb  Nb112  1  0.70199857  0.09966048  0.30173037  1
  Nb  Nb113  1  0.29891403  0.90402661  0.49236463  1
  Nb  Nb114  1  0.11128357  0.70256314  0.70221621  1
  Nb  Nb115  1  0.10822062  0.30190904  0.48879386  1
  Nb  Nb116  1  0.91174069  0.49928251  0.29735676  1
  Nb  Nb117  1  0.30097464  0.89874071  0.30257828  1
  Nb  Nb118  1  0.70260759  0.30024483  0.09794087  1
  Nb  Nb119  1  0.49218301  0.09969699  0.09882859  1
  Nb  Nb120  1  0.29416898  0.10334385  0.90103101  1
  Nb  Nb121  1  0.89849156  0.10303939  0.09677321  1
  Nb  Nb122  1  0.90335796  0.49804580  0.10248289  1
  Nb  Nb123  1  0.49868853  0.90446071  0.90158117  1
  Nb  Nb124  1  0.70035657  0.89775353  0.49847987  1
  Nb  Nb125  1  0.40207266  0.19630843  0.39505810  1
  Nb  Nb126  1  0.20376388  0.00204247  0.39752551  1
  Nb  Nb127  1  0.80162252  0.20170381  0.79986010  1
  Nb  Nb128  1  0.59720250  0.80579223  -0.00308752  1
  Nb  Nb129  1  0.79495222  0.20301388  0.39733454  1
  Nb  Nb130  1  0.60073358  0.20165110  0.59290137  1
  Nb  Nb131  1  0.01385329  0.79921233  0.59851893  1
  Nb  Nb132  1  0.80349030  0.59088327  0.20379444  1
  Nb  Nb133  1  0.80323313  0.40213132  0.39460543  1
  Nb  Nb134  1  0.59917355  0.19702107  0.39929815  1
  Nb  Nb135  1  0.19765410  -0.00560671  0.59617162  1
  Nb  Nb136  1  -0.00102963  0.19882882  0.00482380  1
  Nb  Nb137  1  0.19143550  0.59410828  0.00005381  1
  Nb  Nb138  1  0.39675164  0.19187117  -0.00095044  1
  Nb  Nb139  1  0.40233526  0.80043667  0.80273299  1
  Nb  Nb140  1  0.00009837  0.80313795  0.20827559  1
  Nb  Nb141  1  0.20090209  -0.00379773  0.79518704  1
  Nb  Nb142  1  0.00604959  0.80283771  0.40407519  1
  Nb  Nb143  1  0.00229202  0.59762638  0.00427401  1
  Nb  Nb144  1  0.79260217  0.79887162  0.00002384  1
  Nb  Nb145  1  0.79938125  0.40163830  0.00817289  1
  Nb  Nb146  1  0.80055577  0.40344467  0.59603877  1
  Nb  Nb147  1  0.80083243  0.00675886  0.19827425  1
  Nb  Nb148  1  0.00912600  0.60992328  0.60275768  1
  Nb  Nb149  1  0.39580867  0.60476552  0.60550104  1
  Pd  Pd150  1  0.39084581  0.39112705  0.39496735  1
  Pd  Pd151  1  0.81223094  0.59425501  0.61077161  1
  Pd  Pd152  1  0.80344751  0.60281601  0.00916591  1
  Pd  Pd153  1  0.40440336  0.80050587  0.20344538  1
  Pd  Pd154  1  0.59197144  0.59527577  0.39239081  1
  Pd  Pd155  1  0.59173176  0.79813517  0.19437347  1
  Pd  Pd156  1  0.60890044  0.00934395  0.19043878  1
  Pd  Pd157  1  0.58924295  0.41101693  0.20534948  1
  Pd  Pd158  1  0.60228012  0.00624971  0.80002602  1
  Pd  Pd159  1  0.20639548  0.59205849  0.59596484  1
  Pd  Pd160  1  -0.00649539  0.20309218  0.39890729  1
  Pd  Pd161  1  -0.00085181  0.60712810  0.19756517  1
  Pd  Pd162  1  0.39803620  0.00519690  0.39047422  1
  Pd  Pd163  1  -0.00127417  0.39696870  0.00832860  1
  Pd  Pd164  1  0.20051467  0.79172528  -0.00568468  1
  Pd  Pd165  1  0.20464962  -0.00019267  0.20248915  1
  Pd  Pd166  1  0.80367979  0.00570579  0.79772277  1
  Pd  Pd167  1  0.59882826  0.59426733  0.20716276  1
  Pd  Pd168  1  0.60427645  0.40578760  0.80820168  1
  Pd  Pd169  1  0.59712493  -0.00149808  0.40091473  1
  Pd  Pd170  1  0.20054631  0.59726954  0.19160008  1
  Pd  Pd171  1  0.60237171  0.00067737  0.60334104  1
  Pd  Pd172  1  0.20355562  0.40253935  0.60270414  1
  Pd  Pd173  1  0.59907565  0.40068227  -0.00407680  1
  Pd  Pd174  1  0.39210919  0.79050417  0.60554606  1
  Pd  Pd175  1  0.60059279  0.40164651  0.38733494  1
  Pd  Pd176  1  0.20684214  0.80385242  0.60010352  1
  Pd  Pd177  1  -0.00132649  0.61117967  0.40881166  1
  Pd  Pd178  1  0.19626343  0.19124075  0.79059542  1
  Pd  Pd179  1  0.60303810  0.80687482  0.59855984  1
  Pd  Pd180  1  0.79666637  0.20791681  0.59576939  1
  Pd  Pd181  1  0.79072290  0.39818817  0.80381449  1
  Pd  Pd182  1  0.00485814  0.20387571  0.59561712  1
  Pd  Pd183  1  0.00581447  -0.00072969  0.40314904  1
  Pd  Pd184  1  0.40748898  0.80015414  0.39361690  1
  Pd  Pd185  1  0.20210955  0.39473773  0.80036465  1
  Pd  Pd186  1  0.00055364  0.40932612  0.60662423  1
  Pd  Pd187  1  -0.00509520  -0.00181758  0.19670214  1
  Pd  Pd188  1  0.38902430  -0.00073875  0.79407667  1
  Pd  Pd189  1  0.80687781  0.40386520  0.20090593  1
  Pd  Pd190  1  0.80309684  0.80469953  0.40660887  1
  Pd  Pd191  1  0.60199517  0.18949938  0.79962575  1
  Pd  Pd192  1  0.80036210  -0.00964561  0.60835762  1
  Pd  Pd193  1  0.59110405  0.80745628  0.40117596  1
  Pd  Pd194  1  0.80312825  0.80262041  0.19639325  1
  Pd  Pd195  1  0.38749483  0.00457846  0.00534326  1
  Pd  Pd196  1  0.60458845  0.40613734  0.60215866  1
  Pd  Pd197  1  0.59078914  0.19285762  0.00005575  1
  Pd  Pd198  1  0.19712517  0.40326826  -0.00089452  1
  Pd  Pd199  1  0.41062392  0.19848032  0.59069429  1
  Rh  Rh200  1  0.80169643  0.60342050  0.79526104  1
  Rh  Rh201  1  0.20160843  -0.00024588  -0.00588239  1
  Rh  Rh202  1  0.80604411  0.59585269  0.39268433  1
  Rh  Rh203  1  0.59589051  0.59722478  0.80131357  1
  Rh  Rh204  1  0.59105030  0.80350277  0.80872096  1
  Rh  Rh205  1  -0.00548621  0.19848360  0.80837217  1
  Rh  Rh206  1  0.39391638  0.39389292  0.80639336  1
  Rh  Rh207  1  0.00040678  0.60802950  0.79508765  1
  Rh  Rh208  1  0.19657453  0.80159741  0.20408472  1
  Rh  Rh209  1  -0.00712275  0.79287746  0.00476858  1
  Rh  Rh210  1  0.01264227  0.39509121  0.79022394  1
  Rh  Rh211  1  0.39728713  0.60586179  0.79529912  1
  Rh  Rh212  1  0.40157028  0.38797424  -0.00255718  1
  Rh  Rh213  1  0.19894461  0.20333407  0.20176382  1
  Rh  Rh214  1  0.39433561  0.20073686  0.19574988  1
  Rh  Rh215  1  0.00458067  0.00804807  -0.00210918  1
  Rh  Rh216  1  0.20685650  0.59000806  0.40134923  1
  Rh  Rh217  1  0.58834541  0.59392973  0.60256930  1
  Rh  Rh218  1  -0.00219917  0.39218445  0.39161715  1
  Rh  Rh219  1  0.00492863  0.39359716  0.20623594  1
  Rh  Rh220  1  0.19694916  0.40082947  0.21009515  1
  Rh  Rh221  1  0.19767854  0.19673328  0.00719727  1
  Rh  Rh222  1  0.80101084  0.80612321  0.59954897  1
  Rh  Rh223  1  0.20290143  0.59648653  0.81222046  1
  Rh  Rh224  1  0.80103956  0.80469637  0.80784727  1
  Rh  Rh225  1  0.79877271  0.00493362  0.39337152  1
  Rh  Rh226  1  0.80811958  0.21074371  -0.00991297  1
  Rh  Rh227  1  0.39184820  -0.00255071  0.19674852  1
  Rh  Rh228  1  0.00053493  0.80051898  0.79027669  1
  Rh  Rh229  1  0.19941495  0.80729426  0.39070344  1
  Rh  Rh230  1  0.59557545  0.60658225  0.00126224  1
  Rh  Rh231  1  0.39166715  0.40825007  0.60268725  1
  Rh  Rh232  1  0.79562853  0.19097427  0.20544822  1
  Rh  Rh233  1  0.60355341  0.19438454  0.19536055  1
  Rh  Rh234  1  0.39881502  0.40235911  0.20002479  1
  Rh  Rh235  1  0.20467086  0.39954171  0.39415545  1
  Rh  Rh236  1  0.40030012  0.19139064  0.80886105  1
  Rh  Rh237  1  0.21046990  0.19809747  0.39388588  1
  Rh  Rh238  1  0.39377038  0.59868439  0.19937006  1
  Rh  Rh239  1  0.39248696  -0.00116605  0.60580859  1
  Rh  Rh240  1  0.00560380  -0.00908697  0.59573224  1
  Rh  Rh241  1  0.20991487  0.80634154  0.80490998  1
  Rh  Rh242  1  0.60120457  0.00101658  0.00251564  1
  Rh  Rh243  1  0.79812598  -0.00667407  0.00644122  1
  Rh  Rh244  1  0.19379614  0.19786239  0.60180161  1
  Rh  Rh245  1  0.39493351  0.60176018  0.40607229  1
  Rh  Rh246  1  0.00699859  -0.00433958  0.80396363  1
  Rh  Rh247  1  0.38849093  0.59707628  0.00502608  1
  Rh  Rh248  1  0.40796785  0.79874628  -0.00628047  1
  Rh  Rh249  1  0.01139864  0.19885380  0.19527861  1
