# generated using pymatgen
data_ZrScNbPdRh
_symmetry_space_group_name_H-M   'P 1'
_cell_length_a   16.55777268
_cell_length_b   16.55938807
_cell_length_c   16.55594051
_cell_angle_alpha   89.96131342
_cell_angle_beta   89.97383415
_cell_angle_gamma   90.00364132
_symmetry_Int_Tables_number   1
_chemical_formula_structural   ZrScNbPdRh
_chemical_formula_sum   'Zr50 Sc50 Nb50 Pd50 Rh50'
_cell_volume   4539.41524583
_cell_formula_units_Z   50
loop_
 _symmetry_equiv_pos_site_id
 _symmetry_equiv_pos_as_xyz
  1  'x, y, z'
loop_
 _atom_site_type_symbol
 _atom_site_label
 _atom_site_symmetry_multiplicity
 _atom_site_fract_x
 _atom_site_fract_y
 _atom_site_fract_z
 _atom_site_occupancy
  Zr  Zr0  1  0.09459164  0.29212697  0.69977432  1
  Zr  Zr1  1  0.09179793  0.08508101  0.10718481  1
  Zr  Zr2  1  0.69511526  0.30313188  0.89210216  1
  Zr  Zr3  1  0.90456458  0.09395924  0.49443230  1
  Zr  Zr4  1  0.09339317  0.49574344  0.29192008  1
  Zr  Zr5  1  0.29187490  0.90677131  0.50268629  1
  Zr  Zr6  1  0.10392289  0.11030817  0.69280205  1
  Zr  Zr7  1  0.10488056  0.89731423  0.10002761  1
  Zr  Zr8  1  0.71097431  0.90897938  0.49219867  1
  Zr  Zr9  1  0.29834442  0.10314378  0.90160971  1
  Zr  Zr10  1  0.89499524  0.50500719  0.70354323  1
  Zr  Zr11  1  0.09430276  0.49195006  0.71348879  1
  Zr  Zr12  1  0.10237124  0.69845288  0.90405536  1
  Zr  Zr13  1  0.70472564  0.69689014  0.30331482  1
  Zr  Zr14  1  0.29904419  0.70389116  0.10170371  1
  Zr  Zr15  1  0.50067885  0.69937327  0.90065695  1
  Zr  Zr16  1  0.30610798  0.30277567  0.09320828  1
  Zr  Zr17  1  0.29536569  0.90020185  0.10630505  1
  Zr  Zr18  1  0.49506894  0.30239718  0.29919700  1
  Zr  Zr19  1  0.69347032  0.69614615  0.91267559  1
  Zr  Zr20  1  0.30206442  0.69739938  0.89686966  1
  Zr  Zr21  1  0.50023857  0.29862090  0.09925613  1
  Zr  Zr22  1  0.50533772  0.90315139  0.30474496  1
  Zr  Zr23  1  0.69417269  0.90269699  0.69953899  1
  Zr  Zr24  1  0.90729155  0.50451907  0.89009534  1
  Zr  Zr25  1  0.30241283  0.89839401  0.29849808  1
  Zr  Zr26  1  0.50445709  0.70436368  0.31011509  1
  Zr  Zr27  1  0.49189337  0.29435749  0.49375168  1
  Zr  Zr28  1  0.50473377  0.10053903  0.30728430  1
  Zr  Zr29  1  0.90000371  0.89865327  0.89791311  1
  Zr  Zr30  1  0.49155119  0.30241107  0.90007228  1
  Zr  Zr31  1  0.29450915  0.09142649  0.09705183  1
  Zr  Zr32  1  0.70663418  0.49870163  0.89326285  1
  Zr  Zr33  1  0.69360087  0.10542254  0.69131313  1
  Zr  Zr34  1  0.29112245  0.70259254  0.29755011  1
  Zr  Zr35  1  0.50651992  0.90355886  0.89448657  1
  Zr  Zr36  1  0.70398573  0.70126793  0.10717357  1
  Zr  Zr37  1  0.91430477  0.10790266  0.69731233  1
  Zr  Zr38  1  0.70089515  0.28747333  0.30264271  1
  Zr  Zr39  1  0.09684218  0.30243117  0.30659749  1
  Zr  Zr40  1  0.09320290  0.31325672  0.10704427  1
  Zr  Zr41  1  0.90087431  0.29734291  0.30707136  1
  Zr  Zr42  1  0.30184891  0.29919389  0.89554326  1
  Zr  Zr43  1  0.69934339  0.50938947  0.09893813  1
  Zr  Zr44  1  0.70018984  0.90444720  0.90384698  1
  Zr  Zr45  1  0.29877639  0.10536057  0.50485118  1
  Zr  Zr46  1  0.10752438  0.69254053  0.10482909  1
  Zr  Zr47  1  0.90075390  0.69322196  0.30045344  1
  Zr  Zr48  1  0.49670556  0.49924544  0.30664702  1
  Zr  Zr49  1  0.69985555  0.10670295  0.49514406  1
  Sc  Sc50  1  0.49472759  0.10166276  0.89618521  1
  Sc  Sc51  1  0.49504249  0.49622508  0.69809478  1
  Sc  Sc52  1  0.50383724  0.09855999  0.09395412  1
  Sc  Sc53  1  0.09745730  0.09757049  0.88797632  1
  Sc  Sc54  1  0.30057005  0.30249790  0.31026777  1
  Sc  Sc55  1  0.49701109  0.49626309  0.10767806  1
  Sc  Sc56  1  0.89582447  0.50042086  0.49369115  1
  Sc  Sc57  1  0.29628811  0.09320322  0.30809673  1
  Sc  Sc58  1  0.50215766  0.91004870  0.10388002  1
  Sc  Sc59  1  0.89645764  0.69664310  0.49003094  1
  Sc  Sc60  1  0.11057416  0.89961320  0.70139230  1
  Sc  Sc61  1  0.70070827  0.69845790  0.49784513  1
  Sc  Sc62  1  0.50409872  0.69336345  0.09820719  1
  Sc  Sc63  1  0.29873022  0.49405773  0.30588730  1
  Sc  Sc64  1  0.70137777  0.09815045  0.30439197  1
  Sc  Sc65  1  0.30390854  0.50277533  0.10486209  1
  Sc  Sc66  1  0.29282846  0.90954230  0.89549184  1
  Sc  Sc67  1  0.70086717  0.10645036  0.09983772  1
  Sc  Sc68  1  0.10131160  0.29054978  0.49678272  1
  Sc  Sc69  1  0.89623646  0.69263315  0.10916001  1
  Sc  Sc70  1  0.49468615  0.10098974  0.50482897  1
  Sc  Sc71  1  0.89926187  0.09351870  0.89812321  1
  Sc  Sc72  1  0.69989633  0.69887730  0.68889050  1
  Sc  Sc73  1  0.09545010  0.89703483  0.90074847  1
  Sc  Sc74  1  0.89046710  0.70212385  0.70047480  1
  Sc  Sc75  1  0.50577036  0.90197233  0.50014424  1
  Sc  Sc76  1  0.10286514  0.10042632  0.49966247  1
  Sc  Sc77  1  0.31134455  0.49260910  0.89413385  1
  Sc  Sc78  1  0.89280864  0.89960551  0.70185976  1
  Sc  Sc79  1  0.70377765  0.50106679  0.70005591  1
  Sc  Sc80  1  0.09902894  0.30116295  0.88268278  1
  Sc  Sc81  1  0.30131228  0.09585211  0.69585887  1
  Sc  Sc82  1  0.70300992  0.51050935  0.50290662  1
  Sc  Sc83  1  0.90697577  0.49523920  0.09845291  1
  Sc  Sc84  1  0.90144255  0.90009181  0.31357289  1
  Sc  Sc85  1  0.49895136  0.29275659  0.70626042  1
  Sc  Sc86  1  0.10492192  0.90750984  0.30231190  1
  Sc  Sc87  1  0.69950765  0.09856902  0.90334011  1
  Sc  Sc88  1  0.51708632  0.69559746  0.50489866  1
  Sc  Sc89  1  0.09977664  0.90756036  0.49467982  1
  Sc  Sc90  1  0.49881891  0.49937333  0.50561333  1
  Sc  Sc91  1  0.11652964  0.70812843  0.69395097  1
  Sc  Sc92  1  0.89142080  0.29557652  0.10341266  1
  Sc  Sc93  1  0.30327651  0.29701703  0.50069170  1
  Sc  Sc94  1  0.10533295  0.50641381  0.48822432  1
  Sc  Sc95  1  0.90268834  0.49916165  0.30256646  1
  Sc  Sc96  1  0.89268974  0.30529340  0.90101486  1
  Sc  Sc97  1  0.90034540  0.70254922  0.89317441  1
  Sc  Sc98  1  0.50002641  0.49350783  0.89621316  1
  Sc  Sc99  1  0.91476020  0.90878342  0.09661900  1
  Nb  Nb100  1  0.70097529  0.90592200  0.10494156  1
  Nb  Nb101  1  0.70611529  0.29716312  0.50076941  1
  Nb  Nb102  1  0.69546824  0.50037612  0.30039228  1
  Nb  Nb103  1  0.29923822  0.69980585  0.69599711  1
  Nb  Nb104  1  0.09339888  0.10467329  0.30247831  1
  Nb  Nb105  1  0.29210332  0.30339589  0.70294416  1
  Nb  Nb106  1  0.49415580  0.90233225  0.70054244  1
  Nb  Nb107  1  0.89634245  0.30284774  0.49847024  1
  Nb  Nb108  1  0.30113955  0.89288132  0.69742853  1
  Nb  Nb109  1  0.29965746  0.50648692  0.50931976  1
  Nb  Nb110  1  0.29851257  0.50319387  0.69317387  1
  Nb  Nb111  1  0.09748145  0.50022472  0.09329953  1
  Nb  Nb112  1  0.90054519  0.30229565  0.69438267  1
  Nb  Nb113  1  0.70069213  0.90406979  0.29775359  1
  Nb  Nb114  1  0.50165176  0.70465857  0.69917597  1
  Nb  Nb115  1  0.10254009  0.69644155  0.49818503  1
  Nb  Nb116  1  0.90530917  0.90226367  0.50197377  1
  Nb  Nb117  1  0.49447989  0.08661350  0.69543747  1
  Nb  Nb118  1  0.09598844  0.69079126  0.30696793  1
  Nb  Nb119  1  0.28088718  0.69141497  0.51034542  1
  Nb  Nb120  1  0.69933191  0.29988955  0.10026898  1
  Nb  Nb121  1  0.90432345  0.10066765  0.10421137  1
  Nb  Nb122  1  0.09811628  0.50220128  0.90025276  1
  Nb  Nb123  1  0.90509225  0.10286665  0.29145544  1
  Nb  Nb124  1  0.70218477  0.30100562  0.69696748  1
  Nb  Nb125  1  0.20452458  0.59538676  0.79779481  1
  Nb  Nb126  1  0.60720331  0.39547919  0.40457287  1
  Nb  Nb127  1  0.19171451  0.40436350  -0.00409303  1
  Nb  Nb128  1  0.78949212  0.39786951  0.20262454  1
  Nb  Nb129  1  0.00413926  0.60223161  0.59844859  1
  Nb  Nb130  1  0.00077216  0.79753150  0.59052925  1
  Nb  Nb131  1  0.79799893  0.20490985  0.78939572  1
  Nb  Nb132  1  0.39601289  0.79554211  0.60114312  1
  Nb  Nb133  1  0.80523337  0.00207038  0.20018788  1
  Nb  Nb134  1  0.00225315  0.19763966  0.00354860  1
  Nb  Nb135  1  0.60557332  0.39609360  0.00357377  1
  Nb  Nb136  1  -0.00077597  0.40053168  0.59849814  1
  Nb  Nb137  1  0.19914566  0.40329252  0.60448062  1
  Nb  Nb138  1  0.18964696  0.20474155  0.00483945  1
  Nb  Nb139  1  0.19777295  0.19975544  0.19861012  1
  Nb  Nb140  1  0.38950959  0.60805195  0.41166400  1
  Nb  Nb141  1  0.60905485  0.80582290  0.20365419  1
  Nb  Nb142  1  0.00606736  0.79421212  0.20685169  1
  Nb  Nb143  1  0.39442777  0.19677059  0.19957756  1
  Nb  Nb144  1  0.59599333  0.60477541  0.79761918  1
  Nb  Nb145  1  0.39211543  0.79218281  0.41272818  1
  Nb  Nb146  1  0.40013505  0.80071322  0.79390934  1
  Nb  Nb147  1  0.60796607  0.38924016  0.59631061  1
  Nb  Nb148  1  0.40026913  0.80270970  -0.00411556  1
  Nb  Nb149  1  0.79740380  0.80626783  0.00619868  1
  Pd  Pd150  1  0.40337435  0.00837485  0.20166884  1
  Pd  Pd151  1  0.40725570  0.60897234  0.59639556  1
  Pd  Pd152  1  0.79290318  0.40475804  0.39488266  1
  Pd  Pd153  1  -0.00906901  0.78922165  0.01074155  1
  Pd  Pd154  1  0.79691391  0.40265297  0.00698576  1
  Pd  Pd155  1  0.20035039  0.00341636  0.79435518  1
  Pd  Pd156  1  0.19719799  0.80088931  0.40070511  1
  Pd  Pd157  1  0.58941360  0.20431686  0.59823510  1
  Pd  Pd158  1  0.00644343  -0.00990526  0.60581247  1
  Pd  Pd159  1  0.79827439  0.01176275  0.79108783  1
  Pd  Pd160  1  0.21050668  0.58807940  -0.00701423  1
  Pd  Pd161  1  0.39931897  0.39135627  0.60307228  1
  Pd  Pd162  1  0.79948093  0.80028384  0.40257950  1
  Pd  Pd163  1  0.80546390  0.19702709  -0.00675580  1
  Pd  Pd164  1  0.80400002  0.00460517  0.60474578  1
  Pd  Pd165  1  0.39597918  0.19418524  0.79007868  1
  Pd  Pd166  1  0.00962777  0.61791231  0.78859999  1
  Pd  Pd167  1  0.60062966  0.80810752  0.59529081  1
  Pd  Pd168  1  0.59538129  0.19256181  0.19961879  1
  Pd  Pd169  1  0.00628507  0.79928367  0.40038208  1
  Pd  Pd170  1  0.00350337  0.20680843  0.19674105  1
  Pd  Pd171  1  -0.00671989  0.60595465  0.00273218  1
  Pd  Pd172  1  0.00366983  -0.00699952  0.79238062  1
  Pd  Pd173  1  0.60369930  0.79520576  0.79469932  1
  Pd  Pd174  1  0.81222684  0.60501634  -0.00294711  1
  Pd  Pd175  1  0.80974617  0.81417928  0.19667610  1
  Pd  Pd176  1  0.20732501  0.80577773  -0.00680811  1
  Pd  Pd177  1  0.40207565  -0.00680628  -0.00418246  1
  Pd  Pd178  1  0.59762866  0.80814104  0.01382208  1
  Pd  Pd179  1  0.60461879  0.39948993  0.20168277  1
  Pd  Pd180  1  0.20126363  0.39831574  0.41235019  1
  Pd  Pd181  1  0.78753525  0.79541783  0.80690113  1
  Pd  Pd182  1  0.59879231  0.20288846  -0.00635752  1
  Pd  Pd183  1  0.41408519  0.79850828  0.19574701  1
  Pd  Pd184  1  0.80581467  0.79813577  0.59097975  1
  Pd  Pd185  1  0.59469915  0.60630440  0.20479097  1
  Pd  Pd186  1  0.00198811  0.39222864  -0.01056457  1
  Pd  Pd187  1  0.40176279  -0.00413190  0.40824123  1
  Pd  Pd188  1  0.20749047  0.39984672  0.19540392  1
  Pd  Pd189  1  0.20105452  0.58972346  0.20419442  1
  Pd  Pd190  1  0.80320405  -0.00048370  0.00919305  1
  Pd  Pd191  1  0.00548188  0.79808346  0.78551904  1
  Pd  Pd192  1  0.40045699  0.60356996  0.21022849  1
  Pd  Pd193  1  0.40218494  0.59744157  0.00365092  1
  Pd  Pd194  1  0.59986303  0.19370391  0.79920824  1
  Pd  Pd195  1  0.80041914  0.40662687  0.59899963  1
  Pd  Pd196  1  0.59950657  -0.00181087  0.59323869  1
  Pd  Pd197  1  0.60026517  0.00979548  0.79993762  1
  Pd  Pd198  1  0.40177453  0.60097101  0.79230924  1
  Pd  Pd199  1  0.80790143  0.19580330  0.59874575  1
  Rh  Rh200  1  0.60821746  0.00302960  0.20032164  1
  Rh  Rh201  1  0.39979003  0.39677824  0.78954628  1
  Rh  Rh202  1  0.19574572  0.80806201  0.59228750  1
  Rh  Rh203  1  0.20780210  0.40732973  0.80101985  1
  Rh  Rh204  1  0.60683366  0.80560502  0.39761427  1
  Rh  Rh205  1  0.20665852  0.20762831  0.60012349  1
  Rh  Rh206  1  0.19939866  0.00455888  0.20959209  1
  Rh  Rh207  1  0.59950508  0.40711506  0.79455707  1
  Rh  Rh208  1  0.19996523  0.19772641  0.39365506  1
  Rh  Rh209  1  0.80637810  0.00627519  0.39203036  1
  Rh  Rh210  1  0.80870581  0.19321910  0.40198032  1
  Rh  Rh211  1  0.39820476  -0.00572678  0.59840741  1
  Rh  Rh212  1  0.79742640  0.59574313  0.39646758  1
  Rh  Rh213  1  0.79873765  0.19696381  0.20078649  1
  Rh  Rh214  1  0.78747476  0.61129127  0.80177566  1
  Rh  Rh215  1  0.80909776  0.60170333  0.59695163  1
  Rh  Rh216  1  0.40112952  0.41179761  0.40857869  1
  Rh  Rh217  1  0.59210951  0.58253170  -0.00718651  1
  Rh  Rh218  1  0.18744146  0.79939115  0.20933934  1
  Rh  Rh219  1  0.19016843  0.00331256  -0.00652266  1
  Rh  Rh220  1  0.39740816  -0.00271658  0.79702671  1
  Rh  Rh221  1  0.00170979  0.60022188  0.19733307  1
  Rh  Rh222  1  0.60102877  0.00409391  -0.00035841  1
  Rh  Rh223  1  0.39928496  0.20101512  0.60810022  1
  Rh  Rh224  1  0.00309930  0.00680319  -0.00939632  1
  Rh  Rh225  1  0.20465679  0.79499987  0.80702881  1
  Rh  Rh226  1  0.19581309  0.00772663  0.39950449  1
  Rh  Rh227  1  0.60242176  0.00223726  0.40566588  1
  Rh  Rh228  1  -0.00023738  0.59530184  0.40432848  1
  Rh  Rh229  1  0.39501055  0.19177532  0.00652498  1
  Rh  Rh230  1  0.59744246  0.20288297  0.40501510  1
  Rh  Rh231  1  -0.01404751  0.40042189  0.20347655  1
  Rh  Rh232  1  0.20597460  0.19530543  0.80039246  1
  Rh  Rh233  1  -0.00624871  -0.01099325  0.21240502  1
  Rh  Rh234  1  0.59839897  0.58833215  0.61095595  1
  Rh  Rh235  1  0.19805118  0.00109456  0.60323128  1
  Rh  Rh236  1  0.39444923  0.39367849  0.20312620  1
  Rh  Rh237  1  -0.01604373  0.20550211  0.81211992  1
  Rh  Rh238  1  0.40415836  0.40772975  0.00311816  1
  Rh  Rh239  1  -0.01083878  0.39273934  0.79979793  1
  Rh  Rh240  1  -0.00371215  0.19705011  0.40424188  1
  Rh  Rh241  1  0.80416318  0.39366701  0.79250095  1
  Rh  Rh242  1  0.59699062  0.58923143  0.40324425  1
  Rh  Rh243  1  0.18615301  0.58809170  0.61113591  1
  Rh  Rh244  1  0.00156599  0.39947128  0.40846298  1
  Rh  Rh245  1  -0.00566390  0.20757155  0.58642022  1
  Rh  Rh246  1  0.20381290  0.59539937  0.39214447  1
  Rh  Rh247  1  0.00125041  0.00444075  0.39626234  1
  Rh  Rh248  1  0.39577733  0.19316705  0.39276310  1
  Rh  Rh249  1  0.80346840  0.58338958  0.20556568  1
