# generated using pymatgen
data_ZrScNbPdRh
_symmetry_space_group_name_H-M   'P 1'
_cell_length_a   16.55853153
_cell_length_b   16.55978974
_cell_length_c   16.55787338
_cell_angle_alpha   90.01650263
_cell_angle_beta   89.96113056
_cell_angle_gamma   89.99553013
_symmetry_Int_Tables_number   1
_chemical_formula_structural   ZrScNbPdRh
_chemical_formula_sum   'Zr50 Sc50 Nb50 Pd50 Rh50'
_cell_volume   4540.26368151
_cell_formula_units_Z   50
loop_
 _symmetry_equiv_pos_site_id
 _symmetry_equiv_pos_as_xyz
  1  'x, y, z'
loop_
 _atom_site_type_symbol
 _atom_site_label
 _atom_site_symmetry_multiplicity
 _atom_site_fract_x
 _atom_site_fract_y
 _atom_site_fract_z
 _atom_site_occupancy
  Zr  Zr0  1  0.49833208  0.90530973  0.69751508  1
  Zr  Zr1  1  0.49977821  0.29350352  0.90579030  1
  Zr  Zr2  1  0.10304352  0.70191141  0.08921692  1
  Zr  Zr3  1  0.29890652  0.69436346  0.09888665  1
  Zr  Zr4  1  0.50840055  0.11736950  0.30377843  1
  Zr  Zr5  1  0.90735650  0.10051315  0.90258744  1
  Zr  Zr6  1  0.30129861  0.50600527  0.49380112  1
  Zr  Zr7  1  0.70397300  0.10054259  0.69848923  1
  Zr  Zr8  1  0.91027376  0.69965611  0.10522239  1
  Zr  Zr9  1  0.69757981  0.69364439  0.70314333  1
  Zr  Zr10  1  0.29735816  0.09834740  0.10636721  1
  Zr  Zr11  1  0.09553328  0.29860405  0.49345320  1
  Zr  Zr12  1  0.29998549  0.29508061  0.69886882  1
  Zr  Zr13  1  0.50407962  0.09578747  0.70527306  1
  Zr  Zr14  1  0.10093980  0.29720985  0.10559892  1
  Zr  Zr15  1  0.89416723  0.89176027  0.90201109  1
  Zr  Zr16  1  0.09404381  0.50803185  0.89905606  1
  Zr  Zr17  1  0.50352843  0.10465454  0.10141604  1
  Zr  Zr18  1  0.30506110  0.29849605  0.90261471  1
  Zr  Zr19  1  0.28865626  0.90024493  0.10199570  1
  Zr  Zr20  1  0.90131907  0.09480132  0.69569258  1
  Zr  Zr21  1  0.89755870  0.50413600  0.10442545  1
  Zr  Zr22  1  0.70166328  0.30289817  0.69217296  1
  Zr  Zr23  1  0.28544770  0.29279761  0.50729070  1
  Zr  Zr24  1  0.49930281  0.70092014  0.89874053  1
  Zr  Zr25  1  0.50141871  0.89134051  0.50080360  1
  Zr  Zr26  1  0.10572672  0.49432170  0.49262699  1
  Zr  Zr27  1  0.29650042  0.50052809  0.70158010  1
  Zr  Zr28  1  0.30160034  0.29698609  0.09958370  1
  Zr  Zr29  1  0.49020772  0.49501436  0.09910868  1
  Zr  Zr30  1  0.08981186  0.90593247  0.91019874  1
  Zr  Zr31  1  0.70604843  0.89861838  0.30650378  1
  Zr  Zr32  1  0.70106070  0.89720485  0.90377073  1
  Zr  Zr33  1  0.08910084  0.29391000  0.90754827  1
  Zr  Zr34  1  0.10643933  0.29563398  0.68634340  1
  Zr  Zr35  1  0.69985458  0.10127862  0.90879871  1
  Zr  Zr36  1  0.09525961  0.69502268  0.70332545  1
  Zr  Zr37  1  0.49783925  0.29290632  0.70562955  1
  Zr  Zr38  1  0.69686099  0.49894540  0.89659633  1
  Zr  Zr39  1  0.70278335  0.50047225  0.50699263  1
  Zr  Zr40  1  0.50413922  0.50252258  0.69727547  1
  Zr  Zr41  1  0.09885864  0.90473295  0.49311756  1
  Zr  Zr42  1  0.89549882  0.30418564  0.90204108  1
  Zr  Zr43  1  0.50353981  0.90483311  0.89581507  1
  Zr  Zr44  1  0.50677906  0.09896141  0.89964378  1
  Zr  Zr45  1  0.50601725  0.30215443  0.48728575  1
  Zr  Zr46  1  0.09543934  0.09858016  0.09115056  1
  Zr  Zr47  1  0.50690289  0.89331958  0.30397909  1
  Zr  Zr48  1  0.29354413  0.69870701  0.90573688  1
  Zr  Zr49  1  0.89308122  0.90411481  0.49762232  1
  Sc  Sc50  1  0.09983577  0.69867749  0.28505992  1
  Sc  Sc51  1  0.30169466  0.90231201  0.69426418  1
  Sc  Sc52  1  0.09796741  0.69921426  0.50435951  1
  Sc  Sc53  1  0.50726918  0.89572828  0.10336144  1
  Sc  Sc54  1  0.69611027  0.70948699  0.10190421  1
  Sc  Sc55  1  0.50135568  0.30335435  0.10512754  1
  Sc  Sc56  1  0.89468426  0.10161972  0.49931464  1
  Sc  Sc57  1  0.31136581  0.69670997  0.49197167  1
  Sc  Sc58  1  0.29756454  0.90040742  0.50168966  1
  Sc  Sc59  1  0.29174113  0.90825372  0.29584200  1
  Sc  Sc60  1  0.70200502  0.30642615  0.09773893  1
  Sc  Sc61  1  0.50276565  0.09722307  0.50221169  1
  Sc  Sc62  1  0.29994358  0.70090963  0.69754235  1
  Sc  Sc63  1  0.30201418  0.09434298  0.91666228  1
  Sc  Sc64  1  0.50139171  0.70651276  0.69343094  1
  Sc  Sc65  1  0.70653704  0.30562220  0.50177833  1
  Sc  Sc66  1  0.50124517  0.69737908  0.49689266  1
  Sc  Sc67  1  0.69894376  0.90225416  0.49678237  1
  Sc  Sc68  1  0.30281662  0.50518050  0.90742933  1
  Sc  Sc69  1  0.30414107  0.89971056  0.90623006  1
  Sc  Sc70  1  0.89124843  0.29734304  0.69583060  1
  Sc  Sc71  1  0.09597544  0.50319169  0.70566640  1
  Sc  Sc72  1  0.49956530  0.49098630  0.90056767  1
  Sc  Sc73  1  0.89801040  0.69177298  0.49537162  1
  Sc  Sc74  1  0.49932839  0.70380177  0.10126036  1
  Sc  Sc75  1  0.10337799  0.29578080  0.30694875  1
  Sc  Sc76  1  0.90055461  0.29706945  0.09763580  1
  Sc  Sc77  1  0.90519975  0.90225804  0.10008653  1
  Sc  Sc78  1  0.29626206  0.09876921  0.29413312  1
  Sc  Sc79  1  0.30527258  0.09956398  0.68536523  1
  Sc  Sc80  1  0.50030342  0.50137574  0.49398794  1
  Sc  Sc81  1  0.30363981  0.29279492  0.30250073  1
  Sc  Sc82  1  0.90107430  0.91062281  0.29717320  1
  Sc  Sc83  1  0.09523657  0.89717967  0.10342151  1
  Sc  Sc84  1  0.90878487  0.50928249  0.49820154  1
  Sc  Sc85  1  0.70867806  0.49673989  0.29121198  1
  Sc  Sc86  1  0.09832365  0.90698680  0.28986409  1
  Sc  Sc87  1  0.69794768  0.49534412  0.69559130  1
  Sc  Sc88  1  0.50128872  0.70105198  0.30914811  1
  Sc  Sc89  1  0.70207246  0.71154573  0.89907010  1
  Sc  Sc90  1  0.90029207  0.89722032  0.69796566  1
  Sc  Sc91  1  0.90833236  0.29227977  0.30377362  1
  Sc  Sc92  1  0.69759796  0.70085564  0.30960203  1
  Sc  Sc93  1  0.69232810  0.29473755  0.30238234  1
  Sc  Sc94  1  0.09696550  0.09666138  0.29769016  1
  Sc  Sc95  1  0.69908548  0.30003697  0.89947675  1
  Sc  Sc96  1  0.09984191  0.09836266  0.50312647  1
  Sc  Sc97  1  0.08968904  0.89937726  0.68807391  1
  Sc  Sc98  1  0.70183196  0.89601449  0.09764165  1
  Sc  Sc99  1  0.69645319  0.89752643  0.69788067  1
  Nb  Nb100  1  0.50453491  0.30494672  0.30313839  1
  Nb  Nb101  1  0.09169427  0.09732740  0.70774314  1
  Nb  Nb102  1  0.89928595  0.69870521  0.29939550  1
  Nb  Nb103  1  0.29931386  0.51553160  0.30028693  1
  Nb  Nb104  1  0.09407054  0.09827137  0.89588300  1
  Nb  Nb105  1  0.88352643  0.09629297  0.28583082  1
  Nb  Nb106  1  0.90214325  0.30658948  0.49847169  1
  Nb  Nb107  1  0.09914020  0.70143533  0.89873194  1
  Nb  Nb108  1  0.69827252  0.50332342  0.09776557  1
  Nb  Nb109  1  0.70692849  0.10001235  0.29980412  1
  Nb  Nb110  1  0.90144952  0.70255794  0.89891485  1
  Nb  Nb111  1  0.49471318  0.48814654  0.29819470  1
  Nb  Nb112  1  0.90282816  0.69701279  0.70143169  1
  Nb  Nb113  1  0.90601533  0.50284566  0.70199933  1
  Nb  Nb114  1  0.70285800  0.70021945  0.50106219  1
  Nb  Nb115  1  0.90162818  0.50115170  0.89753969  1
  Nb  Nb116  1  0.09817328  0.50634698  0.10158209  1
  Nb  Nb117  1  0.29979591  0.70040682  0.30332307  1
  Nb  Nb118  1  0.90806693  0.50751807  0.29971599  1
  Nb  Nb119  1  0.70922516  0.10395162  0.11098397  1
  Nb  Nb120  1  0.29974339  0.50222225  0.10068611  1
  Nb  Nb121  1  0.30072490  0.09073550  0.49596052  1
  Nb  Nb122  1  0.70441516  0.10075598  0.49799550  1
  Nb  Nb123  1  0.10392895  0.49959172  0.30326599  1
  Nb  Nb124  1  0.89034492  0.10160735  0.10780744  1
  Nb  Nb125  1  -0.00140845  0.79999057  0.39313488  1
  Nb  Nb126  1  0.19101368  0.00295628  0.80089312  1
  Nb  Nb127  1  0.60409552  0.59642888  0.00347595  1
  Nb  Nb128  1  0.20046608  0.59708959  0.59752560  1
  Nb  Nb129  1  0.39213931  0.79781929  0.20562511  1
  Nb  Nb130  1  0.79820960  0.79011453  0.59861608  1
  Nb  Nb131  1  0.19678657  0.40536658  0.00558133  1
  Nb  Nb132  1  0.60966449  0.00926006  0.20501618  1
  Nb  Nb133  1  0.00600490  0.40978350  0.20639921  1
  Nb  Nb134  1  0.80070299  -0.00082188  0.80392945  1
  Nb  Nb135  1  0.19439912  0.19239517  0.80228590  1
  Nb  Nb136  1  0.19605975  0.79893653  0.39518369  1
  Nb  Nb137  1  0.19252890  0.80476083  0.80307437  1
  Nb  Nb138  1  0.59655515  0.59239128  0.19754368  1
  Nb  Nb139  1  0.19675608  0.39204967  0.80782463  1
  Nb  Nb140  1  0.60421013  0.19921026  0.59795928  1
  Nb  Nb141  1  0.80964888  0.59999161  0.80260608  1
  Nb  Nb142  1  0.39742291  0.39655958  0.59754340  1
  Nb  Nb143  1  0.81203332  0.40413585  0.39885212  1
  Nb  Nb144  1  -0.00143354  0.40076127  0.59645022  1
  Nb  Nb145  1  0.20116575  0.41272933  0.19960960  1
  Nb  Nb146  1  0.40248958  0.60197406  0.80022430  1
  Nb  Nb147  1  0.80565642  0.79732320  0.20777095  1
  Nb  Nb148  1  0.40151585  0.00136263  0.39930499  1
  Nb  Nb149  1  0.80133666  0.60069871  -0.00404773  1
  Pd  Pd150  1  0.19408276  0.00228274  0.60703991  1
  Pd  Pd151  1  0.78973745  0.61072243  0.19637474  1
  Pd  Pd152  1  0.60311333  -0.00073500  0.01169854  1
  Pd  Pd153  1  -0.00317291  0.20979505  0.79321422  1
  Pd  Pd154  1  0.81125063  0.39150993  0.20908950  1
  Pd  Pd155  1  0.40906715  0.20300734  0.58683087  1
  Pd  Pd156  1  0.38959560  0.39699044  0.20818188  1
  Pd  Pd157  1  0.20000296  0.20046432  -0.00365268  1
  Pd  Pd158  1  0.39004083  0.39886542  0.40119644  1
  Pd  Pd159  1  0.19782368  0.60110008  0.19830237  1
  Pd  Pd160  1  -0.00603905  0.18710832  0.39760140  1
  Pd  Pd161  1  0.79502466  0.59286031  0.39687402  1
  Pd  Pd162  1  -0.01110981  0.79563566  0.58750757  1
  Pd  Pd163  1  0.79692674  0.21684275  0.20192283  1
  Pd  Pd164  1  0.20414669  0.79238791  0.59617000  1
  Pd  Pd165  1  0.39524227  0.79876992  0.59739852  1
  Pd  Pd166  1  0.61359719  0.40897423  0.39566048  1
  Pd  Pd167  1  0.79986515  0.40587452  0.79460398  1
  Pd  Pd168  1  0.39609248  0.40691604  0.79812360  1
  Pd  Pd169  1  0.00406494  0.80435419  0.79983537  1
  Pd  Pd170  1  0.60147760  0.59068527  0.39201492  1
  Pd  Pd171  1  0.59704296  0.00509239  0.39653676  1
  Pd  Pd172  1  0.60481790  0.00350896  0.59580781  1
  Pd  Pd173  1  0.39465796  0.19398303  0.40557497  1
  Pd  Pd174  1  0.59634582  0.60387159  0.59527124  1
  Pd  Pd175  1  0.41180971  -0.00629591  0.20754141  1
  Pd  Pd176  1  0.19876939  0.18793752  0.39751177  1
  Pd  Pd177  1  -0.00627365  0.00509089  0.39634610  1
  Pd  Pd178  1  0.00143039  0.19924905  0.20282481  1
  Pd  Pd179  1  0.60211200  0.40205045  0.19914134  1
  Pd  Pd180  1  0.80099867  0.20714166  0.40141291  1
  Pd  Pd181  1  0.60624800  0.20572328  0.00914600  1
  Pd  Pd182  1  0.40942473  0.60820661  0.20714821  1
  Pd  Pd183  1  0.80411994  0.00094973  0.00229462  1
  Pd  Pd184  1  0.59908191  0.80318503  0.79626992  1
  Pd  Pd185  1  0.38842727  0.18312400  0.80584845  1
  Pd  Pd186  1  0.01113704  0.60986650  0.39508002  1
  Pd  Pd187  1  0.79911739  0.19554138  0.80325440  1
  Pd  Pd188  1  0.39074888  0.79738770  0.79690286  1
  Pd  Pd189  1  0.80423290  0.59998880  0.60701760  1
  Pd  Pd190  1  0.00339903  0.39070669  0.79031915  1
  Pd  Pd191  1  0.79965080  0.40511705  0.00032086  1
  Pd  Pd192  1  0.40352273  0.20552106  0.20092418  1
  Pd  Pd193  1  -0.00508584  0.20149813  0.59644960  1
  Pd  Pd194  1  0.00078566  0.40527426  0.01003881  1
  Pd  Pd195  1  0.21173723  0.39779582  0.38770863  1
  Pd  Pd196  1  0.40701002  -0.00466086  0.00961064  1
  Pd  Pd197  1  0.59963952  0.39365507  0.79990801  1
  Pd  Pd198  1  0.40309771  0.80531274  0.00867861  1
  Pd  Pd199  1  0.38509333  0.00506602  0.80064053  1
  Rh  Rh200  1  0.19670654  0.41105187  0.60737476  1
  Rh  Rh201  1  0.20740646  0.60574259  0.79700941  1
  Rh  Rh202  1  0.61084536  0.19801541  0.40820852  1
  Rh  Rh203  1  0.38665922  0.81296006  0.39077234  1
  Rh  Rh204  1  0.79655272  0.19945950  0.59067666  1
  Rh  Rh205  1  -0.00570458  0.40207689  0.39778035  1
  Rh  Rh206  1  0.80250170  0.79881098  0.78689103  1
  Rh  Rh207  1  0.19539050  0.20031949  0.20306672  1
  Rh  Rh208  1  -0.00617927  -0.00928036  0.79907747  1
  Rh  Rh209  1  0.19497284  -0.00245758  -0.00178101  1
  Rh  Rh210  1  0.19603536  0.61251783  0.40532126  1
  Rh  Rh211  1  0.59550030  0.79664084  -0.00444748  1
  Rh  Rh212  1  0.40539396  0.19680719  0.00521183  1
  Rh  Rh213  1  0.58644591  0.39076377  0.60041050  1
  Rh  Rh214  1  -0.00168167  0.00251561  0.59558279  1
  Rh  Rh215  1  0.00753118  0.59306730  0.59983588  1
  Rh  Rh216  1  -0.00794171  0.80407881  0.20857219  1
  Rh  Rh217  1  0.19595191  0.18353568  0.60106194  1
  Rh  Rh218  1  0.59833660  0.40108780  0.00058235  1
  Rh  Rh219  1  0.61088201  -0.00372126  0.80182071  1
  Rh  Rh220  1  0.19633989  0.59437789  -0.00063607  1
  Rh  Rh221  1  -0.00784462  0.00436391  0.00710726  1
  Rh  Rh222  1  0.80068307  0.20062123  0.00169023  1
  Rh  Rh223  1  0.20654937  0.79592747  0.20394106  1
  Rh  Rh224  1  0.59731064  0.60243981  0.80776354  1
  Rh  Rh225  1  0.80821190  0.79729888  0.40208294  1
  Rh  Rh226  1  -0.00550653  0.60330946  -0.00546015  1
  Rh  Rh227  1  0.80173641  0.00721383  0.40076592  1
  Rh  Rh228  1  0.19529966  0.80677553  -0.00572486  1
  Rh  Rh229  1  0.79726323  -0.00814326  0.60349256  1
  Rh  Rh230  1  0.60504559  0.20249840  0.19727786  1
  Rh  Rh231  1  0.39685378  0.59354307  0.60701148  1
  Rh  Rh232  1  0.81477355  0.41088271  0.59227527  1
  Rh  Rh233  1  0.60809054  0.20275313  0.79507568  1
  Rh  Rh234  1  -0.00702135  0.60494587  0.80628075  1
  Rh  Rh235  1  0.80734667  0.79099747  0.01469733  1
  Rh  Rh236  1  0.60651791  0.79513908  0.40861786  1
  Rh  Rh237  1  0.79362543  -0.01203541  0.19481074  1
  Rh  Rh238  1  0.40479136  -0.00337178  0.59070855  1
  Rh  Rh239  1  0.39578108  0.39756520  0.00200617  1
  Rh  Rh240  1  0.41018495  0.59529825  0.39072921  1
  Rh  Rh241  1  -0.00341251  0.00936283  0.19466754  1
  Rh  Rh242  1  0.40974522  0.59829334  -0.00710822  1
  Rh  Rh243  1  0.18970478  0.00613855  0.19329006  1
  Rh  Rh244  1  0.00648292  0.59716727  0.20357670  1
  Rh  Rh245  1  0.60303779  0.79816488  0.20746262  1
  Rh  Rh246  1  0.20437640  -0.00292280  0.40013369  1
  Rh  Rh247  1  -0.01002026  0.19541210  0.00683838  1
  Rh  Rh248  1  -0.00163833  0.79660423  -0.00027831  1
  Rh  Rh249  1  0.60746020  0.79463638  0.59573085  1
