# generated using pymatgen
data_ZrScNbPdRh
_symmetry_space_group_name_H-M   'P 1'
_cell_length_a   16.55421665
_cell_length_b   16.55485191
_cell_length_c   16.55423587
_cell_angle_alpha   90.00947341
_cell_angle_beta   90.00770522
_cell_angle_gamma   89.98635988
_symmetry_Int_Tables_number   1
_chemical_formula_structural   ZrScNbPdRh
_chemical_formula_sum   'Zr50 Sc50 Nb50 Pd50 Rh50'
_cell_volume   4536.73123362
_cell_formula_units_Z   50
loop_
 _symmetry_equiv_pos_site_id
 _symmetry_equiv_pos_as_xyz
  1  'x, y, z'
loop_
 _atom_site_type_symbol
 _atom_site_label
 _atom_site_symmetry_multiplicity
 _atom_site_fract_x
 _atom_site_fract_y
 _atom_site_fract_z
 _atom_site_occupancy
  Zr  Zr0  1  0.30965772  0.49865168  0.70019172  1
  Zr  Zr1  1  0.89747104  0.29209202  0.10073270  1
  Zr  Zr2  1  0.90370790  0.50274324  0.10137785  1
  Zr  Zr3  1  0.30529098  0.10314776  0.90064022  1
  Zr  Zr4  1  0.89725455  0.10030687  0.29354381  1
  Zr  Zr5  1  0.10377201  0.90631421  0.69432113  1
  Zr  Zr6  1  0.89968917  0.28515333  0.70063120  1
  Zr  Zr7  1  0.90471053  0.50274052  0.89607922  1
  Zr  Zr8  1  0.69572449  0.50204811  0.29988869  1
  Zr  Zr9  1  0.10073962  0.89588168  0.49662580  1
  Zr  Zr10  1  0.69709676  0.09854865  0.49616710  1
  Zr  Zr11  1  0.30346636  0.70044608  0.29704075  1
  Zr  Zr12  1  0.49674213  0.49927219  0.50264732  1
  Zr  Zr13  1  0.89946620  0.90512811  0.29584942  1
  Zr  Zr14  1  0.29722875  0.49605717  0.90896397  1
  Zr  Zr15  1  0.49953195  0.69772021  0.31014337  1
  Zr  Zr16  1  0.30620870  0.49481422  0.30206545  1
  Zr  Zr17  1  0.28820400  0.09624280  0.69558042  1
  Zr  Zr18  1  0.49360255  0.70369853  0.89970639  1
  Zr  Zr19  1  0.29959642  0.09580973  0.49077732  1
  Zr  Zr20  1  0.89819474  0.89921523  0.10137551  1
  Zr  Zr21  1  0.50676193  0.09220990  0.10451116  1
  Zr  Zr22  1  0.90137863  0.90072762  0.49591097  1
  Zr  Zr23  1  0.90758730  0.70152940  0.49451568  1
  Zr  Zr24  1  0.10078881  0.50409871  0.89907217  1
  Zr  Zr25  1  0.29701011  0.29780078  0.70089109  1
  Zr  Zr26  1  0.11225471  0.70485335  0.69460993  1
  Zr  Zr27  1  0.49964915  0.89084253  0.69514665  1
  Zr  Zr28  1  0.89797315  0.09823390  0.09369697  1
  Zr  Zr29  1  0.49626556  0.50184118  0.30002837  1
  Zr  Zr30  1  0.09761080  0.29757695  0.10149849  1
  Zr  Zr31  1  0.49418027  0.69826934  0.69649729  1
  Zr  Zr32  1  0.89996209  0.70370260  0.09650387  1
  Zr  Zr33  1  0.69367476  0.89740749  0.89757794  1
  Zr  Zr34  1  0.10095327  0.69450507  0.29910150  1
  Zr  Zr35  1  0.50160056  0.70649602  0.50149333  1
  Zr  Zr36  1  0.10235518  0.50097856  0.10649681  1
  Zr  Zr37  1  0.48635057  0.09702490  0.70255451  1
  Zr  Zr38  1  0.90528812  0.91062114  0.69317900  1
  Zr  Zr39  1  0.49129147  0.29851601  0.89947332  1
  Zr  Zr40  1  0.89646025  0.09702595  0.89952173  1
  Zr  Zr41  1  0.70166129  0.29420593  0.69642121  1
  Zr  Zr42  1  0.50297508  0.50032072  0.69326174  1
  Zr  Zr43  1  0.90381307  0.90000315  0.90520103  1
  Zr  Zr44  1  0.70127109  0.89759934  0.69559757  1
  Zr  Zr45  1  0.90094340  0.69018058  0.89881076  1
  Zr  Zr46  1  0.10626522  0.89460695  0.09985346  1
  Zr  Zr47  1  0.30029833  0.29470037  0.09790569  1
  Zr  Zr48  1  0.70730056  0.70133160  0.10920753  1
  Zr  Zr49  1  0.49733750  0.30304971  0.29754732  1
  Sc  Sc50  1  0.49320351  0.49544847  0.10589113  1
  Sc  Sc51  1  0.29529351  0.70013078  0.10228765  1
  Sc  Sc52  1  0.10636006  0.49903873  0.50141942  1
  Sc  Sc53  1  0.68632141  0.69763571  0.69882934  1
  Sc  Sc54  1  0.50578002  0.31004094  0.09323043  1
  Sc  Sc55  1  0.70605253  0.51320442  0.90137013  1
  Sc  Sc56  1  0.49617526  0.90352097  0.10182421  1
  Sc  Sc57  1  0.90106418  0.50484660  0.70600398  1
  Sc  Sc58  1  0.10730789  0.90018255  0.90482312  1
  Sc  Sc59  1  0.89712070  0.30183895  0.30391772  1
  Sc  Sc60  1  0.30587045  0.70907205  0.49962155  1
  Sc  Sc61  1  0.10727966  0.10046287  0.30440099  1
  Sc  Sc62  1  0.48208081  0.70361166  0.10843989  1
  Sc  Sc63  1  0.50015320  0.10405532  0.30301532  1
  Sc  Sc64  1  0.09953945  0.10254743  0.89831523  1
  Sc  Sc65  1  0.10758592  0.69882284  0.10400199  1
  Sc  Sc66  1  0.10431520  0.10722993  0.49810248  1
  Sc  Sc67  1  0.10372688  0.49855180  0.71053724  1
  Sc  Sc68  1  0.49358778  0.89847210  0.49672003  1
  Sc  Sc69  1  0.70814493  0.30154419  0.50169230  1
  Sc  Sc70  1  0.50552556  0.90109409  0.29741277  1
  Sc  Sc71  1  0.90158580  0.10236734  0.50429335  1
  Sc  Sc72  1  0.70168617  0.70030445  0.89556463  1
  Sc  Sc73  1  0.89303828  0.50100467  0.50213616  1
  Sc  Sc74  1  0.69915091  0.09851839  0.90527695  1
  Sc  Sc75  1  0.50234334  0.10490314  0.90299226  1
  Sc  Sc76  1  0.89776072  0.70368721  0.29278162  1
  Sc  Sc77  1  0.90406555  0.28759554  0.89687417  1
  Sc  Sc78  1  0.49354757  0.30454484  0.70167622  1
  Sc  Sc79  1  0.68965822  0.50027228  0.10344039  1
  Sc  Sc80  1  0.69069016  0.28732317  0.90746052  1
  Sc  Sc81  1  0.69890727  0.89518922  0.30417950  1
  Sc  Sc82  1  0.49818339  0.09749922  0.48762277  1
  Sc  Sc83  1  0.69519226  0.09633152  0.30318809  1
  Sc  Sc84  1  0.48906511  0.49871185  0.90352119  1
  Sc  Sc85  1  0.70269521  0.49435901  0.51225272  1
  Sc  Sc86  1  0.10652008  0.10417344  0.09448171  1
  Sc  Sc87  1  0.70683785  0.29509426  0.30837192  1
  Sc  Sc88  1  0.29444533  0.69611418  0.91092299  1
  Sc  Sc89  1  0.10348716  0.29473290  0.30473060  1
  Sc  Sc90  1  0.49535877  0.90631703  0.90563461  1
  Sc  Sc91  1  0.30217791  0.49318488  0.50226315  1
  Sc  Sc92  1  0.50238855  0.29578475  0.49956946  1
  Sc  Sc93  1  0.90622515  0.50336641  0.30135856  1
  Sc  Sc94  1  0.29702496  0.90833913  0.69185310  1
  Sc  Sc95  1  0.70512052  0.10166780  0.09474089  1
  Sc  Sc96  1  0.09230055  0.50063009  0.29549980  1
  Sc  Sc97  1  0.10261079  0.89805315  0.29988640  1
  Sc  Sc98  1  0.69626547  0.90608746  0.10371873  1
  Sc  Sc99  1  0.28961360  0.30155253  0.49678164  1
  Nb  Nb100  1  0.30062753  0.89913294  0.09486576  1
  Nb  Nb101  1  0.30025825  0.29127879  0.29657794  1
  Nb  Nb102  1  0.29482101  0.90366166  0.30598035  1
  Nb  Nb103  1  0.09830361  0.29159799  0.69904122  1
  Nb  Nb104  1  0.70220797  0.71155075  0.49214043  1
  Nb  Nb105  1  0.30290343  0.30296045  0.89943422  1
  Nb  Nb106  1  0.09493445  0.29648159  0.50735047  1
  Nb  Nb107  1  0.30132525  0.11134871  0.29524873  1
  Nb  Nb108  1  0.71113874  0.09786929  0.69739959  1
  Nb  Nb109  1  0.30310001  0.70551561  0.70174054  1
  Nb  Nb110  1  0.69765177  0.70237063  0.30580285  1
  Nb  Nb111  1  0.09873756  0.30695387  0.89325897  1
  Nb  Nb112  1  0.29774189  0.50352601  0.10188598  1
  Nb  Nb113  1  0.30127336  0.90738079  0.49261730  1
  Nb  Nb114  1  0.90061149  0.30281108  0.50222456  1
  Nb  Nb115  1  0.90632417  0.70384830  0.69519871  1
  Nb  Nb116  1  0.10196383  0.69805362  0.89416854  1
  Nb  Nb117  1  0.30042985  0.89690896  0.91084383  1
  Nb  Nb118  1  0.89258998  0.09816056  0.70013935  1
  Nb  Nb119  1  0.69993409  0.89735131  0.49772581  1
  Nb  Nb120  1  0.30123803  0.10095870  0.10886398  1
  Nb  Nb121  1  0.70045007  0.30045668  0.10136277  1
  Nb  Nb122  1  0.69516222  0.49268541  0.70028180  1
  Nb  Nb123  1  0.09825139  0.69755055  0.49704788  1
  Nb  Nb124  1  0.09799492  0.10681667  0.69290378  1
  Nb  Nb125  1  0.80245306  0.39848818  -0.00002034  1
  Nb  Nb126  1  -0.00002321  0.39769032  -0.00426059  1
  Nb  Nb127  1  0.79264822  0.60768418  0.40077249  1
  Nb  Nb128  1  0.19984094  0.60266088  0.40037610  1
  Nb  Nb129  1  0.59676719  0.79409836  0.00389533  1
  Nb  Nb130  1  -0.00302103  0.19656989  0.19979655  1
  Nb  Nb131  1  0.38924689  0.80097502  0.80082889  1
  Nb  Nb132  1  0.60144368  0.00233150  0.60083728  1
  Nb  Nb133  1  0.60570338  0.40294036  0.79897446  1
  Nb  Nb134  1  0.00281566  0.39439762  0.60281363  1
  Nb  Nb135  1  0.00527718  0.60231374  0.60006952  1
  Nb  Nb136  1  0.79454806  0.39666335  0.80348488  1
  Nb  Nb137  1  0.59808819  0.18958077  0.60503111  1
  Nb  Nb138  1  0.39672100  0.19426655  0.59884130  1
  Nb  Nb139  1  0.60472946  0.20560029  0.19729417  1
  Nb  Nb140  1  0.80160438  0.79828176  0.59687158  1
  Nb  Nb141  1  0.59392418  0.60919985  0.00414247  1
  Nb  Nb142  1  0.00270707  0.79789509  0.79772679  1
  Nb  Nb143  1  0.60081219  0.00318477  0.78963736  1
  Nb  Nb144  1  0.21325876  0.00219853  0.19794928  1
  Nb  Nb145  1  0.59938926  0.40248255  0.40015105  1
  Nb  Nb146  1  -0.00015089  0.39376425  0.41197752  1
  Nb  Nb147  1  0.81107914  0.79909016  0.79125020  1
  Nb  Nb148  1  0.79857431  0.39808549  0.19539362  1
  Nb  Nb149  1  0.20611461  0.39543988  0.20059532  1
  Pd  Pd150  1  0.20396764  0.59866324  0.59434716  1
  Pd  Pd151  1  0.19379734  0.40157019  0.60753762  1
  Pd  Pd152  1  0.80354403  0.19563202  0.40449858  1
  Pd  Pd153  1  0.00612457  0.01082887  0.59310272  1
  Pd  Pd154  1  0.39247321  0.60431250  0.80509631  1
  Pd  Pd155  1  0.19921444  0.20064239  0.80583737  1
  Pd  Pd156  1  0.19505644  0.39675514  0.00483822  1
  Pd  Pd157  1  0.80307124  0.59386240  0.20605954  1
  Pd  Pd158  1  0.79484837  -0.00417112  0.80545107  1
  Pd  Pd159  1  0.79204479  0.80126544  -0.00518999  1
  Pd  Pd160  1  0.81140964  0.40025591  0.61246562  1
  Pd  Pd161  1  0.78999066  0.00041756  0.19931582  1
  Pd  Pd162  1  0.00823931  -0.00016796  0.80058002  1
  Pd  Pd163  1  0.40430592  -0.00134768  0.38862051  1
  Pd  Pd164  1  0.00932267  0.60050165  0.00606085  1
  Pd  Pd165  1  0.60622646  0.60380187  0.59176922  1
  Pd  Pd166  1  -0.00291966  0.20221636  0.39497076  1
  Pd  Pd167  1  0.00537057  0.00509664  0.40011364  1
  Pd  Pd168  1  0.20011439  0.20229110  -0.00973823  1
  Pd  Pd169  1  0.60662865  0.59361163  0.41297334  1
  Pd  Pd170  1  0.01518119  0.00791006  0.19602222  1
  Pd  Pd171  1  -0.00085166  0.80092017  0.38779717  1
  Pd  Pd172  1  0.59487849  0.59244161  0.80809037  1
  Pd  Pd173  1  0.39866368  -0.00843837  0.80347507  1
  Pd  Pd174  1  0.40277070  0.39097164  0.40717178  1
  Pd  Pd175  1  0.79956352  0.00187243  0.39951040  1
  Pd  Pd176  1  0.20424476  0.00433508  0.00289742  1
  Pd  Pd177  1  0.21020071  0.59977841  0.79992838  1
  Pd  Pd178  1  0.79445630  0.60321753  0.78557563  1
  Pd  Pd179  1  0.19868510  -0.00058613  0.80559010  1
  Pd  Pd180  1  0.39200152  0.60325318  0.59268504  1
  Pd  Pd181  1  0.39997859  0.00659183  0.00254689  1
  Pd  Pd182  1  0.00971518  0.79312972  -0.00590003  1
  Pd  Pd183  1  0.39675104  -0.00398330  0.20815527  1
  Pd  Pd184  1  0.41428241  0.20433598  0.19049476  1
  Pd  Pd185  1  0.20300756  0.39850316  0.79780610  1
  Pd  Pd186  1  0.20843901  0.80563554  0.59064289  1
  Pd  Pd187  1  0.40529411  0.19732943  0.00804228  1
  Pd  Pd188  1  0.00329495  0.19039550  0.79952833  1
  Pd  Pd189  1  0.59736059  0.79726906  0.19655163  1
  Pd  Pd190  1  0.60685906  0.41089269  -0.01222128  1
  Pd  Pd191  1  0.00608804  0.00115706  0.00333192  1
  Pd  Pd192  1  0.20323908  0.80640118  0.80596257  1
  Pd  Pd193  1  0.39490688  0.80942851  0.20508274  1
  Pd  Pd194  1  0.19188383  0.40379387  0.39225037  1
  Pd  Pd195  1  0.59036952  0.60926859  0.19433412  1
  Pd  Pd196  1  0.00289496  0.79805586  0.20257464  1
  Pd  Pd197  1  0.60115966  0.19725769  0.79396371  1
  Pd  Pd198  1  0.20225362  0.79360328  0.40148710  1
  Pd  Pd199  1  0.80096580  0.60785797  0.60021818  1
  Rh  Rh200  1  0.19618277  0.60260357  0.00142108  1
  Rh  Rh201  1  0.60347467  0.00720436  0.20440332  1
  Rh  Rh202  1  0.79750613  -0.00315787  0.59031589  1
  Rh  Rh203  1  0.19991576  0.00232095  0.39446318  1
  Rh  Rh204  1  -0.00261041  0.61058335  0.19516997  1
  Rh  Rh205  1  -0.00302646  0.19691093  0.60141582  1
  Rh  Rh206  1  0.20794738  0.81049383  0.19940923  1
  Rh  Rh207  1  0.39804186  0.59756367  0.19964773  1
  Rh  Rh208  1  0.39491938  0.40000437  0.00427334  1
  Rh  Rh209  1  0.59382955  0.80513832  0.39967096  1
  Rh  Rh210  1  0.40165126  0.00225427  0.59158788  1
  Rh  Rh211  1  0.39350922  0.20502234  0.40497991  1
  Rh  Rh212  1  0.19301624  0.00099554  0.58900898  1
  Rh  Rh213  1  0.00500243  0.20286096  -0.00039487  1
  Rh  Rh214  1  -0.00658078  0.39169456  0.79879020  1
  Rh  Rh215  1  0.40213944  0.40119456  0.80063129  1
  Rh  Rh216  1  0.60491257  0.80277039  0.59101877  1
  Rh  Rh217  1  0.80113894  0.41361707  0.39169149  1
  Rh  Rh218  1  0.79614072  0.19920956  0.80634934  1
  Rh  Rh219  1  0.79832823  -0.00608553  -0.00024027  1
  Rh  Rh220  1  0.39948072  0.80132052  -0.00243281  1
  Rh  Rh221  1  0.00057857  0.38595628  0.20491533  1
  Rh  Rh222  1  0.01045760  0.61186430  0.78819854  1
  Rh  Rh223  1  0.40010438  0.59644515  0.00775715  1
  Rh  Rh224  1  0.59922008  0.21031445  0.39767612  1
  Rh  Rh225  1  0.39091735  0.20122716  0.79610389  1
  Rh  Rh226  1  0.59827253  -0.00820944  0.40360436  1
  Rh  Rh227  1  0.79128841  0.59514420  0.01198185  1
  Rh  Rh228  1  0.20251597  0.20305420  0.40257360  1
  Rh  Rh229  1  0.61030878  0.38946299  0.21300389  1
  Rh  Rh230  1  0.59499265  0.19562187  0.01114219  1
  Rh  Rh231  1  0.79769098  0.80652624  0.20588498  1
  Rh  Rh232  1  0.19960990  0.79411195  0.00121115  1
  Rh  Rh233  1  0.00157145  0.58836378  0.41123647  1
  Rh  Rh234  1  0.58950557  0.80559625  0.80926147  1
  Rh  Rh235  1  0.60095806  -0.00587134  -0.00523286  1
  Rh  Rh236  1  0.79776939  0.20102557  0.20303053  1
  Rh  Rh237  1  0.79783797  0.19437748  0.59264690  1
  Rh  Rh238  1  0.39171439  0.60220478  0.40582058  1
  Rh  Rh239  1  0.39024582  0.80638354  0.60350088  1
  Rh  Rh240  1  0.20475608  0.19836402  0.59622417  1
  Rh  Rh241  1  0.79762250  0.20203204  -0.00655520  1
  Rh  Rh242  1  0.19299421  0.19846734  0.20357753  1
  Rh  Rh243  1  0.00226210  0.79653528  0.60290167  1
  Rh  Rh244  1  0.38950504  0.39665154  0.19235215  1
  Rh  Rh245  1  0.20566308  0.58958995  0.20934956  1
  Rh  Rh246  1  0.39880535  0.38896651  0.59768027  1
  Rh  Rh247  1  0.59678832  0.38836447  0.59943731  1
  Rh  Rh248  1  0.80574524  0.79843352  0.39831687  1
  Rh  Rh249  1  0.40042892  0.80737024  0.39500953  1
