# generated using pymatgen
data_ZrScNbPdRh
_symmetry_space_group_name_H-M   'P 1'
_cell_length_a   16.55646714
_cell_length_b   16.55740803
_cell_length_c   16.55631372
_cell_angle_alpha   90.05333542
_cell_angle_beta   89.99008801
_cell_angle_gamma   90.02842090
_symmetry_Int_Tables_number   1
_chemical_formula_structural   ZrScNbPdRh
_chemical_formula_sum   'Zr50 Sc50 Nb50 Pd50 Rh50'
_cell_volume   4538.61581487
_cell_formula_units_Z   50
loop_
 _symmetry_equiv_pos_site_id
 _symmetry_equiv_pos_as_xyz
  1  'x, y, z'
loop_
 _atom_site_type_symbol
 _atom_site_label
 _atom_site_symmetry_multiplicity
 _atom_site_fract_x
 _atom_site_fract_y
 _atom_site_fract_z
 _atom_site_occupancy
  Zr  Zr0  1  0.49914634  0.28716773  0.30611676  1
  Zr  Zr1  1  0.70498008  0.90270610  0.70045155  1
  Zr  Zr2  1  0.49842764  0.29466027  0.89660125  1
  Zr  Zr3  1  0.30588581  0.69704260  0.09812629  1
  Zr  Zr4  1  0.49120343  0.09708424  0.10720140  1
  Zr  Zr5  1  0.50108969  0.69436390  0.90649442  1
  Zr  Zr6  1  0.70559170  0.49879201  0.70818787  1
  Zr  Zr7  1  0.30100874  0.89858458  0.30982580  1
  Zr  Zr8  1  0.69929781  0.30869230  0.89824887  1
  Zr  Zr9  1  0.09778864  0.70272999  0.90162845  1
  Zr  Zr10  1  0.89838860  0.89628536  0.09672845  1
  Zr  Zr11  1  0.70188200  0.70582312  0.69556587  1
  Zr  Zr12  1  0.10437231  0.89354042  0.89382899  1
  Zr  Zr13  1  0.50358079  0.29804925  0.69858968  1
  Zr  Zr14  1  0.69597085  0.49746426  0.49056977  1
  Zr  Zr15  1  0.28913168  0.70362135  0.29949818  1
  Zr  Zr16  1  0.68990839  0.49879205  0.08855861  1
  Zr  Zr17  1  0.70341300  0.10869491  0.10115917  1
  Zr  Zr18  1  0.48696863  0.89524529  0.50007216  1
  Zr  Zr19  1  0.29571047  0.68722236  0.70215901  1
  Zr  Zr20  1  0.50696163  0.10638128  0.70296193  1
  Zr  Zr21  1  0.29760061  0.28952318  0.50176549  1
  Zr  Zr22  1  0.89984975  0.09877896  0.69848312  1
  Zr  Zr23  1  0.50121292  0.49973010  0.49824932  1
  Zr  Zr24  1  0.29322966  0.90689054  0.50015438  1
  Zr  Zr25  1  0.09344532  0.70550013  0.50189579  1
  Zr  Zr26  1  0.48685328  0.49634475  0.70131178  1
  Zr  Zr27  1  0.89793742  0.30560385  0.89941030  1
  Zr  Zr28  1  0.10904636  0.50214413  0.70445645  1
  Zr  Zr29  1  0.29786544  0.10142663  0.89451178  1
  Zr  Zr30  1  0.30993520  0.10009286  0.30053096  1
  Zr  Zr31  1  0.11020888  0.88392889  0.30963121  1
  Zr  Zr32  1  0.69769939  0.29530462  0.30053287  1
  Zr  Zr33  1  0.90201461  0.49996027  0.49502314  1
  Zr  Zr34  1  0.49360244  0.09508238  0.89732809  1
  Zr  Zr35  1  0.70741931  0.89860227  0.89604798  1
  Zr  Zr36  1  0.89962477  0.50140333  0.29902356  1
  Zr  Zr37  1  0.70592328  0.70266890  0.49563052  1
  Zr  Zr38  1  0.90112737  0.29448926  0.69793005  1
  Zr  Zr39  1  0.29565847  0.49636085  0.88596185  1
  Zr  Zr40  1  0.49841503  0.69833455  0.09919554  1
  Zr  Zr41  1  0.09738567  0.29225140  0.69157119  1
  Zr  Zr42  1  0.90056089  0.49773772  0.70130231  1
  Zr  Zr43  1  0.89470410  0.90878644  0.69651766  1
  Zr  Zr44  1  0.30169179  0.30037896  0.70520512  1
  Zr  Zr45  1  0.28255043  0.29084255  0.10860337  1
  Zr  Zr46  1  0.09351561  0.90224574  0.11297570  1
  Zr  Zr47  1  0.30861004  0.90026128  0.90289773  1
  Zr  Zr48  1  0.92252796  0.91850384  0.29799768  1
  Zr  Zr49  1  0.70189797  0.89596098  0.29895106  1
  Sc  Sc50  1  0.30319197  0.50099333  0.09735410  1
  Sc  Sc51  1  0.49384065  0.10287460  0.50116678  1
  Sc  Sc52  1  0.49257133  0.89825967  0.29934939  1
  Sc  Sc53  1  0.51010226  0.90450663  0.69595368  1
  Sc  Sc54  1  0.70865608  0.70954068  0.10416379  1
  Sc  Sc55  1  0.51003568  0.50481671  0.31150694  1
  Sc  Sc56  1  0.90503479  0.70668036  0.90683609  1
  Sc  Sc57  1  0.30591489  0.70406725  0.50332581  1
  Sc  Sc58  1  0.70734834  0.89693963  0.50413663  1
  Sc  Sc59  1  0.09241037  0.48921461  0.90557422  1
  Sc  Sc60  1  0.89825673  0.69447531  0.29994894  1
  Sc  Sc61  1  0.90862373  0.89730293  0.50241572  1
  Sc  Sc62  1  0.29555269  0.29663185  0.29817135  1
  Sc  Sc63  1  0.09519496  0.70326909  0.10397956  1
  Sc  Sc64  1  0.11391262  0.31541192  0.29269471  1
  Sc  Sc65  1  0.49299635  0.50776143  0.08557178  1
  Sc  Sc66  1  0.70343829  0.29821274  0.09513308  1
  Sc  Sc67  1  0.89364903  0.09509856  0.50243221  1
  Sc  Sc68  1  0.70573786  0.70323626  0.89588489  1
  Sc  Sc69  1  0.90641177  0.69785876  0.09816849  1
  Sc  Sc70  1  0.08875590  0.07632470  0.30622986  1
  Sc  Sc71  1  0.09871289  0.89993668  0.69522323  1
  Sc  Sc72  1  0.29391838  0.70727203  0.89737330  1
  Sc  Sc73  1  0.49808085  0.70257189  0.30989802  1
  Sc  Sc74  1  0.90425529  0.49837216  0.10343075  1
  Sc  Sc75  1  0.70103859  0.11217558  0.89463396  1
  Sc  Sc76  1  0.70769616  0.49440028  0.30291940  1
  Sc  Sc77  1  0.29313735  0.10356279  0.69668732  1
  Sc  Sc78  1  0.70656265  0.10118741  0.69317887  1
  Sc  Sc79  1  0.90292241  0.89678642  0.89564016  1
  Sc  Sc80  1  0.90087921  0.11050529  0.10071207  1
  Sc  Sc81  1  0.28644246  0.50511023  0.29962479  1
  Sc  Sc82  1  0.49980291  0.49459806  0.90621216  1
  Sc  Sc83  1  0.89814719  0.10781034  0.89295796  1
  Sc  Sc84  1  0.10409214  0.08954484  0.51387792  1
  Sc  Sc85  1  0.88486963  0.31027600  0.30097401  1
  Sc  Sc86  1  0.10001754  0.29577661  0.90300124  1
  Sc  Sc87  1  0.29781972  0.50819515  0.49955794  1
  Sc  Sc88  1  0.69425774  0.29689824  0.49632283  1
  Sc  Sc89  1  0.89538788  0.30272531  0.10208883  1
  Sc  Sc90  1  0.89774858  0.69519236  0.68869574  1
  Sc  Sc91  1  0.30258998  0.89341695  0.69138084  1
  Sc  Sc92  1  0.10639563  0.11753993  0.10053329  1
  Sc  Sc93  1  0.70329058  0.70077422  0.30360837  1
  Sc  Sc94  1  0.09562059  0.30652877  0.09714626  1
  Sc  Sc95  1  0.50415830  0.29650223  0.50625756  1
  Sc  Sc96  1  0.09036816  0.49949276  0.10265758  1
  Sc  Sc97  1  0.09390342  0.49699851  0.49013751  1
  Sc  Sc98  1  0.31408889  0.89537572  0.10178884  1
  Sc  Sc99  1  0.29327953  0.30024234  0.89802966  1
  Nb  Nb100  1  0.70118217  0.90387321  0.10293159  1
  Nb  Nb101  1  0.50243687  0.90196157  0.09608469  1
  Nb  Nb102  1  0.50274192  0.69522074  0.50279450  1
  Nb  Nb103  1  0.89400032  0.50251869  0.89378527  1
  Nb  Nb104  1  0.10156310  0.09738857  0.70871704  1
  Nb  Nb105  1  0.69794701  0.29749482  0.69892936  1
  Nb  Nb106  1  0.29427882  0.09534627  0.49634316  1
  Nb  Nb107  1  0.10463622  0.69882866  0.70737970  1
  Nb  Nb108  1  0.70492429  0.10530557  0.30477749  1
  Nb  Nb109  1  0.10128975  0.90433418  0.49644297  1
  Nb  Nb110  1  0.10491114  0.09469770  0.89861169  1
  Nb  Nb111  1  0.29531867  0.49451493  0.70088582  1
  Nb  Nb112  1  0.09725392  0.30011016  0.50041669  1
  Nb  Nb113  1  0.70318889  0.50450394  0.89680294  1
  Nb  Nb114  1  0.89581996  0.10585276  0.30389759  1
  Nb  Nb115  1  0.49667192  0.30454482  0.09618770  1
  Nb  Nb116  1  0.49994158  0.90174015  0.90304529  1
  Nb  Nb117  1  0.29624519  0.09793383  0.10251215  1
  Nb  Nb118  1  0.91556110  0.30962718  0.50742085  1
  Nb  Nb119  1  0.49971788  0.70031975  0.69778021  1
  Nb  Nb120  1  0.10038887  0.51172779  0.29815040  1
  Nb  Nb121  1  0.69975132  0.09958733  0.48947927  1
  Nb  Nb122  1  0.10835812  0.69312297  0.29908277  1
  Nb  Nb123  1  0.89441899  0.69743236  0.50132410  1
  Nb  Nb124  1  0.50454877  0.09789861  0.30203464  1
  Nb  Nb125  1  0.60004665  0.59831372  0.19736251  1
  Nb  Nb126  1  0.59969830  0.60090752  0.79567803  1
  Nb  Nb127  1  0.40958463  0.79795237  0.79754061  1
  Nb  Nb128  1  0.59987098  0.80993995  0.00257816  1
  Nb  Nb129  1  0.59679442  0.60223775  0.60312427  1
  Nb  Nb130  1  0.60214118  0.00426201  0.39521120  1
  Nb  Nb131  1  0.80229895  0.39468939  0.59947558  1
  Nb  Nb132  1  0.80119253  0.59564227  -0.00576450  1
  Nb  Nb133  1  0.19946721  0.39763656  0.59944507  1
  Nb  Nb134  1  0.60310576  0.00196712  0.20246077  1
  Nb  Nb135  1  0.00534675  0.00493622  -0.00282596  1
  Nb  Nb136  1  0.39858041  0.39714427  0.39751255  1
  Nb  Nb137  1  0.79861292  0.00566974  0.20255452  1
  Nb  Nb138  1  0.19902619  0.00086131  0.00324888  1
  Nb  Nb139  1  0.40551408  0.39867441  0.20302537  1
  Nb  Nb140  1  0.39468607  0.19870500  0.00666262  1
  Nb  Nb141  1  0.19509842  0.60055056  -0.00403982  1
  Nb  Nb142  1  0.00262600  0.20482454  0.40154164  1
  Nb  Nb143  1  0.20604951  -0.00036117  0.19769892  1
  Nb  Nb144  1  0.79915524  0.00091844  0.00330484  1
  Nb  Nb145  1  -0.00149123  0.20143319  0.21756525  1
  Nb  Nb146  1  0.00049857  0.60076781  0.80005241  1
  Nb  Nb147  1  0.59096726  0.39993199  0.19486474  1
  Nb  Nb148  1  0.60214522  -0.00312551  0.00373479  1
  Nb  Nb149  1  0.19084446  0.19458341  0.40384286  1
  Pd  Pd150  1  0.00393593  0.19909745  0.80299106  1
  Pd  Pd151  1  0.79411791  0.59454003  0.19060625  1
  Pd  Pd152  1  0.19543369  0.59781221  0.18555490  1
  Pd  Pd153  1  0.59447259  0.79647687  0.80562227  1
  Pd  Pd154  1  0.20724935  -0.00839011  0.79627608  1
  Pd  Pd155  1  0.80454096  0.40672177  0.00443305  1
  Pd  Pd156  1  0.19779726  0.79815571  0.60061318  1
  Pd  Pd157  1  0.39413719  0.59650044  0.39336142  1
  Pd  Pd158  1  0.20588436  0.39763803  0.40682284  1
  Pd  Pd159  1  0.81539099  0.80783218  0.39426213  1
  Pd  Pd160  1  0.59178821  0.19638515  0.00067113  1
  Pd  Pd161  1  0.38979831  0.39979013  0.58979833  1
  Pd  Pd162  1  0.80055627  -0.00901475  0.39871431  1
  Pd  Pd163  1  0.60743388  0.40510762  0.60272098  1
  Pd  Pd164  1  0.39896390  0.20618939  0.19583223  1
  Pd  Pd165  1  0.40799397  0.59038222  0.21262312  1
  Pd  Pd166  1  -0.00096574  0.39445085  0.20615621  1
  Pd  Pd167  1  0.38808473  0.39119428  0.00227759  1
  Pd  Pd168  1  0.60765657  0.00538878  0.80470646  1
  Pd  Pd169  1  0.39845206  -0.00727025  0.78587495  1
  Pd  Pd170  1  0.00114773  0.18601099  0.59291415  1
  Pd  Pd171  1  0.59445715  0.40565134  0.80192477  1
  Pd  Pd172  1  0.60342716  0.00502155  0.58785089  1
  Pd  Pd173  1  0.79640523  0.20588552  0.59062168  1
  Pd  Pd174  1  0.40215641  0.79868327  0.20372297  1
  Pd  Pd175  1  0.81107377  0.21134518  0.41157822  1
  Pd  Pd176  1  0.79254749  0.59052768  0.59361001  1
  Pd  Pd177  1  0.40086542  0.60036749  0.59841568  1
  Pd  Pd178  1  0.81297475  0.79369158  0.79478545  1
  Pd  Pd179  1  0.00257523  0.39449850  0.38540809  1
  Pd  Pd180  1  0.00710887  0.59624690  0.60368670  1
  Pd  Pd181  1  0.40334870  0.60315366  0.80542842  1
  Pd  Pd182  1  0.59993581  0.20284237  0.19625778  1
  Pd  Pd183  1  -0.00106954  0.80055251  0.60494015  1
  Pd  Pd184  1  0.19746080  0.80233144  0.01173126  1
  Pd  Pd185  1  0.59477279  0.79733464  0.19792626  1
  Pd  Pd186  1  0.39830579  0.19308631  0.60275252  1
  Pd  Pd187  1  0.00013791  0.60783002  0.39658635  1
  Pd  Pd188  1  -0.00684134  0.79331369  0.78727362  1
  Pd  Pd189  1  -0.00218590  0.00104058  0.80437257  1
  Pd  Pd190  1  0.00488750  0.40018344  0.79746238  1
  Pd  Pd191  1  0.59862917  0.79920742  0.59309108  1
  Pd  Pd192  1  0.81307158  0.80605895  0.20879013  1
  Pd  Pd193  1  0.19247280  0.59568295  0.59033910  1
  Pd  Pd194  1  -0.00519146  0.79164111  0.39683541  1
  Pd  Pd195  1  0.39803947  0.00718091  0.60549243  1
  Pd  Pd196  1  0.19999957  0.40683290  0.00487396  1
  Pd  Pd197  1  -0.00432913  0.79001422  0.20920286  1
  Pd  Pd198  1  0.59711842  0.80672970  0.40430937  1
  Pd  Pd199  1  -0.00198256  0.19994897  0.00168528  1
  Rh  Rh200  1  0.20022140  0.00470278  0.39498694  1
  Rh  Rh201  1  0.60681329  0.60953972  0.39873426  1
  Rh  Rh202  1  0.20445678  0.19526753  -0.00744522  1
  Rh  Rh203  1  0.80565617  0.20101004  -0.00608007  1
  Rh  Rh204  1  0.40212061  0.39456838  0.80213338  1
  Rh  Rh205  1  0.19345371  0.20268376  0.79919829  1
  Rh  Rh206  1  0.00194783  0.60301417  0.20553310  1
  Rh  Rh207  1  -0.00230225  0.01657154  0.18582029  1
  Rh  Rh208  1  0.78624970  0.40229981  0.19393786  1
  Rh  Rh209  1  0.40758176  0.79649757  -0.00609242  1
  Rh  Rh210  1  0.38122854  0.59884141  -0.01367169  1
  Rh  Rh211  1  0.59631597  0.19287300  0.40753359  1
  Rh  Rh212  1  0.80574075  0.61072112  0.80706319  1
  Rh  Rh213  1  0.79778875  0.79897075  0.00023534  1
  Rh  Rh214  1  0.80182573  0.39412063  0.41245568  1
  Rh  Rh215  1  0.39909852  -0.00545681  0.20442021  1
  Rh  Rh216  1  -0.00235396  0.00732211  0.41711927  1
  Rh  Rh217  1  0.80190700  0.60092977  0.40047199  1
  Rh  Rh218  1  0.59800688  0.39538525  -0.00220679  1
  Rh  Rh219  1  0.60632078  0.19259231  0.59719377  1
  Rh  Rh220  1  0.39737068  0.00724615  0.00121917  1
  Rh  Rh221  1  0.39781166  0.20124389  0.80159652  1
  Rh  Rh222  1  0.61522134  0.61577065  0.00003966  1
  Rh  Rh223  1  0.60603629  0.20036841  0.79635708  1
  Rh  Rh224  1  0.00512267  0.81120097  0.00247809  1
  Rh  Rh225  1  0.79675550  -0.00025479  0.59469741  1
  Rh  Rh226  1  0.19685195  0.19797796  0.59811748  1
  Rh  Rh227  1  0.79920095  0.00655288  0.80585455  1
  Rh  Rh228  1  0.19527065  0.60666523  0.40705542  1
  Rh  Rh229  1  0.80664099  0.20120916  0.20135855  1
  Rh  Rh230  1  0.40729627  0.00372421  0.40238080  1
  Rh  Rh231  1  0.20138973  0.79184679  0.41439712  1
  Rh  Rh232  1  0.80842318  0.80350835  0.59801447  1
  Rh  Rh233  1  0.00495843  0.40968355  0.60516145  1
  Rh  Rh234  1  0.39537378  0.19910247  0.40509072  1
  Rh  Rh235  1  0.19157440  0.38938725  0.79356425  1
  Rh  Rh236  1  0.59266156  0.39049057  0.39175681  1
  Rh  Rh237  1  0.20655018  0.80480406  0.19470110  1
  Rh  Rh238  1  0.40329436  0.79510940  0.60594495  1
  Rh  Rh239  1  0.19860832  -0.00233258  0.60719408  1
  Rh  Rh240  1  0.18574595  0.18323553  0.22255845  1
  Rh  Rh241  1  0.39647839  0.79456799  0.40430080  1
  Rh  Rh242  1  0.80043807  0.39064696  0.79320426  1
  Rh  Rh243  1  0.00231736  0.00016750  0.60294670  1
  Rh  Rh244  1  0.79601171  0.20543844  0.79662725  1
  Rh  Rh245  1  0.20993389  0.80256076  0.79046432  1
  Rh  Rh246  1  -0.00868276  0.39880271  -0.00037494  1
  Rh  Rh247  1  -0.00295340  0.59476148  -0.00886492  1
  Rh  Rh248  1  0.20434986  0.41219369  0.19410433  1
  Rh  Rh249  1  0.19092773  0.59970347  0.81103290  1
