# generated using pymatgen
data_ZrScNbPdRh
_symmetry_space_group_name_H-M   'P 1'
_cell_length_a   16.56049618
_cell_length_b   16.55695414
_cell_length_c   16.56303143
_cell_angle_alpha   90.01427301
_cell_angle_beta   90.00229702
_cell_angle_gamma   90.00929381
_symmetry_Int_Tables_number   1
_chemical_formula_structural   ZrScNbPdRh
_chemical_formula_sum   'Zr50 Sc50 Nb50 Pd50 Rh50'
_cell_volume   4541.44017168
_cell_formula_units_Z   50
loop_
 _symmetry_equiv_pos_site_id
 _symmetry_equiv_pos_as_xyz
  1  'x, y, z'
loop_
 _atom_site_type_symbol
 _atom_site_label
 _atom_site_symmetry_multiplicity
 _atom_site_fract_x
 _atom_site_fract_y
 _atom_site_fract_z
 _atom_site_occupancy
  Zr  Zr0  1  0.30579372  0.09902738  0.29616558  1
  Zr  Zr1  1  0.51079529  0.29248383  0.30962286  1
  Zr  Zr2  1  0.50485671  0.10632553  0.49895779  1
  Zr  Zr3  1  0.50594624  0.69620276  0.29269386  1
  Zr  Zr4  1  0.30560123  0.89634057  0.50538257  1
  Zr  Zr5  1  0.09258392  0.29657032  0.10270849  1
  Zr  Zr6  1  0.50099470  0.69522167  0.70154308  1
  Zr  Zr7  1  0.70762207  0.89030652  0.70119778  1
  Zr  Zr8  1  0.09188985  0.30243602  0.90192124  1
  Zr  Zr9  1  0.11165746  0.89358509  0.10441733  1
  Zr  Zr10  1  0.70714256  0.90431461  0.08313966  1
  Zr  Zr11  1  0.50687343  0.70379447  0.09689147  1
  Zr  Zr12  1  0.70140491  0.10163227  0.10223088  1
  Zr  Zr13  1  0.70075790  0.50635499  0.70377244  1
  Zr  Zr14  1  0.49802493  0.10464035  0.70513789  1
  Zr  Zr15  1  0.89941836  0.50284913  0.70424082  1
  Zr  Zr16  1  0.89999122  0.30705582  0.29608662  1
  Zr  Zr17  1  0.49880617  0.69384653  0.50311759  1
  Zr  Zr18  1  0.88993645  0.88760223  0.90975051  1
  Zr  Zr19  1  0.10855672  0.09600055  0.69713277  1
  Zr  Zr20  1  0.30251886  0.90240260  0.70525381  1
  Zr  Zr21  1  0.70374945  0.69756320  0.69874917  1
  Zr  Zr22  1  0.29867327  0.50324887  0.89639825  1
  Zr  Zr23  1  0.70648212  0.09974985  0.50760716  1
  Zr  Zr24  1  0.48929039  0.89845456  0.69723285  1
  Zr  Zr25  1  0.10236523  0.88918227  0.30393098  1
  Zr  Zr26  1  0.30122679  0.09945927  0.88842433  1
  Zr  Zr27  1  0.89464496  0.09394028  0.30048916  1
  Zr  Zr28  1  0.29984527  0.09229423  0.10742861  1
  Zr  Zr29  1  0.89548246  0.30688088  0.70448893  1
  Zr  Zr30  1  0.90368820  0.89711603  0.28911183  1
  Zr  Zr31  1  0.09113476  0.50532076  0.69918468  1
  Zr  Zr32  1  0.49117007  0.49812789  0.30488212  1
  Zr  Zr33  1  0.89731516  0.09585201  0.50247530  1
  Zr  Zr34  1  0.89695208  0.50025928  0.89649097  1
  Zr  Zr35  1  0.08871326  0.50444169  0.30648638  1
  Zr  Zr36  1  0.09916429  0.89016274  0.70468248  1
  Zr  Zr37  1  0.50204517  0.89584210  0.90688285  1
  Zr  Zr38  1  0.69911285  0.71177394  0.90117437  1
  Zr  Zr39  1  0.70586469  0.89818346  0.50104832  1
  Zr  Zr40  1  0.89928597  0.90189991  0.49423970  1
  Zr  Zr41  1  0.70231635  0.49641039  0.09638012  1
  Zr  Zr42  1  0.69226130  0.10336491  0.29929667  1
  Zr  Zr43  1  0.69940916  0.50197176  0.29792806  1
  Zr  Zr44  1  0.09749780  0.10258848  0.50400686  1
  Zr  Zr45  1  0.09314586  0.30030442  0.30364715  1
  Zr  Zr46  1  0.29662606  0.30355953  0.10023534  1
  Zr  Zr47  1  0.29559882  0.69768492  0.30633660  1
  Zr  Zr48  1  0.30531045  0.09746733  0.69605382  1
  Zr  Zr49  1  0.29007307  0.31003558  0.89813627  1
  Sc  Sc50  1  0.89688342  0.30442837  0.89337359  1
  Sc  Sc51  1  0.69688416  0.68974378  0.50070917  1
  Sc  Sc52  1  0.50338445  0.69974555  0.89789649  1
  Sc  Sc53  1  0.50708808  0.89440769  0.30052782  1
  Sc  Sc54  1  0.89741094  0.50992160  0.30175250  1
  Sc  Sc55  1  0.69847796  0.49989697  0.89779494  1
  Sc  Sc56  1  0.29945881  0.50223445  0.69968447  1
  Sc  Sc57  1  0.51009647  0.50271883  0.89080632  1
  Sc  Sc58  1  0.09664694  0.10709710  0.89413869  1
  Sc  Sc59  1  0.89850801  0.88611167  0.69101238  1
  Sc  Sc60  1  0.69940541  0.30930852  0.11423012  1
  Sc  Sc61  1  0.50724682  0.89815895  0.49939909  1
  Sc  Sc62  1  0.29896097  0.71124165  0.10211336  1
  Sc  Sc63  1  0.09380645  0.69419563  0.09217285  1
  Sc  Sc64  1  0.89803745  0.09356790  0.10512263  1
  Sc  Sc65  1  0.69914136  0.28891762  0.70289545  1
  Sc  Sc66  1  0.09708743  0.09869430  0.28725457  1
  Sc  Sc67  1  0.50097192  0.49832688  0.70238840  1
  Sc  Sc68  1  0.89712015  0.69765839  0.50078198  1
  Sc  Sc69  1  0.50346387  0.10546498  0.89836215  1
  Sc  Sc70  1  0.51085484  0.50577739  0.10340060  1
  Sc  Sc71  1  0.30413278  0.70144726  0.69928806  1
  Sc  Sc72  1  0.09554539  0.30446045  0.50617709  1
  Sc  Sc73  1  0.89870050  0.69450536  0.70637332  1
  Sc  Sc74  1  0.89090400  0.10823909  0.69486127  1
  Sc  Sc75  1  0.49596566  0.09898607  0.09652580  1
  Sc  Sc76  1  0.90275226  0.50675931  0.10808674  1
  Sc  Sc77  1  0.50763958  0.30480611  0.10886081  1
  Sc  Sc78  1  0.31514161  0.29913518  0.29675323  1
  Sc  Sc79  1  0.30011006  0.89196775  0.89710623  1
  Sc  Sc80  1  0.09769295  0.50381206  0.50536279  1
  Sc  Sc81  1  0.90450702  0.50102524  0.49702956  1
  Sc  Sc82  1  0.30231569  0.30222556  0.69753741  1
  Sc  Sc83  1  0.90311129  0.11100897  0.90306995  1
  Sc  Sc84  1  0.30810287  0.49918287  0.50436313  1
  Sc  Sc85  1  0.30107163  0.10240565  0.51249417  1
  Sc  Sc86  1  0.29570715  0.69464377  0.50711386  1
  Sc  Sc87  1  0.90801805  0.29624202  0.50379529  1
  Sc  Sc88  1  0.69902370  0.10672041  0.90548787  1
  Sc  Sc89  1  0.29354175  0.89767599  0.28266019  1
  Sc  Sc90  1  0.09456031  0.89293278  0.50244564  1
  Sc  Sc91  1  0.50990634  0.30082235  0.88599629  1
  Sc  Sc92  1  0.69527197  0.90146393  0.30092994  1
  Sc  Sc93  1  0.29572346  0.50174102  0.09642298  1
  Sc  Sc94  1  0.30781338  0.29998103  0.51075142  1
  Sc  Sc95  1  0.09848252  0.70453758  0.89777452  1
  Sc  Sc96  1  0.09626838  0.30537035  0.69940996  1
  Sc  Sc97  1  0.10295906  0.51039289  0.90313696  1
  Sc  Sc98  1  0.70286279  0.30709984  0.89752982  1
  Sc  Sc99  1  0.29695622  0.70082413  0.89202790  1
  Nb  Nb100  1  0.09834249  0.89713632  0.90127749  1
  Nb  Nb101  1  0.90115299  0.69388719  0.90928293  1
  Nb  Nb102  1  0.30451773  0.90463955  0.09656148  1
  Nb  Nb103  1  0.70287602  0.90290409  0.89868510  1
  Nb  Nb104  1  0.69647099  0.69256593  0.10385676  1
  Nb  Nb105  1  0.50896740  0.30463550  0.50786213  1
  Nb  Nb106  1  0.70399216  0.09733024  0.70203969  1
  Nb  Nb107  1  0.89639940  0.69663773  0.28891484  1
  Nb  Nb108  1  0.69883749  0.30068639  0.30076921  1
  Nb  Nb109  1  0.49153737  0.90102235  0.09900856  1
  Nb  Nb110  1  0.50976546  0.49037169  0.50116916  1
  Nb  Nb111  1  0.10949053  0.70288506  0.49114885  1
  Nb  Nb112  1  0.10152034  0.69859880  0.69140306  1
  Nb  Nb113  1  0.10165831  0.50133824  0.09971240  1
  Nb  Nb114  1  0.70748670  0.69514094  0.29280081  1
  Nb  Nb115  1  0.69636708  0.49656109  0.49770095  1
  Nb  Nb116  1  0.68786307  0.29993951  0.49756903  1
  Nb  Nb117  1  0.10143153  0.70059204  0.30606089  1
  Nb  Nb118  1  0.29770035  0.49891676  0.29951106  1
  Nb  Nb119  1  0.50042839  0.09448281  0.30020031  1
  Nb  Nb120  1  0.89630433  0.30758595  0.09598315  1
  Nb  Nb121  1  0.89361432  0.70238819  0.10431901  1
  Nb  Nb122  1  0.10015993  0.10117333  0.09132068  1
  Nb  Nb123  1  0.89817944  0.90020464  0.09895181  1
  Nb  Nb124  1  0.50366221  0.29805440  0.69085278  1
  Nb  Nb125  1  0.19767663  0.00055427  -0.00103818  1
  Nb  Nb126  1  0.79178391  0.39988054  0.59239669  1
  Nb  Nb127  1  0.20317565  0.39788492  0.39483557  1
  Nb  Nb128  1  0.40166635  0.59659732  -0.00248131  1
  Nb  Nb129  1  0.80041111  -0.00349285  0.80417689  1
  Nb  Nb130  1  -0.00499910  -0.00753877  0.80454987  1
  Nb  Nb131  1  0.79986920  0.60647312  0.00404689  1
  Nb  Nb132  1  0.39851709  -0.00279765  0.39670958  1
  Nb  Nb133  1  0.20069593  0.20067235  0.39964475  1
  Nb  Nb134  1  0.40268286  0.40204440  -0.00441740  1
  Nb  Nb135  1  0.39354102  0.20957892  -0.00306340  1
  Nb  Nb136  1  0.20387579  0.00292335  0.39906205  1
  Nb  Nb137  1  0.79110466  0.39656609  0.40432369  1
  Nb  Nb138  1  0.39921937  0.79822486  0.39827579  1
  Nb  Nb139  1  0.80227133  0.20938024  0.00828289  1
  Nb  Nb140  1  -0.00031678  0.40389464  0.00425603  1
  Nb  Nb141  1  0.80062531  0.79002884  0.38781781  1
  Nb  Nb142  1  0.60587461  0.00146404  0.60891498  1
  Nb  Nb143  1  0.79431536  0.20816889  0.39996600  1
  Nb  Nb144  1  0.19432648  0.59682570  0.20669250  1
  Nb  Nb145  1  0.59508926  -0.00126982  0.19258248  1
  Nb  Nb146  1  0.20165498  0.19587329  0.00140009  1
  Nb  Nb147  1  0.00438718  -0.00687954  -0.00137220  1
  Nb  Nb148  1  0.60775213  -0.00459096  0.79852908  1
  Nb  Nb149  1  0.19616082  0.40649792  0.20637171  1
  Pd  Pd150  1  0.00131469  0.80158938  0.00686892  1
  Pd  Pd151  1  0.60847763  0.81008406  0.18950520  1
  Pd  Pd152  1  0.19588846  -0.00953345  0.59372390  1
  Pd  Pd153  1  -0.00582848  0.79535980  0.80201930  1
  Pd  Pd154  1  0.39496237  0.00653143  -0.00853155  1
  Pd  Pd155  1  -0.01109418  0.19512355  0.19558226  1
  Pd  Pd156  1  0.60620495  0.40266957  0.61128257  1
  Pd  Pd157  1  0.39217117  0.59972816  0.18962530  1
  Pd  Pd158  1  0.19613689  0.60651737  0.79200720  1
  Pd  Pd159  1  0.59452383  0.39579441  -0.00316797  1
  Pd  Pd160  1  0.39574828  0.79061747  -0.00580679  1
  Pd  Pd161  1  0.19996038  0.40402827  0.59452087  1
  Pd  Pd162  1  0.59570953  0.00306626  -0.00143685  1
  Pd  Pd163  1  0.79021861  0.80747895  0.19805294  1
  Pd  Pd164  1  0.80143833  0.59355245  0.59379119  1
  Pd  Pd165  1  0.60030502  0.60038611  0.39659608  1
  Pd  Pd166  1  0.79591986  -0.00420552  0.39177391  1
  Pd  Pd167  1  0.40378867  0.59194980  0.60302174  1
  Pd  Pd168  1  0.20880770  0.61019910  0.00514798  1
  Pd  Pd169  1  -0.00950170  0.79040768  0.39971597  1
  Pd  Pd170  1  0.60190118  0.21212970  0.00516238  1
  Pd  Pd171  1  -0.00219610  0.19355870  0.79015451  1
  Pd  Pd172  1  0.00107287  0.60869090  0.59519814  1
  Pd  Pd173  1  -0.00579966  -0.00236022  0.61195872  1
  Pd  Pd174  1  0.19831219  0.20657413  0.79497510  1
  Pd  Pd175  1  0.41029817  0.20152150  0.19234174  1
  Pd  Pd176  1  0.20273112  0.79868232  0.60340779  1
  Pd  Pd177  1  0.00664738  -0.00282776  0.19181130  1
  Pd  Pd178  1  0.80476576  0.20393012  0.19974129  1
  Pd  Pd179  1  0.20188576  0.58876717  0.40463935  1
  Pd  Pd180  1  -0.00240880  0.19475747  0.39859727  1
  Pd  Pd181  1  0.19292752  -0.00532397  0.80660626  1
  Pd  Pd182  1  -0.00193431  0.78952376  0.59511960  1
  Pd  Pd183  1  0.00568168  0.79160517  0.19407139  1
  Pd  Pd184  1  0.40081919  0.40651991  0.19157852  1
  Pd  Pd185  1  0.60077556  0.80067461  0.60003947  1
  Pd  Pd186  1  0.59533464  0.80369814  0.79774651  1
  Pd  Pd187  1  0.39882816  0.21124198  0.80204092  1
  Pd  Pd188  1  0.39548602  0.19804474  0.40884155  1
  Pd  Pd189  1  -0.00098915  0.40719547  0.19713690  1
  Pd  Pd190  1  0.60418130  0.78896324  0.40047403  1
  Pd  Pd191  1  -0.00462482  0.61011560  0.40403476  1
  Pd  Pd192  1  0.39951258  0.60251681  0.40523891  1
  Pd  Pd193  1  0.01086658  0.00220869  0.39592303  1
  Pd  Pd194  1  0.40156171  0.80160251  0.20500523  1
  Pd  Pd195  1  0.40440064  0.40001921  0.79934210  1
  Pd  Pd196  1  0.19952298  0.20574268  0.20335142  1
  Pd  Pd197  1  0.39704438  0.39348637  0.40711970  1
  Pd  Pd198  1  0.19128471  0.40536042  0.79197703  1
  Pd  Pd199  1  0.00024196  0.20071090  0.60922832  1
  Rh  Rh200  1  0.60050757  0.19421880  0.60508287  1
  Rh  Rh201  1  0.41080181  -0.00999078  0.20770289  1
  Rh  Rh202  1  0.79678822  0.59560981  0.19308921  1
  Rh  Rh203  1  0.60388858  0.39637949  0.79225792  1
  Rh  Rh204  1  0.79161197  0.39999544  0.79042715  1
  Rh  Rh205  1  0.80622884  0.40424398  0.00096678  1
  Rh  Rh206  1  0.19365246  0.78492296  0.19804968  1
  Rh  Rh207  1  0.40137658  0.60061544  0.80478649  1
  Rh  Rh208  1  -0.00959823  0.59430291  0.00186794  1
  Rh  Rh209  1  0.79001015  -0.00696424  0.20142232  1
  Rh  Rh210  1  0.40098861  0.79306244  0.59491929  1
  Rh  Rh211  1  0.19856232  0.79609127  0.79583013  1
  Rh  Rh212  1  0.60414164  0.19516732  0.40302262  1
  Rh  Rh213  1  0.79941385  0.59970953  0.39950277  1
  Rh  Rh214  1  0.60164246  0.80191936  0.00549923  1
  Rh  Rh215  1  0.41001758  -0.00473868  0.80841068  1
  Rh  Rh216  1  0.79686533  0.21309890  0.59032446  1
  Rh  Rh217  1  0.00650125  0.60848232  0.20047734  1
  Rh  Rh218  1  0.20785882  0.80766760  0.40327304  1
  Rh  Rh219  1  0.59506932  0.40577584  0.21062620  1
  Rh  Rh220  1  0.19148151  0.39557676  0.00791609  1
  Rh  Rh221  1  0.19432848  0.00002449  0.19877449  1
  Rh  Rh222  1  0.81234376  0.01315317  -0.00847558  1
  Rh  Rh223  1  -0.00543008  0.20404009  0.00618863  1
  Rh  Rh224  1  0.59980174  0.40494552  0.39371253  1
  Rh  Rh225  1  0.40886937  0.40135891  0.60245765  1
  Rh  Rh226  1  0.19761701  0.20597111  0.59944176  1
  Rh  Rh227  1  0.59399379  0.00387929  0.40205506  1
  Rh  Rh228  1  0.00536180  0.60682743  0.80214291  1
  Rh  Rh229  1  0.60386348  0.60513570  0.79977231  1
  Rh  Rh230  1  0.79690417  0.60846543  0.81345899  1
  Rh  Rh231  1  0.40164981  0.79726456  0.80156128  1
  Rh  Rh232  1  0.59398061  0.19233203  0.19671944  1
  Rh  Rh233  1  0.00626992  0.40942685  0.80862153  1
  Rh  Rh234  1  -0.00261568  0.40194203  0.40577081  1
  Rh  Rh235  1  0.41174563  0.00414048  0.59170349  1
  Rh  Rh236  1  0.79643189  0.19485640  0.81186896  1
  Rh  Rh237  1  0.60271267  0.60220621  -0.00419522  1
  Rh  Rh238  1  0.79660767  0.78886262  0.00850721  1
  Rh  Rh239  1  0.20309480  0.80312898  -0.00198613  1
  Rh  Rh240  1  0.80042394  0.79156553  0.58800808  1
  Rh  Rh241  1  0.60514742  0.19613875  0.79678459  1
  Rh  Rh242  1  0.60104093  0.59497502  0.20312748  1
  Rh  Rh243  1  -0.01055139  0.40391855  0.60200677  1
  Rh  Rh244  1  0.80293195  0.40669126  0.20731009  1
  Rh  Rh245  1  0.80294185  -0.00578754  0.61118696  1
  Rh  Rh246  1  0.19638809  0.60056334  0.60085558  1
  Rh  Rh247  1  0.80673623  0.79632603  0.80143252  1
  Rh  Rh248  1  0.40561090  0.20387389  0.60130296  1
  Rh  Rh249  1  0.59527595  0.59314243  0.59986524  1
