# generated using pymatgen
data_ZrScNbPdRh
_symmetry_space_group_name_H-M   'P 1'
_cell_length_a   16.56659833
_cell_length_b   16.56280350
_cell_length_c   16.55839365
_cell_angle_alpha   89.96555751
_cell_angle_beta   89.97918875
_cell_angle_gamma   89.99943510
_symmetry_Int_Tables_number   1
_chemical_formula_structural   ZrScNbPdRh
_chemical_formula_sum   'Zr50 Sc50 Nb50 Pd50 Rh50'
_cell_volume   4543.44513475
_cell_formula_units_Z   50
loop_
 _symmetry_equiv_pos_site_id
 _symmetry_equiv_pos_as_xyz
  1  'x, y, z'
loop_
 _atom_site_type_symbol
 _atom_site_label
 _atom_site_symmetry_multiplicity
 _atom_site_fract_x
 _atom_site_fract_y
 _atom_site_fract_z
 _atom_site_occupancy
  Zr  Zr0  1  0.49809397  0.10388036  0.90553416  1
  Zr  Zr1  1  0.70369417  0.50079056  0.29473158  1
  Zr  Zr2  1  0.10794539  0.50165405  0.29375834  1
  Zr  Zr3  1  0.09871077  0.49429004  0.70568074  1
  Zr  Zr4  1  0.49945775  0.89564783  0.10520840  1
  Zr  Zr5  1  0.69898125  0.89459295  0.50028077  1
  Zr  Zr6  1  0.90469540  0.09895197  0.50018850  1
  Zr  Zr7  1  0.70289087  0.30869974  0.50305859  1
  Zr  Zr8  1  0.50363972  0.50164825  0.70541720  1
  Zr  Zr9  1  0.49604636  0.10460886  0.10420313  1
  Zr  Zr10  1  0.89245488  0.09416771  0.09780059  1
  Zr  Zr11  1  0.69610784  0.30172611  0.09339115  1
  Zr  Zr12  1  0.30351771  0.70194509  0.49871161  1
  Zr  Zr13  1  0.10229629  0.09481830  0.50312418  1
  Zr  Zr14  1  0.90098631  0.30122284  0.70578214  1
  Zr  Zr15  1  0.29636199  0.89469237  0.90378436  1
  Zr  Zr16  1  0.30250653  0.29241895  0.49515580  1
  Zr  Zr17  1  0.10215209  0.29381113  0.50111205  1
  Zr  Zr18  1  0.90581623  0.50245503  0.29975496  1
  Zr  Zr19  1  0.09555830  0.09380075  0.89427613  1
  Zr  Zr20  1  0.69641659  0.30269562  0.28996044  1
  Zr  Zr21  1  0.90217800  0.30482403  0.49967891  1
  Zr  Zr22  1  0.89460437  0.49750980  0.49939342  1
  Zr  Zr23  1  0.90039013  0.50265835  0.10085163  1
  Zr  Zr24  1  0.90866864  0.90010887  0.49940542  1
  Zr  Zr25  1  0.49638238  0.69646306  0.70078646  1
  Zr  Zr26  1  0.30110503  0.70697875  0.70106412  1
  Zr  Zr27  1  0.69444276  0.11383258  0.89822166  1
  Zr  Zr28  1  0.29749556  0.10410208  0.51148495  1
  Zr  Zr29  1  0.09931385  0.90075874  0.29162221  1
  Zr  Zr30  1  0.49348541  0.89346861  0.90537715  1
  Zr  Zr31  1  0.70160450  0.69422422  0.29706151  1
  Zr  Zr32  1  0.09859149  0.90223933  0.90141262  1
  Zr  Zr33  1  0.69822068  0.69868214  0.69655807  1
  Zr  Zr34  1  0.70249788  0.69947345  0.50153779  1
  Zr  Zr35  1  0.10333248  0.71318189  0.90706630  1
  Zr  Zr36  1  0.30273233  0.10455477  0.10002399  1
  Zr  Zr37  1  0.49603612  0.69506806  0.90525945  1
  Zr  Zr38  1  0.69064240  0.90033294  0.69246879  1
  Zr  Zr39  1  0.90684600  0.89929575  0.29241120  1
  Zr  Zr40  1  0.29976840  0.68926731  0.29669558  1
  Zr  Zr41  1  0.70859226  0.09212509  0.50966536  1
  Zr  Zr42  1  0.30417261  0.50397566  0.48048549  1
  Zr  Zr43  1  0.30066142  0.90197966  0.70564939  1
  Zr  Zr44  1  0.30142160  0.09803973  0.90537371  1
  Zr  Zr45  1  0.29877188  0.70451414  0.90288108  1
  Zr  Zr46  1  0.70510712  0.29983780  0.70987152  1
  Zr  Zr47  1  0.09764728  0.30112791  0.71220865  1
  Zr  Zr48  1  0.30463514  0.10523861  0.29809106  1
  Zr  Zr49  1  0.50695662  0.09814208  0.70131303  1
  Sc  Sc50  1  0.10518330  0.30187444  0.30387724  1
  Sc  Sc51  1  0.50712828  0.30799921  0.70261171  1
  Sc  Sc52  1  0.90072259  0.69843802  0.29370786  1
  Sc  Sc53  1  0.68905543  0.69973717  0.90210979  1
  Sc  Sc54  1  0.89533219  0.30927009  0.30455057  1
  Sc  Sc55  1  0.70129780  0.90501688  0.10480586  1
  Sc  Sc56  1  0.90412047  0.90415927  0.09921641  1
  Sc  Sc57  1  0.90696151  0.90665104  0.90313929  1
  Sc  Sc58  1  0.88840168  0.30539453  0.09026355  1
  Sc  Sc59  1  0.10211254  0.50244405  0.09709512  1
  Sc  Sc60  1  0.09765661  0.09866945  0.29776724  1
  Sc  Sc61  1  0.49642537  0.50143795  0.30164158  1
  Sc  Sc62  1  0.89575034  0.49261948  0.70010034  1
  Sc  Sc63  1  0.31327995  0.89731817  0.50427034  1
  Sc  Sc64  1  0.69018956  0.90052355  0.29702869  1
  Sc  Sc65  1  0.90586714  0.69618540  0.10030493  1
  Sc  Sc66  1  0.09962134  0.90090371  0.70138496  1
  Sc  Sc67  1  0.89798974  0.09824352  0.89923122  1
  Sc  Sc68  1  0.69380368  0.69584345  0.10374851  1
  Sc  Sc69  1  0.10640174  0.09694477  0.10542274  1
  Sc  Sc70  1  0.89153678  0.29796209  0.89486955  1
  Sc  Sc71  1  0.70087972  0.50030977  0.09989009  1
  Sc  Sc72  1  0.89960388  0.89863255  0.70230546  1
  Sc  Sc73  1  0.49772221  0.29953298  0.29258418  1
  Sc  Sc74  1  0.50027200  0.49855650  0.89832038  1
  Sc  Sc75  1  0.09106862  0.69878597  0.29612436  1
  Sc  Sc76  1  0.50278625  0.50051026  0.49821230  1
  Sc  Sc77  1  0.89691288  0.09994816  0.70246506  1
  Sc  Sc78  1  0.90340351  0.70577850  0.90417462  1
  Sc  Sc79  1  0.30914867  0.50442835  0.91019297  1
  Sc  Sc80  1  0.49448786  0.69918963  0.49805757  1
  Sc  Sc81  1  0.50578996  0.30105681  0.09723630  1
  Sc  Sc82  1  0.70214730  0.10241810  0.10805326  1
  Sc  Sc83  1  0.30566239  0.30160695  0.11029864  1
  Sc  Sc84  1  0.30826811  0.50282092  0.71420301  1
  Sc  Sc85  1  0.69064472  0.89241189  0.89940972  1
  Sc  Sc86  1  0.49858317  0.50473584  0.09358802  1
  Sc  Sc87  1  0.49021179  0.09355328  0.49416553  1
  Sc  Sc88  1  0.70049438  0.50262726  0.50033206  1
  Sc  Sc89  1  0.11324054  0.30241542  0.09193637  1
  Sc  Sc90  1  0.09533575  0.49547492  0.48883887  1
  Sc  Sc91  1  0.89946362  0.70533055  0.49504206  1
  Sc  Sc92  1  0.89672634  0.70537712  0.69530477  1
  Sc  Sc93  1  0.69823465  0.49679467  0.69280571  1
  Sc  Sc94  1  0.29480577  0.30445697  0.91011369  1
  Sc  Sc95  1  0.90142444  0.49548487  0.90882455  1
  Sc  Sc96  1  0.09513207  0.89701982  0.10343531  1
  Sc  Sc97  1  0.09959166  0.48211319  0.90384401  1
  Sc  Sc98  1  0.50128627  0.70428889  0.29650662  1
  Sc  Sc99  1  0.50063508  0.30483985  0.49394161  1
  Nb  Nb100  1  0.69956836  0.09702860  0.69971198  1
  Nb  Nb101  1  0.50095975  0.89061437  0.49376884  1
  Nb  Nb102  1  0.29687340  0.50985173  0.11450338  1
  Nb  Nb103  1  0.09890244  0.71104824  0.50784510  1
  Nb  Nb104  1  0.29781954  0.89478139  0.29949207  1
  Nb  Nb105  1  0.50894813  0.09326384  0.29723087  1
  Nb  Nb106  1  0.50072712  0.70004947  0.09711414  1
  Nb  Nb107  1  0.30472043  0.31190120  0.29994919  1
  Nb  Nb108  1  0.69341176  0.30248057  0.90032046  1
  Nb  Nb109  1  0.10077298  0.70032095  0.69768988  1
  Nb  Nb110  1  0.09474637  0.29374131  0.90067513  1
  Nb  Nb111  1  0.29975644  0.29406502  0.69520053  1
  Nb  Nb112  1  0.50024021  0.89588692  0.69678254  1
  Nb  Nb113  1  0.69975207  0.09772389  0.29604577  1
  Nb  Nb114  1  0.10174359  0.70147510  0.09607747  1
  Nb  Nb115  1  0.89477257  0.10115712  0.29416271  1
  Nb  Nb116  1  0.29724981  0.90089660  0.10949703  1
  Nb  Nb117  1  0.29443560  0.69238296  0.09739329  1
  Nb  Nb118  1  0.10743914  0.09772936  0.70261867  1
  Nb  Nb119  1  0.69837614  0.49944762  0.89333098  1
  Nb  Nb120  1  0.29809960  0.49356631  0.28919607  1
  Nb  Nb121  1  0.49427893  0.90473470  0.30819347  1
  Nb  Nb122  1  0.09601178  0.89559106  0.49374167  1
  Nb  Nb123  1  0.29968359  0.10207719  0.69951066  1
  Nb  Nb124  1  0.51595347  0.29871590  0.90112301  1
  Nb  Nb125  1  0.40107588  -0.00546780  0.20792833  1
  Nb  Nb126  1  0.00135748  0.20033100  0.00207979  1
  Nb  Nb127  1  0.80227140  0.00305013  0.39388543  1
  Nb  Nb128  1  0.20329387  0.19801297  0.79800970  1
  Nb  Nb129  1  0.19229837  0.60483309  0.79958157  1
  Nb  Nb130  1  0.80065733  0.60084398  0.80224805  1
  Nb  Nb131  1  0.00594104  0.19768162  0.60574505  1
  Nb  Nb132  1  0.79514260  0.19429119  0.39620589  1
  Nb  Nb133  1  -0.00577259  0.20563307  0.19468659  1
  Nb  Nb134  1  0.00133864  0.39623818  0.19496520  1
  Nb  Nb135  1  0.00675828  0.60260948  0.60215344  1
  Nb  Nb136  1  0.20857151  0.40195232  0.60092495  1
  Nb  Nb137  1  0.40106785  0.00254181  0.79775161  1
  Nb  Nb138  1  0.19790539  0.80353321  0.40030151  1
  Nb  Nb139  1  0.20264205  -0.00765444  0.40116450  1
  Nb  Nb140  1  0.39189137  0.39892875  0.60045443  1
  Nb  Nb141  1  0.79799139  0.80050128  0.00203787  1
  Nb  Nb142  1  0.60583026  0.19755539  0.59692141  1
  Nb  Nb143  1  0.20532973  -0.00443717  0.00472821  1
  Nb  Nb144  1  0.39725489  0.20096825  0.79809495  1
  Nb  Nb145  1  0.78718136  0.00025837  0.79641891  1
  Nb  Nb146  1  0.59348046  0.00287264  0.00216176  1
  Nb  Nb147  1  0.19639637  0.59798297  0.60160674  1
  Nb  Nb148  1  0.60760435  0.19164539  0.39826057  1
  Nb  Nb149  1  0.00266992  0.60186473  0.79768284  1
  Pd  Pd150  1  0.40778602  0.40394797  0.19338378  1
  Pd  Pd151  1  0.59371662  0.79470786  0.79825831  1
  Pd  Pd152  1  0.39279409  0.59014337  0.59908397  1
  Pd  Pd153  1  0.39876592  0.79786105  0.20159556  1
  Pd  Pd154  1  0.80217197  0.80727209  0.39072657  1
  Pd  Pd155  1  0.00792531  0.59906782  -0.00748989  1
  Pd  Pd156  1  0.59982961  0.39813065  0.39619712  1
  Pd  Pd157  1  0.79318035  0.40302162  -0.00622140  1
  Pd  Pd158  1  0.80354655  0.20416875  0.60044383  1
  Pd  Pd159  1  0.19621016  0.79031776  0.20153193  1
  Pd  Pd160  1  0.19980902  -0.01224765  0.59446451  1
  Pd  Pd161  1  0.00701470  0.40038404  0.59762565  1
  Pd  Pd162  1  0.20043108  0.19307092  0.39207823  1
  Pd  Pd163  1  0.21163557  0.39850088  0.80211797  1
  Pd  Pd164  1  0.19555132  0.20763786  0.20480002  1
  Pd  Pd165  1  0.40906295  0.60078977  0.19844340  1
  Pd  Pd166  1  -0.00015725  0.79829891  0.79704282  1
  Pd  Pd167  1  0.39899422  0.39011613  0.80269302  1
  Pd  Pd168  1  0.20060004  0.39673780  0.40256212  1
  Pd  Pd169  1  0.20196141  0.80705745  0.59805823  1
  Pd  Pd170  1  0.00122792  0.00186821  0.39170465  1
  Pd  Pd171  1  0.40252202  0.21679579  -0.00442916  1
  Pd  Pd172  1  0.00155474  0.00215757  0.61038009  1
  Pd  Pd173  1  0.80499682  0.20915606  0.20078934  1
  Pd  Pd174  1  0.80052485  0.79999224  0.19199294  1
  Pd  Pd175  1  0.59201732  0.40946842  0.19471860  1
  Pd  Pd176  1  0.00216286  0.60665921  0.40713261  1
  Pd  Pd177  1  0.40636635  -0.00508115  0.60388441  1
  Pd  Pd178  1  0.59854915  0.79329187  0.39854798  1
  Pd  Pd179  1  0.79896862  0.80111888  0.80945304  1
  Pd  Pd180  1  -0.00664860  0.20161283  0.39389040  1
  Pd  Pd181  1  0.60056893  0.79915713  0.20163100  1
  Pd  Pd182  1  0.41650161  0.20776128  0.60512575  1
  Pd  Pd183  1  0.80345158  0.60018851  0.39999882  1
  Pd  Pd184  1  0.59638674  0.60276268  0.39863275  1
  Pd  Pd185  1  0.19479484  0.59257706  -0.00800756  1
  Pd  Pd186  1  0.59846846  0.59898951  0.59525583  1
  Pd  Pd187  1  0.78572703  -0.00665290  -0.01174393  1
  Pd  Pd188  1  0.39066486  -0.00059990  0.39772375  1
  Pd  Pd189  1  0.79491439  0.60911632  -0.00548411  1
  Pd  Pd190  1  0.41007344  0.20210772  0.39280691  1
  Pd  Pd191  1  0.58938394  0.00088050  0.58865852  1
  Pd  Pd192  1  0.60247405  0.59460272  0.00083898  1
  Pd  Pd193  1  0.59766044  -0.00408550  0.80950196  1
  Pd  Pd194  1  0.19010603  0.61117824  0.40415279  1
  Pd  Pd195  1  0.60587741  0.00244775  0.40636358  1
  Pd  Pd196  1  0.21066736  0.40795362  0.00881878  1
  Pd  Pd197  1  0.80429860  0.80328466  0.59862625  1
  Pd  Pd198  1  0.39323001  0.79443619  0.01177726  1
  Pd  Pd199  1  0.40143761  0.39884428  0.00652438  1
  Rh  Rh200  1  0.40717171  0.80338084  0.60083248  1
  Rh  Rh201  1  0.40114447  0.39988295  0.39829955  1
  Rh  Rh202  1  0.20758399  0.00262905  0.80592254  1
  Rh  Rh203  1  0.00531782  0.59392779  0.19369897  1
  Rh  Rh204  1  0.80497544  -0.01051133  0.60538007  1
  Rh  Rh205  1  0.79864151  0.40258249  0.60271485  1
  Rh  Rh206  1  0.80927856  0.59886716  0.60572219  1
  Rh  Rh207  1  -0.01058365  0.40339254  0.81150892  1
  Rh  Rh208  1  0.79960723  0.60080289  0.19722338  1
  Rh  Rh209  1  0.59247026  -0.00137794  0.19426395  1
  Rh  Rh210  1  0.18917577  0.18896124  -0.00926794  1
  Rh  Rh211  1  0.60218379  0.40702304  -0.00557830  1
  Rh  Rh212  1  0.59508957  0.59886330  0.19827755  1
  Rh  Rh213  1  0.39865648  -0.01082438  0.00844599  1
  Rh  Rh214  1  0.19788113  0.39657572  0.19688724  1
  Rh  Rh215  1  0.40427093  0.60042870  0.39037867  1
  Rh  Rh216  1  0.60330696  0.19563305  0.01028739  1
  Rh  Rh217  1  0.19439619  0.79822756  0.79613328  1
  Rh  Rh218  1  0.19323018  0.60643656  0.19731539  1
  Rh  Rh219  1  0.18980355  0.20622641  0.60963945  1
  Rh  Rh220  1  -0.00274784  0.01172995  0.19554126  1
  Rh  Rh221  1  0.00371323  0.40027391  0.38983537  1
  Rh  Rh222  1  0.59132245  0.79400760  0.59545317  1
  Rh  Rh223  1  0.79799084  0.40813681  0.80450221  1
  Rh  Rh224  1  0.20946068  0.00250084  0.20214022  1
  Rh  Rh225  1  0.00310123  0.79608963  0.39471067  1
  Rh  Rh226  1  -0.00309831  0.79970450  0.60254987  1
  Rh  Rh227  1  0.39404926  0.60613138  0.80772757  1
  Rh  Rh228  1  0.00051925  0.79310554  0.19346050  1
  Rh  Rh229  1  0.39603222  0.79586351  0.39436966  1
  Rh  Rh230  1  0.40358154  0.19958597  0.20684505  1
  Rh  Rh231  1  0.60733356  0.59869493  0.79918780  1
  Rh  Rh232  1  -0.00794075  0.80192297  0.00645903  1
  Rh  Rh233  1  -0.01033151  0.00061370  0.79360839  1
  Rh  Rh234  1  0.59363232  0.39732439  0.59891746  1
  Rh  Rh235  1  0.80000335  -0.00841807  0.20817163  1
  Rh  Rh236  1  0.39866405  0.60300062  0.00734593  1
  Rh  Rh237  1  0.00279422  0.19454127  0.80065228  1
  Rh  Rh238  1  -0.00008514  0.38598793  0.00507450  1
  Rh  Rh239  1  0.80647084  0.40357311  0.19862088  1
  Rh  Rh240  1  0.59621815  0.20548720  0.79074940  1
  Rh  Rh241  1  0.79346867  0.40159211  0.39631351  1
  Rh  Rh242  1  0.01044593  0.00826584  0.00717265  1
  Rh  Rh243  1  0.60611345  0.80521197  0.01145706  1
  Rh  Rh244  1  0.40710081  0.80222096  0.79673423  1
  Rh  Rh245  1  0.59934688  0.19906788  0.20206258  1
  Rh  Rh246  1  0.80059373  0.20038042  -0.00382464  1
  Rh  Rh247  1  0.79982777  0.19361275  0.80216868  1
  Rh  Rh248  1  0.60412915  0.40465063  0.80244163  1
  Rh  Rh249  1  0.20207029  0.80727530  0.01543937  1
