# generated using pymatgen
data_ZrScNbPdRh
_symmetry_space_group_name_H-M   'P 1'
_cell_length_a   16.56310817
_cell_length_b   16.56184495
_cell_length_c   16.56025772
_cell_angle_alpha   89.98305160
_cell_angle_beta   89.97892423
_cell_angle_gamma   90.00149585
_symmetry_Int_Tables_number   1
_chemical_formula_structural   ZrScNbPdRh
_chemical_formula_sum   'Zr50 Sc50 Nb50 Pd50 Rh50'
_cell_volume   4542.73700976
_cell_formula_units_Z   50
loop_
 _symmetry_equiv_pos_site_id
 _symmetry_equiv_pos_as_xyz
  1  'x, y, z'
loop_
 _atom_site_type_symbol
 _atom_site_label
 _atom_site_symmetry_multiplicity
 _atom_site_fract_x
 _atom_site_fract_y
 _atom_site_fract_z
 _atom_site_occupancy
  Zr  Zr0  1  0.29817289  0.49197741  0.89639184  1
  Zr  Zr1  1  0.29372824  0.70068236  0.89213640  1
  Zr  Zr2  1  0.90551501  0.10423297  0.49829687  1
  Zr  Zr3  1  0.50070437  0.30203267  0.30022451  1
  Zr  Zr4  1  0.29871240  0.90225531  0.09039418  1
  Zr  Zr5  1  0.10602484  0.31066004  0.89221397  1
  Zr  Zr6  1  0.69669916  0.50259548  0.10814675  1
  Zr  Zr7  1  0.29938579  0.29715554  0.49937251  1
  Zr  Zr8  1  0.10249341  0.10618622  0.49414440  1
  Zr  Zr9  1  0.70129958  0.10547882  0.09648311  1
  Zr  Zr10  1  0.89885297  0.10584680  0.70293970  1
  Zr  Zr11  1  0.50447037  0.89423621  0.69937370  1
  Zr  Zr12  1  0.68979477  0.29786216  0.90138610  1
  Zr  Zr13  1  0.89651291  0.89530693  0.10164618  1
  Zr  Zr14  1  0.30832405  0.30002094  0.10464787  1
  Zr  Zr15  1  0.49404134  0.09897648  0.09220851  1
  Zr  Zr16  1  0.30366365  0.70216684  0.49654746  1
  Zr  Zr17  1  0.90997332  0.50098377  0.89713282  1
  Zr  Zr18  1  0.10074353  0.30245355  0.50328005  1
  Zr  Zr19  1  0.29997066  0.68996144  0.29743359  1
  Zr  Zr20  1  0.50090131  0.50528240  0.30767851  1
  Zr  Zr21  1  0.50070526  0.10344878  0.89818381  1
  Zr  Zr22  1  0.69609187  0.49332150  0.29802355  1
  Zr  Zr23  1  0.09752734  0.09743545  0.30055621  1
  Zr  Zr24  1  0.50195665  0.89661915  0.89575750  1
  Zr  Zr25  1  0.70638327  0.30694836  0.50530364  1
  Zr  Zr26  1  0.69692223  0.10264125  0.69426811  1
  Zr  Zr27  1  0.29791996  0.70091117  0.10670556  1
  Zr  Zr28  1  0.50157611  0.30187765  0.09434883  1
  Zr  Zr29  1  0.91107754  0.90121802  0.69442939  1
  Zr  Zr30  1  0.69637309  0.90319628  0.49990759  1
  Zr  Zr31  1  0.31410050  0.87991510  0.31113106  1
  Zr  Zr32  1  0.10683751  0.29475828  0.30857337  1
  Zr  Zr33  1  0.89861111  0.50583803  0.29940580  1
  Zr  Zr34  1  0.50987677  0.69717615  0.89828370  1
  Zr  Zr35  1  0.29871003  0.90331884  0.70571935  1
  Zr  Zr36  1  0.29565565  0.29632945  0.70611442  1
  Zr  Zr37  1  0.30352605  0.10148035  0.51028600  1
  Zr  Zr38  1  0.70078802  0.29739061  0.69859859  1
  Zr  Zr39  1  0.70652778  0.89829111  0.30089396  1
  Zr  Zr40  1  0.70614972  0.88724959  0.09617035  1
  Zr  Zr41  1  0.69188480  0.10297336  0.49997846  1
  Zr  Zr42  1  0.69536029  0.69494775  0.09598273  1
  Zr  Zr43  1  0.90066339  0.69723938  0.69582038  1
  Zr  Zr44  1  0.10026692  0.50017188  0.70173860  1
  Zr  Zr45  1  0.30538768  0.30820341  0.30584720  1
  Zr  Zr46  1  0.29890361  0.51253612  0.69965182  1
  Zr  Zr47  1  0.09846321  0.69769260  0.29913523  1
  Zr  Zr48  1  0.48512874  0.70146826  0.30212842  1
  Zr  Zr49  1  0.49740129  0.10592719  0.70432261  1
  Sc  Sc50  1  0.30830674  0.49840098  0.10431868  1
  Sc  Sc51  1  0.89682942  0.50029218  0.10025464  1
  Sc  Sc52  1  0.09504081  0.50357356  0.50715988  1
  Sc  Sc53  1  0.69337405  0.69656253  0.69675560  1
  Sc  Sc54  1  0.91147759  0.89572038  0.89590447  1
  Sc  Sc55  1  0.89972657  0.69242061  0.89939294  1
  Sc  Sc56  1  0.11335923  0.89394394  0.89336211  1
  Sc  Sc57  1  0.49595531  0.68875439  0.09901925  1
  Sc  Sc58  1  0.90254327  0.49832263  0.50720608  1
  Sc  Sc59  1  0.49929400  0.69776209  0.69775010  1
  Sc  Sc60  1  0.50012368  0.10217138  0.50049744  1
  Sc  Sc61  1  0.69583605  0.29700457  0.10773462  1
  Sc  Sc62  1  0.10555903  0.09763759  0.70200809  1
  Sc  Sc63  1  0.69949318  0.70207951  0.50515706  1
  Sc  Sc64  1  0.69786954  0.70052812  0.90210867  1
  Sc  Sc65  1  0.09460160  0.11306899  0.89549494  1
  Sc  Sc66  1  0.10165033  0.69480065  0.69927317  1
  Sc  Sc67  1  0.69360737  0.10525707  0.89156807  1
  Sc  Sc68  1  0.09529393  0.49486356  0.09616020  1
  Sc  Sc69  1  0.69355145  0.50847790  0.89709500  1
  Sc  Sc70  1  0.09629637  0.30351080  0.09831975  1
  Sc  Sc71  1  0.09911888  0.69738396  0.89211539  1
  Sc  Sc72  1  0.89857449  0.70691562  0.30902594  1
  Sc  Sc73  1  0.69770649  0.69138653  0.29580591  1
  Sc  Sc74  1  0.91509641  0.29180076  0.89751505  1
  Sc  Sc75  1  0.49792200  0.29766902  0.49169940  1
  Sc  Sc76  1  0.88704235  0.69908930  0.10037563  1
  Sc  Sc77  1  0.09064193  0.69883717  0.49842233  1
  Sc  Sc78  1  0.69943249  0.10755310  0.29377949  1
  Sc  Sc79  1  0.29754363  0.09528631  0.09914528  1
  Sc  Sc80  1  0.30390752  0.50322647  0.50504960  1
  Sc  Sc81  1  0.49222689  0.30418621  0.89786001  1
  Sc  Sc82  1  0.50645891  0.10232080  0.31375162  1
  Sc  Sc83  1  0.69255511  0.89929254  0.69090483  1
  Sc  Sc84  1  0.89495655  0.10420233  0.10112390  1
  Sc  Sc85  1  0.09367460  0.89540884  0.30082923  1
  Sc  Sc86  1  0.90635171  0.10673670  0.90012959  1
  Sc  Sc87  1  0.90088580  0.31033429  0.30249667  1
  Sc  Sc88  1  0.69643472  0.50185777  0.69247489  1
  Sc  Sc89  1  0.89916691  0.89534049  0.29832992  1
  Sc  Sc90  1  0.49614631  0.91106258  0.49864499  1
  Sc  Sc91  1  0.90128189  0.69817858  0.50014323  1
  Sc  Sc92  1  0.90271588  0.89042939  0.49892441  1
  Sc  Sc93  1  0.11023183  0.90200336  0.10595060  1
  Sc  Sc94  1  0.29508504  0.10775433  0.29889154  1
  Sc  Sc95  1  0.50229755  0.69171127  0.50319838  1
  Sc  Sc96  1  0.30403903  0.09461914  0.89459687  1
  Sc  Sc97  1  0.49505454  0.49799582  0.89855892  1
  Sc  Sc98  1  0.09701908  0.49013091  0.30085657  1
  Sc  Sc99  1  0.89970521  0.50408428  0.69498449  1
  Nb  Nb100  1  0.90304262  0.10626432  0.30380389  1
  Nb  Nb101  1  0.29821457  0.90086050  0.50289444  1
  Nb  Nb102  1  0.70026623  0.89018856  0.90064611  1
  Nb  Nb103  1  0.29488401  0.69810017  0.69223785  1
  Nb  Nb104  1  0.50204301  0.90031513  0.30027788  1
  Nb  Nb105  1  0.10270651  0.09787692  0.10309103  1
  Nb  Nb106  1  0.10188187  0.50090226  0.89929049  1
  Nb  Nb107  1  0.09991219  0.90144221  0.50672854  1
  Nb  Nb108  1  0.69274398  0.50589054  0.49853859  1
  Nb  Nb109  1  0.29572510  0.30306914  0.90077003  1
  Nb  Nb110  1  0.49743989  0.89723358  0.09596466  1
  Nb  Nb111  1  0.29945812  0.10793013  0.70143831  1
  Nb  Nb112  1  0.30381389  0.50030121  0.30485560  1
  Nb  Nb113  1  0.70001239  0.29930053  0.30195786  1
  Nb  Nb114  1  0.49755106  0.30912559  0.70821338  1
  Nb  Nb115  1  0.89395743  0.30273572  0.69217788  1
  Nb  Nb116  1  0.10679419  0.70106550  0.10073799  1
  Nb  Nb117  1  0.50553205  0.50304367  0.50351442  1
  Nb  Nb118  1  0.50543632  0.49864523  0.10009393  1
  Nb  Nb119  1  0.49842593  0.49924488  0.69773602  1
  Nb  Nb120  1  0.89871432  0.30235833  0.51021890  1
  Nb  Nb121  1  0.10078348  0.29860408  0.69949130  1
  Nb  Nb122  1  0.10004758  0.89577336  0.69579920  1
  Nb  Nb123  1  0.30070541  0.89432213  0.90163419  1
  Nb  Nb124  1  0.89704320  0.29105646  0.09568785  1
  Nb  Nb125  1  0.80364918  0.00909556  0.39928842  1
  Nb  Nb126  1  -0.00148003  0.19957709  0.20187106  1
  Nb  Nb127  1  0.20094943  0.80641701  0.59970712  1
  Nb  Nb128  1  0.79940736  0.80539106  0.79715402  1
  Nb  Nb129  1  0.59646144  0.80181048  0.39425405  1
  Nb  Nb130  1  0.00748688  0.79870212  0.00595222  1
  Nb  Nb131  1  0.20211817  0.59866788  0.39556624  1
  Nb  Nb132  1  0.39659060  0.80025803  -0.00540447  1
  Nb  Nb133  1  0.20226497  0.20590253  -0.00158024  1
  Nb  Nb134  1  0.40621309  -0.00723407  0.20298609  1
  Nb  Nb135  1  0.79355857  0.59208251  0.40393589  1
  Nb  Nb136  1  0.20331314  -0.00975701  0.40799447  1
  Nb  Nb137  1  0.00268823  0.60524162  0.19769930  1
  Nb  Nb138  1  0.80209779  0.20425449  0.40080693  1
  Nb  Nb139  1  -0.00079090  0.20748206  0.60202159  1
  Nb  Nb140  1  0.40632117  0.40236290  0.60566732  1
  Nb  Nb141  1  0.79926539  -0.00465677  -0.00992871  1
  Nb  Nb142  1  0.80217859  0.39670322  0.80209680  1
  Nb  Nb143  1  0.59606945  -0.00666471  0.19485245  1
  Nb  Nb144  1  0.59254067  0.80299516  0.20061461  1
  Nb  Nb145  1  0.80155716  0.39478596  -0.00535096  1
  Nb  Nb146  1  0.79930515  -0.00684620  0.80147438  1
  Nb  Nb147  1  0.00243130  -0.00225628  0.00445991  1
  Nb  Nb148  1  0.19675848  0.59804241  -0.00096590  1
  Nb  Nb149  1  0.60545192  -0.00717910  0.00064733  1
  Pd  Pd150  1  0.19404608  0.20611797  0.19183050  1
  Pd  Pd151  1  0.40443056  0.60290981  0.79891540  1
  Pd  Pd152  1  0.59460319  0.39556202  0.59808350  1
  Pd  Pd153  1  0.59836842  0.39628291  0.40351354  1
  Pd  Pd154  1  0.60520855  0.40603886  -0.00054018  1
  Pd  Pd155  1  -0.00141359  0.79248656  0.80239111  1
  Pd  Pd156  1  0.00329310  0.00878992  0.59925204  1
  Pd  Pd157  1  0.60577177  0.40651081  0.79972707  1
  Pd  Pd158  1  -0.00665582  0.39715967  0.00195681  1
  Pd  Pd159  1  0.19885826  0.00043027  0.60059217  1
  Pd  Pd160  1  0.19122913  0.01128291  -0.01187005  1
  Pd  Pd161  1  0.79740094  0.59002964  -0.00305628  1
  Pd  Pd162  1  0.19721394  0.00408490  0.80417430  1
  Pd  Pd163  1  0.20273828  0.80842880  0.20566624  1
  Pd  Pd164  1  0.20442891  0.40165274  0.00946737  1
  Pd  Pd165  1  -0.00133585  -0.01068269  0.40027751  1
  Pd  Pd166  1  0.39015888  0.20248837  -0.00755614  1
  Pd  Pd167  1  0.40611330  0.18942107  0.20711117  1
  Pd  Pd168  1  0.80110386  0.20180484  0.80674821  1
  Pd  Pd169  1  -0.00626064  0.39940483  0.79115116  1
  Pd  Pd170  1  0.58939379  0.20892148  0.59993090  1
  Pd  Pd171  1  0.80337766  0.40319512  0.40619392  1
  Pd  Pd172  1  0.19271721  0.58448319  0.19888042  1
  Pd  Pd173  1  -0.00263053  0.79224895  0.19392325  1
  Pd  Pd174  1  0.59170994  0.19536230  0.20126441  1
  Pd  Pd175  1  0.40823003  0.40639739  0.20162024  1
  Pd  Pd176  1  0.60757266  -0.00402096  0.80211955  1
  Pd  Pd177  1  0.19079050  0.79657618  0.40708176  1
  Pd  Pd178  1  -0.00217044  0.40182634  0.40541995  1
  Pd  Pd179  1  0.40806052  0.21025779  0.60375251  1
  Pd  Pd180  1  0.79837117  0.79967680  0.60461389  1
  Pd  Pd181  1  0.39266445  0.60161157  -0.00168003  1
  Pd  Pd182  1  0.79651209  0.59981872  0.79740571  1
  Pd  Pd183  1  0.00648134  0.60775129  0.00712833  1
  Pd  Pd184  1  0.39930233  0.79300400  0.79966270  1
  Pd  Pd185  1  0.20143219  0.41179923  0.40858937  1
  Pd  Pd186  1  0.79827223  0.20046637  -0.01030225  1
  Pd  Pd187  1  0.80301063  -0.00114049  0.59796504  1
  Pd  Pd188  1  0.39945197  0.80042471  0.59793360  1
  Pd  Pd189  1  0.21346524  -0.01072040  0.21659349  1
  Pd  Pd190  1  0.20082223  0.40225213  0.19785748  1
  Pd  Pd191  1  0.40317804  0.00108712  0.60817037  1
  Pd  Pd192  1  -0.00460631  0.39736391  0.19544644  1
  Pd  Pd193  1  0.79912396  0.00589381  0.20216580  1
  Pd  Pd194  1  -0.00624610  0.00580263  0.19477541  1
  Pd  Pd195  1  0.39978089  -0.00035167  0.79743156  1
  Pd  Pd196  1  0.39160730  0.00861745  0.39411772  1
  Pd  Pd197  1  0.20785004  0.40278524  0.60235081  1
  Pd  Pd198  1  0.80292201  0.39320909  0.19109112  1
  Pd  Pd199  1  0.00237194  0.00133756  0.80722894  1
  Rh  Rh200  1  0.40494831  0.59555902  0.60044404  1
  Rh  Rh201  1  0.59264149  0.20733057  0.79727009  1
  Rh  Rh202  1  0.39511101  0.59323485  0.40567466  1
  Rh  Rh203  1  0.20283545  0.19711836  0.80570682  1
  Rh  Rh204  1  0.40542570  0.58992560  0.19813465  1
  Rh  Rh205  1  0.00317358  0.20635886  0.78629702  1
  Rh  Rh206  1  0.80376046  0.19439387  0.59316554  1
  Rh  Rh207  1  0.39655615  0.20396045  0.80339348  1
  Rh  Rh208  1  0.61055794  -0.00337517  0.39340295  1
  Rh  Rh209  1  0.40143420  0.40109833  0.00109868  1
  Rh  Rh210  1  0.40220654  0.80400022  0.18793295  1
  Rh  Rh211  1  0.20821004  0.19408347  0.40291773  1
  Rh  Rh212  1  -0.00796845  0.21517449  0.39980053  1
  Rh  Rh213  1  0.00295278  0.59804857  0.79567910  1
  Rh  Rh214  1  0.00193054  0.39550412  0.60607462  1
  Rh  Rh215  1  0.00773821  0.79595977  0.60041300  1
  Rh  Rh216  1  0.58966569  0.79750792  0.00589574  1
  Rh  Rh217  1  0.60503517  0.60717522  0.40024627  1
  Rh  Rh218  1  -0.00162389  0.59668813  0.39305362  1
  Rh  Rh219  1  0.59694923  0.19656829  -0.00074149  1
  Rh  Rh220  1  0.60902639  0.20810938  0.40167647  1
  Rh  Rh221  1  0.19994479  0.79048865  -0.00307530  1
  Rh  Rh222  1  0.58928144  0.00362181  0.60401255  1
  Rh  Rh223  1  0.39335427  0.40084541  0.79389594  1
  Rh  Rh224  1  0.20063389  0.79894372  0.78791541  1
  Rh  Rh225  1  0.41452282  0.80010068  0.41707906  1
  Rh  Rh226  1  0.59026591  0.60328067  0.20214402  1
  Rh  Rh227  1  -0.00049168  0.60203711  0.60219812  1
  Rh  Rh228  1  0.20157420  0.40463531  0.79155403  1
  Rh  Rh229  1  0.79679052  0.41092859  0.60513820  1
  Rh  Rh230  1  0.81609274  0.80142642  -0.01582783  1
  Rh  Rh231  1  0.40444280  -0.00715809  -0.00264412  1
  Rh  Rh232  1  0.60860543  0.79491774  0.79439986  1
  Rh  Rh233  1  0.19339681  0.19859680  0.60424089  1
  Rh  Rh234  1  0.79761252  0.59757556  0.59107585  1
  Rh  Rh235  1  0.59603054  0.59766097  0.79541771  1
  Rh  Rh236  1  0.80724767  0.60470652  0.20907782  1
  Rh  Rh237  1  0.59886681  0.59347038  0.00035809  1
  Rh  Rh238  1  0.40223050  0.40667085  0.41037122  1
  Rh  Rh239  1  0.80916430  0.21022187  0.21169835  1
  Rh  Rh240  1  0.19615017  0.59823875  0.80502637  1
  Rh  Rh241  1  0.59796299  0.60027040  0.60283432  1
  Rh  Rh242  1  0.19700425  0.61146800  0.58896410  1
  Rh  Rh243  1  0.00113815  0.80406030  0.40284159  1
  Rh  Rh244  1  0.79316387  0.78858630  0.20658692  1
  Rh  Rh245  1  0.59290495  0.80061505  0.58991324  1
  Rh  Rh246  1  0.79094145  0.79647827  0.40314730  1
  Rh  Rh247  1  0.01090784  0.19259302  0.01346435  1
  Rh  Rh248  1  0.59475414  0.39843978  0.20147080  1
  Rh  Rh249  1  0.39545231  0.19605494  0.39752585  1
