# generated using pymatgen
data_ZrScNbPdRh
_symmetry_space_group_name_H-M   'P 1'
_cell_length_a   16.56083987
_cell_length_b   16.55970718
_cell_length_c   16.56333821
_cell_angle_alpha   89.99103727
_cell_angle_beta   89.96744124
_cell_angle_gamma   89.99879179
_symmetry_Int_Tables_number   1
_chemical_formula_structural   ZrScNbPdRh
_chemical_formula_sum   'Zr50 Sc50 Nb50 Pd50 Rh50'
_cell_volume   4542.37312110
_cell_formula_units_Z   50
loop_
 _symmetry_equiv_pos_site_id
 _symmetry_equiv_pos_as_xyz
  1  'x, y, z'
loop_
 _atom_site_type_symbol
 _atom_site_label
 _atom_site_symmetry_multiplicity
 _atom_site_fract_x
 _atom_site_fract_y
 _atom_site_fract_z
 _atom_site_occupancy
  Zr  Zr0  1  0.89959127  0.70438310  0.10602873  1
  Zr  Zr1  1  0.49716591  0.49616256  0.30560614  1
  Zr  Zr2  1  0.70263160  0.69493084  0.90231312  1
  Zr  Zr3  1  0.08971651  0.70424857  0.69637948  1
  Zr  Zr4  1  0.50823171  0.29065570  0.30012185  1
  Zr  Zr5  1  0.09524792  0.89330880  0.30276005  1
  Zr  Zr6  1  0.69756739  0.49360705  0.69358881  1
  Zr  Zr7  1  0.70670676  0.50214100  0.09991385  1
  Zr  Zr8  1  0.29708394  0.69685596  0.10310934  1
  Zr  Zr9  1  0.90348077  0.30207363  0.10948181  1
  Zr  Zr10  1  0.29462788  0.49610712  0.10294042  1
  Zr  Zr11  1  0.11126734  0.29052409  0.89488040  1
  Zr  Zr12  1  0.90485570  0.88742809  0.70240507  1
  Zr  Zr13  1  0.89564916  0.49299350  0.30445661  1
  Zr  Zr14  1  0.70343205  0.69547428  0.09888527  1
  Zr  Zr15  1  0.30354886  0.70281598  0.50242413  1
  Zr  Zr16  1  0.69479553  0.50032595  0.90622128  1
  Zr  Zr17  1  0.90803384  0.69948446  0.51242055  1
  Zr  Zr18  1  0.49628034  0.70277509  0.30788100  1
  Zr  Zr19  1  0.30359631  0.49085321  0.89527035  1
  Zr  Zr20  1  0.70066210  0.30304858  0.71016553  1
  Zr  Zr21  1  0.70113247  0.70435072  0.69759407  1
  Zr  Zr22  1  0.29574902  0.09787785  0.10299315  1
  Zr  Zr23  1  0.49424115  0.90127979  0.90007597  1
  Zr  Zr24  1  0.09950436  0.10616920  0.10399042  1
  Zr  Zr25  1  0.49562642  0.29618694  0.09123710  1
  Zr  Zr26  1  0.29496889  0.70590801  0.69600712  1
  Zr  Zr27  1  0.10136469  0.10215386  0.70174134  1
  Zr  Zr28  1  0.10410750  0.90059260  0.70337520  1
  Zr  Zr29  1  0.10436511  0.48894344  0.69717434  1
  Zr  Zr30  1  0.10124760  0.50362528  0.29976817  1
  Zr  Zr31  1  0.89587974  0.90274677  0.49929848  1
  Zr  Zr32  1  0.29332570  0.69382357  0.29969586  1
  Zr  Zr33  1  0.49671716  0.09926297  0.69819583  1
  Zr  Zr34  1  0.90613457  0.30506135  0.70034566  1
  Zr  Zr35  1  0.49374628  0.90406253  0.10025676  1
  Zr  Zr36  1  0.29619023  0.31426902  0.69347848  1
  Zr  Zr37  1  0.90337973  0.49978131  0.69897870  1
  Zr  Zr38  1  0.70380370  0.11278445  0.89407272  1
  Zr  Zr39  1  0.69262116  0.10749592  0.30959569  1
  Zr  Zr40  1  0.69636081  0.30485802  0.09783488  1
  Zr  Zr41  1  0.10060142  0.69646756  0.30008128  1
  Zr  Zr42  1  0.89719396  0.09023578  0.90845584  1
  Zr  Zr43  1  0.70725515  0.10423938  0.09030258  1
  Zr  Zr44  1  0.89332199  0.30391839  0.89190085  1
  Zr  Zr45  1  0.29679248  0.50325410  0.30174818  1
  Zr  Zr46  1  0.90506253  0.10360357  0.49456311  1
  Zr  Zr47  1  0.69604384  0.10141103  0.69858392  1
  Zr  Zr48  1  0.50013388  0.30882380  0.90020270  1
  Zr  Zr49  1  0.10130944  0.91182498  0.50017345  1
  Sc  Sc50  1  0.09878591  0.09181512  0.29785838  1
  Sc  Sc51  1  0.29160701  0.29402718  0.08996317  1
  Sc  Sc52  1  0.50446643  0.90065320  0.69243080  1
  Sc  Sc53  1  0.90896065  0.69922520  0.89472900  1
  Sc  Sc54  1  0.29411165  0.08877078  0.50853670  1
  Sc  Sc55  1  0.49394795  0.70113532  0.10037486  1
  Sc  Sc56  1  0.49390628  0.89704251  0.30091359  1
  Sc  Sc57  1  0.10204758  0.70163888  0.89885694  1
  Sc  Sc58  1  0.29184871  0.69912218  0.90188149  1
  Sc  Sc59  1  0.30817802  0.30074996  0.30108696  1
  Sc  Sc60  1  0.30085568  0.90089521  0.09642401  1
  Sc  Sc61  1  0.49762288  0.11387806  0.90652547  1
  Sc  Sc62  1  0.71072662  0.69891464  0.30578260  1
  Sc  Sc63  1  0.30227182  0.50000018  0.70583751  1
  Sc  Sc64  1  0.90199779  0.49891389  0.09284407  1
  Sc  Sc65  1  0.09567565  0.50601347  0.49282704  1
  Sc  Sc66  1  0.48815239  0.30895197  0.50545511  1
  Sc  Sc67  1  0.28914569  0.90555004  0.90321857  1
  Sc  Sc68  1  0.89611881  0.29887989  0.30185099  1
  Sc  Sc69  1  0.71062681  0.90091456  0.31388159  1
  Sc  Sc70  1  0.90983428  0.70357636  0.30229192  1
  Sc  Sc71  1  0.70670988  0.29960896  0.30054672  1
  Sc  Sc72  1  0.51204515  0.09308057  0.50084793  1
  Sc  Sc73  1  0.09786352  0.91331376  0.10604986  1
  Sc  Sc74  1  0.09852138  0.70105295  0.49268216  1
  Sc  Sc75  1  0.50267253  0.88855720  0.49936958  1
  Sc  Sc76  1  0.51138117  0.49184140  0.09156130  1
  Sc  Sc77  1  0.29446114  0.89416388  0.29966141  1
  Sc  Sc78  1  0.69546805  0.70173050  0.50175899  1
  Sc  Sc79  1  0.30705543  0.48522089  0.50990981  1
  Sc  Sc80  1  0.70325505  0.89730289  0.69383495  1
  Sc  Sc81  1  0.09725382  0.69259524  0.10038180  1
  Sc  Sc82  1  0.28889892  0.10380792  0.90010645  1
  Sc  Sc83  1  0.09764664  0.50165101  0.90665060  1
  Sc  Sc84  1  0.71141524  0.90406039  0.89131615  1
  Sc  Sc85  1  0.29590052  0.89519064  0.50668626  1
  Sc  Sc86  1  0.10247442  0.09233682  0.89585285  1
  Sc  Sc87  1  0.70338916  0.09216470  0.49501684  1
  Sc  Sc88  1  0.08762884  0.30194131  0.49863946  1
  Sc  Sc89  1  0.50255963  0.49880912  0.70229548  1
  Sc  Sc90  1  0.90157321  0.50071501  0.49729135  1
  Sc  Sc91  1  0.48935171  0.10334389  0.10275053  1
  Sc  Sc92  1  0.70397951  0.50321305  0.50149859  1
  Sc  Sc93  1  0.90382012  0.10058448  0.70484960  1
  Sc  Sc94  1  0.29884074  0.09083732  0.70108979  1
  Sc  Sc95  1  0.89840553  0.30395740  0.48765273  1
  Sc  Sc96  1  0.50358951  0.69908757  0.69093306  1
  Sc  Sc97  1  0.90547573  0.89639686  0.29911238  1
  Sc  Sc98  1  0.08871489  0.30213768  0.28932475  1
  Sc  Sc99  1  0.50739318  0.69472403  0.89420338  1
  Nb  Nb100  1  0.29830991  0.29749248  0.49983944  1
  Nb  Nb101  1  0.70236658  0.90366620  0.50710643  1
  Nb  Nb102  1  0.30493203  0.29874235  0.89364095  1
  Nb  Nb103  1  0.09392665  0.30282045  0.09740925  1
  Nb  Nb104  1  0.30299477  0.09875975  0.30088876  1
  Nb  Nb105  1  0.69527212  0.29568307  0.89451671  1
  Nb  Nb106  1  0.89316851  0.10329711  0.29535306  1
  Nb  Nb107  1  0.10222010  0.29745488  0.69940103  1
  Nb  Nb108  1  0.49660285  0.09762885  0.30080412  1
  Nb  Nb109  1  0.10377148  0.10060669  0.50022175  1
  Nb  Nb110  1  0.90477831  0.09674378  0.10123803  1
  Nb  Nb111  1  0.09213267  0.90487360  0.89948050  1
  Nb  Nb112  1  0.90724579  0.90477008  0.90218353  1
  Nb  Nb113  1  0.09941621  0.48260969  0.10463809  1
  Nb  Nb114  1  0.69665550  0.29750710  0.49935387  1
  Nb  Nb115  1  0.90251302  0.69874814  0.69753653  1
  Nb  Nb116  1  0.49697178  0.50033106  0.90320618  1
  Nb  Nb117  1  0.70149045  0.90168542  0.10235904  1
  Nb  Nb118  1  0.50530435  0.50243344  0.50339682  1
  Nb  Nb119  1  0.70053530  0.49775842  0.30174440  1
  Nb  Nb120  1  0.89325243  0.50156639  0.89636485  1
  Nb  Nb121  1  0.50487252  0.30171325  0.70126488  1
  Nb  Nb122  1  0.49847503  0.69727096  0.50102252  1
  Nb  Nb123  1  0.90031386  0.91069814  0.09736791  1
  Nb  Nb124  1  0.30112465  0.89676770  0.69724902  1
  Nb  Nb125  1  0.59797536  0.00414563  0.80474414  1
  Nb  Nb126  1  0.60056284  0.40102127  0.40429704  1
  Nb  Nb127  1  0.39737154  0.00405301  0.39664204  1
  Nb  Nb128  1  0.60661044  0.80721342  0.00338059  1
  Nb  Nb129  1  0.39942640  0.59281549  -0.00275387  1
  Nb  Nb130  1  0.39522149  0.80422507  0.79517147  1
  Nb  Nb131  1  0.19877766  0.60073327  0.60092881  1
  Nb  Nb132  1  0.80429368  0.59787206  0.79537052  1
  Nb  Nb133  1  0.20130768  0.39220596  0.40193994  1
  Nb  Nb134  1  -0.00038955  0.20166231  0.00428871  1
  Nb  Nb135  1  0.60259039  0.20763338  0.60120644  1
  Nb  Nb136  1  0.79727472  0.20448375  0.59887274  1
  Nb  Nb137  1  0.79969283  0.00461589  0.19823198  1
  Nb  Nb138  1  0.60265810  0.60096623  0.20527284  1
  Nb  Nb139  1  0.80552617  0.80748045  0.00143855  1
  Nb  Nb140  1  0.20203812  0.19869335  0.40398453  1
  Nb  Nb141  1  0.19469894  0.20535996  0.59654739  1
  Nb  Nb142  1  0.40449675  0.59885798  0.40900866  1
  Nb  Nb143  1  0.39700599  0.20964498  0.79481883  1
  Nb  Nb144  1  0.60549798  0.80076606  0.19847650  1
  Nb  Nb145  1  -0.00368838  0.81147910  0.00098240  1
  Nb  Nb146  1  0.40271608  0.39828610  0.19670232  1
  Nb  Nb147  1  0.39684131  0.19096422  0.40369588  1
  Nb  Nb148  1  0.60429997  -0.00136427  0.19899792  1
  Nb  Nb149  1  0.60355875  -0.00129936  -0.00061241  1
  Pd  Pd150  1  0.00173692  0.59525530  0.79947071  1
  Pd  Pd151  1  -0.00135972  0.39337026  -0.00934049  1
  Pd  Pd152  1  0.79946205  -0.00058396  0.79077635  1
  Pd  Pd153  1  -0.00418058  0.00281682  0.39340239  1
  Pd  Pd154  1  0.59378798  -0.01255558  0.39492116  1
  Pd  Pd155  1  0.59864500  0.40409852  0.20584322  1
  Pd  Pd156  1  0.19977008  0.80249551  0.40481879  1
  Pd  Pd157  1  0.79826021  0.60245887  0.60287018  1
  Pd  Pd158  1  0.18628556  0.80662982  0.00723219  1
  Pd  Pd159  1  0.39636449  0.59333018  0.60014501  1
  Pd  Pd160  1  0.00908087  0.40205074  0.80854590  1
  Pd  Pd161  1  0.19963915  0.39730874  -0.00603340  1
  Pd  Pd162  1  0.20119691  0.59393478  0.00277578  1
  Pd  Pd163  1  -0.00288350  -0.00005440  0.60543700  1
  Pd  Pd164  1  -0.00326328  0.19504606  0.81017086  1
  Pd  Pd165  1  0.60493818  0.59468441  0.79305157  1
  Pd  Pd166  1  0.40285102  0.78757309  -0.01105769  1
  Pd  Pd167  1  0.60104496  0.19130854  0.19104837  1
  Pd  Pd168  1  0.79687129  0.19837063  0.19973679  1
  Pd  Pd169  1  0.80904272  0.21144394  0.00135882  1
  Pd  Pd170  1  0.80424063  0.39352614  0.59256142  1
  Pd  Pd171  1  0.40432984  -0.00839671  0.58895850  1
  Pd  Pd172  1  -0.00246863  0.20290652  0.59765662  1
  Pd  Pd173  1  0.20369656  -0.00366542  0.20555405  1
  Pd  Pd174  1  0.20141957  0.80435649  0.80375530  1
  Pd  Pd175  1  0.39806313  0.19835283  0.59904206  1
  Pd  Pd176  1  0.00668210  0.19748451  0.38942300  1
  Pd  Pd177  1  0.19505836  0.59761187  0.79398412  1
  Pd  Pd178  1  0.79871756  0.39502037  -0.00112786  1
  Pd  Pd179  1  0.20649016  0.38785589  0.20780130  1
  Pd  Pd180  1  -0.00226055  0.60299152  0.00124622  1
  Pd  Pd181  1  0.80029032  0.80812955  0.20120992  1
  Pd  Pd182  1  0.60546872  0.80424115  0.39856988  1
  Pd  Pd183  1  0.80514388  0.79381810  0.40859900  1
  Pd  Pd184  1  0.59448749  0.80913270  0.80241699  1
  Pd  Pd185  1  0.39769361  0.01078568  -0.00585667  1
  Pd  Pd186  1  0.80631681  0.00691815  0.60422259  1
  Pd  Pd187  1  -0.00032502  0.40274022  0.59226843  1
  Pd  Pd188  1  0.80707360  0.79323492  0.80553613  1
  Pd  Pd189  1  0.60021621  0.59623096  0.39859017  1
  Pd  Pd190  1  0.39962315  0.00270729  0.80487953  1
  Pd  Pd191  1  0.39556051  0.20509424  0.20152820  1
  Pd  Pd192  1  0.19317247  0.80095251  0.19088168  1
  Pd  Pd193  1  0.41104727  0.59084943  0.19452149  1
  Pd  Pd194  1  -0.00146957  0.59199331  0.19825492  1
  Pd  Pd195  1  0.40007584  0.60983804  0.80396495  1
  Pd  Pd196  1  0.39758640  0.80234661  0.20335256  1
  Pd  Pd197  1  0.80617668  0.60520510  0.40434794  1
  Pd  Pd198  1  0.80183620  0.59567744  0.20719560  1
  Pd  Pd199  1  0.19899923  0.20649519  0.20927732  1
  Rh  Rh200  1  0.18801535  0.39891557  0.58684005  1
  Rh  Rh201  1  -0.00103897  -0.00050517  0.79528088  1
  Rh  Rh202  1  0.00451018  0.80411087  0.19086595  1
  Rh  Rh203  1  0.58875601  0.20768067  0.41496712  1
  Rh  Rh204  1  0.59603170  0.39570809  0.59320979  1
  Rh  Rh205  1  0.80168784  0.40231614  0.19939461  1
  Rh  Rh206  1  0.21604038  0.58797179  0.41793755  1
  Rh  Rh207  1  0.79484614  -0.00454539  0.00157890  1
  Rh  Rh208  1  0.40703763  0.39694439  0.79415489  1
  Rh  Rh209  1  0.00485836  0.80827196  0.59367460  1
  Rh  Rh210  1  0.19497934  0.40053175  0.80603180  1
  Rh  Rh211  1  0.59907744  0.40618543  0.80647634  1
  Rh  Rh212  1  0.79866735  0.79923954  0.59556647  1
  Rh  Rh213  1  0.80953560  0.20077470  0.79290075  1
  Rh  Rh214  1  0.19641634  0.00238381  0.60637711  1
  Rh  Rh215  1  0.00963894  0.00491197  0.00130631  1
  Rh  Rh216  1  0.78987801  0.40016277  0.40242017  1
  Rh  Rh217  1  0.60155370  0.60188195  0.59989798  1
  Rh  Rh218  1  0.58746740  0.19629566  0.79617349  1
  Rh  Rh219  1  0.00837618  0.59499548  0.60071506  1
  Rh  Rh220  1  0.58731416  0.60817746  0.00948260  1
  Rh  Rh221  1  0.19601431  0.00124625  0.00253854  1
  Rh  Rh222  1  0.19460816  0.19757907  0.00145179  1
  Rh  Rh223  1  -0.00599282  0.40650171  0.20263661  1
  Rh  Rh224  1  0.39482779  0.40370849  0.00564402  1
  Rh  Rh225  1  0.39901305  -0.00479123  0.20802006  1
  Rh  Rh226  1  0.21172587  0.20274147  0.78454226  1
  Rh  Rh227  1  -0.00166395  0.19736846  0.19970953  1
  Rh  Rh228  1  0.00157834  0.80090042  0.80729037  1
  Rh  Rh229  1  0.20089473  -0.00523325  0.79843206  1
  Rh  Rh230  1  0.60004039  0.20023946  0.00226086  1
  Rh  Rh231  1  -0.00817517  0.00284961  0.20821629  1
  Rh  Rh232  1  -0.00026991  0.80162487  0.40669859  1
  Rh  Rh233  1  0.20589279  0.00231596  0.39710362  1
  Rh  Rh234  1  0.38917443  0.19872695  -0.00755821  1
  Rh  Rh235  1  0.18793341  0.59636731  0.19034212  1
  Rh  Rh236  1  0.40913513  0.40476065  0.60891067  1
  Rh  Rh237  1  0.40060846  0.39915493  0.39529824  1
  Rh  Rh238  1  0.00612136  0.40262340  0.39342249  1
  Rh  Rh239  1  0.19181012  0.79645148  0.59558394  1
  Rh  Rh240  1  0.60302386  0.79992241  0.59387321  1
  Rh  Rh241  1  0.40591472  0.80250235  0.60613541  1
  Rh  Rh242  1  0.80020894  0.19780134  0.40670089  1
  Rh  Rh243  1  0.60580032  0.39542977  -0.00606396  1
  Rh  Rh244  1  -0.00722798  0.60139121  0.39726145  1
  Rh  Rh245  1  0.79218540  0.40950238  0.80468057  1
  Rh  Rh246  1  0.39391929  0.79869187  0.40169716  1
  Rh  Rh247  1  0.80572329  0.00284273  0.39441818  1
  Rh  Rh248  1  0.60299439  -0.00004096  0.60376389  1
  Rh  Rh249  1  0.81430022  0.60754441  -0.00969470  1
