# generated using pymatgen
data_ZrScNbPdRh
_symmetry_space_group_name_H-M   'P 1'
_cell_length_a   16.55442107
_cell_length_b   16.55482278
_cell_length_c   16.55479128
_cell_angle_alpha   89.98970893
_cell_angle_beta   90.01816209
_cell_angle_gamma   89.97640324
_symmetry_Int_Tables_number   1
_chemical_formula_structural   ZrScNbPdRh
_chemical_formula_sum   'Zr50 Sc50 Nb50 Pd50 Rh50'
_cell_volume   4536.93103256
_cell_formula_units_Z   50
loop_
 _symmetry_equiv_pos_site_id
 _symmetry_equiv_pos_as_xyz
  1  'x, y, z'
loop_
 _atom_site_type_symbol
 _atom_site_label
 _atom_site_symmetry_multiplicity
 _atom_site_fract_x
 _atom_site_fract_y
 _atom_site_fract_z
 _atom_site_occupancy
  Zr  Zr0  1  0.10716702  0.10296059  0.49464262  1
  Zr  Zr1  1  0.70047057  0.71061249  0.10318440  1
  Zr  Zr2  1  0.50178518  0.30647864  0.49853682  1
  Zr  Zr3  1  0.89339683  0.69702131  0.70449070  1
  Zr  Zr4  1  0.50278179  0.49977927  0.29345358  1
  Zr  Zr5  1  0.49414970  0.30191138  0.90088411  1
  Zr  Zr6  1  0.29972299  0.29670618  0.09524711  1
  Zr  Zr7  1  0.70029837  0.49832188  0.30100220  1
  Zr  Zr8  1  0.69383069  0.49381467  0.70578931  1
  Zr  Zr9  1  0.90757541  0.30327032  0.49996798  1
  Zr  Zr10  1  0.29760006  0.70104976  0.09898679  1
  Zr  Zr11  1  0.30104470  0.70385787  0.50255624  1
  Zr  Zr12  1  0.31336151  0.89801774  0.89489819  1
  Zr  Zr13  1  0.89401253  0.90003537  0.50558168  1
  Zr  Zr14  1  0.09837523  0.91114108  0.29878639  1
  Zr  Zr15  1  0.09529618  0.50297496  0.10173499  1
  Zr  Zr16  1  0.48968467  0.90306543  0.70074216  1
  Zr  Zr17  1  0.31214765  0.50243086  0.89357645  1
  Zr  Zr18  1  0.91620304  0.10288860  0.29698039  1
  Zr  Zr19  1  0.30158542  0.70121236  0.70433794  1
  Zr  Zr20  1  0.89320254  0.69654188  0.11099579  1
  Zr  Zr21  1  0.69776977  0.30053145  0.29068665  1
  Zr  Zr22  1  0.90057543  0.70071564  0.49595618  1
  Zr  Zr23  1  0.91023499  0.50053061  0.70423733  1
  Zr  Zr24  1  0.29499655  0.29966523  0.29226486  1
  Zr  Zr25  1  0.69663423  0.90061875  0.50054219  1
  Zr  Zr26  1  0.89640165  0.69610030  0.89109906  1
  Zr  Zr27  1  0.69114025  0.69964591  0.50607800  1
  Zr  Zr28  1  0.89343972  0.29368411  0.10427593  1
  Zr  Zr29  1  0.30296547  0.69966580  0.90282068  1
  Zr  Zr30  1  0.89873941  0.89302303  0.70480733  1
  Zr  Zr31  1  0.89530486  0.49531577  0.50047890  1
  Zr  Zr32  1  0.49860608  0.90318446  0.29500881  1
  Zr  Zr33  1  0.89462971  0.30918979  0.70291754  1
  Zr  Zr34  1  0.49760656  0.29558484  0.10014759  1
  Zr  Zr35  1  0.09770492  0.89832471  0.09432176  1
  Zr  Zr36  1  0.69706069  0.09909466  0.29131738  1
  Zr  Zr37  1  0.10467296  0.10869141  0.90244345  1
  Zr  Zr38  1  0.29861250  0.47983989  0.49910011  1
  Zr  Zr39  1  0.90362626  0.10278823  0.50140754  1
  Zr  Zr40  1  0.09943540  0.69910415  0.91566086  1
  Zr  Zr41  1  0.09413149  0.49149770  0.49720750  1
  Zr  Zr42  1  0.09890820  0.89760705  0.90617470  1
  Zr  Zr43  1  0.50645688  0.49773029  0.89959363  1
  Zr  Zr44  1  0.50146878  0.09925965  0.70405147  1
  Zr  Zr45  1  0.09238064  0.69776137  0.70392229  1
  Zr  Zr46  1  0.09180048  0.69220096  0.30052712  1
  Zr  Zr47  1  0.69842847  0.31908997  0.50207987  1
  Zr  Zr48  1  0.31054957  0.89927893  0.09535505  1
  Zr  Zr49  1  0.70274456  0.09298214  0.09454636  1
  Sc  Sc50  1  0.89887725  0.49027685  0.10408076  1
  Sc  Sc51  1  0.10502456  0.29729203  0.49641259  1
  Sc  Sc52  1  0.89965787  0.69674494  0.30461363  1
  Sc  Sc53  1  0.69628252  0.09859471  0.90181801  1
  Sc  Sc54  1  0.71026275  0.70440841  0.29469678  1
  Sc  Sc55  1  0.90166375  0.89640906  0.30399538  1
  Sc  Sc56  1  0.69827909  0.70001619  0.89490713  1
  Sc  Sc57  1  0.09131577  0.29927869  0.69801315  1
  Sc  Sc58  1  0.09805980  0.09992561  0.10862376  1
  Sc  Sc59  1  0.69912540  0.90479156  0.91225471  1
  Sc  Sc60  1  0.90095952  0.11140806  0.69923190  1
  Sc  Sc61  1  0.30105192  0.09340810  0.69288521  1
  Sc  Sc62  1  0.50736337  0.09766579  0.89506680  1
  Sc  Sc63  1  0.29754754  0.49184628  0.09942197  1
  Sc  Sc64  1  0.89875938  0.89673814  0.90795291  1
  Sc  Sc65  1  0.51082625  0.50016873  0.49121813  1
  Sc  Sc66  1  0.90115799  0.50201243  0.29745749  1
  Sc  Sc67  1  0.90296215  0.49411035  0.90193794  1
  Sc  Sc68  1  0.30550110  0.90555259  0.29292816  1
  Sc  Sc69  1  0.50054016  0.90341344  0.09296501  1
  Sc  Sc70  1  0.50252764  0.69967576  0.69445107  1
  Sc  Sc71  1  0.30352443  0.49643160  0.29391197  1
  Sc  Sc72  1  0.30462912  0.11342340  0.89339914  1
  Sc  Sc73  1  0.10495706  0.29798399  0.90947237  1
  Sc  Sc74  1  0.30240534  0.89742729  0.69437488  1
  Sc  Sc75  1  0.09258046  0.70220215  0.50086764  1
  Sc  Sc76  1  0.30680822  0.30717081  0.69339667  1
  Sc  Sc77  1  0.30172690  0.90084977  0.51327880  1
  Sc  Sc78  1  0.69429888  0.10301466  0.70667242  1
  Sc  Sc79  1  0.89704536  0.10662337  0.91292090  1
  Sc  Sc80  1  0.10495322  0.11059685  0.69505306  1
  Sc  Sc81  1  0.10489029  0.89674485  0.50367422  1
  Sc  Sc82  1  0.51200443  0.30249130  0.70470277  1
  Sc  Sc83  1  0.90167678  0.29898291  0.90670845  1
  Sc  Sc84  1  0.69582491  0.09247937  0.51237922  1
  Sc  Sc85  1  0.10047311  0.29318232  0.29753379  1
  Sc  Sc86  1  0.70242864  0.29792427  0.89924780  1
  Sc  Sc87  1  0.09952235  0.49408557  0.29645868  1
  Sc  Sc88  1  0.49824275  0.49523838  0.71380580  1
  Sc  Sc89  1  0.70388760  0.90082819  0.69227123  1
  Sc  Sc90  1  0.49983168  0.10273980  0.28618911  1
  Sc  Sc91  1  0.09618550  0.50055742  0.90698176  1
  Sc  Sc92  1  0.49776316  0.70172220  0.49938873  1
  Sc  Sc93  1  0.50177395  0.49029588  0.09181960  1
  Sc  Sc94  1  0.50284285  0.30047873  0.28831858  1
  Sc  Sc95  1  0.49663679  0.69578700  0.89791548  1
  Sc  Sc96  1  0.49374419  0.70895164  0.09901222  1
  Sc  Sc97  1  0.48602264  0.69938643  0.30021949  1
  Sc  Sc98  1  0.70034099  0.30070486  0.10046814  1
  Sc  Sc99  1  0.10860459  0.30592384  0.09814318  1
  Nb  Nb100  1  0.89490606  0.90618118  0.09970799  1
  Nb  Nb101  1  0.29826193  0.10389766  0.49691223  1
  Nb  Nb102  1  0.70737462  0.89939665  0.10720018  1
  Nb  Nb103  1  0.10047228  0.70009567  0.10224257  1
  Nb  Nb104  1  0.89264904  0.29080291  0.29818010  1
  Nb  Nb105  1  0.29071861  0.10136153  0.29948850  1
  Nb  Nb106  1  0.29885399  0.69942076  0.29987297  1
  Nb  Nb107  1  0.10199403  0.49997085  0.70126538  1
  Nb  Nb108  1  0.70075688  0.30198557  0.69904204  1
  Nb  Nb109  1  0.29430720  0.30564618  0.90267357  1
  Nb  Nb110  1  0.50054494  0.90266023  0.50121469  1
  Nb  Nb111  1  0.10900041  0.09876866  0.30289874  1
  Nb  Nb112  1  0.10389434  0.90103079  0.70085198  1
  Nb  Nb113  1  0.69669683  0.70006275  0.70340804  1
  Nb  Nb114  1  0.50379437  0.90514814  0.89059808  1
  Nb  Nb115  1  0.69889622  0.50253097  0.49990491  1
  Nb  Nb116  1  0.50000806  0.09853766  0.50147345  1
  Nb  Nb117  1  0.89564970  0.09475071  0.10269451  1
  Nb  Nb118  1  0.68802644  0.50279840  0.90916192  1
  Nb  Nb119  1  0.69756496  0.49941179  0.09930268  1
  Nb  Nb120  1  0.30619488  0.10026315  0.10715888  1
  Nb  Nb121  1  0.29854236  0.50225363  0.70142517  1
  Nb  Nb122  1  0.69564450  0.90312652  0.29570083  1
  Nb  Nb123  1  0.30334003  0.29656412  0.49189330  1
  Nb  Nb124  1  0.49607660  0.10321690  0.09673158  1
  Nb  Nb125  1  0.20403210  0.59974659  0.40430981  1
  Nb  Nb126  1  0.80758601  -0.00008740  0.80009852  1
  Nb  Nb127  1  0.40311422  0.19854304  0.58868344  1
  Nb  Nb128  1  0.59881864  0.80928331  0.39743259  1
  Nb  Nb129  1  0.79232057  0.59680045  0.60259834  1
  Nb  Nb130  1  0.59954027  0.19766705  0.40419583  1
  Nb  Nb131  1  0.20772382  0.00419644  -0.00237467  1
  Nb  Nb132  1  0.79474508  0.19892555  0.40193394  1
  Nb  Nb133  1  0.19663973  0.80162898  0.80245401  1
  Nb  Nb134  1  0.79531375  0.00447527  0.39742402  1
  Nb  Nb135  1  0.20283635  0.40441199  0.79874389  1
  Nb  Nb136  1  0.59964215  0.80520429  0.79694641  1
  Nb  Nb137  1  0.79436118  0.21146577  0.59834612  1
  Nb  Nb138  1  0.00324018  0.80106460  0.19388208  1
  Nb  Nb139  1  0.19576043  -0.00392395  0.80281328  1
  Nb  Nb140  1  0.00277934  0.00177685  0.79906701  1
  Nb  Nb141  1  0.00317537  -0.00087564  0.60817682  1
  Nb  Nb142  1  0.39906972  0.19606910  0.40031701  1
  Nb  Nb143  1  0.19693097  0.79545865  0.19991977  1
  Nb  Nb144  1  0.20061608  0.59197343  0.60124447  1
  Nb  Nb145  1  0.20360260  0.79473086  0.39074414  1
  Nb  Nb146  1  0.79157831  0.59510321  0.00194646  1
  Nb  Nb147  1  0.60326037  0.59962670  0.19480492  1
  Nb  Nb148  1  0.40092833  0.00969239  0.40512091  1
  Nb  Nb149  1  0.39254015  0.59072324  0.60003027  1
  Pd  Pd150  1  0.79242946  0.80572334  0.39611277  1
  Pd  Pd151  1  0.20842775  0.20763466  0.60315791  1
  Pd  Pd152  1  0.79684225  0.40306236  -0.00267083  1
  Pd  Pd153  1  0.39318076  0.59062942  0.40769543  1
  Pd  Pd154  1  0.20492917  0.59085623  0.00174308  1
  Pd  Pd155  1  0.00027906  0.39338700  0.38802727  1
  Pd  Pd156  1  0.59395659  0.59136748  0.60677210  1
  Pd  Pd157  1  0.59489634  0.80239101  -0.00871652  1
  Pd  Pd158  1  -0.00298276  0.20066141  0.80364391  1
  Pd  Pd159  1  0.00700108  0.20367965  0.19475540  1
  Pd  Pd160  1  0.59666959  -0.00347427  0.60907395  1
  Pd  Pd161  1  0.59463260  0.00005834  0.18672044  1
  Pd  Pd162  1  0.39689129  0.20564629  0.78874319  1
  Pd  Pd163  1  0.40179256  0.01108910  -0.00949503  1
  Pd  Pd164  1  0.00208854  0.00862903  -0.00194399  1
  Pd  Pd165  1  0.60115268  0.20397794  0.59693401  1
  Pd  Pd166  1  0.01131021  0.39454963  0.80943015  1
  Pd  Pd167  1  0.20687125  0.20801373  0.79011944  1
  Pd  Pd168  1  0.79890237  0.19503143  0.79918500  1
  Pd  Pd169  1  0.79244200  0.58805424  0.80337554  1
  Pd  Pd170  1  0.40570107  0.39527171  0.38721688  1
  Pd  Pd171  1  0.20477491  -0.00392125  0.18948517  1
  Pd  Pd172  1  0.00422540  0.80171197  0.80504821  1
  Pd  Pd173  1  0.00279998  0.20273178  0.01232659  1
  Pd  Pd174  1  0.39848823  0.19598037  -0.00339431  1
  Pd  Pd175  1  0.21093262  -0.01188479  0.40652610  1
  Pd  Pd176  1  0.59346023  0.79352992  0.20734648  1
  Pd  Pd177  1  0.80157917  0.79457136  -0.00370716  1
  Pd  Pd178  1  0.80310778  0.39651923  0.39106255  1
  Pd  Pd179  1  0.19242375  0.60054759  0.80239820  1
  Pd  Pd180  1  0.40305356  0.59562154  0.00833802  1
  Pd  Pd181  1  0.59766067  0.00280578  0.39709690  1
  Pd  Pd182  1  0.79644881  0.79072041  0.60168019  1
  Pd  Pd183  1  0.41104109  0.40146400  0.60523736  1
  Pd  Pd184  1  0.20147247  0.59782512  0.20446839  1
  Pd  Pd185  1  0.40544959  0.59632445  0.19058654  1
  Pd  Pd186  1  0.00187760  0.80390304  0.60000996  1
  Pd  Pd187  1  0.19376685  0.39457193  0.60629436  1
  Pd  Pd188  1  0.60084583  0.61142868  0.00699719  1
  Pd  Pd189  1  -0.00186552  0.39130676  0.20209331  1
  Pd  Pd190  1  0.60171447  0.61427828  0.38622901  1
  Pd  Pd191  1  0.39772655  0.81250155  0.40162977  1
  Pd  Pd192  1  -0.00209783  -0.00434130  0.41015291  1
  Pd  Pd193  1  -0.01553932  0.79253422  0.00771146  1
  Pd  Pd194  1  -0.01430972  0.59840984  0.00532040  1
  Pd  Pd195  1  -0.00188804  0.59822134  0.59494558  1
  Pd  Pd196  1  0.80809812  -0.00172378  0.20951716  1
  Pd  Pd197  1  0.60274029  0.20143592  -0.00123364  1
  Pd  Pd198  1  0.79519933  0.40520047  0.81028786  1
  Pd  Pd199  1  0.79763750  0.60092721  0.40482882  1
  Rh  Rh200  1  0.81001517  0.01346482  0.60496513  1
  Rh  Rh201  1  0.61192402  -0.00926762  0.79875008  1
  Rh  Rh202  1  0.78561327  0.81065639  0.80395507  1
  Rh  Rh203  1  0.20926082  0.80565774  0.00135833  1
  Rh  Rh204  1  0.19316321  0.00458340  0.60368888  1
  Rh  Rh205  1  -0.00522518  -0.00447820  0.19623037  1
  Rh  Rh206  1  0.59843131  0.39537110  0.39206686  1
  Rh  Rh207  1  0.60157769  0.19668242  0.19262683  1
  Rh  Rh208  1  0.79969251  0.19310600  0.19952490  1
  Rh  Rh209  1  0.59763000  -0.00223464  0.00506625  1
  Rh  Rh210  1  0.60188881  0.38960934  -0.00078256  1
  Rh  Rh211  1  0.00304199  0.20346713  0.39736651  1
  Rh  Rh212  1  0.20196338  0.20471643  0.39481156  1
  Rh  Rh213  1  0.79683765  0.19824621  0.00522810  1
  Rh  Rh214  1  0.79395358  0.59107079  0.19458257  1
  Rh  Rh215  1  0.59873828  0.60751756  0.79949946  1
  Rh  Rh216  1  0.39281603  0.00757173  0.80031041  1
  Rh  Rh217  1  0.59986037  0.40559043  0.19446650  1
  Rh  Rh218  1  0.80075150  0.40132829  0.20208621  1
  Rh  Rh219  1  0.20660026  0.19157807  0.00898347  1
  Rh  Rh220  1  0.40203686  0.00674831  0.20291862  1
  Rh  Rh221  1  0.00232795  0.59284024  0.40162878  1
  Rh  Rh222  1  0.59440946  0.80606783  0.60160284  1
  Rh  Rh223  1  0.40057181  0.00617310  0.59563517  1
  Rh  Rh224  1  0.19382349  0.78973687  0.60369525  1
  Rh  Rh225  1  0.20161971  0.40678011  -0.00808806  1
  Rh  Rh226  1  0.00941466  0.80599768  0.39274536  1
  Rh  Rh227  1  0.39527195  0.79979280  0.19958940  1
  Rh  Rh228  1  0.59492608  0.40824176  0.60408743  1
  Rh  Rh229  1  0.00431961  0.39730338  0.60184934  1
  Rh  Rh230  1  0.60580533  0.39362592  0.80933720  1
  Rh  Rh231  1  0.40868081  0.60428875  0.79213048  1
  Rh  Rh232  1  0.00504445  0.59789904  0.80871861  1
  Rh  Rh233  1  0.00009181  0.39522162  0.00578107  1
  Rh  Rh234  1  -0.00397559  0.20107680  0.59708392  1
  Rh  Rh235  1  0.40504671  0.79504337  0.79994655  1
  Rh  Rh236  1  0.79864993  0.40659465  0.60591985  1
  Rh  Rh237  1  0.39825783  0.39912732  -0.00115181  1
  Rh  Rh238  1  0.19706593  0.39912859  0.39280376  1
  Rh  Rh239  1  0.39557088  0.19706227  0.20314415  1
  Rh  Rh240  1  0.19789695  0.40093855  0.19938240  1
  Rh  Rh241  1  0.39423458  0.39257378  0.80057432  1
  Rh  Rh242  1  0.80104723  0.00016571  -0.00295586  1
  Rh  Rh243  1  0.80944467  0.81108554  0.20397676  1
  Rh  Rh244  1  0.40939227  0.80010306  -0.00710396  1
  Rh  Rh245  1  0.40046251  0.39828378  0.19486383  1
  Rh  Rh246  1  0.60128981  0.20545349  0.80475070  1
  Rh  Rh247  1  0.19862222  0.19621715  0.19619036  1
  Rh  Rh248  1  0.40676278  0.79393625  0.59928099  1
  Rh  Rh249  1  -0.00330120  0.60048329  0.19892586  1
