# generated using pymatgen
data_ZrScNbPdRh
_symmetry_space_group_name_H-M   'P 1'
_cell_length_a   16.56543094
_cell_length_b   16.56080532
_cell_length_c   16.56228000
_cell_angle_alpha   90.01085028
_cell_angle_beta   90.01052258
_cell_angle_gamma   90.00582811
_symmetry_Int_Tables_number   1
_chemical_formula_structural   ZrScNbPdRh
_chemical_formula_sum   'Zr50 Sc50 Nb50 Pd50 Rh50'
_cell_volume   4543.64398841
_cell_formula_units_Z   50
loop_
 _symmetry_equiv_pos_site_id
 _symmetry_equiv_pos_as_xyz
  1  'x, y, z'
loop_
 _atom_site_type_symbol
 _atom_site_label
 _atom_site_symmetry_multiplicity
 _atom_site_fract_x
 _atom_site_fract_y
 _atom_site_fract_z
 _atom_site_occupancy
  Zr  Zr0  1  0.29321992  0.10447827  0.70198649  1
  Zr  Zr1  1  0.90139620  0.50693016  0.10118919  1
  Zr  Zr2  1  0.49427271  0.49986947  0.89951201  1
  Zr  Zr3  1  0.89584935  0.90416192  0.49634663  1
  Zr  Zr4  1  0.89729208  0.29751088  0.50323658  1
  Zr  Zr5  1  0.09141246  0.89701474  0.50675693  1
  Zr  Zr6  1  0.09912863  0.10222780  0.49913690  1
  Zr  Zr7  1  0.50162058  0.30006549  0.90239660  1
  Zr  Zr8  1  0.49722311  0.48595211  0.30633553  1
  Zr  Zr9  1  0.50490965  0.10076835  0.29381314  1
  Zr  Zr10  1  0.90235660  0.69737598  0.69757721  1
  Zr  Zr11  1  0.89538151  0.09635871  0.90276276  1
  Zr  Zr12  1  0.30218559  0.49276188  0.50599719  1
  Zr  Zr13  1  0.30640010  0.50236668  0.70408950  1
  Zr  Zr14  1  0.50699365  0.90393493  0.30354827  1
  Zr  Zr15  1  0.09941392  0.70790125  0.68810672  1
  Zr  Zr16  1  0.69729180  0.49887614  0.69833852  1
  Zr  Zr17  1  0.50476770  0.89489901  0.50074299  1
  Zr  Zr18  1  0.69540320  0.50938339  0.30842910  1
  Zr  Zr19  1  0.10543200  0.29574821  0.70109649  1
  Zr  Zr20  1  0.89231091  0.69728447  0.30652858  1
  Zr  Zr21  1  0.30227642  0.10026417  0.50166801  1
  Zr  Zr22  1  0.31272469  0.69952776  0.89840626  1
  Zr  Zr23  1  0.89660935  0.09466288  0.29644350  1
  Zr  Zr24  1  0.71227876  0.10174314  0.50792761  1
  Zr  Zr25  1  0.29389598  0.29790634  0.50233571  1
  Zr  Zr26  1  0.30704838  0.90033477  0.50279832  1
  Zr  Zr27  1  0.89729143  0.30054022  0.89701816  1
  Zr  Zr28  1  0.50014786  0.70185570  0.70689771  1
  Zr  Zr29  1  0.30563989  0.49418282  0.90787881  1
  Zr  Zr30  1  0.50081211  0.70043767  0.31433657  1
  Zr  Zr31  1  0.09588085  0.90432252  0.70286641  1
  Zr  Zr32  1  0.29749735  0.70557392  0.29853418  1
  Zr  Zr33  1  0.09813476  0.50297309  0.49514065  1
  Zr  Zr34  1  0.09446131  0.69515923  0.30021599  1
  Zr  Zr35  1  0.09588152  0.90462606  0.90185452  1
  Zr  Zr36  1  0.69561152  0.68887257  0.49332915  1
  Zr  Zr37  1  0.09651293  0.31014921  0.50484457  1
  Zr  Zr38  1  0.70298536  0.10811376  0.70220542  1
  Zr  Zr39  1  0.90178689  0.50830217  0.30198826  1
  Zr  Zr40  1  0.29719087  0.30534164  0.70287409  1
  Zr  Zr41  1  0.31176956  0.30556821  0.29236884  1
  Zr  Zr42  1  0.08917736  0.09722249  0.29628891  1
  Zr  Zr43  1  0.69680201  0.51576014  0.09960108  1
  Zr  Zr44  1  0.90253755  0.09683618  0.10044925  1
  Zr  Zr45  1  0.09472791  0.50117126  0.29894480  1
  Zr  Zr46  1  0.09808179  0.70695305  0.89738573  1
  Zr  Zr47  1  0.50208853  0.89675302  0.89373113  1
  Zr  Zr48  1  0.50960585  0.69038036  0.09060340  1
  Zr  Zr49  1  0.10105099  0.09663574  0.09369938  1
  Sc  Sc50  1  0.90123392  0.29064924  0.09624097  1
  Sc  Sc51  1  0.50116702  0.09956059  0.09874542  1
  Sc  Sc52  1  0.10801575  0.49400945  0.09374140  1
  Sc  Sc53  1  0.50417212  0.49615008  0.70103797  1
  Sc  Sc54  1  0.29646430  0.69223240  0.50583379  1
  Sc  Sc55  1  0.89637629  0.30250438  0.70749727  1
  Sc  Sc56  1  0.69760548  0.69369107  0.70385831  1
  Sc  Sc57  1  0.30006106  0.90062795  0.09597785  1
  Sc  Sc58  1  0.09395829  0.49777290  0.69160866  1
  Sc  Sc59  1  0.30029775  0.70460993  0.09253903  1
  Sc  Sc60  1  0.50362764  0.91116227  0.09585068  1
  Sc  Sc61  1  0.70359239  0.50399303  0.88743727  1
  Sc  Sc62  1  0.50095109  0.70027339  0.89915493  1
  Sc  Sc63  1  0.30218354  0.89341357  0.29548330  1
  Sc  Sc64  1  0.89091762  0.90212597  0.29945992  1
  Sc  Sc65  1  0.10249339  0.49653370  0.90212056  1
  Sc  Sc66  1  0.69234325  0.90419558  0.70372001  1
  Sc  Sc67  1  0.89627030  0.50379526  0.70182168  1
  Sc  Sc68  1  0.50941719  0.09967230  0.91132755  1
  Sc  Sc69  1  0.50267575  0.29598636  0.10417004  1
  Sc  Sc70  1  0.10067258  0.30032969  0.89690390  1
  Sc  Sc71  1  0.70033264  0.09998097  0.09461048  1
  Sc  Sc72  1  0.89898308  0.49957281  0.89040540  1
  Sc  Sc73  1  0.30887667  0.11201436  0.30169188  1
  Sc  Sc74  1  0.10740947  0.70665510  0.09804102  1
  Sc  Sc75  1  0.89605817  0.09668390  0.49696679  1
  Sc  Sc76  1  0.90168570  0.29261279  0.30047213  1
  Sc  Sc77  1  0.89659060  0.90426109  0.09822797  1
  Sc  Sc78  1  0.29167541  0.10084541  0.90975892  1
  Sc  Sc79  1  0.90036326  0.90196807  0.89579818  1
  Sc  Sc80  1  0.09883761  0.89949660  0.09642753  1
  Sc  Sc81  1  0.69204444  0.30209253  0.29385997  1
  Sc  Sc82  1  0.89321536  0.09490819  0.70268259  1
  Sc  Sc83  1  0.89694756  0.70479314  0.88883360  1
  Sc  Sc84  1  0.90583494  0.50221615  0.50454682  1
  Sc  Sc85  1  0.09476725  0.89896212  0.29373532  1
  Sc  Sc86  1  0.88442077  0.69702736  0.10518640  1
  Sc  Sc87  1  0.30158363  0.49180964  0.30617395  1
  Sc  Sc88  1  0.10235686  0.30141371  0.30510905  1
  Sc  Sc89  1  0.49482547  0.08753232  0.49663452  1
  Sc  Sc90  1  0.89716300  0.90248662  0.70377030  1
  Sc  Sc91  1  0.49814745  0.49763972  0.09648012  1
  Sc  Sc92  1  0.70155527  0.09713574  0.90194660  1
  Sc  Sc93  1  0.50712545  0.31132096  0.50233358  1
  Sc  Sc94  1  0.09945658  0.09777497  0.89630092  1
  Sc  Sc95  1  0.50393356  0.50411984  0.50083505  1
  Sc  Sc96  1  0.50969568  0.09253243  0.69543261  1
  Sc  Sc97  1  0.10927121  0.30170177  0.09970942  1
  Sc  Sc98  1  0.70270740  0.90086194  0.90360277  1
  Sc  Sc99  1  0.69761952  0.29157966  0.88504127  1
  Nb  Nb100  1  0.50160513  0.29733685  0.30191407  1
  Nb  Nb101  1  0.09275066  0.70442995  0.50270086  1
  Nb  Nb102  1  0.29978844  0.30663680  0.09644346  1
  Nb  Nb103  1  0.69656821  0.70275930  0.90863716  1
  Nb  Nb104  1  0.69931825  0.09441914  0.30272841  1
  Nb  Nb105  1  0.69876006  0.70311514  0.09879133  1
  Nb  Nb106  1  0.70571234  0.88884010  0.10174801  1
  Nb  Nb107  1  0.70447308  0.70159848  0.29671937  1
  Nb  Nb108  1  0.69170768  0.29723700  0.69471584  1
  Nb  Nb109  1  0.29973148  0.70326740  0.70113894  1
  Nb  Nb110  1  0.69995832  0.29781915  0.50350222  1
  Nb  Nb111  1  0.30714141  0.30331260  0.89827191  1
  Nb  Nb112  1  0.49679849  0.89895316  0.69845972  1
  Nb  Nb113  1  0.69351929  0.49207540  0.50107715  1
  Nb  Nb114  1  0.10296126  0.10371476  0.70205177  1
  Nb  Nb115  1  0.49823766  0.70540768  0.50302159  1
  Nb  Nb116  1  0.90139760  0.70556833  0.50008353  1
  Nb  Nb117  1  0.70359862  0.89924438  0.30178803  1
  Nb  Nb118  1  0.30365487  0.90011497  0.89513247  1
  Nb  Nb119  1  0.70120849  0.30622152  0.09629805  1
  Nb  Nb120  1  0.70557450  0.89809421  0.49803242  1
  Nb  Nb121  1  0.51023499  0.29380165  0.70725895  1
  Nb  Nb122  1  0.29346735  0.10334512  0.10215970  1
  Nb  Nb123  1  0.30030871  0.48894167  0.10440436  1
  Nb  Nb124  1  0.30139934  0.89983727  0.69882691  1
  Nb  Nb125  1  -0.00474110  0.40340392  0.19871116  1
  Nb  Nb126  1  0.60906031  0.39951323  -0.00206762  1
  Nb  Nb127  1  0.40232386  0.19756512  0.79958769  1
  Nb  Nb128  1  0.40258221  0.79988602  0.60543858  1
  Nb  Nb129  1  0.19849951  0.00003482  0.60043854  1
  Nb  Nb130  1  0.79400108  0.40038603  0.40278549  1
  Nb  Nb131  1  0.20379042  0.60758669  0.79802044  1
  Nb  Nb132  1  0.00332667  0.19834366  0.60521025  1
  Nb  Nb133  1  0.79464403  0.40012703  0.00254368  1
  Nb  Nb134  1  0.78966563  0.39615657  0.59704252  1
  Nb  Nb135  1  0.79637973  0.79802624  0.59292566  1
  Nb  Nb136  1  0.19839385  -0.00270734  0.39950378  1
  Nb  Nb137  1  0.41565900  0.79436681  0.19884540  1
  Nb  Nb138  1  -0.00685105  0.79387423  0.20042282  1
  Nb  Nb139  1  0.60263063  0.19840890  0.39812109  1
  Nb  Nb140  1  0.39674552  0.59995621  0.20029552  1
  Nb  Nb141  1  0.19353210  0.80082195  0.40757232  1
  Nb  Nb142  1  0.20777265  0.59531408  0.19749779  1
  Nb  Nb143  1  0.40337700  0.20316638  0.60751294  1
  Nb  Nb144  1  0.60782859  0.79799883  0.20070820  1
  Nb  Nb145  1  0.39825901  -0.00070189  0.79880097  1
  Nb  Nb146  1  0.20702125  0.80149348  0.79708070  1
  Nb  Nb147  1  0.79962718  0.40374113  0.19792088  1
  Nb  Nb148  1  0.20246706  0.00745754  0.20093341  1
  Nb  Nb149  1  0.00017447  0.60417506  -0.00136397  1
  Pd  Pd150  1  0.00520487  0.20932784  0.19518230  1
  Pd  Pd151  1  0.61008883  0.80030041  0.39716267  1
  Pd  Pd152  1  0.19706453  0.40865022  0.80104268  1
  Pd  Pd153  1  0.20474316  0.80734859  -0.00865387  1
  Pd  Pd154  1  0.20380340  -0.00289963  0.79916592  1
  Pd  Pd155  1  0.39255974  -0.00366522  0.20118278  1
  Pd  Pd156  1  0.80516877  0.59819740  -0.01267530  1
  Pd  Pd157  1  0.19937753  0.19790813  0.39264425  1
  Pd  Pd158  1  0.60345003  0.79506844  0.60472499  1
  Pd  Pd159  1  0.60727031  -0.00052993  0.59586010  1
  Pd  Pd160  1  0.19804438  0.20739560  -0.00549995  1
  Pd  Pd161  1  0.59091441  0.60391218  0.20938186  1
  Pd  Pd162  1  0.59690669  0.80676264  0.00191591  1
  Pd  Pd163  1  0.39646606  0.59759784  0.40044850  1
  Pd  Pd164  1  0.61154158  -0.00528208  0.19164031  1
  Pd  Pd165  1  0.40176112  0.20064937  0.18952341  1
  Pd  Pd166  1  0.59803440  0.00300420  0.80381343  1
  Pd  Pd167  1  -0.00653915  0.40427558  0.00345883  1
  Pd  Pd168  1  0.39783126  0.20044895  0.00148521  1
  Pd  Pd169  1  0.79260394  0.20327382  0.20161958  1
  Pd  Pd170  1  0.39338771  -0.00223989  0.38692495  1
  Pd  Pd171  1  -0.01364868  0.79224454  0.00961636  1
  Pd  Pd172  1  0.40764384  0.80450848  0.00770047  1
  Pd  Pd173  1  0.19970975  0.59881782  -0.00054271  1
  Pd  Pd174  1  -0.00049701  0.80443768  0.39200796  1
  Pd  Pd175  1  0.79412474  0.20408753  -0.00413744  1
  Pd  Pd176  1  0.40904863  0.39392405  0.60505931  1
  Pd  Pd177  1  0.60882213  0.00610447  0.40835170  1
  Pd  Pd178  1  0.20219326  0.39802403  0.39632586  1
  Pd  Pd179  1  0.79256603  0.00079417  0.19491007  1
  Pd  Pd180  1  0.41345728  0.20788773  0.41139267  1
  Pd  Pd181  1  0.39639088  0.00461735  -0.00626828  1
  Pd  Pd182  1  -0.00218711  0.20103285  0.40576369  1
  Pd  Pd183  1  0.60049853  0.40400257  0.19398881  1
  Pd  Pd184  1  0.60692661  0.19716396  0.19879295  1
  Pd  Pd185  1  0.79966517  0.59741904  0.59537028  1
  Pd  Pd186  1  -0.00154116  0.00949956  0.60563447  1
  Pd  Pd187  1  0.59841094  0.60226042  0.80510950  1
  Pd  Pd188  1  0.00910223  0.59650688  0.80291066  1
  Pd  Pd189  1  0.19687888  0.59533808  0.60445911  1
  Pd  Pd190  1  0.00603297  0.20075242  -0.00243770  1
  Pd  Pd191  1  0.79147741  0.20470809  0.38970885  1
  Pd  Pd192  1  0.40802104  0.60558918  0.60208689  1
  Pd  Pd193  1  -0.00427179  0.19393717  0.79610733  1
  Pd  Pd194  1  0.20003150  0.19902256  0.20473150  1
  Pd  Pd195  1  0.80697131  0.80051183  -0.00488820  1
  Pd  Pd196  1  0.79134716  0.80021844  0.79231282  1
  Pd  Pd197  1  0.00218842  0.40467526  0.79619293  1
  Pd  Pd198  1  0.59020403  0.19351873  0.58708442  1
  Pd  Pd199  1  0.20234279  0.60432511  0.39792080  1
  Rh  Rh200  1  0.59479058  0.60071520  0.59786672  1
  Rh  Rh201  1  0.01668573  0.60136406  0.18229813  1
  Rh  Rh202  1  0.39491360  0.59435864  0.00924053  1
  Rh  Rh203  1  0.79619554  0.60840047  0.80227810  1
  Rh  Rh204  1  0.19323845  0.80033938  0.20752181  1
  Rh  Rh205  1  0.40763104  0.39260945  0.79533767  1
  Rh  Rh206  1  -0.00041269  0.60147468  0.59619872  1
  Rh  Rh207  1  0.79280425  0.39647059  0.79495005  1
  Rh  Rh208  1  -0.00253835  -0.00251237  0.39477751  1
  Rh  Rh209  1  -0.00366969  0.00138571  -0.00224932  1
  Rh  Rh210  1  0.20834786  0.80598439  0.59788123  1
  Rh  Rh211  1  0.79468178  -0.01089202  0.60481727  1
  Rh  Rh212  1  0.79984284  0.79999998  0.20260609  1
  Rh  Rh213  1  0.00292515  -0.01037483  0.19527145  1
  Rh  Rh214  1  0.20322968  -0.00478757  0.00604930  1
  Rh  Rh215  1  0.79467293  0.79773061  0.40473725  1
  Rh  Rh216  1  0.80953522  0.20764255  0.60980511  1
  Rh  Rh217  1  -0.01016745  0.39925653  0.39082227  1
  Rh  Rh218  1  0.20544764  0.39222534  -0.00622195  1
  Rh  Rh219  1  0.19512146  0.40221411  0.20396891  1
  Rh  Rh220  1  0.59512789  0.18994500  0.80315426  1
  Rh  Rh221  1  0.60803218  -0.00459947  0.00327940  1
  Rh  Rh222  1  0.59997858  0.39993565  0.80431990  1
  Rh  Rh223  1  0.39666128  0.00150179  0.61101849  1
  Rh  Rh224  1  0.60523489  0.20686721  0.00242663  1
  Rh  Rh225  1  -0.00387271  0.60438253  0.41183270  1
  Rh  Rh226  1  0.60629491  0.79873654  0.80362214  1
  Rh  Rh227  1  0.80238175  0.59414073  0.40940990  1
  Rh  Rh228  1  0.39926828  0.59785574  0.79863530  1
  Rh  Rh229  1  -0.00314399  0.00538748  0.80153299  1
  Rh  Rh230  1  0.60394254  0.59282101  -0.01263624  1
  Rh  Rh231  1  0.19700670  0.19646300  0.59687780  1
  Rh  Rh232  1  0.60407662  0.39101110  0.39878091  1
  Rh  Rh233  1  0.79118105  0.59953611  0.20425016  1
  Rh  Rh234  1  0.59338378  0.59911239  0.40304832  1
  Rh  Rh235  1  0.40702659  0.39996855  0.19484142  1
  Rh  Rh236  1  0.79651792  0.00138478  0.39722697  1
  Rh  Rh237  1  -0.01033119  0.39228279  0.60610633  1
  Rh  Rh238  1  0.20681065  0.20448691  0.81172306  1
  Rh  Rh239  1  0.39925706  0.80717758  0.79470334  1
  Rh  Rh240  1  0.80008113  0.19911587  0.79829740  1
  Rh  Rh241  1  0.40115549  0.39384205  0.40804457  1
  Rh  Rh242  1  0.40782523  0.39366187  0.00826326  1
  Rh  Rh243  1  0.39235098  0.79690189  0.40758722  1
  Rh  Rh244  1  0.19782753  0.40810786  0.60239643  1
  Rh  Rh245  1  -0.01605877  0.80353734  0.60352789  1
  Rh  Rh246  1  0.79622875  -0.00062780  0.80146721  1
  Rh  Rh247  1  0.79841681  -0.00456905  0.00241300  1
  Rh  Rh248  1  0.00326701  0.80365759  0.79489608  1
  Rh  Rh249  1  0.60040413  0.40111994  0.60527882  1
