# generated using pymatgen
data_ZrScNbPdRh
_symmetry_space_group_name_H-M   'P 1'
_cell_length_a   16.56300998
_cell_length_b   16.56588334
_cell_length_c   16.55709329
_cell_angle_alpha   90.05776909
_cell_angle_beta   90.00343576
_cell_angle_gamma   90.06223150
_symmetry_Int_Tables_number   1
_chemical_formula_structural   ZrScNbPdRh
_chemical_formula_sum   'Zr50 Sc50 Nb50 Pd50 Rh50'
_cell_volume   4542.94501121
_cell_formula_units_Z   50
loop_
 _symmetry_equiv_pos_site_id
 _symmetry_equiv_pos_as_xyz
  1  'x, y, z'
loop_
 _atom_site_type_symbol
 _atom_site_label
 _atom_site_symmetry_multiplicity
 _atom_site_fract_x
 _atom_site_fract_y
 _atom_site_fract_z
 _atom_site_occupancy
  Zr  Zr0  1  0.69681912  0.90398643  0.49838206  1
  Zr  Zr1  1  0.09637528  0.68278816  0.29785388  1
  Zr  Zr2  1  0.09902686  0.10361599  0.69321880  1
  Zr  Zr3  1  0.90386117  0.90216477  0.09976069  1
  Zr  Zr4  1  0.69928357  0.90421244  0.70353085  1
  Zr  Zr5  1  0.70127852  0.70194579  0.28980914  1
  Zr  Zr6  1  0.49710970  0.10057023  0.69949067  1
  Zr  Zr7  1  0.29711474  0.29184329  0.69614817  1
  Zr  Zr8  1  0.89716072  0.49461798  0.10490607  1
  Zr  Zr9  1  0.89772017  0.29150991  0.09878501  1
  Zr  Zr10  1  0.29732602  0.49620628  0.49871276  1
  Zr  Zr11  1  0.69827989  0.29356508  0.90560318  1
  Zr  Zr12  1  0.30746107  0.29822674  0.49974873  1
  Zr  Zr13  1  0.49871502  0.89858804  0.08686534  1
  Zr  Zr14  1  0.90025018  0.88078642  0.49540020  1
  Zr  Zr15  1  0.89528534  0.50324005  0.90023884  1
  Zr  Zr16  1  0.11134665  0.90203578  0.49647835  1
  Zr  Zr17  1  0.90161573  0.09343578  0.71062567  1
  Zr  Zr18  1  0.30135150  0.49799976  0.09182745  1
  Zr  Zr19  1  0.69832347  0.69775290  0.70978867  1
  Zr  Zr20  1  0.50338513  0.50165835  0.70184487  1
  Zr  Zr21  1  0.10337433  0.49197955  0.30667487  1
  Zr  Zr22  1  0.29205626  0.09607360  0.50788986  1
  Zr  Zr23  1  0.90976490  0.10238484  0.49981202  1
  Zr  Zr24  1  0.50416905  0.90564872  0.70514764  1
  Zr  Zr25  1  0.50001804  0.49213708  0.50055873  1
  Zr  Zr26  1  0.50123100  0.29861209  0.11299741  1
  Zr  Zr27  1  0.10118896  0.90179632  0.90215435  1
  Zr  Zr28  1  0.90629355  0.90610085  0.89695554  1
  Zr  Zr29  1  0.10693941  0.69449038  0.70073191  1
  Zr  Zr30  1  0.29950011  0.70211596  0.49988887  1
  Zr  Zr31  1  0.89513192  0.49659745  0.69155798  1
  Zr  Zr32  1  0.90095241  0.90139965  0.29131349  1
  Zr  Zr33  1  0.89863124  0.69700468  0.69215446  1
  Zr  Zr34  1  0.69525521  0.30655755  0.49985428  1
  Zr  Zr35  1  0.70457258  0.10196491  0.29607210  1
  Zr  Zr36  1  0.69258778  0.29971779  0.29623274  1
  Zr  Zr37  1  0.49860134  0.50515849  0.90823427  1
  Zr  Zr38  1  0.29834443  0.90085449  0.49723311  1
  Zr  Zr39  1  0.10034631  0.50197050  0.69500120  1
  Zr  Zr40  1  0.10019373  0.69910898  0.50085485  1
  Zr  Zr41  1  0.49999919  0.11446223  0.29222081  1
  Zr  Zr42  1  0.90390550  0.10105772  0.28752022  1
  Zr  Zr43  1  0.71107069  0.70520482  0.49327128  1
  Zr  Zr44  1  0.30011605  0.69831443  0.30804766  1
  Zr  Zr45  1  0.10254603  0.29313918  0.90409813  1
  Zr  Zr46  1  0.30041988  0.90622889  0.90405242  1
  Zr  Zr47  1  0.69049120  0.89786229  0.89909618  1
  Zr  Zr48  1  0.69830585  0.50101376  0.70132581  1
  Zr  Zr49  1  0.49760183  0.49666033  0.10375460  1
  Sc  Sc50  1  0.70380746  0.50017373  0.09945034  1
  Sc  Sc51  1  0.89712181  0.29326689  0.69611800  1
  Sc  Sc52  1  0.29999956  0.91309614  0.69970694  1
  Sc  Sc53  1  0.10401269  0.10066704  0.28930808  1
  Sc  Sc54  1  0.10215414  0.10239568  0.10064956  1
  Sc  Sc55  1  0.49236705  0.90820886  0.30144893  1
  Sc  Sc56  1  0.29816038  0.10046782  0.69646262  1
  Sc  Sc57  1  0.70365108  0.89858739  0.29326871  1
  Sc  Sc58  1  0.30240588  0.29964438  0.09546153  1
  Sc  Sc59  1  0.69379609  0.10346807  0.49904524  1
  Sc  Sc60  1  0.50077042  0.69599520  0.09936791  1
  Sc  Sc61  1  0.69601141  0.29612175  0.69458216  1
  Sc  Sc62  1  0.50297101  0.69080979  0.70803319  1
  Sc  Sc63  1  0.70147295  0.49719244  0.29015575  1
  Sc  Sc64  1  0.29718044  0.69389864  0.70010578  1
  Sc  Sc65  1  0.29723350  0.69652749  0.90466377  1
  Sc  Sc66  1  0.70396397  0.89303221  0.10483975  1
  Sc  Sc67  1  0.69716228  0.49881228  0.50746031  1
  Sc  Sc68  1  0.50742549  0.09828271  0.90852133  1
  Sc  Sc69  1  0.89690123  0.70540295  0.10079070  1
  Sc  Sc70  1  0.89557636  0.70778371  0.90073080  1
  Sc  Sc71  1  0.90130256  0.28507932  0.90166403  1
  Sc  Sc72  1  0.10481142  0.50284324  0.11437036  1
  Sc  Sc73  1  0.50006959  0.29604520  0.69040788  1
  Sc  Sc74  1  0.29209388  0.90735177  0.30599348  1
  Sc  Sc75  1  0.29937417  0.50852786  0.70106434  1
  Sc  Sc76  1  0.69848523  0.10413631  0.89794969  1
  Sc  Sc77  1  0.09649428  0.10306955  0.90178114  1
  Sc  Sc78  1  0.10146651  0.90634341  0.09363156  1
  Sc  Sc79  1  0.90399464  0.29719675  0.49881834  1
  Sc  Sc80  1  0.10469275  0.70840627  0.90208672  1
  Sc  Sc81  1  0.90893920  0.50924355  0.29893867  1
  Sc  Sc82  1  0.69427669  0.10358811  0.70153275  1
  Sc  Sc83  1  0.49397061  0.10638953  0.09645882  1
  Sc  Sc84  1  0.10057924  0.90106970  0.70607818  1
  Sc  Sc85  1  0.50172369  0.29375325  0.91620193  1
  Sc  Sc86  1  0.69901592  0.50856369  0.90819422  1
  Sc  Sc87  1  0.11300946  0.50226359  0.90396508  1
  Sc  Sc88  1  0.29919715  0.90887013  0.09579136  1
  Sc  Sc89  1  0.29802701  0.09853354  0.28977384  1
  Sc  Sc90  1  0.30478195  0.30174633  0.29710788  1
  Sc  Sc91  1  0.69667916  0.10372246  0.09498403  1
  Sc  Sc92  1  0.49788022  0.91555288  0.50023346  1
  Sc  Sc93  1  0.50603317  0.70177870  0.90625961  1
  Sc  Sc94  1  0.09776320  0.29735069  0.29815563  1
  Sc  Sc95  1  0.90445118  0.89954018  0.70657320  1
  Sc  Sc96  1  0.49475074  0.10397195  0.49907411  1
  Sc  Sc97  1  0.29877694  0.49893386  0.29692075  1
  Sc  Sc98  1  0.89776570  0.29230537  0.29379143  1
  Sc  Sc99  1  0.10459999  0.29579515  0.10281600  1
  Nb  Nb100  1  0.49773807  0.70122287  0.49452967  1
  Nb  Nb101  1  0.89753710  0.09976136  0.90245097  1
  Nb  Nb102  1  0.29769608  0.30232511  0.90552258  1
  Nb  Nb103  1  0.90111515  0.69442997  0.48620299  1
  Nb  Nb104  1  0.09871860  0.10229908  0.49622561  1
  Nb  Nb105  1  0.49741083  0.89636649  0.90076805  1
  Nb  Nb106  1  0.09423919  0.48723457  0.49758083  1
  Nb  Nb107  1  0.30136464  0.48933444  0.90274275  1
  Nb  Nb108  1  0.49677799  0.30790883  0.48697673  1
  Nb  Nb109  1  0.10012264  0.29811333  0.49568443  1
  Nb  Nb110  1  0.09996670  0.69835536  0.10309212  1
  Nb  Nb111  1  0.90232829  0.70278425  0.31412072  1
  Nb  Nb112  1  0.29571585  0.10653344  0.10125192  1
  Nb  Nb113  1  0.50151199  0.31235904  0.30492146  1
  Nb  Nb114  1  0.29837631  0.10881553  0.91152091  1
  Nb  Nb115  1  0.10060347  0.29868134  0.70451168  1
  Nb  Nb116  1  0.70120996  0.70266900  0.09948297  1
  Nb  Nb117  1  0.50274764  0.49196317  0.29844360  1
  Nb  Nb118  1  0.70359437  0.30256512  0.10242629  1
  Nb  Nb119  1  0.49764136  0.69696722  0.30033776  1
  Nb  Nb120  1  0.89894557  0.09829818  0.09974467  1
  Nb  Nb121  1  0.89903262  0.49725987  0.49883750  1
  Nb  Nb122  1  0.10424029  0.90351702  0.29573912  1
  Nb  Nb123  1  0.69945219  0.69739415  0.90078640  1
  Nb  Nb124  1  0.29729980  0.70155036  0.10627987  1
  Nb  Nb125  1  0.79723329  0.39907894  0.80121036  1
  Nb  Nb126  1  0.20262465  0.39469175  0.79897184  1
  Nb  Nb127  1  0.59326506  0.79527321  0.39948513  1
  Nb  Nb128  1  0.19753862  0.20013952  0.40545802  1
  Nb  Nb129  1  0.59347492  0.60344130  0.39387079  1
  Nb  Nb130  1  -0.00013113  0.59557584  0.80217838  1
  Nb  Nb131  1  0.40381428  0.80635606  0.80220563  1
  Nb  Nb132  1  0.39541910  0.20301156  0.80893586  1
  Nb  Nb133  1  0.00141709  0.59868668  0.00154586  1
  Nb  Nb134  1  0.00261910  -0.00185568  0.39657140  1
  Nb  Nb135  1  0.59543135  0.79698864  0.59542172  1
  Nb  Nb136  1  0.00078219  0.40391260  -0.00212454  1
  Nb  Nb137  1  0.80435181  0.00195346  -0.00298104  1
  Nb  Nb138  1  0.59591574  0.00203959  0.19597242  1
  Nb  Nb139  1  0.00143952  0.40018951  0.80250961  1
  Nb  Nb140  1  0.39432783  0.79671608  0.20050965  1
  Nb  Nb141  1  0.39813671  0.39540459  0.80720899  1
  Nb  Nb142  1  0.80427524  -0.00049756  0.59540887  1
  Nb  Nb143  1  0.19819819  0.79610846  0.20037636  1
  Nb  Nb144  1  0.19247138  0.39398085  0.59984105  1
  Nb  Nb145  1  0.59758774  0.39927412  0.80445978  1
  Nb  Nb146  1  0.00724559  0.79723052  0.20345169  1
  Nb  Nb147  1  0.80856542  0.00132787  0.40200654  1
  Nb  Nb148  1  0.40714112  0.80000154  0.60198592  1
  Nb  Nb149  1  0.80274257  0.40217657  0.40182092  1
  Pd  Pd150  1  0.39676836  0.60255051  0.80884538  1
  Pd  Pd151  1  0.40362689  0.80839385  0.39952455  1
  Pd  Pd152  1  0.20896804  0.80525984  0.61047836  1
  Pd  Pd153  1  0.20401551  0.19549427  0.80298411  1
  Pd  Pd154  1  0.59614147  0.20149643  0.40305218  1
  Pd  Pd155  1  0.40148931  0.60590319  0.59911716  1
  Pd  Pd156  1  0.40164081  -0.00399815  0.19460172  1
  Pd  Pd157  1  0.21279941  0.80244553  0.79639241  1
  Pd  Pd158  1  0.59955987  0.59666877  0.19703251  1
  Pd  Pd159  1  0.00117001  0.79072446  0.79836636  1
  Pd  Pd160  1  0.39756938  0.59956665  0.20096555  1
  Pd  Pd161  1  0.19746656  0.01112234  0.80372506  1
  Pd  Pd162  1  0.19640908  0.59505244  0.40577841  1
  Pd  Pd163  1  0.58552977  0.80825480  0.20390016  1
  Pd  Pd164  1  0.20563825  0.39418862  0.19716356  1
  Pd  Pd165  1  0.79802891  0.80759459  -0.00370196  1
  Pd  Pd166  1  -0.00214357  -0.01101073  0.59442513  1
  Pd  Pd167  1  0.01301325  0.80339580  0.39223899  1
  Pd  Pd168  1  0.39971882  0.00834454  -0.00005836  1
  Pd  Pd169  1  0.00039625  0.20507013  0.60330710  1
  Pd  Pd170  1  0.79239115  0.58791021  0.39669454  1
  Pd  Pd171  1  0.60121548  0.60809786  0.59023079  1
  Pd  Pd172  1  0.80720744  0.60515854  0.20069546  1
  Pd  Pd173  1  0.40420373  0.58873508  0.39839867  1
  Pd  Pd174  1  0.59991937  0.00861511  0.80569603  1
  Pd  Pd175  1  -0.00119263  0.60097297  0.59454164  1
  Pd  Pd176  1  -0.00072203  0.39451266  0.19722343  1
  Pd  Pd177  1  0.79710660  0.20360589  0.79664424  1
  Pd  Pd178  1  0.00459921  0.80082451  0.60351524  1
  Pd  Pd179  1  0.79838431  0.60126172  0.59377845  1
  Pd  Pd180  1  0.00016620  0.00841604  0.00101970  1
  Pd  Pd181  1  0.60470555  -0.00132709  0.38755401  1
  Pd  Pd182  1  0.19749281  0.60017129  0.00263407  1
  Pd  Pd183  1  0.80178507  0.20219908  0.40240857  1
  Pd  Pd184  1  0.20298120  0.80291686  0.00750410  1
  Pd  Pd185  1  0.80271574  0.60726783  0.00512673  1
  Pd  Pd186  1  -0.01069045  0.39380599  0.39266079  1
  Pd  Pd187  1  0.39517531  0.01219741  0.39696229  1
  Pd  Pd188  1  0.79935638  0.19205860  0.59793607  1
  Pd  Pd189  1  0.39178141  0.19563380  0.39460690  1
  Pd  Pd190  1  0.39902191  0.00782539  0.80897283  1
  Pd  Pd191  1  0.79577166  0.80361301  0.60711183  1
  Pd  Pd192  1  0.00058711  0.38989595  0.60281642  1
  Pd  Pd193  1  0.39719025  0.60676367  -0.00036809  1
  Pd  Pd194  1  0.80144991  0.80168626  0.80156838  1
  Pd  Pd195  1  0.39564393  0.40110593  0.60993608  1
  Pd  Pd196  1  0.60371828  0.79461247  0.00243924  1
  Pd  Pd197  1  0.59315764  0.20206261  0.59045631  1
  Pd  Pd198  1  0.80479160  0.39343548  -0.00691241  1
  Pd  Pd199  1  0.59910259  0.40008437  0.00228036  1
  Rh  Rh200  1  0.00844538  0.19445515  0.39185752  1
  Rh  Rh201  1  0.60955681  0.40960407  0.39801183  1
  Rh  Rh202  1  0.40527831  0.39484847  0.00230962  1
  Rh  Rh203  1  0.20018052  0.00839256  -0.00051782  1
  Rh  Rh204  1  0.00811842  0.00488504  0.80319255  1
  Rh  Rh205  1  0.60740526  -0.00406279  0.00507732  1
  Rh  Rh206  1  0.20537365  0.20282336  0.20361858  1
  Rh  Rh207  1  0.00816998  -0.00336823  0.19824055  1
  Rh  Rh208  1  0.39765631  0.40178978  0.20073951  1
  Rh  Rh209  1  0.79990778  0.39473415  0.59692132  1
  Rh  Rh210  1  0.00284879  0.59154453  0.40929569  1
  Rh  Rh211  1  0.81104296  0.79181402  0.20392105  1
  Rh  Rh212  1  0.19266481  0.20404478  0.59216983  1
  Rh  Rh213  1  0.19691697  0.59102160  0.58944223  1
  Rh  Rh214  1  0.60451808  0.40183264  0.19344411  1
  Rh  Rh215  1  0.19388018  0.79367690  0.39142503  1
  Rh  Rh216  1  0.19272563  -0.00202597  0.60393741  1
  Rh  Rh217  1  0.20820379  0.59903936  0.19997211  1
  Rh  Rh218  1  0.79389908  0.20039541  0.19301524  1
  Rh  Rh219  1  0.60342865  0.20228343  0.00848343  1
  Rh  Rh220  1  0.39651676  0.40490621  0.39228303  1
  Rh  Rh221  1  0.80259818  0.59825440  0.79953533  1
  Rh  Rh222  1  0.20174760  -0.00335139  0.19238326  1
  Rh  Rh223  1  0.00514244  0.79330508  0.00652608  1
  Rh  Rh224  1  0.00310970  0.19914705  0.19383839  1
  Rh  Rh225  1  0.79831034  0.19177403  0.00355864  1
  Rh  Rh226  1  0.19916772  0.19917906  0.00698689  1
  Rh  Rh227  1  0.39885544  -0.00175637  0.59789941  1
  Rh  Rh228  1  0.19891464  0.59585945  0.80555965  1
  Rh  Rh229  1  0.19187876  0.39839664  0.00196021  1
  Rh  Rh230  1  -0.00228802  0.19873257  0.79873169  1
  Rh  Rh231  1  0.19406290  0.01336317  0.39501704  1
  Rh  Rh232  1  0.39427809  0.79694792  -0.00084617  1
  Rh  Rh233  1  0.39825501  0.20070051  0.00142028  1
  Rh  Rh234  1  0.00042009  0.19949400  0.00463024  1
  Rh  Rh235  1  0.80161153  0.39537526  0.20822438  1
  Rh  Rh236  1  0.60325525  0.19797229  0.19554522  1
  Rh  Rh237  1  0.58769557  0.20581903  0.80178607  1
  Rh  Rh238  1  -0.00953960  0.60835292  0.19246588  1
  Rh  Rh239  1  0.59471884  0.39498727  0.60466607  1
  Rh  Rh240  1  0.79675911  0.00137615  0.80271445  1
  Rh  Rh241  1  0.39542827  0.20591490  0.20016072  1
  Rh  Rh242  1  0.78919212  0.00598873  0.19125283  1
  Rh  Rh243  1  0.60230595  0.59578938  0.81165610  1
  Rh  Rh244  1  0.40581398  0.19651463  0.60055198  1
  Rh  Rh245  1  0.60540105  0.00118412  0.60287944  1
  Rh  Rh246  1  0.79368630  0.80552919  0.38890337  1
  Rh  Rh247  1  0.20293351  0.39081610  0.40444678  1
  Rh  Rh248  1  0.60625257  0.60586587  0.00862639  1
  Rh  Rh249  1  0.59334730  0.79310588  0.79880926  1
