# generated using pymatgen
data_ZrScNbPdRh
_symmetry_space_group_name_H-M   'P 1'
_cell_length_a   16.55424143
_cell_length_b   16.55587654
_cell_length_c   16.55411340
_cell_angle_alpha   89.98264572
_cell_angle_beta   90.02295649
_cell_angle_gamma   89.96494590
_symmetry_Int_Tables_number   1
_chemical_formula_structural   ZrScNbPdRh
_chemical_formula_sum   'Zr50 Sc50 Nb50 Pd50 Rh50'
_cell_volume   4536.98406130
_cell_formula_units_Z   50
loop_
 _symmetry_equiv_pos_site_id
 _symmetry_equiv_pos_as_xyz
  1  'x, y, z'
loop_
 _atom_site_type_symbol
 _atom_site_label
 _atom_site_symmetry_multiplicity
 _atom_site_fract_x
 _atom_site_fract_y
 _atom_site_fract_z
 _atom_site_occupancy
  Zr  Zr0  1  0.69395470  0.69947199  0.31097355  1
  Zr  Zr1  1  0.30655906  0.70369534  0.71245919  1
  Zr  Zr2  1  0.89930427  0.10142180  0.90021222  1
  Zr  Zr3  1  0.29700935  0.50121341  0.71445116  1
  Zr  Zr4  1  0.08790683  0.90376389  0.90062538  1
  Zr  Zr5  1  0.10579318  0.10293224  0.10722551  1
  Zr  Zr6  1  0.90442909  0.89410435  0.09781407  1
  Zr  Zr7  1  0.10394702  0.10235704  0.30184647  1
  Zr  Zr8  1  0.29786971  0.49962630  0.48686825  1
  Zr  Zr9  1  0.90851923  0.10235083  0.30690270  1
  Zr  Zr10  1  0.90046249  0.69878621  0.89261923  1
  Zr  Zr11  1  0.10512833  0.69991615  0.49636224  1
  Zr  Zr12  1  0.29533208  0.30273403  0.49303723  1
  Zr  Zr13  1  0.50066688  0.11407151  0.69678139  1
  Zr  Zr14  1  0.70165179  0.89948734  0.29606997  1
  Zr  Zr15  1  0.29537768  0.10761695  0.89679363  1
  Zr  Zr16  1  0.09762616  0.30282724  0.49870257  1
  Zr  Zr17  1  0.70064813  0.90813573  0.49574255  1
  Zr  Zr18  1  0.09587228  0.30837145  0.69887777  1
  Zr  Zr19  1  0.50413544  0.70637267  0.70145312  1
  Zr  Zr20  1  0.50530863  0.70841325  0.49955425  1
  Zr  Zr21  1  0.50614470  0.90135015  0.10069104  1
  Zr  Zr22  1  0.10150741  0.49067863  0.49686054  1
  Zr  Zr23  1  0.69791717  0.09783587  0.50173239  1
  Zr  Zr24  1  0.10091664  0.90348239  0.50106797  1
  Zr  Zr25  1  0.89858485  0.29979526  0.28757858  1
  Zr  Zr26  1  0.09108705  0.10137299  0.49166987  1
  Zr  Zr27  1  0.70104854  0.89839006  0.09877358  1
  Zr  Zr28  1  0.50042292  0.49507014  0.90498820  1
  Zr  Zr29  1  0.70175289  0.09544449  0.89972620  1
  Zr  Zr30  1  0.50710981  0.30208515  0.29475232  1
  Zr  Zr31  1  0.89187820  0.90571048  0.89549269  1
  Zr  Zr32  1  0.29357639  0.69739319  0.10858008  1
  Zr  Zr33  1  0.49440450  0.09979603  0.90369591  1
  Zr  Zr34  1  0.90196269  0.30242273  0.69844845  1
  Zr  Zr35  1  0.49672967  0.70480188  0.10612685  1
  Zr  Zr36  1  0.89921165  0.49899497  0.49431863  1
  Zr  Zr37  1  0.09929925  0.70848941  0.10613548  1
  Zr  Zr38  1  0.70298568  0.89867603  0.89969429  1
  Zr  Zr39  1  0.30991475  0.90211013  0.49820773  1
  Zr  Zr40  1  0.30406773  0.11072917  0.09641533  1
  Zr  Zr41  1  0.70482225  0.09932254  0.30451543  1
  Zr  Zr42  1  0.90139970  0.69444649  0.09589275  1
  Zr  Zr43  1  0.29786400  0.10573652  0.29791380  1
  Zr  Zr44  1  0.70396975  0.29090197  0.10775361  1
  Zr  Zr45  1  0.49639421  0.49502831  0.30107729  1
  Zr  Zr46  1  0.30411112  0.49847162  0.90216504  1
  Zr  Zr47  1  0.90191141  0.29612919  0.09451885  1
  Zr  Zr48  1  0.30264587  0.10482659  0.70428578  1
  Zr  Zr49  1  0.30562204  0.09702739  0.49077289  1
  Sc  Sc50  1  0.09619795  0.70571742  0.71081676  1
  Sc  Sc51  1  0.90420737  0.51210821  0.90275668  1
  Sc  Sc52  1  0.30473784  0.30103185  0.29764014  1
  Sc  Sc53  1  0.90622384  0.49463069  0.10131178  1
  Sc  Sc54  1  0.69646923  0.69026501  0.50220351  1
  Sc  Sc55  1  0.90303534  0.69444832  0.29677378  1
  Sc  Sc56  1  0.49944702  0.70136270  0.30185726  1
  Sc  Sc57  1  0.89519622  0.10604981  0.10037839  1
  Sc  Sc58  1  0.09784010  0.30374016  0.09899917  1
  Sc  Sc59  1  0.70078588  0.09119701  0.10183433  1
  Sc  Sc60  1  0.90155776  0.90235101  0.70361202  1
  Sc  Sc61  1  0.90045908  0.68979300  0.49675959  1
  Sc  Sc62  1  0.09660292  0.29582079  0.30142190  1
  Sc  Sc63  1  0.50600749  0.89153600  0.30241054  1
  Sc  Sc64  1  0.49928624  0.48574838  0.09765442  1
  Sc  Sc65  1  0.90825007  0.29858389  0.50674807  1
  Sc  Sc66  1  0.50032609  0.10755756  0.30660418  1
  Sc  Sc67  1  0.70401285  0.70269739  0.09273999  1
  Sc  Sc68  1  0.10275877  0.90674512  0.29236062  1
  Sc  Sc69  1  0.49342202  0.30319469  0.90037136  1
  Sc  Sc70  1  0.50494365  0.50323073  0.49851291  1
  Sc  Sc71  1  0.90093206  0.90332652  0.29403526  1
  Sc  Sc72  1  0.29791803  0.89254089  0.89744880  1
  Sc  Sc73  1  0.09968479  0.50185231  0.09785029  1
  Sc  Sc74  1  0.09124874  0.89956825  0.70219450  1
  Sc  Sc75  1  0.69680978  0.50535792  0.50571326  1
  Sc  Sc76  1  0.50136141  0.89487226  0.90918001  1
  Sc  Sc77  1  0.29826000  0.89031790  0.09969414  1
  Sc  Sc78  1  0.10207003  0.50433987  0.89615301  1
  Sc  Sc79  1  0.69198187  0.29186229  0.90144873  1
  Sc  Sc80  1  0.49667858  0.70343926  0.89586667  1
  Sc  Sc81  1  0.90873561  0.91675253  0.50847302  1
  Sc  Sc82  1  0.70890809  0.70305141  0.89938875  1
  Sc  Sc83  1  0.29873341  0.90636489  0.30593326  1
  Sc  Sc84  1  0.29985435  0.30369358  0.90301924  1
  Sc  Sc85  1  0.69642947  0.49487290  0.08863270  1
  Sc  Sc86  1  0.29263092  0.69651078  0.89687110  1
  Sc  Sc87  1  0.70505783  0.89904444  0.70500381  1
  Sc  Sc88  1  0.70241808  0.50642621  0.90646358  1
  Sc  Sc89  1  0.29452963  0.49211198  0.10623707  1
  Sc  Sc90  1  0.50524082  0.29432250  0.49762223  1
  Sc  Sc91  1  0.90413082  0.49649904  0.29918578  1
  Sc  Sc92  1  0.29494228  0.69409707  0.30436525  1
  Sc  Sc93  1  0.30414440  0.29971593  0.71024201  1
  Sc  Sc94  1  0.90120648  0.50377608  0.70301697  1
  Sc  Sc95  1  0.30106229  0.30046247  0.10142190  1
  Sc  Sc96  1  0.70194253  0.70177619  0.69964311  1
  Sc  Sc97  1  0.69495833  0.10482094  0.69467199  1
  Sc  Sc98  1  0.09941602  0.49537810  0.30129771  1
  Sc  Sc99  1  0.49643406  0.50185107  0.69936354  1
  Nb  Nb100  1  0.10058672  0.89955655  0.09874174  1
  Nb  Nb101  1  0.10091823  0.70582370  0.29969877  1
  Nb  Nb102  1  0.10155262  0.50182691  0.69699046  1
  Nb  Nb103  1  0.49869735  0.29429479  0.09968032  1
  Nb  Nb104  1  0.89913329  0.29470877  0.89811700  1
  Nb  Nb105  1  0.88948590  0.09864813  0.69009832  1
  Nb  Nb106  1  0.29663171  0.69817703  0.50076926  1
  Nb  Nb107  1  0.69468739  0.49571948  0.69535456  1
  Nb  Nb108  1  0.50623775  0.30045305  0.69921690  1
  Nb  Nb109  1  0.49409215  0.09695502  0.09524919  1
  Nb  Nb110  1  0.11204772  0.10460624  0.71073166  1
  Nb  Nb111  1  0.49725592  0.89577080  0.70216056  1
  Nb  Nb112  1  0.50021965  0.09140345  0.50111280  1
  Nb  Nb113  1  0.09483789  0.69656513  0.90192295  1
  Nb  Nb114  1  0.69195061  0.30157892  0.69325492  1
  Nb  Nb115  1  0.30536422  0.49308409  0.30209794  1
  Nb  Nb116  1  0.69775504  0.29654975  0.30481093  1
  Nb  Nb117  1  0.89556458  0.10060995  0.50043572  1
  Nb  Nb118  1  0.08409967  0.28722115  0.89184177  1
  Nb  Nb119  1  0.10363370  0.10175140  0.89283444  1
  Nb  Nb120  1  0.30380242  0.89935575  0.69833190  1
  Nb  Nb121  1  0.69803061  0.30264339  0.50415629  1
  Nb  Nb122  1  0.90670498  0.70533267  0.69646955  1
  Nb  Nb123  1  0.49955393  0.90830469  0.50347489  1
  Nb  Nb124  1  0.69670104  0.49833190  0.30346733  1
  Nb  Nb125  1  0.79726297  0.20581472  0.40533244  1
  Nb  Nb126  1  0.60302481  0.59581318  0.20092754  1
  Nb  Nb127  1  0.59222761  0.19533293  0.00703861  1
  Nb  Nb128  1  0.40283572  -0.00416892  0.79519822  1
  Nb  Nb129  1  0.20335110  0.00202885  0.60486529  1
  Nb  Nb130  1  0.39958207  0.40215611  0.59969200  1
  Nb  Nb131  1  0.79477628  0.39616789  0.80023207  1
  Nb  Nb132  1  0.00031152  0.80072432  0.39939903  1
  Nb  Nb133  1  0.59128920  -0.00121585  0.79878231  1
  Nb  Nb134  1  0.79013657  0.59405047  0.20272486  1
  Nb  Nb135  1  0.19199798  0.00143800  -0.00187174  1
  Nb  Nb136  1  0.39179167  0.60249413  0.59724068  1
  Nb  Nb137  1  0.79164456  0.39354655  0.39844754  1
  Nb  Nb138  1  0.20714747  0.80057329  0.60148699  1
  Nb  Nb139  1  0.00870987  0.59872976  0.60169816  1
  Nb  Nb140  1  0.39683678  0.59978820  0.00506602  1
  Nb  Nb141  1  0.60177704  0.59444396  0.79827846  1
  Nb  Nb142  1  0.20211091  0.60240121  0.60337961  1
  Nb  Nb143  1  0.80553985  0.80269749  0.40592565  1
  Nb  Nb144  1  0.80537037  0.38981344  -0.00848633  1
  Nb  Nb145  1  0.79998239  0.20643586  0.79384313  1
  Nb  Nb146  1  0.80785056  0.79910145  0.59386282  1
  Nb  Nb147  1  0.60559488  0.40034584  0.79474173  1
  Nb  Nb148  1  0.19832205  0.19563085  0.60115860  1
  Nb  Nb149  1  0.40365828  0.00431299  0.19562853  1
  Pd  Pd150  1  0.39823822  0.79515043  0.59731919  1
  Pd  Pd151  1  0.80766221  0.00389344  0.19747503  1
  Pd  Pd152  1  0.40540251  0.20501810  0.39958658  1
  Pd  Pd153  1  -0.00029224  0.59708372  0.20111948  1
  Pd  Pd154  1  0.59290528  -0.00064577  0.39335521  1
  Pd  Pd155  1  0.60219608  0.40235133  0.40818779  1
  Pd  Pd156  1  0.19200904  0.80570599  0.79843063  1
  Pd  Pd157  1  -0.00101148  0.40384408  -0.00803882  1
  Pd  Pd158  1  0.59156116  0.60876046  -0.00003042  1
  Pd  Pd159  1  -0.00525407  0.40952438  0.80712208  1
  Pd  Pd160  1  0.61114850  0.80777074  0.59870230  1
  Pd  Pd161  1  0.60004382  -0.00452755  0.61065181  1
  Pd  Pd162  1  0.79383713  0.40664023  0.19716799  1
  Pd  Pd163  1  0.39316886  0.80775953  0.21016326  1
  Pd  Pd164  1  0.00651008  0.19234180  0.00325301  1
  Pd  Pd165  1  0.39975333  0.79905187  0.39638981  1
  Pd  Pd166  1  -0.00392407  0.79599113  -0.00560285  1
  Pd  Pd167  1  0.00651892  0.60315178  0.39843438  1
  Pd  Pd168  1  0.38601017  -0.00717631  -0.00070883  1
  Pd  Pd169  1  0.19539379  0.80268891  -0.00406726  1
  Pd  Pd170  1  0.21223427  -0.00401125  0.19102913  1
  Pd  Pd171  1  0.79858768  0.78903012  0.20682959  1
  Pd  Pd172  1  0.19146787  0.20480106  -0.00338864  1
  Pd  Pd173  1  0.80350859  0.40278234  0.59821586  1
  Pd  Pd174  1  0.19549632  0.59467219  0.20889644  1
  Pd  Pd175  1  0.19121862  0.39426742  -0.00753940  1
  Pd  Pd176  1  0.39347319  0.79079763  -0.00308005  1
  Pd  Pd177  1  0.40555840  0.59168365  0.19517388  1
  Pd  Pd178  1  0.60526315  0.40319618  0.19459675  1
  Pd  Pd179  1  0.00749606  0.19104176  0.60705893  1
  Pd  Pd180  1  0.60291188  0.79286794  -0.00356318  1
  Pd  Pd181  1  0.59173930  0.00623658  0.20713930  1
  Pd  Pd182  1  0.19579671  0.39613429  0.20426449  1
  Pd  Pd183  1  0.19181700  0.39439119  0.81018563  1
  Pd  Pd184  1  0.00743105  0.01216040  0.61140245  1
  Pd  Pd185  1  0.40095715  0.00357974  0.60675012  1
  Pd  Pd186  1  0.80643747  0.60429420  0.60751391  1
  Pd  Pd187  1  0.79655703  0.20418029  0.59760474  1
  Pd  Pd188  1  0.21084821  0.39916154  0.60458133  1
  Pd  Pd189  1  0.40476036  0.60526968  0.40326576  1
  Pd  Pd190  1  0.59728202  0.18888125  0.19542664  1
  Pd  Pd191  1  -0.00254202  0.00208825  0.19596156  1
  Pd  Pd192  1  0.39549125  0.21025363  0.59372165  1
  Pd  Pd193  1  0.19804726  0.80646266  0.39808535  1
  Pd  Pd194  1  0.20513299  -0.01055318  0.80114948  1
  Pd  Pd195  1  0.00239421  0.01045583  0.00583460  1
  Pd  Pd196  1  0.20204987  0.59962169  0.00172855  1
  Pd  Pd197  1  -0.00832491  0.19020766  0.78779226  1
  Pd  Pd198  1  0.79411297  0.59632704  0.79189333  1
  Pd  Pd199  1  -0.00472588  0.01037828  0.79130741  1
  Rh  Rh200  1  -0.00157404  -0.00710573  0.39429063  1
  Rh  Rh201  1  0.39400106  0.40186414  0.00721883  1
  Rh  Rh202  1  0.59792211  0.19911243  0.58944349  1
  Rh  Rh203  1  0.00545755  0.60309116  0.00227672  1
  Rh  Rh204  1  0.00492983  0.80205861  0.20700984  1
  Rh  Rh205  1  0.40552063  0.39464895  0.40322513  1
  Rh  Rh206  1  0.60753569  0.38354295  -0.00093661  1
  Rh  Rh207  1  0.80619322  0.80221892  -0.00316395  1
  Rh  Rh208  1  0.80848440  0.00186789  0.40017447  1
  Rh  Rh209  1  0.19915564  0.20225146  0.40168000  1
  Rh  Rh210  1  0.60322834  0.00266462  -0.00585442  1
  Rh  Rh211  1  0.19708875  0.21497166  0.79973983  1
  Rh  Rh212  1  0.41050279  0.39702488  0.79227186  1
  Rh  Rh213  1  0.60261443  0.80056002  0.80384414  1
  Rh  Rh214  1  0.60431945  0.19703092  0.40671914  1
  Rh  Rh215  1  0.19822745  0.59471489  0.39336538  1
  Rh  Rh216  1  0.00627696  0.39874274  0.19804399  1
  Rh  Rh217  1  0.19824019  0.00142200  0.40493505  1
  Rh  Rh218  1  -0.00305700  0.80108131  0.80734171  1
  Rh  Rh219  1  0.80713923  0.59013913  0.01110618  1
  Rh  Rh220  1  0.60112068  0.20023476  0.80564667  1
  Rh  Rh221  1  0.41093955  -0.00325826  0.38904097  1
  Rh  Rh222  1  0.40466830  0.19891768  0.20112632  1
  Rh  Rh223  1  0.40300570  0.20894998  -0.00229533  1
  Rh  Rh224  1  0.79045588  0.20111875  -0.00592711  1
  Rh  Rh225  1  0.79799761  0.59419479  0.39161615  1
  Rh  Rh226  1  -0.00936948  0.20750286  0.40093798  1
  Rh  Rh227  1  -0.00944811  0.39284994  0.39555799  1
  Rh  Rh228  1  0.40353523  0.80756782  0.80778634  1
  Rh  Rh229  1  0.80355715  -0.00390990  0.00806293  1
  Rh  Rh230  1  -0.00583063  0.41220871  0.60082269  1
  Rh  Rh231  1  0.40960115  0.59757863  0.80765888  1
  Rh  Rh232  1  0.20041743  0.80286028  0.20622071  1
  Rh  Rh233  1  0.59013822  0.40104314  0.60008588  1
  Rh  Rh234  1  0.19121164  0.60339362  0.79888227  1
  Rh  Rh235  1  0.80583452  0.79622865  0.78985529  1
  Rh  Rh236  1  0.40354415  0.20329634  0.80574010  1
  Rh  Rh237  1  0.79970545  0.19246057  0.20769924  1
  Rh  Rh238  1  0.20034224  0.20896743  0.20251258  1
  Rh  Rh239  1  0.60610820  0.79032771  0.19684506  1
  Rh  Rh240  1  0.39940805  0.39508182  0.19961100  1
  Rh  Rh241  1  0.00435965  0.60107641  0.79373001  1
  Rh  Rh242  1  0.79269112  0.01127112  0.78972576  1
  Rh  Rh243  1  0.19987466  0.39813114  0.38680148  1
  Rh  Rh244  1  -0.00077621  0.78862984  0.59008298  1
  Rh  Rh245  1  0.59129338  0.60113525  0.60822575  1
  Rh  Rh246  1  0.79752762  -0.00628970  0.60341354  1
  Rh  Rh247  1  0.60514735  0.80618088  0.40898437  1
  Rh  Rh248  1  0.59384504  0.59625742  0.39555601  1
  Rh  Rh249  1  0.00360139  0.20031675  0.19547229  1
