# generated using pymatgen
data_ZrScNbPdRh
_symmetry_space_group_name_H-M   'P 1'
_cell_length_a   16.55895285
_cell_length_b   16.55986211
_cell_length_c   16.56011199
_cell_angle_alpha   89.99004518
_cell_angle_beta   90.00678147
_cell_angle_gamma   89.97203221
_symmetry_Int_Tables_number   1
_chemical_formula_structural   ZrScNbPdRh
_chemical_formula_sum   'Zr50 Sc50 Nb50 Pd50 Rh50'
_cell_volume   4541.01350587
_cell_formula_units_Z   50
loop_
 _symmetry_equiv_pos_site_id
 _symmetry_equiv_pos_as_xyz
  1  'x, y, z'
loop_
 _atom_site_type_symbol
 _atom_site_label
 _atom_site_symmetry_multiplicity
 _atom_site_fract_x
 _atom_site_fract_y
 _atom_site_fract_z
 _atom_site_occupancy
  Zr  Zr0  1  0.30344743  0.10537139  0.70078911  1
  Zr  Zr1  1  0.70013847  0.70658435  0.90753596  1
  Zr  Zr2  1  0.09702952  0.49889232  0.10400734  1
  Zr  Zr3  1  0.09910083  0.09363405  0.29190486  1
  Zr  Zr4  1  0.30614453  0.69270974  0.30540491  1
  Zr  Zr5  1  0.49373841  0.69736794  0.90390355  1
  Zr  Zr6  1  0.30850597  0.50657114  0.88366748  1
  Zr  Zr7  1  0.90862753  0.29443558  0.50073901  1
  Zr  Zr8  1  0.69161075  0.09899720  0.30327930  1
  Zr  Zr9  1  0.89985376  0.70848787  0.50610512  1
  Zr  Zr10  1  0.50192166  0.70878751  0.69787435  1
  Zr  Zr11  1  0.70422963  0.50122478  0.09116704  1
  Zr  Zr12  1  0.90367880  0.09825122  0.70444371  1
  Zr  Zr13  1  0.29666471  0.90393349  0.89628323  1
  Zr  Zr14  1  0.70802344  0.69649221  0.70057924  1
  Zr  Zr15  1  0.69274511  0.30825990  0.10036861  1
  Zr  Zr16  1  0.31032942  0.09861453  0.50104493  1
  Zr  Zr17  1  0.89996691  0.69584774  0.10681049  1
  Zr  Zr18  1  0.69572330  0.09767240  0.69546657  1
  Zr  Zr19  1  0.09585160  0.89571563  0.51262762  1
  Zr  Zr20  1  0.90775668  0.10054182  0.29874347  1
  Zr  Zr21  1  0.49261620  0.90505108  0.50568362  1
  Zr  Zr22  1  0.29425967  0.91033964  0.70061372  1
  Zr  Zr23  1  0.49808456  0.10040496  0.31284194  1
  Zr  Zr24  1  0.69318469  0.29946719  0.70330792  1
  Zr  Zr25  1  0.70606568  0.90821625  0.50424887  1
  Zr  Zr26  1  0.69663259  0.89338924  0.10103307  1
  Zr  Zr27  1  0.90748572  0.90210834  0.89672940  1
  Zr  Zr28  1  0.10214574  0.29461052  0.49982199  1
  Zr  Zr29  1  0.10639075  0.69788420  0.50595270  1
  Zr  Zr30  1  0.50394330  0.50203187  0.89920444  1
  Zr  Zr31  1  0.70632688  0.30656285  0.89698902  1
  Zr  Zr32  1  0.90324950  0.29452268  0.89567604  1
  Zr  Zr33  1  0.69332250  0.49969207  0.49784434  1
  Zr  Zr34  1  0.50855230  0.49927305  0.09352227  1
  Zr  Zr35  1  0.70762193  0.09867554  0.09111702  1
  Zr  Zr36  1  0.69094460  0.30154552  0.50017875  1
  Zr  Zr37  1  0.90120753  0.69898493  0.30047278  1
  Zr  Zr38  1  0.09960464  0.29442433  0.90303806  1
  Zr  Zr39  1  0.29618880  0.69963833  0.90276125  1
  Zr  Zr40  1  0.09919880  0.89883738  0.09915580  1
  Zr  Zr41  1  0.49451173  0.10017886  0.88292993  1
  Zr  Zr42  1  0.90142924  0.49887835  0.49909864  1
  Zr  Zr43  1  0.30190426  0.10151809  0.30312131  1
  Zr  Zr44  1  0.10212509  0.29172546  0.30328622  1
  Zr  Zr45  1  0.89856836  0.30519979  0.08962244  1
  Zr  Zr46  1  0.50206839  0.69179825  0.30340157  1
  Zr  Zr47  1  0.90007538  0.50281837  0.11028584  1
  Zr  Zr48  1  0.30094678  0.30551678  0.29574484  1
  Zr  Zr49  1  0.69416809  0.29600953  0.30533123  1
  Sc  Sc50  1  0.10009207  0.49314493  0.30411006  1
  Sc  Sc51  1  0.88732754  0.50604557  0.70316172  1
  Sc  Sc52  1  0.49577883  0.29921707  0.50373837  1
  Sc  Sc53  1  0.10289200  0.49736412  0.49824196  1
  Sc  Sc54  1  0.29289997  0.88763659  0.29837760  1
  Sc  Sc55  1  0.50209838  0.10442564  0.10999595  1
  Sc  Sc56  1  0.90534498  0.90250436  0.69670758  1
  Sc  Sc57  1  0.70215460  0.70104357  0.50093246  1
  Sc  Sc58  1  0.88932259  0.49477576  0.90313528  1
  Sc  Sc59  1  0.48835069  0.50292752  0.30246793  1
  Sc  Sc60  1  0.90131254  0.30157086  0.30589205  1
  Sc  Sc61  1  0.50802607  0.89763169  0.30173291  1
  Sc  Sc62  1  0.10168780  0.70634460  0.90585315  1
  Sc  Sc63  1  0.69565414  0.49458280  0.29951142  1
  Sc  Sc64  1  0.70018584  0.70492275  0.29770837  1
  Sc  Sc65  1  0.28914341  0.68928339  0.70453997  1
  Sc  Sc66  1  0.89782720  0.10615769  0.90168346  1
  Sc  Sc67  1  0.50014609  0.49383085  0.49870451  1
  Sc  Sc68  1  0.90570368  0.90322114  0.31207763  1
  Sc  Sc69  1  0.49706241  0.70422305  0.49430318  1
  Sc  Sc70  1  0.69041015  0.09900384  0.49634154  1
  Sc  Sc71  1  0.49162182  0.48692551  0.70517228  1
  Sc  Sc72  1  0.70029661  0.90236933  0.69904108  1
  Sc  Sc73  1  0.50613073  0.30352829  0.88145097  1
  Sc  Sc74  1  0.10132130  0.29549430  0.10156779  1
  Sc  Sc75  1  0.29289459  0.10408722  0.88812712  1
  Sc  Sc76  1  0.90163525  0.09113236  0.49867371  1
  Sc  Sc77  1  0.90485687  0.29897652  0.70223365  1
  Sc  Sc78  1  0.90663955  0.10110044  0.09215869  1
  Sc  Sc79  1  0.69713593  0.89956732  0.30331335  1
  Sc  Sc80  1  0.70984704  0.10430720  0.89231133  1
  Sc  Sc81  1  0.90062462  0.70858961  0.89944760  1
  Sc  Sc82  1  0.11103655  0.70165605  0.31597705  1
  Sc  Sc83  1  0.10773311  0.51230770  0.90747114  1
  Sc  Sc84  1  0.09985549  0.70836810  0.70192184  1
  Sc  Sc85  1  0.30367543  0.70377235  0.09963141  1
  Sc  Sc86  1  0.09707234  0.28794441  0.68764272  1
  Sc  Sc87  1  0.29817290  0.88924438  0.09872704  1
  Sc  Sc88  1  0.29623436  0.49125594  0.49994152  1
  Sc  Sc89  1  0.70576891  0.49830698  0.70508637  1
  Sc  Sc90  1  0.11435339  0.50927622  0.69111429  1
  Sc  Sc91  1  0.50277193  0.89308712  0.89767896  1
  Sc  Sc92  1  0.29035422  0.10567167  0.10017146  1
  Sc  Sc93  1  0.89320793  0.70858991  0.70358467  1
  Sc  Sc94  1  0.50278507  0.90724702  0.69850738  1
  Sc  Sc95  1  0.09496833  0.10626761  0.89373293  1
  Sc  Sc96  1  0.30677400  0.49399174  0.11257048  1
  Sc  Sc97  1  0.90435889  0.90438329  0.09411967  1
  Sc  Sc98  1  0.49566352  0.70586234  0.09258570  1
  Sc  Sc99  1  0.50080096  0.29700877  0.69380377  1
  Nb  Nb100  1  0.49926951  0.10168977  0.69199972  1
  Nb  Nb101  1  0.10193290  0.10410202  0.50692925  1
  Nb  Nb102  1  0.70025579  0.90283270  0.90988667  1
  Nb  Nb103  1  0.70421442  0.69772116  0.10404048  1
  Nb  Nb104  1  0.29711975  0.50155048  0.29621947  1
  Nb  Nb105  1  0.49627855  0.10071927  0.50431653  1
  Nb  Nb106  1  0.29864784  0.89660130  0.50135386  1
  Nb  Nb107  1  0.30137806  0.30144019  0.09538784  1
  Nb  Nb108  1  0.10152794  0.90316923  0.29782367  1
  Nb  Nb109  1  0.30355455  0.49950144  0.69807701  1
  Nb  Nb110  1  0.29436191  0.70519139  0.49765155  1
  Nb  Nb111  1  0.89816944  0.50729727  0.29697973  1
  Nb  Nb112  1  0.89847580  0.89726992  0.50759795  1
  Nb  Nb113  1  0.49851552  0.30066547  0.09633008  1
  Nb  Nb114  1  0.49762197  0.28758112  0.29246973  1
  Nb  Nb115  1  0.09924842  0.89707781  0.89769595  1
  Nb  Nb116  1  0.69663413  0.50265078  0.89892187  1
  Nb  Nb117  1  0.29974785  0.29250346  0.50652187  1
  Nb  Nb118  1  0.30521300  0.30609277  0.69675588  1
  Nb  Nb119  1  0.09885422  0.69650398  0.09634665  1
  Nb  Nb120  1  0.29670561  0.29442640  0.89738830  1
  Nb  Nb121  1  0.09469873  0.90935504  0.70978473  1
  Nb  Nb122  1  0.09948311  0.09494845  0.10116523  1
  Nb  Nb123  1  0.09894961  0.09138685  0.69227510  1
  Nb  Nb124  1  0.49592338  0.90413116  0.09451008  1
  Nb  Nb125  1  0.79873950  0.39287001  0.59528633  1
  Nb  Nb126  1  0.79800354  0.19883732  0.20007696  1
  Nb  Nb127  1  0.39450328  0.79942640  0.79742540  1
  Nb  Nb128  1  0.01009360  0.40792904  0.79870237  1
  Nb  Nb129  1  0.19674762  -0.00420750  0.40526963  1
  Nb  Nb130  1  0.21045603  0.39623610  -0.00387743  1
  Nb  Nb131  1  0.20165944  0.59884702  0.20357797  1
  Nb  Nb132  1  0.80492306  0.59790695  0.39601804  1
  Nb  Nb133  1  0.39837536  0.39116945  -0.00431862  1
  Nb  Nb134  1  0.59429978  0.59968530  0.60708845  1
  Nb  Nb135  1  0.40125698  -0.00302870  0.19589640  1
  Nb  Nb136  1  0.60184606  0.60183151  0.19251023  1
  Nb  Nb137  1  0.20228632  0.39689987  0.79873181  1
  Nb  Nb138  1  0.00830446  0.79894217  0.20245129  1
  Nb  Nb139  1  0.59401500  0.19964569  -0.00384700  1
  Nb  Nb140  1  0.39988450  0.00521036  0.00213842  1
  Nb  Nb141  1  0.80046111  0.00552469  0.20097913  1
  Nb  Nb142  1  0.39694513  0.59951957  0.60100603  1
  Nb  Nb143  1  0.60162058  0.60251343  0.80053034  1
  Nb  Nb144  1  -0.00085967  0.59770298  0.79706920  1
  Nb  Nb145  1  0.59605579  0.00262973  -0.00239443  1
  Nb  Nb146  1  0.19567129  0.00054342  -0.00161213  1
  Nb  Nb147  1  0.79789375  0.20143515  0.59806716  1
  Nb  Nb148  1  0.40076029  0.20387404  -0.00261081  1
  Nb  Nb149  1  -0.00435294  0.60395454  0.60223754  1
  Pd  Pd150  1  0.80263079  0.40308363  0.40120079  1
  Pd  Pd151  1  0.20300912  0.80155365  0.60976215  1
  Pd  Pd152  1  0.00910063  -0.00001449  0.41022891  1
  Pd  Pd153  1  0.80815143  0.80366928  0.00463714  1
  Pd  Pd154  1  0.58294466  0.39461283  0.38995696  1
  Pd  Pd155  1  0.19371542  0.78621624  0.19874405  1
  Pd  Pd156  1  0.80094128  -0.00459218  0.80082310  1
  Pd  Pd157  1  0.60625396  0.79867693  0.59405194  1
  Pd  Pd158  1  0.00709750  0.00601704  -0.00850919  1
  Pd  Pd159  1  0.60470742  -0.00172859  0.80485918  1
  Pd  Pd160  1  0.20142925  0.20334811  0.19733467  1
  Pd  Pd161  1  0.79802833  0.81149215  0.80021609  1
  Pd  Pd162  1  0.00012708  0.39288235  0.20699522  1
  Pd  Pd163  1  0.19331982  0.20403983  0.78709758  1
  Pd  Pd164  1  0.39861926  0.39273991  0.40025521  1
  Pd  Pd165  1  0.59194851  0.79220063  0.19470570  1
  Pd  Pd166  1  0.00092544  0.39978084  0.39530392  1
  Pd  Pd167  1  -0.00357601  0.41259368  0.61215793  1
  Pd  Pd168  1  0.20343742  0.39804658  0.39977743  1
  Pd  Pd169  1  0.80714469  0.60276255  -0.00416013  1
  Pd  Pd170  1  0.59978545  -0.00003541  0.19478727  1
  Pd  Pd171  1  0.80006215  0.19320566  0.40214487  1
  Pd  Pd172  1  0.40856392  0.39902243  0.19855398  1
  Pd  Pd173  1  -0.00916449  0.60039683  -0.00917539  1
  Pd  Pd174  1  0.81178462  0.81356419  0.20389779  1
  Pd  Pd175  1  0.40090288  0.80524202  0.39562603  1
  Pd  Pd176  1  0.80232449  0.39473908  0.20529325  1
  Pd  Pd177  1  0.21267349  0.59046114  0.01347316  1
  Pd  Pd178  1  -0.00657608  0.20564644  0.19250596  1
  Pd  Pd179  1  0.79682933  0.79768879  0.39951295  1
  Pd  Pd180  1  0.39254517  -0.01363602  0.38983653  1
  Pd  Pd181  1  0.40748053  0.80279867  0.20491528  1
  Pd  Pd182  1  0.39251089  0.59466683  0.41495881  1
  Pd  Pd183  1  0.60263733  0.80275968  0.40860775  1
  Pd  Pd184  1  0.58908125  0.40621335  0.20859101  1
  Pd  Pd185  1  0.00724512  0.40684330  -0.00944153  1
  Pd  Pd186  1  0.38677529  0.79457161  0.60742803  1
  Pd  Pd187  1  0.21090270  -0.00351340  0.19747272  1
  Pd  Pd188  1  0.19965883  0.39548446  0.60444777  1
  Pd  Pd189  1  0.60026910  0.79966513  0.80248049  1
  Pd  Pd190  1  0.00703756  0.80242983  0.39956189  1
  Pd  Pd191  1  0.20081216  0.19110345  0.40273990  1
  Pd  Pd192  1  0.20271312  0.00357377  0.59391213  1
  Pd  Pd193  1  0.39437856  0.19472585  0.19437932  1
  Pd  Pd194  1  0.79989609  0.00341919  0.39660376  1
  Pd  Pd195  1  -0.00041702  0.60053418  0.40526014  1
  Pd  Pd196  1  0.20060915  0.79950825  0.79768407  1
  Pd  Pd197  1  0.01631726  0.60805866  0.21182101  1
  Pd  Pd198  1  0.60486883  0.19804779  0.19460560  1
  Pd  Pd199  1  0.39114674  0.59034467  0.00878139  1
  Rh  Rh200  1  0.19737867  0.80517451  0.00059378  1
  Rh  Rh201  1  0.79973106  0.40093617  -0.00204565  1
  Rh  Rh202  1  0.40128565  0.20591202  0.79374994  1
  Rh  Rh203  1  0.79415573  0.21007059  0.00390969  1
  Rh  Rh204  1  0.39559572  0.80862831  -0.01068759  1
  Rh  Rh205  1  0.00100348  0.00406491  0.80457539  1
  Rh  Rh206  1  0.79691440  0.80963670  0.60379904  1
  Rh  Rh207  1  0.60572141  0.61042393  0.00110861  1
  Rh  Rh208  1  0.60010583  0.80085643  0.00447218  1
  Rh  Rh209  1  0.79771407  0.59115567  0.58682241  1
  Rh  Rh210  1  0.00293161  0.79803432  0.79893983  1
  Rh  Rh211  1  0.18733511  0.00575887  0.80550298  1
  Rh  Rh212  1  0.58715557  0.20382051  0.40708554  1
  Rh  Rh213  1  0.40183752  0.60371146  0.19646569  1
  Rh  Rh214  1  0.40013495  0.20268936  0.60287142  1
  Rh  Rh215  1  0.20661305  0.59090942  0.39948345  1
  Rh  Rh216  1  0.79763208  -0.00685231  0.00117680  1
  Rh  Rh217  1  0.78667588  0.59503408  0.20774752  1
  Rh  Rh218  1  0.40051050  0.21052703  0.40257504  1
  Rh  Rh219  1  -0.00732909  0.18795329  0.59771681  1
  Rh  Rh220  1  0.20620242  0.19699111  0.60207834  1
  Rh  Rh221  1  0.80794611  0.39498114  0.79539045  1
  Rh  Rh222  1  0.19651918  0.40226756  0.19585693  1
  Rh  Rh223  1  0.39351002  0.38965744  0.80245730  1
  Rh  Rh224  1  0.19889176  0.19621847  0.00355873  1
  Rh  Rh225  1  0.80385071  0.00558890  0.59954631  1
  Rh  Rh226  1  0.18942442  0.59737871  0.80064576  1
  Rh  Rh227  1  0.40269163  -0.00612207  0.79689842  1
  Rh  Rh228  1  0.60400536  0.41088880  0.79748389  1
  Rh  Rh229  1  0.00592143  0.19529088  0.00558145  1
  Rh  Rh230  1  0.00659383  0.19297443  0.40161280  1
  Rh  Rh231  1  0.19754419  0.80968612  0.40762035  1
  Rh  Rh232  1  -0.00231164  -0.00084493  0.59799246  1
  Rh  Rh233  1  0.60423644  0.40974887  0.60770517  1
  Rh  Rh234  1  0.79852283  0.60524168  0.81211150  1
  Rh  Rh235  1  0.59498666  0.00226666  0.59557857  1
  Rh  Rh236  1  0.39636202  0.40108131  0.59507288  1
  Rh  Rh237  1  0.39921012  0.00071424  0.60550503  1
  Rh  Rh238  1  0.60810687  0.60250604  0.39621439  1
  Rh  Rh239  1  0.00364449  0.20221813  0.79364115  1
  Rh  Rh240  1  0.59491183  0.38999713  -0.01111258  1
  Rh  Rh241  1  -0.00784738  -0.00923403  0.19929058  1
  Rh  Rh242  1  0.40975985  0.61050825  0.78684583  1
  Rh  Rh243  1  0.60241579  0.19425567  0.79965185  1
  Rh  Rh244  1  0.59449469  -0.00657956  0.40906838  1
  Rh  Rh245  1  -0.00008831  0.79858029  0.60877691  1
  Rh  Rh246  1  0.80101782  0.20014074  0.78967343  1
  Rh  Rh247  1  0.59950699  0.19422716  0.59695376  1
  Rh  Rh248  1  0.00066842  0.79500784  0.00634672  1
  Rh  Rh249  1  0.20629112  0.60082464  0.59181029  1
