# generated using pymatgen
data_ZrScNbPdRh
_symmetry_space_group_name_H-M   'P 1'
_cell_length_a   16.56310321
_cell_length_b   16.56352267
_cell_length_c   16.56487180
_cell_angle_alpha   89.94433407
_cell_angle_beta   89.95304740
_cell_angle_gamma   89.98532816
_symmetry_Int_Tables_number   1
_chemical_formula_structural   ZrScNbPdRh
_chemical_formula_sum   'Zr50 Sc50 Nb50 Pd50 Rh50'
_cell_volume   4544.45836022
_cell_formula_units_Z   50
loop_
 _symmetry_equiv_pos_site_id
 _symmetry_equiv_pos_as_xyz
  1  'x, y, z'
loop_
 _atom_site_type_symbol
 _atom_site_label
 _atom_site_symmetry_multiplicity
 _atom_site_fract_x
 _atom_site_fract_y
 _atom_site_fract_z
 _atom_site_occupancy
  Zr  Zr0  1  0.89449162  0.29433011  0.29899751  1
  Zr  Zr1  1  0.10333989  0.90276539  0.30484329  1
  Zr  Zr2  1  0.70004573  0.29438777  0.30236979  1
  Zr  Zr3  1  0.29849464  0.90027864  0.10467085  1
  Zr  Zr4  1  0.70466774  0.90031175  0.70301240  1
  Zr  Zr5  1  0.69843799  0.08918948  0.10636369  1
  Zr  Zr6  1  0.30861905  0.48922774  0.49982925  1
  Zr  Zr7  1  0.90017046  0.49885602  0.31708216  1
  Zr  Zr8  1  0.30560072  0.29523362  0.69714348  1
  Zr  Zr9  1  0.09761775  0.89077088  0.89500362  1
  Zr  Zr10  1  0.90127628  0.29255771  0.49432112  1
  Zr  Zr11  1  0.10171137  0.90467900  0.10491827  1
  Zr  Zr12  1  0.89576127  0.10657121  0.90307679  1
  Zr  Zr13  1  0.10192482  0.49727278  0.29991004  1
  Zr  Zr14  1  0.50284045  0.69868427  0.89902700  1
  Zr  Zr15  1  0.69945615  0.10094710  0.90591755  1
  Zr  Zr16  1  0.09872397  0.69364970  0.29840004  1
  Zr  Zr17  1  0.09666681  0.89763900  0.68999390  1
  Zr  Zr18  1  0.50946166  0.49422718  0.30236443  1
  Zr  Zr19  1  0.72271832  0.50608590  0.68882243  1
  Zr  Zr20  1  0.10262194  0.29538280  0.09828066  1
  Zr  Zr21  1  0.49822993  0.30303639  0.10670549  1
  Zr  Zr22  1  0.30118491  0.49741639  0.70626556  1
  Zr  Zr23  1  0.89099353  0.90221328  0.30825932  1
  Zr  Zr24  1  0.90107376  0.90980755  0.68847195  1
  Zr  Zr25  1  0.30044304  0.69752507  0.50542002  1
  Zr  Zr26  1  0.88644143  0.49245956  0.51257910  1
  Zr  Zr27  1  0.89177865  0.89991179  0.89561245  1
  Zr  Zr28  1  0.30631788  0.90378226  0.90050105  1
  Zr  Zr29  1  0.10512792  0.49669092  0.89789943  1
  Zr  Zr30  1  0.09715122  0.69343586  0.89771862  1
  Zr  Zr31  1  0.10188203  0.10742425  0.89814897  1
  Zr  Zr32  1  0.70047648  0.91018905  0.90838875  1
  Zr  Zr33  1  0.89689644  0.88682836  0.10829902  1
  Zr  Zr34  1  0.30417511  0.49175066  0.09591275  1
  Zr  Zr35  1  0.30763376  0.10156324  0.89464066  1
  Zr  Zr36  1  0.90003485  0.70367510  0.49371902  1
  Zr  Zr37  1  0.10090693  0.49743267  0.70483326  1
  Zr  Zr38  1  0.08890810  0.70825856  0.09967882  1
  Zr  Zr39  1  0.50163262  0.90072098  0.70121025  1
  Zr  Zr40  1  0.09700110  0.29806246  0.30821811  1
  Zr  Zr41  1  0.29666107  0.49624373  0.89425834  1
  Zr  Zr42  1  0.29622094  0.09955071  0.09939079  1
  Zr  Zr43  1  0.89168016  0.69049083  0.70467999  1
  Zr  Zr44  1  0.30489905  0.70441399  0.10749696  1
  Zr  Zr45  1  0.69249471  0.50044916  0.10483996  1
  Zr  Zr46  1  0.50142756  0.29773249  0.89006989  1
  Zr  Zr47  1  0.88742105  0.10511737  0.30206943  1
  Zr  Zr48  1  0.89589796  0.30869371  0.68984516  1
  Zr  Zr49  1  0.89954353  0.70536999  0.29891558  1
  Sc  Sc50  1  0.89965695  0.29953414  0.90775046  1
  Sc  Sc51  1  0.30645975  0.29667964  0.09598817  1
  Sc  Sc52  1  0.69612584  0.49571906  0.89916717  1
  Sc  Sc53  1  0.50502990  0.69797045  0.10140598  1
  Sc  Sc54  1  0.49697965  0.49420165  0.89234180  1
  Sc  Sc55  1  0.29965042  0.90266055  0.29724613  1
  Sc  Sc56  1  0.29553007  0.69261586  0.89182406  1
  Sc  Sc57  1  0.30340347  0.69276776  0.69875902  1
  Sc  Sc58  1  0.09592734  0.28569661  0.69778279  1
  Sc  Sc59  1  0.90231753  0.50479223  0.89511062  1
  Sc  Sc60  1  0.28942766  0.90035907  0.49200737  1
  Sc  Sc61  1  0.29397813  0.88903597  0.69608837  1
  Sc  Sc62  1  0.49549479  0.10812604  0.70989437  1
  Sc  Sc63  1  0.70419885  0.10785112  0.69807904  1
  Sc  Sc64  1  0.09528798  0.10624820  0.49649679  1
  Sc  Sc65  1  0.10640558  0.10849656  0.10242963  1
  Sc  Sc66  1  0.69780724  0.30007514  0.89310078  1
  Sc  Sc67  1  0.90496840  0.70601859  0.90247255  1
  Sc  Sc68  1  0.29390052  0.69776288  0.29377057  1
  Sc  Sc69  1  0.69417739  0.69700571  0.50286499  1
  Sc  Sc70  1  0.50596167  0.90698930  0.90174075  1
  Sc  Sc71  1  0.10485988  0.70824638  0.70244730  1
  Sc  Sc72  1  0.89559937  0.09511408  0.50340558  1
  Sc  Sc73  1  0.50537025  0.88822636  0.50513104  1
  Sc  Sc74  1  0.50122953  0.69834341  0.29462608  1
  Sc  Sc75  1  0.49214551  0.50251413  0.69084759  1
  Sc  Sc76  1  0.10591976  0.10609196  0.30370462  1
  Sc  Sc77  1  0.49206146  0.89568398  0.09699295  1
  Sc  Sc78  1  0.70317564  0.71619475  0.89876982  1
  Sc  Sc79  1  0.09868669  0.70999855  0.49845118  1
  Sc  Sc80  1  0.49786071  0.29655419  0.29842824  1
  Sc  Sc81  1  0.70106776  0.90018685  0.49090402  1
  Sc  Sc82  1  0.10568115  0.30153373  0.89948690  1
  Sc  Sc83  1  0.89697614  0.48488482  0.08892880  1
  Sc  Sc84  1  0.90412561  0.11120849  0.69347888  1
  Sc  Sc85  1  0.50063041  0.09558401  0.89751546  1
  Sc  Sc86  1  0.09922873  0.49728668  0.08461850  1
  Sc  Sc87  1  0.50430631  0.49719130  0.10494268  1
  Sc  Sc88  1  0.30199489  0.49836204  0.30020801  1
  Sc  Sc89  1  0.30525187  0.30307426  0.30555121  1
  Sc  Sc90  1  0.50982288  0.69344103  0.51365292  1
  Sc  Sc91  1  0.49768670  0.11079271  0.48946412  1
  Sc  Sc92  1  0.49819322  0.10317812  0.10917418  1
  Sc  Sc93  1  0.31256120  0.29314290  0.49673345  1
  Sc  Sc94  1  0.70362571  0.70231333  0.31213798  1
  Sc  Sc95  1  0.70363213  0.30735961  0.10512404  1
  Sc  Sc96  1  0.30389002  0.30666468  0.90110169  1
  Sc  Sc97  1  0.69266883  0.29901804  0.69940962  1
  Sc  Sc98  1  0.49953688  0.90466322  0.30094332  1
  Sc  Sc99  1  0.09059970  0.49507363  0.48466154  1
  Nb  Nb100  1  0.90562496  0.10767241  0.10333125  1
  Nb  Nb101  1  0.50544319  0.70094316  0.69547801  1
  Nb  Nb102  1  0.68572419  0.29389138  0.50421011  1
  Nb  Nb103  1  0.90670151  0.29445843  0.10551199  1
  Nb  Nb104  1  0.70309249  0.91168118  0.29233769  1
  Nb  Nb105  1  0.69208190  0.10443790  0.50127959  1
  Nb  Nb106  1  0.50590028  0.31311223  0.50852146  1
  Nb  Nb107  1  0.08955462  0.90439168  0.50540991  1
  Nb  Nb108  1  0.70502882  0.89610570  0.10261583  1
  Nb  Nb109  1  0.31415326  0.09603874  0.32160343  1
  Nb  Nb110  1  0.10012806  0.30174856  0.49666041  1
  Nb  Nb111  1  0.69713261  0.70226396  0.69481460  1
  Nb  Nb112  1  0.10122305  0.10165498  0.70087707  1
  Nb  Nb113  1  0.50431798  0.49707142  0.49781035  1
  Nb  Nb114  1  0.68426275  0.49688392  0.49136856  1
  Nb  Nb115  1  0.90202269  0.50125494  0.69885307  1
  Nb  Nb116  1  0.30203075  0.09608068  0.49771769  1
  Nb  Nb117  1  0.69897246  0.49677919  0.30414564  1
  Nb  Nb118  1  0.50301433  0.10238307  0.29810311  1
  Nb  Nb119  1  0.68737195  0.09268038  0.30285684  1
  Nb  Nb120  1  0.50278173  0.29783038  0.69589200  1
  Nb  Nb121  1  0.70644119  0.70491520  0.10147244  1
  Nb  Nb122  1  0.90745210  0.90065624  0.50554453  1
  Nb  Nb123  1  0.89559406  0.70244745  0.10574618  1
  Nb  Nb124  1  0.29805972  0.09972836  0.69481034  1
  Nb  Nb125  1  0.40633755  0.59897367  0.40551654  1
  Nb  Nb126  1  0.60350383  0.60640722  0.78854594  1
  Nb  Nb127  1  0.39971740  0.59734249  -0.00154363  1
  Nb  Nb128  1  0.19916840  0.00673631  0.59869472  1
  Nb  Nb129  1  -0.00072035  0.39720661  0.19941192  1
  Nb  Nb130  1  0.79658226  0.60657425  0.00925090  1
  Nb  Nb131  1  0.39604150  0.00448786  0.59869536  1
  Nb  Nb132  1  0.40021100  0.79086531  0.40132943  1
  Nb  Nb133  1  -0.00627196  0.00560109  0.19840718  1
  Nb  Nb134  1  0.19550116  0.58991344  0.59625515  1
  Nb  Nb135  1  0.80048736  0.59666531  0.19930327  1
  Nb  Nb136  1  -0.00329656  0.00177402  0.00201756  1
  Nb  Nb137  1  0.40744336  0.79646175  0.79669973  1
  Nb  Nb138  1  0.00384841  0.00595533  0.80080376  1
  Nb  Nb139  1  0.59722154  0.00717865  0.59795637  1
  Nb  Nb140  1  -0.00944826  0.59239262  0.19591149  1
  Nb  Nb141  1  0.80297505  0.80198915  0.59870548  1
  Nb  Nb142  1  0.19467874  0.39692199  0.19939961  1
  Nb  Nb143  1  0.20032112  0.80051859  0.00176181  1
  Nb  Nb144  1  0.19761907  0.00387697  0.79179912  1
  Nb  Nb145  1  0.61175614  0.80665542  0.19977109  1
  Nb  Nb146  1  0.19819052  0.39619571  0.59484526  1
  Nb  Nb147  1  -0.00251365  0.39947403  0.79516940  1
  Nb  Nb148  1  -0.00036916  0.59688512  0.60078114  1
  Nb  Nb149  1  0.60069146  0.19948160  0.00370284  1
  Pd  Pd150  1  0.40062028  0.00186143  0.20249144  1
  Pd  Pd151  1  0.60076392  0.41351634  0.78512400  1
  Pd  Pd152  1  0.79632344  0.20391100  0.59527396  1
  Pd  Pd153  1  0.40862734  0.19714493  -0.00229529  1
  Pd  Pd154  1  0.60322521  0.60018447  -0.00903519  1
  Pd  Pd155  1  0.00349214  0.80332706  0.39538755  1
  Pd  Pd156  1  -0.01256983  0.59788995  0.00450612  1
  Pd  Pd157  1  0.41023761  -0.01241567  0.41063061  1
  Pd  Pd158  1  0.78985820  0.39189140  0.40939471  1
  Pd  Pd159  1  0.00869740  0.40143041  0.60049936  1
  Pd  Pd160  1  0.59326650  0.20549293  0.39730695  1
  Pd  Pd161  1  0.20665260  0.20216962  0.40465912  1
  Pd  Pd162  1  0.80605424  0.40717797  0.20334305  1
  Pd  Pd163  1  0.20207830  0.01103990  0.21136603  1
  Pd  Pd164  1  0.19897383  0.20057334  0.58858665  1
  Pd  Pd165  1  0.60474726  0.00932380  0.79214717  1
  Pd  Pd166  1  0.39649291  0.80439792  0.59830808  1
  Pd  Pd167  1  0.40368755  0.59434086  0.20096838  1
  Pd  Pd168  1  0.59531859  0.79850836  0.39229499  1
  Pd  Pd169  1  0.58882339  -0.00909707  0.19373890  1
  Pd  Pd170  1  0.59223293  -0.00186926  0.40696856  1
  Pd  Pd171  1  -0.00941241  0.80301171  0.79023867  1
  Pd  Pd172  1  0.20680801  0.59614922  0.40718759  1
  Pd  Pd173  1  0.79575543  0.00526677  0.40976853  1
  Pd  Pd174  1  0.79625785  0.40059317  -0.00576458  1
  Pd  Pd175  1  0.78953228  0.19539437  0.19480597  1
  Pd  Pd176  1  0.00358941  0.20077548  -0.00195586  1
  Pd  Pd177  1  0.59980385  0.80349112  0.00818484  1
  Pd  Pd178  1  0.20299361  0.79887167  0.39855746  1
  Pd  Pd179  1  0.20786994  0.60882604  0.00726772  1
  Pd  Pd180  1  0.19174249  0.59133815  0.18771539  1
  Pd  Pd181  1  0.59764467  0.80035941  0.80138869  1
  Pd  Pd182  1  0.20721069  0.20233224  0.80285593  1
  Pd  Pd183  1  0.39439607  0.79013035  -0.00901847  1
  Pd  Pd184  1  0.61056233  0.60977300  0.20914271  1
  Pd  Pd185  1  0.00036680  0.00821866  0.39415182  1
  Pd  Pd186  1  0.40682818  0.00671044  0.00651651  1
  Pd  Pd187  1  0.60554370  0.40972784  0.61093110  1
  Pd  Pd188  1  0.21249382  0.20291141  0.21042374  1
  Pd  Pd189  1  0.59602424  0.39183900  -0.00063995  1
  Pd  Pd190  1  0.19325553  -0.00235115  -0.00930685  1
  Pd  Pd191  1  0.39183137  0.19528529  0.20855742  1
  Pd  Pd192  1  0.79085321  0.60446357  0.81606834  1
  Pd  Pd193  1  0.81000189  -0.00068710  0.01187292  1
  Pd  Pd194  1  0.80204551  0.20665794  0.79683445  1
  Pd  Pd195  1  0.79342581  0.59812198  0.40395803  1
  Pd  Pd196  1  0.80607279  0.39706132  0.80449096  1
  Pd  Pd197  1  0.80605540  0.01287329  0.79211452  1
  Pd  Pd198  1  0.40950851  0.19480326  0.59655438  1
  Pd  Pd199  1  0.79022771  0.20675685  0.00973708  1
  Rh  Rh200  1  0.59549234  0.00350228  0.00757344  1
  Rh  Rh201  1  0.80175924  0.61052024  0.58837056  1
  Rh  Rh202  1  0.78722737  -0.00458465  0.59183196  1
  Rh  Rh203  1  0.41062101  0.80278903  0.21105438  1
  Rh  Rh204  1  0.79784180  0.80632910  0.40606052  1
  Rh  Rh205  1  0.00079340  0.39303358  -0.00534844  1
  Rh  Rh206  1  0.38934598  -0.01140011  0.78642019  1
  Rh  Rh207  1  0.60105940  0.19732604  0.80491788  1
  Rh  Rh208  1  0.80259419  0.79879324  -0.00363376  1
  Rh  Rh209  1  0.39899606  0.20375971  0.79991723  1
  Rh  Rh210  1  0.79048349  0.79594671  0.21220224  1
  Rh  Rh211  1  -0.00994053  0.78691712  0.60438811  1
  Rh  Rh212  1  0.60370805  0.19962618  0.19809814  1
  Rh  Rh213  1  0.21011328  0.20147728  -0.00460488  1
  Rh  Rh214  1  0.19645905  0.80011129  0.19784717  1
  Rh  Rh215  1  0.39411583  0.40120407  0.20264078  1
  Rh  Rh216  1  0.19754093  0.79990420  0.59168566  1
  Rh  Rh217  1  0.40472234  0.39334751  0.79244026  1
  Rh  Rh218  1  0.21289933  0.80289372  0.80878373  1
  Rh  Rh219  1  0.19375223  0.38629817  0.78825541  1
  Rh  Rh220  1  0.20424311  0.39304201  0.40111854  1
  Rh  Rh221  1  0.41188876  0.60587705  0.80328771  1
  Rh  Rh222  1  0.60263950  0.39318521  0.20737697  1
  Rh  Rh223  1  0.00028817  0.19897774  0.20813170  1
  Rh  Rh224  1  -0.00617308  0.39213263  0.39828086  1
  Rh  Rh225  1  0.19506869  0.60502772  0.79044448  1
  Rh  Rh226  1  0.61350379  0.81004670  0.60057962  1
  Rh  Rh227  1  0.00792814  0.01190410  0.60133441  1
  Rh  Rh228  1  -0.00002204  0.80655485  -0.00037427  1
  Rh  Rh229  1  0.80670348  0.00416426  0.19689607  1
  Rh  Rh230  1  -0.00067767  0.60494082  0.40297537  1
  Rh  Rh231  1  0.80227434  0.79939670  0.79323531  1
  Rh  Rh232  1  0.40774676  0.20552709  0.39919161  1
  Rh  Rh233  1  0.40705366  0.40523999  -0.00260539  1
  Rh  Rh234  1  0.59253622  0.19454250  0.60188937  1
  Rh  Rh235  1  0.00345551  0.80481341  0.21177681  1
  Rh  Rh236  1  -0.00759962  0.20533432  0.80003394  1
  Rh  Rh237  1  0.41111915  0.40228348  0.39860126  1
  Rh  Rh238  1  0.39639996  0.59608401  0.59435059  1
  Rh  Rh239  1  0.59513953  0.60183317  0.39879017  1
  Rh  Rh240  1  0.00408192  0.59618178  0.79590352  1
  Rh  Rh241  1  -0.00375042  0.19555561  0.40156338  1
  Rh  Rh242  1  0.78526283  0.38789532  0.58972615  1
  Rh  Rh243  1  0.20323012  0.39135476  0.00620790  1
  Rh  Rh244  1  0.78758699  0.19381352  0.40641373  1
  Rh  Rh245  1  0.60022012  0.39000418  0.39643084  1
  Rh  Rh246  1  0.00025254  0.19930613  0.59405354  1
  Rh  Rh247  1  0.19409088  0.00207162  0.40625877  1
  Rh  Rh248  1  0.39961153  0.39675937  0.60340956  1
  Rh  Rh249  1  0.60537078  0.58937608  0.60578902  1
