# generated using pymatgen
data_ZrScNbPdRh
_symmetry_space_group_name_H-M   'P 1'
_cell_length_a   16.55416374
_cell_length_b   16.55281631
_cell_length_c   16.55189546
_cell_angle_alpha   90.00568463
_cell_angle_beta   89.98600281
_cell_angle_gamma   90.02586479
_symmetry_Int_Tables_number   1
_chemical_formula_structural   ZrScNbPdRh
_chemical_formula_sum   'Zr50 Sc50 Nb50 Pd50 Rh50'
_cell_volume   4535.51719077
_cell_formula_units_Z   50
loop_
 _symmetry_equiv_pos_site_id
 _symmetry_equiv_pos_as_xyz
  1  'x, y, z'
loop_
 _atom_site_type_symbol
 _atom_site_label
 _atom_site_symmetry_multiplicity
 _atom_site_fract_x
 _atom_site_fract_y
 _atom_site_fract_z
 _atom_site_occupancy
  Zr  Zr0  1  0.09620201  0.69709240  0.90704981  1
  Zr  Zr1  1  0.09778033  0.49954890  0.69933283  1
  Zr  Zr2  1  0.29745528  0.70416946  0.10463445  1
  Zr  Zr3  1  0.88289965  0.90196763  0.70427064  1
  Zr  Zr4  1  0.50439964  0.11120083  0.89897025  1
  Zr  Zr5  1  0.09921036  0.69893879  0.70304909  1
  Zr  Zr6  1  0.90352218  0.89947548  0.29647623  1
  Zr  Zr7  1  0.69977419  0.71187793  0.70330750  1
  Zr  Zr8  1  0.09907324  0.89688044  0.68937018  1
  Zr  Zr9  1  0.50749976  0.10029666  0.49345712  1
  Zr  Zr10  1  0.90034725  0.48708105  0.69658711  1
  Zr  Zr11  1  0.08940521  0.90305650  0.29962110  1
  Zr  Zr12  1  0.50399660  0.91002060  0.30406754  1
  Zr  Zr13  1  0.09676256  0.09434596  0.90066469  1
  Zr  Zr14  1  0.29351916  0.30093329  0.29268579  1
  Zr  Zr15  1  0.70209770  0.50309637  0.89752758  1
  Zr  Zr16  1  0.29706438  0.10163754  0.30191224  1
  Zr  Zr17  1  0.70236628  0.49782717  0.10779298  1
  Zr  Zr18  1  0.09772672  0.49886819  0.50685435  1
  Zr  Zr19  1  0.69520126  0.49416917  0.70170188  1
  Zr  Zr20  1  0.90017738  0.10725996  0.70213917  1
  Zr  Zr21  1  0.51001975  0.50168194  0.30082106  1
  Zr  Zr22  1  0.31206816  0.70132424  0.70345506  1
  Zr  Zr23  1  0.29815358  0.50159832  0.89978448  1
  Zr  Zr24  1  0.69576874  0.10371820  0.30512295  1
  Zr  Zr25  1  0.29783125  0.89513460  0.10381959  1
  Zr  Zr26  1  0.90177491  0.09661300  0.89841768  1
  Zr  Zr27  1  0.89923269  0.29224651  0.90014268  1
  Zr  Zr28  1  0.10186541  0.89894630  0.10146018  1
  Zr  Zr29  1  0.89740497  0.49823287  0.50074393  1
  Zr  Zr30  1  0.70757480  0.30147736  0.69791444  1
  Zr  Zr31  1  0.09158267  0.70263355  0.50936805  1
  Zr  Zr32  1  0.69446294  0.90620278  0.29222447  1
  Zr  Zr33  1  0.09652772  0.49809787  0.09810855  1
  Zr  Zr34  1  0.09763047  0.89972092  0.90637385  1
  Zr  Zr35  1  0.69436815  0.89691503  0.09636802  1
  Zr  Zr36  1  0.50561945  0.89801904  0.90170949  1
  Zr  Zr37  1  0.70433118  0.90418634  0.51043251  1
  Zr  Zr38  1  0.29577377  0.09909334  0.10426668  1
  Zr  Zr39  1  0.09501805  0.10040374  0.69721791  1
  Zr  Zr40  1  0.29994580  0.30086178  0.50230944  1
  Zr  Zr41  1  0.30143526  0.30982581  0.69522892  1
  Zr  Zr42  1  0.90346250  0.68983787  0.09688872  1
  Zr  Zr43  1  0.50670163  0.70371407  0.31673454  1
  Zr  Zr44  1  0.29973461  0.49927324  0.50568209  1
  Zr  Zr45  1  0.09751157  0.29807808  0.29912532  1
  Zr  Zr46  1  0.30218325  0.09409738  0.70569320  1
  Zr  Zr47  1  0.09601470  0.29893750  0.10620708  1
  Zr  Zr48  1  0.29772029  0.90241743  0.89608780  1
  Zr  Zr49  1  0.29862330  0.10108803  0.49482859  1
  Sc  Sc50  1  0.70613934  0.49921886  0.49749947  1
  Sc  Sc51  1  0.49957190  0.89084929  0.69713293  1
  Sc  Sc52  1  0.50400495  0.50372161  0.69651587  1
  Sc  Sc53  1  0.50040171  0.50463363  0.89114011  1
  Sc  Sc54  1  0.09934634  0.70201357  0.29269990  1
  Sc  Sc55  1  0.49694004  0.70031773  0.89253377  1
  Sc  Sc56  1  0.29951199  0.09068881  0.89545464  1
  Sc  Sc57  1  0.50049981  0.49126878  0.11054313  1
  Sc  Sc58  1  0.29747000  0.30831362  0.90968628  1
  Sc  Sc59  1  0.69923498  0.10670570  0.49667098  1
  Sc  Sc60  1  0.90035779  0.50090679  0.90330435  1
  Sc  Sc61  1  0.70639078  0.10102057  0.69319548  1
  Sc  Sc62  1  0.29820759  0.49650681  0.10106843  1
  Sc  Sc63  1  0.89596414  0.69102302  0.90136801  1
  Sc  Sc64  1  0.10243238  0.70308773  0.10247244  1
  Sc  Sc65  1  0.29608812  0.50010772  0.69712972  1
  Sc  Sc66  1  0.31156165  0.69850368  0.50297683  1
  Sc  Sc67  1  0.90383121  0.69744167  0.29865245  1
  Sc  Sc68  1  0.89497619  0.69586937  0.69263879  1
  Sc  Sc69  1  0.50791150  0.31442107  0.29361281  1
  Sc  Sc70  1  0.89432979  0.49201313  0.09568759  1
  Sc  Sc71  1  0.30318118  0.69684589  0.90264451  1
  Sc  Sc72  1  0.09861112  0.31088384  0.90036409  1
  Sc  Sc73  1  0.89858876  0.30402466  0.49625648  1
  Sc  Sc74  1  0.09898622  0.49973929  0.89482918  1
  Sc  Sc75  1  0.50287123  0.89659043  0.10999258  1
  Sc  Sc76  1  0.90039637  0.29652433  0.30625761  1
  Sc  Sc77  1  0.51371892  0.30402434  0.69740787  1
  Sc  Sc78  1  0.70229791  0.88875218  0.88611432  1
  Sc  Sc79  1  0.09748613  0.09701042  0.49386032  1
  Sc  Sc80  1  0.29668608  0.89755625  0.70266130  1
  Sc  Sc81  1  0.08898595  0.29296234  0.49285001  1
  Sc  Sc82  1  0.90236818  0.11459094  0.49874325  1
  Sc  Sc83  1  0.89177414  0.49434846  0.30596208  1
  Sc  Sc84  1  0.49729798  0.70730281  0.09483153  1
  Sc  Sc85  1  0.70366345  0.29681018  0.49563519  1
  Sc  Sc86  1  0.71083106  0.09914075  0.11175052  1
  Sc  Sc87  1  0.29448054  0.69844960  0.30669830  1
  Sc  Sc88  1  0.09344342  0.31164525  0.70162976  1
  Sc  Sc89  1  0.49834855  0.89394138  0.49576192  1
  Sc  Sc90  1  0.29942424  0.31059500  0.09888249  1
  Sc  Sc91  1  0.30563252  0.90597136  0.30115250  1
  Sc  Sc92  1  0.69434348  0.29061316  0.88777968  1
  Sc  Sc93  1  0.09931549  0.49945598  0.29685442  1
  Sc  Sc94  1  0.69983575  0.69430003  0.10143499  1
  Sc  Sc95  1  0.71324102  0.29892539  0.10181316  1
  Sc  Sc96  1  0.90884018  0.90924370  0.10475893  1
  Sc  Sc97  1  0.90941195  0.89441314  0.50123943  1
  Sc  Sc98  1  0.50489711  0.30241692  0.50882562  1
  Sc  Sc99  1  0.50586300  0.50642465  0.50825856  1
  Nb  Nb100  1  0.89899411  0.29589231  0.69601845  1
  Nb  Nb101  1  0.90342045  0.28327649  0.09723536  1
  Nb  Nb102  1  0.29756217  0.90715653  0.50042205  1
  Nb  Nb103  1  0.70278544  0.69272425  0.30540782  1
  Nb  Nb104  1  0.09899031  0.11028436  0.29516688  1
  Nb  Nb105  1  0.69630614  0.49531314  0.29616640  1
  Nb  Nb106  1  0.69794497  0.09704265  0.89342288  1
  Nb  Nb107  1  0.50174346  0.29808138  0.90234969  1
  Nb  Nb108  1  0.10300554  0.89840825  0.50104771  1
  Nb  Nb109  1  0.89474436  0.09581969  0.28997256  1
  Nb  Nb110  1  0.89875676  0.90170796  0.90061345  1
  Nb  Nb111  1  0.70019926  0.30269579  0.30126958  1
  Nb  Nb112  1  0.70266925  0.90223296  0.70263733  1
  Nb  Nb113  1  0.49911931  0.29657211  0.09151811  1
  Nb  Nb114  1  0.49790270  0.69682146  0.68575083  1
  Nb  Nb115  1  0.88936977  0.69281346  0.49628176  1
  Nb  Nb116  1  0.50170192  0.10715843  0.09489416  1
  Nb  Nb117  1  0.70550858  0.69946340  0.49960218  1
  Nb  Nb118  1  0.09327090  0.10266550  0.10251748  1
  Nb  Nb119  1  0.30460080  0.49870508  0.30219400  1
  Nb  Nb120  1  0.49671673  0.09867481  0.70084852  1
  Nb  Nb121  1  0.69735855  0.70099218  0.90292706  1
  Nb  Nb122  1  0.90095562  0.10962368  0.10039502  1
  Nb  Nb123  1  0.50465091  0.69898183  0.51377537  1
  Nb  Nb124  1  0.50339541  0.10034513  0.29966459  1
  Nb  Nb125  1  -0.00513345  0.80296778  0.80264243  1
  Nb  Nb126  1  0.79580452  0.79774175  0.39679151  1
  Nb  Nb127  1  0.40558700  0.20536869  0.39123242  1
  Nb  Nb128  1  0.79912297  -0.00190355  -0.00499088  1
  Nb  Nb129  1  -0.00291674  0.60053918  0.40786754  1
  Nb  Nb130  1  0.40026485  0.20705682  0.80005485  1
  Nb  Nb131  1  0.19553382  0.80840529  0.40959051  1
  Nb  Nb132  1  0.40107518  0.59914263  0.20887670  1
  Nb  Nb133  1  0.20335651  0.20305115  0.79971035  1
  Nb  Nb134  1  0.19405644  0.19620303  -0.00008888  1
  Nb  Nb135  1  0.79852590  0.79792782  0.20033936  1
  Nb  Nb136  1  0.39959341  0.00118583  0.59747515  1
  Nb  Nb137  1  0.59587609  0.20241925  0.19906876  1
  Nb  Nb138  1  0.60282399  0.00062572  0.79610792  1
  Nb  Nb139  1  0.19911111  0.19979637  0.60513559  1
  Nb  Nb140  1  0.20314011  0.40246886  0.39996578  1
  Nb  Nb141  1  0.60366323  0.00622735  -0.00381515  1
  Nb  Nb142  1  0.80337138  -0.00272779  0.39497321  1
  Nb  Nb143  1  0.40818972  0.20060943  0.19793183  1
  Nb  Nb144  1  0.59890393  0.39657580  -0.00204030  1
  Nb  Nb145  1  0.60275144  0.59528052  -0.00115762  1
  Nb  Nb146  1  0.80116971  0.80251098  0.00138644  1
  Nb  Nb147  1  0.40414215  0.39474676  0.80159964  1
  Nb  Nb148  1  0.39753664  0.40163029  0.39961302  1
  Nb  Nb149  1  0.40741860  0.00245975  0.00287152  1
  Pd  Pd150  1  0.40928335  0.59297447  0.01108482  1
  Pd  Pd151  1  0.20634880  0.59540448  0.19942960  1
  Pd  Pd152  1  0.39935898  0.19543115  0.60066002  1
  Pd  Pd153  1  0.19301993  -0.00362160  0.39217427  1
  Pd  Pd154  1  0.80174331  0.60189321  0.79463004  1
  Pd  Pd155  1  0.20390357  0.00289492  0.00279527  1
  Pd  Pd156  1  0.80953996  0.00954082  0.58949869  1
  Pd  Pd157  1  0.60883356  0.80387019  0.40769441  1
  Pd  Pd158  1  0.39720933  0.80625393  -0.00275537  1
  Pd  Pd159  1  0.00934754  0.20843732  0.80139343  1
  Pd  Pd160  1  0.59717545  0.60891445  0.79921051  1
  Pd  Pd161  1  -0.00079911  0.79036457  0.40079514  1
  Pd  Pd162  1  0.80449890  0.60022088  0.20612587  1
  Pd  Pd163  1  -0.00867200  0.00146581  0.59444490  1
  Pd  Pd164  1  0.40129721  0.79181474  0.21422342  1
  Pd  Pd165  1  0.40548001  0.80094684  0.79994775  1
  Pd  Pd166  1  0.40659200  0.00546526  0.19356279  1
  Pd  Pd167  1  0.39262204  0.80194303  0.40193060  1
  Pd  Pd168  1  0.60613235  0.19851702  0.60323578  1
  Pd  Pd169  1  -0.01117648  0.39893591  0.20123105  1
  Pd  Pd170  1  -0.00885305  0.79871784  0.00039160  1
  Pd  Pd171  1  0.59908791  0.39935415  0.40995169  1
  Pd  Pd172  1  0.59092399  0.60972963  0.19352949  1
  Pd  Pd173  1  0.38515187  0.19602516  -0.00269924  1
  Pd  Pd174  1  -0.00332920  0.39883092  -0.00141005  1
  Pd  Pd175  1  -0.00672855  0.00954390  0.40268057  1
  Pd  Pd176  1  0.19771182  0.60002380  0.00453759  1
  Pd  Pd177  1  0.80327907  0.39616863  0.80735334  1
  Pd  Pd178  1  0.40944274  0.41051097  -0.00494353  1
  Pd  Pd179  1  0.19049954  0.60240386  0.40110068  1
  Pd  Pd180  1  0.61624241  0.20219910  0.00868510  1
  Pd  Pd181  1  0.19347969  0.79817175  0.80599423  1
  Pd  Pd182  1  0.59233937  -0.00092878  0.60499637  1
  Pd  Pd183  1  -0.01247036  0.79825290  0.60666082  1
  Pd  Pd184  1  0.60259047  0.78766706  0.20316188  1
  Pd  Pd185  1  0.40644465  0.59538032  0.40186179  1
  Pd  Pd186  1  0.79220402  0.19244246  -0.00487484  1
  Pd  Pd187  1  -0.00779012  0.60236940  0.79724770  1
  Pd  Pd188  1  0.20575727  0.60984418  0.60250934  1
  Pd  Pd189  1  -0.00566823  0.59199289  0.20629231  1
  Pd  Pd190  1  0.20270093  0.00566489  0.60100795  1
  Pd  Pd191  1  0.80919008  0.39118209  0.20311943  1
  Pd  Pd192  1  0.60253871  0.80158187  0.59988378  1
  Pd  Pd193  1  0.21124918  0.79346930  0.59481960  1
  Pd  Pd194  1  0.79278387  0.59542888  0.60755244  1
  Pd  Pd195  1  0.20429852  0.60160214  0.79877623  1
  Pd  Pd196  1  0.19377758  -0.00207554  0.20723236  1
  Pd  Pd197  1  0.00162507  -0.01027495  0.79390039  1
  Pd  Pd198  1  0.79442372  0.39252056  -0.00807937  1
  Pd  Pd199  1  0.60639008  0.59731206  0.41022059  1
  Rh  Rh200  1  0.19638376  0.40596815  0.20307835  1
  Rh  Rh201  1  0.18802191  -0.00350024  0.79444571  1
  Rh  Rh202  1  -0.00529810  0.19299580  0.39086819  1
  Rh  Rh203  1  0.39966978  0.59292341  0.79209147  1
  Rh  Rh204  1  0.00703187  0.40962099  0.39940663  1
  Rh  Rh205  1  0.59427129  0.79848405  0.79393080  1
  Rh  Rh206  1  0.20614265  0.79549491  -0.00460384  1
  Rh  Rh207  1  0.00397471  0.00950039  0.19706250  1
  Rh  Rh208  1  0.00285466  0.20590847  0.60206179  1
  Rh  Rh209  1  0.19056210  0.39767932  0.00435160  1
  Rh  Rh210  1  0.18519219  0.38814040  0.58928957  1
  Rh  Rh211  1  0.19969050  0.80829554  0.21454521  1
  Rh  Rh212  1  0.79957772  0.59873626  0.39439926  1
  Rh  Rh213  1  0.40465607  0.00576957  0.40649181  1
  Rh  Rh214  1  -0.00701971  0.00620972  0.00802188  1
  Rh  Rh215  1  0.79980894  0.19734450  0.79776103  1
  Rh  Rh216  1  0.79892429  0.39475370  0.59576548  1
  Rh  Rh217  1  -0.00678945  0.19728570  0.20631946  1
  Rh  Rh218  1  0.00329918  0.59284305  0.00085714  1
  Rh  Rh219  1  0.59346622  0.01231745  0.18964508  1
  Rh  Rh220  1  0.20817965  0.39974376  0.80367392  1
  Rh  Rh221  1  0.80800775  0.79175239  0.80851713  1
  Rh  Rh222  1  0.80079315  0.79920934  0.59344387  1
  Rh  Rh223  1  0.00746556  0.19938279  -0.00261495  1
  Rh  Rh224  1  0.60767374  0.40312113  0.59638964  1
  Rh  Rh225  1  0.60898520  0.38790324  0.18853852  1
  Rh  Rh226  1  0.79235902  0.39956888  0.39579673  1
  Rh  Rh227  1  -0.00279064  0.39300771  0.59703797  1
  Rh  Rh228  1  0.80202795  0.19546084  0.39489241  1
  Rh  Rh229  1  0.60784265  -0.00550564  0.40738011  1
  Rh  Rh230  1  0.79326634  0.00476266  0.80331382  1
  Rh  Rh231  1  0.79871561  0.20592679  0.20953704  1
  Rh  Rh232  1  0.59430813  0.39858150  0.80525885  1
  Rh  Rh233  1  0.19989882  0.20607213  0.40680345  1
  Rh  Rh234  1  0.41408057  0.00053028  0.80016417  1
  Rh  Rh235  1  -0.00768653  0.59924923  0.59894387  1
  Rh  Rh236  1  0.80441935  -0.00429116  0.19699079  1
  Rh  Rh237  1  0.59430599  0.21247195  0.39146902  1
  Rh  Rh238  1  0.39880749  0.59611000  0.60256430  1
  Rh  Rh239  1  -0.00313239  0.79574520  0.18987951  1
  Rh  Rh240  1  0.39665471  0.80881199  0.59577098  1
  Rh  Rh241  1  0.20172048  0.20112301  0.18967037  1
  Rh  Rh242  1  0.61084930  0.60414165  0.60035578  1
  Rh  Rh243  1  0.40074699  0.40059914  0.20411805  1
  Rh  Rh244  1  0.41016388  0.40721647  0.60246069  1
  Rh  Rh245  1  0.80184649  0.20370389  0.59725414  1
  Rh  Rh246  1  0.60369928  0.79461563  -0.00343673  1
  Rh  Rh247  1  0.59809970  0.19524307  0.78721715  1
  Rh  Rh248  1  0.79158229  0.60370924  -0.00096168  1
  Rh  Rh249  1  -0.00980149  0.39846313  0.80252328  1
