# generated using pymatgen
data_ZrScNbPdRh
_symmetry_space_group_name_H-M   'P 1'
_cell_length_a   16.56459650
_cell_length_b   16.56987885
_cell_length_c   16.56580005
_cell_angle_alpha   90.01551222
_cell_angle_beta   90.00703448
_cell_angle_gamma   89.98533810
_symmetry_Int_Tables_number   1
_chemical_formula_structural   ZrScNbPdRh
_chemical_formula_sum   'Zr50 Sc50 Nb50 Pd50 Rh50'
_cell_volume   4546.87040531
_cell_formula_units_Z   50
loop_
 _symmetry_equiv_pos_site_id
 _symmetry_equiv_pos_as_xyz
  1  'x, y, z'
loop_
 _atom_site_type_symbol
 _atom_site_label
 _atom_site_symmetry_multiplicity
 _atom_site_fract_x
 _atom_site_fract_y
 _atom_site_fract_z
 _atom_site_occupancy
  Zr  Zr0  1  0.29579817  0.29987220  0.90716739  1
  Zr  Zr1  1  0.90530352  0.49856181  0.90268792  1
  Zr  Zr2  1  0.69841412  0.29521446  0.09672492  1
  Zr  Zr3  1  0.70324740  0.50265609  0.29956593  1
  Zr  Zr4  1  0.90928290  0.70277580  0.09670012  1
  Zr  Zr5  1  0.29906821  0.09533549  0.69715324  1
  Zr  Zr6  1  0.49748848  0.49211707  0.90228297  1
  Zr  Zr7  1  0.69727934  0.49748116  0.70031339  1
  Zr  Zr8  1  0.70117214  0.70298155  0.30571942  1
  Zr  Zr9  1  0.10549566  0.30044898  0.30438572  1
  Zr  Zr10  1  0.49481065  0.69884743  0.49604109  1
  Zr  Zr11  1  0.09732494  0.30105889  0.90488122  1
  Zr  Zr12  1  0.90813648  0.50233800  0.10263003  1
  Zr  Zr13  1  0.69778584  0.91068877  0.10496472  1
  Zr  Zr14  1  0.70040000  0.70896668  0.10120479  1
  Zr  Zr15  1  0.90925873  0.90552895  0.69997168  1
  Zr  Zr16  1  0.50013834  0.49473023  0.09508169  1
  Zr  Zr17  1  0.88834527  0.10051264  0.10903255  1
  Zr  Zr18  1  0.10543100  0.90334222  0.69947447  1
  Zr  Zr19  1  0.29600306  0.29486246  0.10850773  1
  Zr  Zr20  1  0.30135749  0.50553437  0.51636301  1
  Zr  Zr21  1  0.49197266  0.90012736  0.89350237  1
  Zr  Zr22  1  0.70227478  0.29470129  0.69715333  1
  Zr  Zr23  1  0.89070934  0.10530262  0.89969453  1
  Zr  Zr24  1  0.69084171  0.10021881  0.09778403  1
  Zr  Zr25  1  0.30571431  0.89510137  0.09239977  1
  Zr  Zr26  1  0.70448434  0.49439353  0.89964448  1
  Zr  Zr27  1  0.69556697  0.70562001  0.49709407  1
  Zr  Zr28  1  0.09035516  0.89090060  0.10831972  1
  Zr  Zr29  1  0.89211934  0.90537231  0.49656577  1
  Zr  Zr30  1  0.49091317  0.49460444  0.69672880  1
  Zr  Zr31  1  0.69569410  0.11287059  0.49130418  1
  Zr  Zr32  1  0.30222687  0.49157935  0.90070623  1
  Zr  Zr33  1  0.10738104  0.48906040  0.50145981  1
  Zr  Zr34  1  0.30403916  0.70013449  0.68381376  1
  Zr  Zr35  1  0.10187455  0.30169511  0.10350802  1
  Zr  Zr36  1  0.31414753  0.90196622  0.69808390  1
  Zr  Zr37  1  0.69075825  0.90327301  0.90290626  1
  Zr  Zr38  1  0.30347626  0.10362542  0.50849030  1
  Zr  Zr39  1  0.30728805  0.69605393  0.29777016  1
  Zr  Zr40  1  0.89425604  0.70295126  0.49660004  1
  Zr  Zr41  1  0.10420068  0.89950035  0.50106414  1
  Zr  Zr42  1  0.10123987  0.09966505  0.69172616  1
  Zr  Zr43  1  0.49634544  0.69835850  0.29773695  1
  Zr  Zr44  1  0.09681235  0.90026176  0.30329960  1
  Zr  Zr45  1  0.48740423  0.70623149  0.10174428  1
  Zr  Zr46  1  0.49521282  0.08972665  0.68945596  1
  Zr  Zr47  1  0.89837155  0.10387513  0.69604783  1
  Zr  Zr48  1  0.90558843  0.69798053  0.89865004  1
  Zr  Zr49  1  0.89791710  0.90945520  0.29790473  1
  Sc  Sc50  1  0.90871492  0.29169784  0.70253230  1
  Sc  Sc51  1  0.30305348  0.70411978  0.91847889  1
  Sc  Sc52  1  0.90478308  0.28701939  0.50053607  1
  Sc  Sc53  1  0.69474173  0.10503619  0.69550288  1
  Sc  Sc54  1  0.29761749  0.89060560  0.50108549  1
  Sc  Sc55  1  0.90238901  0.49607405  0.69930244  1
  Sc  Sc56  1  0.91280598  0.50429519  0.49890211  1
  Sc  Sc57  1  0.50319375  0.11170205  0.29915315  1
  Sc  Sc58  1  0.71574229  0.49276913  0.10389873  1
  Sc  Sc59  1  0.89932240  0.49707073  0.29067346  1
  Sc  Sc60  1  0.10353788  0.69377863  0.10109660  1
  Sc  Sc61  1  0.10271871  0.70264887  0.29331129  1
  Sc  Sc62  1  0.29107214  0.09871241  0.09100821  1
  Sc  Sc63  1  0.70743194  0.70056409  0.90147037  1
  Sc  Sc64  1  0.50974661  0.89967693  0.29678772  1
  Sc  Sc65  1  0.09613160  0.49722289  0.30151951  1
  Sc  Sc66  1  0.10036548  0.49093799  0.91191790  1
  Sc  Sc67  1  0.69715311  0.90550089  0.48364515  1
  Sc  Sc68  1  0.29659001  0.88805932  0.30419422  1
  Sc  Sc69  1  0.69506655  0.10583887  0.90763242  1
  Sc  Sc70  1  0.49859545  0.29847009  0.09626367  1
  Sc  Sc71  1  0.29693303  0.30248120  0.49515505  1
  Sc  Sc72  1  0.69495612  0.09744660  0.29591315  1
  Sc  Sc73  1  0.29566288  0.50413971  0.09989469  1
  Sc  Sc74  1  0.68701514  0.50809503  0.49974882  1
  Sc  Sc75  1  0.90806829  0.89577985  0.90140916  1
  Sc  Sc76  1  0.70173060  0.29458906  0.89877070  1
  Sc  Sc77  1  0.50318773  0.29933122  0.49250297  1
  Sc  Sc78  1  0.90265918  0.69654871  0.69607465  1
  Sc  Sc79  1  0.89759131  0.68839661  0.29788061  1
  Sc  Sc80  1  0.30889410  0.12150015  0.29734124  1
  Sc  Sc81  1  0.90426235  0.29480808  0.29963671  1
  Sc  Sc82  1  0.89924625  0.10255491  0.49900691  1
  Sc  Sc83  1  0.69336400  0.28935386  0.30684892  1
  Sc  Sc84  1  0.09792618  0.70908799  0.69715807  1
  Sc  Sc85  1  0.30710319  0.49517836  0.30107273  1
  Sc  Sc86  1  0.50606079  0.89854542  0.09864101  1
  Sc  Sc87  1  0.50310358  0.30033785  0.70095734  1
  Sc  Sc88  1  0.49857151  0.50209487  0.49539126  1
  Sc  Sc89  1  0.11293455  0.09280454  0.90111109  1
  Sc  Sc90  1  0.90083117  0.29979391  0.89416800  1
  Sc  Sc91  1  0.09908636  0.70328178  0.90721179  1
  Sc  Sc92  1  0.50059681  0.71696594  0.69558944  1
  Sc  Sc93  1  0.69735224  0.69553916  0.69504839  1
  Sc  Sc94  1  0.89733884  0.30419930  0.10957255  1
  Sc  Sc95  1  0.10175954  0.70296252  0.50352878  1
  Sc  Sc96  1  0.50720758  0.90115408  0.50199095  1
  Sc  Sc97  1  0.10125276  0.29860759  0.50103073  1
  Sc  Sc98  1  0.09819579  0.89939871  0.89613236  1
  Sc  Sc99  1  0.50532231  0.30416592  0.90541760  1
  Nb  Nb100  1  0.49656646  0.09723330  0.49352667  1
  Nb  Nb101  1  0.48139184  0.30354223  0.29913057  1
  Nb  Nb102  1  0.69759470  0.89895458  0.29668591  1
  Nb  Nb103  1  0.09888175  0.10340481  0.10274038  1
  Nb  Nb104  1  0.30307600  0.70200164  0.10796218  1
  Nb  Nb105  1  0.30242667  0.08965364  0.89816317  1
  Nb  Nb106  1  0.49719952  0.09716324  0.09725821  1
  Nb  Nb107  1  0.90691217  0.10497231  0.30214219  1
  Nb  Nb108  1  0.70577726  0.29748734  0.49904873  1
  Nb  Nb109  1  0.30078944  0.30695361  0.70656445  1
  Nb  Nb110  1  0.09207686  0.49567151  0.10091506  1
  Nb  Nb111  1  0.29859743  0.49790450  0.70317301  1
  Nb  Nb112  1  0.30215502  0.70055455  0.49424824  1
  Nb  Nb113  1  0.31004762  0.30285632  0.29995347  1
  Nb  Nb114  1  0.49966205  0.69396436  0.90096631  1
  Nb  Nb115  1  0.68848492  0.89904439  0.70060573  1
  Nb  Nb116  1  0.50210873  0.50162695  0.29949854  1
  Nb  Nb117  1  0.09950235  0.30275088  0.70313607  1
  Nb  Nb118  1  0.09150233  0.10272771  0.30155960  1
  Nb  Nb119  1  0.49378896  0.09653404  0.90336526  1
  Nb  Nb120  1  0.50707341  0.90074472  0.69778269  1
  Nb  Nb121  1  0.10771379  0.10335357  0.49688089  1
  Nb  Nb122  1  0.29878504  0.91156301  0.89597190  1
  Nb  Nb123  1  0.89878175  0.90147912  0.10445090  1
  Nb  Nb124  1  0.10615289  0.49172146  0.69858652  1
  Nb  Nb125  1  0.59159537  0.59901628  0.80590512  1
  Nb  Nb126  1  0.79717939  0.39572184  0.40845618  1
  Nb  Nb127  1  0.39683695  0.60087953  0.79872656  1
  Nb  Nb128  1  -0.00237878  0.00488502  0.00982406  1
  Nb  Nb129  1  0.79731549  0.39637744  0.59262942  1
  Nb  Nb130  1  0.39733935  0.00504019  0.39707139  1
  Nb  Nb131  1  0.21025985  0.80005683  0.80062086  1
  Nb  Nb132  1  0.80124811  0.80830917  0.20021260  1
  Nb  Nb133  1  0.39731640  0.19078755  -0.00545094  1
  Nb  Nb134  1  0.01215953  0.59266259  0.79829512  1
  Nb  Nb135  1  0.20686679  0.60157101  0.40490212  1
  Nb  Nb136  1  0.79475189  -0.00599651  0.79535755  1
  Nb  Nb137  1  0.79843631  0.80846460  0.79215580  1
  Nb  Nb138  1  0.39518173  0.00285760  0.20167433  1
  Nb  Nb139  1  0.60002787  0.59944475  0.00059862  1
  Nb  Nb140  1  0.20357371  0.59938388  0.79675430  1
  Nb  Nb141  1  0.59758936  0.59689329  0.19573413  1
  Nb  Nb142  1  0.20583376  0.20248491  0.79643856  1
  Nb  Nb143  1  0.39582769  0.19554985  0.80302571  1
  Nb  Nb144  1  0.19839823  0.00415922  0.20568266  1
  Nb  Nb145  1  0.20249209  0.01226199  0.39492836  1
  Nb  Nb146  1  0.79446131  0.81063347  0.60442160  1
  Nb  Nb147  1  0.00179867  0.19258155  0.00734920  1
  Nb  Nb148  1  -0.00478545  0.80331147  0.39871244  1
  Nb  Nb149  1  0.59434192  0.40133493  0.20789350  1
  Pd  Pd150  1  0.19736605  0.80561269  -0.00298729  1
  Pd  Pd151  1  0.59964223  0.39926276  0.80028034  1
  Pd  Pd152  1  0.19987573  0.21171072  0.60552424  1
  Pd  Pd153  1  0.80644308  0.39277339  0.79118555  1
  Pd  Pd154  1  0.60313728  0.39601186  0.59403028  1
  Pd  Pd155  1  0.39375858  0.79154486  0.80611223  1
  Pd  Pd156  1  0.79812816  0.59980513  0.00485307  1
  Pd  Pd157  1  0.20393062  0.20034735  0.39700416  1
  Pd  Pd158  1  0.00912001  0.59721944  0.60622646  1
  Pd  Pd159  1  0.20446182  0.80185655  0.19873975  1
  Pd  Pd160  1  0.79579050  0.20117663  0.20865579  1
  Pd  Pd161  1  0.01215107  0.60791550  0.39735964  1
  Pd  Pd162  1  0.80412502  0.80930197  -0.00135525  1
  Pd  Pd163  1  0.60252741  0.39591140  0.39569115  1
  Pd  Pd164  1  0.20002764  0.40817629  0.20481097  1
  Pd  Pd165  1  0.59331443  0.79608899  -0.00443308  1
  Pd  Pd166  1  0.39943483  0.59811998  0.00119458  1
  Pd  Pd167  1  0.01201112  0.19069525  0.80866193  1
  Pd  Pd168  1  0.19411278  0.39908504  0.80365328  1
  Pd  Pd169  1  0.80694120  0.39225828  -0.00117955  1
  Pd  Pd170  1  0.60747844  0.00097062  0.58953785  1
  Pd  Pd171  1  0.00204969  0.00759641  0.58896366  1
  Pd  Pd172  1  0.19141332  0.60340189  0.60114457  1
  Pd  Pd173  1  0.80058388  0.59430966  0.59476582  1
  Pd  Pd174  1  0.59019988  0.20181886  0.59489259  1
  Pd  Pd175  1  0.59038512  0.20834600  0.19997275  1
  Pd  Pd176  1  0.80467055  -0.00620671  -0.00716360  1
  Pd  Pd177  1  0.60509762  0.78998131  0.80267873  1
  Pd  Pd178  1  -0.00197267  0.00955990  0.81035174  1
  Pd  Pd179  1  0.58938709  0.60404997  0.60837936  1
  Pd  Pd180  1  0.00276831  0.00713031  0.19663076  1
  Pd  Pd181  1  0.39936061  0.39032950  0.59436044  1
  Pd  Pd182  1  0.80193316  0.60674415  0.79635668  1
  Pd  Pd183  1  0.39601828  0.40657236  0.40938818  1
  Pd  Pd184  1  0.80216563  0.58713093  0.40790498  1
  Pd  Pd185  1  -0.00884436  0.39492281  0.39941539  1
  Pd  Pd186  1  0.19665656  0.19559293  0.20806922  1
  Pd  Pd187  1  -0.00639606  0.39227329  0.60074541  1
  Pd  Pd188  1  0.79520586  0.01265968  0.39297667  1
  Pd  Pd189  1  0.19755683  0.59687552  -0.00200659  1
  Pd  Pd190  1  0.59069672  0.19452100  0.80288626  1
  Pd  Pd191  1  0.19880232  0.59270837  0.20727247  1
  Pd  Pd192  1  0.40055860  0.40513859  0.19303839  1
  Pd  Pd193  1  0.40828646  0.81149115  0.39997248  1
  Pd  Pd194  1  -0.00771358  0.80220248  0.59312150  1
  Pd  Pd195  1  0.60082594  0.01066999  0.80269242  1
  Pd  Pd196  1  0.00426032  0.00182823  0.40885369  1
  Pd  Pd197  1  0.40446655  0.21030233  0.60261411  1
  Pd  Pd198  1  0.18882680  -0.01037573  0.00975617  1
  Pd  Pd199  1  0.78668312  -0.00067652  0.60300649  1
  Rh  Rh200  1  0.61433076  0.40336843  0.00728092  1
  Rh  Rh201  1  0.79569402  0.00209702  0.20655952  1
  Rh  Rh202  1  0.80737450  0.20759757  0.00218825  1
  Rh  Rh203  1  0.59164498  -0.00019980  -0.00257618  1
  Rh  Rh204  1  0.59048569  0.00406479  0.20190804  1
  Rh  Rh205  1  0.40732898  0.80598751  0.59131327  1
  Rh  Rh206  1  0.40160582  0.80565459  -0.00556898  1
  Rh  Rh207  1  0.39733960  0.81155151  0.20232980  1
  Rh  Rh208  1  0.59517358  0.60385160  0.39267593  1
  Rh  Rh209  1  0.00213260  0.80561526  0.00139975  1
  Rh  Rh210  1  0.00272135  0.19915848  0.40191896  1
  Rh  Rh211  1  0.19875646  0.19634904  -0.00836899  1
  Rh  Rh212  1  0.60514346  0.80366254  0.59305478  1
  Rh  Rh213  1  0.59298009  0.00580765  0.39453853  1
  Rh  Rh214  1  0.39399646  0.59265851  0.40155202  1
  Rh  Rh215  1  0.00260538  0.40743135  0.79808190  1
  Rh  Rh216  1  0.00739594  0.59745689  -0.00389632  1
  Rh  Rh217  1  0.40341787  0.39543417  0.80048285  1
  Rh  Rh218  1  0.60586866  0.79509609  0.20383609  1
  Rh  Rh219  1  0.40149063  0.19975057  0.40681732  1
  Rh  Rh220  1  0.78789902  0.38736511  0.21672818  1
  Rh  Rh221  1  0.79696179  0.61231124  0.19160412  1
  Rh  Rh222  1  0.59522742  0.80038051  0.39881583  1
  Rh  Rh223  1  0.20425922  0.80354943  0.60467817  1
  Rh  Rh224  1  -0.00623042  0.38892853  0.00716535  1
  Rh  Rh225  1  0.20062425  0.40451801  0.01217751  1
  Rh  Rh226  1  0.79457779  0.19310703  0.79672384  1
  Rh  Rh227  1  0.00199367  0.20319532  0.19811479  1
  Rh  Rh228  1  0.00576815  0.59846330  0.19922548  1
  Rh  Rh229  1  0.20757694  0.40518013  0.39794228  1
  Rh  Rh230  1  0.80651343  0.80383317  0.39421029  1
  Rh  Rh231  1  -0.01322883  0.79228932  0.21024123  1
  Rh  Rh232  1  0.00309502  0.78838842  0.80127089  1
  Rh  Rh233  1  0.19119932  0.79041390  0.40125313  1
  Rh  Rh234  1  0.40802232  0.60319067  0.60374456  1
  Rh  Rh235  1  0.40652974  0.00356607  0.79556373  1
  Rh  Rh236  1  0.00415971  0.39800236  0.20416538  1
  Rh  Rh237  1  0.40279315  0.59360472  0.19624322  1
  Rh  Rh238  1  0.59181874  0.20390823  0.39840005  1
  Rh  Rh239  1  0.00820205  0.19784465  0.59685352  1
  Rh  Rh240  1  0.20312127  0.39189131  0.60329338  1
  Rh  Rh241  1  0.40241807  -0.00903828  0.58823074  1
  Rh  Rh242  1  0.80512491  0.19872278  0.39383261  1
  Rh  Rh243  1  0.40345227  -0.00113188  0.00711926  1
  Rh  Rh244  1  0.40265165  0.19518865  0.18661420  1
  Rh  Rh245  1  0.58954997  0.19800579  -0.00220862  1
  Rh  Rh246  1  0.80354507  0.20437899  0.60169590  1
  Rh  Rh247  1  0.39030184  0.38773561  0.00852915  1
  Rh  Rh248  1  0.20512993  -0.00567609  0.59309145  1
  Rh  Rh249  1  0.20131298  -0.00319619  0.79317865  1
