# generated using pymatgen
data_ZrScNbPdRh
_symmetry_space_group_name_H-M   'P 1'
_cell_length_a   16.55830058
_cell_length_b   16.56095631
_cell_length_c   16.56237413
_cell_angle_alpha   90.02261337
_cell_angle_beta   89.96634475
_cell_angle_gamma   89.95169999
_symmetry_Int_Tables_number   1
_chemical_formula_structural   ZrScNbPdRh
_chemical_formula_sum   'Zr50 Sc50 Nb50 Pd50 Rh50'
_cell_volume   4541.75289030
_cell_formula_units_Z   50
loop_
 _symmetry_equiv_pos_site_id
 _symmetry_equiv_pos_as_xyz
  1  'x, y, z'
loop_
 _atom_site_type_symbol
 _atom_site_label
 _atom_site_symmetry_multiplicity
 _atom_site_fract_x
 _atom_site_fract_y
 _atom_site_fract_z
 _atom_site_occupancy
  Zr  Zr0  1  0.90185250  0.29354752  0.50027504  1
  Zr  Zr1  1  0.48723996  0.70275959  0.69983417  1
  Zr  Zr2  1  0.29731327  0.09782253  0.69807217  1
  Zr  Zr3  1  0.90429107  0.10142703  0.29560306  1
  Zr  Zr4  1  0.89421538  0.49958450  0.30721093  1
  Zr  Zr5  1  0.50204846  0.90653346  0.69854292  1
  Zr  Zr6  1  0.91084592  0.70147154  0.69884466  1
  Zr  Zr7  1  0.50637105  0.48859094  0.90235815  1
  Zr  Zr8  1  0.09657100  0.71751376  0.29922147  1
  Zr  Zr9  1  0.50148208  0.30427176  0.29356150  1
  Zr  Zr10  1  0.10139180  0.90438319  0.90421175  1
  Zr  Zr11  1  0.70157511  0.70141550  0.49278037  1
  Zr  Zr12  1  0.09314011  0.30979701  0.69155153  1
  Zr  Zr13  1  0.90853988  0.50018457  0.70462045  1
  Zr  Zr14  1  0.89863280  0.09587621  0.90258977  1
  Zr  Zr15  1  0.89068458  0.30464551  0.89344101  1
  Zr  Zr16  1  0.30193651  0.89973443  0.50598130  1
  Zr  Zr17  1  0.10285076  0.29008217  0.89904698  1
  Zr  Zr18  1  0.10115517  0.09791323  0.50365621  1
  Zr  Zr19  1  0.89448406  0.69049703  0.89938975  1
  Zr  Zr20  1  0.30325953  0.70376203  0.50523723  1
  Zr  Zr21  1  0.69413675  0.29709270  0.88471416  1
  Zr  Zr22  1  0.69594599  0.70702524  0.10174492  1
  Zr  Zr23  1  0.09913687  0.09836758  0.09585826  1
  Zr  Zr24  1  0.88979272  0.50314153  0.08764387  1
  Zr  Zr25  1  0.09756265  0.70517376  0.50559780  1
  Zr  Zr26  1  0.70036170  0.70625171  0.90288243  1
  Zr  Zr27  1  0.50323024  0.29540664  0.90235762  1
  Zr  Zr28  1  0.30486098  0.09782111  0.10459618  1
  Zr  Zr29  1  0.10182307  0.09690260  0.89900191  1
  Zr  Zr30  1  0.69431560  0.90877302  0.49463565  1
  Zr  Zr31  1  0.70224635  0.10605917  0.50364647  1
  Zr  Zr32  1  0.10466159  0.29514285  0.10052632  1
  Zr  Zr33  1  0.48846680  0.49803797  0.09932443  1
  Zr  Zr34  1  0.89963034  0.09447102  0.09921733  1
  Zr  Zr35  1  0.10093605  0.30222047  0.49945441  1
  Zr  Zr36  1  0.30249822  0.29702525  0.90158060  1
  Zr  Zr37  1  0.10346841  0.69842331  0.88933607  1
  Zr  Zr38  1  0.09589435  0.50349294  0.09846064  1
  Zr  Zr39  1  0.49727333  0.89998228  0.30561937  1
  Zr  Zr40  1  0.30034727  0.10255829  0.30204844  1
  Zr  Zr41  1  0.89692802  0.90470851  0.09755198  1
  Zr  Zr42  1  0.09699758  0.50449025  0.70178965  1
  Zr  Zr43  1  0.89770942  0.29954777  0.30579110  1
  Zr  Zr44  1  0.30181486  0.70333298  0.88889903  1
  Zr  Zr45  1  0.50141965  0.69624050  0.09808531  1
  Zr  Zr46  1  0.90154890  0.90704894  0.50185104  1
  Zr  Zr47  1  0.50357560  0.29981324  0.10413370  1
  Zr  Zr48  1  0.30807564  0.70522474  0.09109070  1
  Zr  Zr49  1  0.30087118  0.10048882  0.50112591  1
  Sc  Sc50  1  0.89442357  0.90275118  0.89125179  1
  Sc  Sc51  1  0.50435362  0.29738044  0.71263877  1
  Sc  Sc52  1  0.90189738  0.70409504  0.50292166  1
  Sc  Sc53  1  0.50601576  0.09869668  0.50613970  1
  Sc  Sc54  1  0.89412506  0.30482273  0.69466967  1
  Sc  Sc55  1  0.30182107  0.29803337  0.70196755  1
  Sc  Sc56  1  0.28426424  0.09992579  0.90109762  1
  Sc  Sc57  1  0.30372619  0.69988834  0.31175353  1
  Sc  Sc58  1  0.50168466  0.10455874  0.69483239  1
  Sc  Sc59  1  0.89493301  0.29079124  0.09728158  1
  Sc  Sc60  1  0.69114346  0.50237150  0.30997445  1
  Sc  Sc61  1  0.09484442  0.89908938  0.69820953  1
  Sc  Sc62  1  0.10691959  0.89478139  0.50264220  1
  Sc  Sc63  1  0.10479735  0.49177495  0.50533180  1
  Sc  Sc64  1  0.70168582  0.10290444  0.29915475  1
  Sc  Sc65  1  0.70378122  0.88625140  0.30703181  1
  Sc  Sc66  1  0.49902234  0.29109928  0.48665698  1
  Sc  Sc67  1  0.29891695  0.30287056  0.49383863  1
  Sc  Sc68  1  0.30507477  0.29586467  0.30186893  1
  Sc  Sc69  1  0.69432030  0.29472667  0.09934737  1
  Sc  Sc70  1  0.30061836  0.88961575  0.30395470  1
  Sc  Sc71  1  0.30343900  0.30305976  0.10999958  1
  Sc  Sc72  1  0.69003934  0.50001630  0.09862102  1
  Sc  Sc73  1  0.31278299  0.50248144  0.90124871  1
  Sc  Sc74  1  0.10920723  0.29493283  0.30109654  1
  Sc  Sc75  1  0.09829311  0.89311617  0.10576588  1
  Sc  Sc76  1  0.30555766  0.49522570  0.30227612  1
  Sc  Sc77  1  0.69370460  0.90163015  0.88870574  1
  Sc  Sc78  1  0.89490324  0.50264821  0.50453338  1
  Sc  Sc79  1  0.10929625  0.49574201  0.30574094  1
  Sc  Sc80  1  0.69528785  0.10148960  0.89698866  1
  Sc  Sc81  1  0.71244525  0.49438438  0.90519001  1
  Sc  Sc82  1  0.70566151  0.70191953  0.70671746  1
  Sc  Sc83  1  0.90433005  0.89101964  0.29858423  1
  Sc  Sc84  1  0.49508040  0.69236268  0.50064337  1
  Sc  Sc85  1  0.29822622  0.89724372  0.91131840  1
  Sc  Sc86  1  0.50083170  0.69581445  0.30465614  1
  Sc  Sc87  1  0.89565297  0.70150652  0.09442662  1
  Sc  Sc88  1  0.48892249  0.89862553  0.09558651  1
  Sc  Sc89  1  0.49473441  0.71112442  0.90456163  1
  Sc  Sc90  1  0.49562303  0.10739261  0.29208884  1
  Sc  Sc91  1  0.30347094  0.50388936  0.70038430  1
  Sc  Sc92  1  0.70221265  0.49924035  0.69534834  1
  Sc  Sc93  1  0.30466719  0.89435530  0.69264401  1
  Sc  Sc94  1  0.50499260  0.09565623  0.10033721  1
  Sc  Sc95  1  0.49919504  0.49857700  0.30340742  1
  Sc  Sc96  1  0.69746278  0.50917931  0.49900936  1
  Sc  Sc97  1  0.29742574  0.49877142  0.49344303  1
  Sc  Sc98  1  0.50320594  0.50459273  0.69850520  1
  Sc  Sc99  1  0.70380359  0.09828505  0.09812587  1
  Nb  Nb100  1  0.69992234  0.90340779  0.70073866  1
  Nb  Nb101  1  0.30094332  0.90456217  0.10544654  1
  Nb  Nb102  1  0.70655013  0.69712678  0.30345297  1
  Nb  Nb103  1  0.89985198  0.70026227  0.30605488  1
  Nb  Nb104  1  0.10233809  0.69868725  0.69909864  1
  Nb  Nb105  1  0.89399635  0.90312163  0.69702364  1
  Nb  Nb106  1  0.49986380  0.90368043  0.50406336  1
  Nb  Nb107  1  0.09818305  0.89907913  0.30262466  1
  Nb  Nb108  1  0.09584243  0.69804735  0.09852373  1
  Nb  Nb109  1  0.69863867  0.89702259  0.10774515  1
  Nb  Nb110  1  0.09996986  0.10092931  0.70116905  1
  Nb  Nb111  1  0.69607530  0.29329759  0.69356890  1
  Nb  Nb112  1  0.50511733  0.09538695  0.90260092  1
  Nb  Nb113  1  0.29915350  0.69911432  0.70088252  1
  Nb  Nb114  1  0.69319972  0.30382384  0.29942065  1
  Nb  Nb115  1  0.90675591  0.09898536  0.49959955  1
  Nb  Nb116  1  0.49927243  0.90874235  0.89270761  1
  Nb  Nb117  1  0.69894002  0.29447777  0.50258707  1
  Nb  Nb118  1  0.90647541  0.49803557  0.90125690  1
  Nb  Nb119  1  0.09602096  0.50066308  0.89762729  1
  Nb  Nb120  1  0.29965534  0.50483303  0.09733984  1
  Nb  Nb121  1  0.49849592  0.50146217  0.50212388  1
  Nb  Nb122  1  0.69510214  0.10360408  0.69671688  1
  Nb  Nb123  1  0.10734623  0.09630684  0.29987710  1
  Nb  Nb124  1  0.91044712  0.08917526  0.68586022  1
  Nb  Nb125  1  0.19483366  0.19964797  0.60075712  1
  Nb  Nb126  1  0.60205771  0.80525521  0.60022983  1
  Nb  Nb127  1  0.00108534  0.60388953  0.39599007  1
  Nb  Nb128  1  0.79885785  0.60160635  0.20612496  1
  Nb  Nb129  1  0.19902855  0.40642023  -0.00234455  1
  Nb  Nb130  1  0.59993357  0.39159900  0.59502043  1
  Nb  Nb131  1  0.40984240  0.40138419  0.59475058  1
  Nb  Nb132  1  -0.00637781  0.40314315  0.19699143  1
  Nb  Nb133  1  0.00531734  0.00314680  0.39741322  1
  Nb  Nb134  1  -0.00327956  0.19294609  0.79187545  1
  Nb  Nb135  1  -0.00284144  0.60105521  0.20503583  1
  Nb  Nb136  1  0.19852667  0.60575405  0.19347292  1
  Nb  Nb137  1  0.19994333  0.59925318  -0.00072667  1
  Nb  Nb138  1  0.40357993  0.00103456  0.80498367  1
  Nb  Nb139  1  0.00149561  0.40121645  -0.00333885  1
  Nb  Nb140  1  0.60307983  -0.01047768  0.19957267  1
  Nb  Nb141  1  0.79574183  0.81038670  0.60405978  1
  Nb  Nb142  1  0.19572093  0.40436699  0.80628698  1
  Nb  Nb143  1  0.40496504  0.19692434  -0.00237824  1
  Nb  Nb144  1  0.59982947  0.60169441  0.80533171  1
  Nb  Nb145  1  0.40123174  -0.00137080  0.40517938  1
  Nb  Nb146  1  0.79740787  0.40122620  0.20490679  1
  Nb  Nb147  1  0.19990052  0.60690671  0.60650700  1
  Nb  Nb148  1  0.00086001  0.79647668  -0.00345763  1
  Nb  Nb149  1  0.19944252  -0.00468137  0.20470998  1
  Pd  Pd150  1  0.59513171  0.81348556  -0.00057951  1
  Pd  Pd151  1  -0.00455498  0.80324040  0.80431871  1
  Pd  Pd152  1  0.60273995  0.60621822  0.60710310  1
  Pd  Pd153  1  0.59229024  0.79234721  0.40591662  1
  Pd  Pd154  1  0.60812336  0.39457927  0.00100830  1
  Pd  Pd155  1  0.59976377  0.40071606  0.40895757  1
  Pd  Pd156  1  0.60328829  0.59741715  0.20567160  1
  Pd  Pd157  1  0.00387317  0.40617143  0.40008764  1
  Pd  Pd158  1  0.79179486  0.20111105  -0.00298006  1
  Pd  Pd159  1  0.79571345  0.59353300  0.79888143  1
  Pd  Pd160  1  0.79386731  0.00281311  0.60086310  1
  Pd  Pd161  1  0.39272670  0.60200722  0.20708908  1
  Pd  Pd162  1  0.80697444  0.19413188  0.60534814  1
  Pd  Pd163  1  0.79707356  0.19835601  0.39898475  1
  Pd  Pd164  1  0.80177643  0.80928912  -0.00595461  1
  Pd  Pd165  1  0.39751189  0.40235331  0.79183088  1
  Pd  Pd166  1  0.20688068  0.79865013  0.19842292  1
  Pd  Pd167  1  0.59549881  0.79423938  0.79335590  1
  Pd  Pd168  1  0.20294571  -0.00883489  0.39632820  1
  Pd  Pd169  1  0.78894255  0.39790429  0.40417834  1
  Pd  Pd170  1  0.59183111  0.80258102  0.20462896  1
  Pd  Pd171  1  0.00404727  0.20603228  0.20391398  1
  Pd  Pd172  1  0.00628470  -0.00361545  0.20336821  1
  Pd  Pd173  1  -0.00134971  0.00149946  0.79837537  1
  Pd  Pd174  1  0.39498398  0.00590977  -0.00762299  1
  Pd  Pd175  1  0.79379045  0.20601872  0.20128761  1
  Pd  Pd176  1  0.41000567  0.59549071  0.80541719  1
  Pd  Pd177  1  0.80720255  0.18914794  0.78682746  1
  Pd  Pd178  1  0.19515809  0.79718502  0.00426537  1
  Pd  Pd179  1  0.79394213  0.01024847  0.79441621  1
  Pd  Pd180  1  0.00812492  0.19408021  0.39527293  1
  Pd  Pd181  1  0.59337779  0.01111961  0.39044350  1
  Pd  Pd182  1  0.78727345  -0.00653519  -0.00663871  1
  Pd  Pd183  1  0.20082363  0.40653497  0.19902439  1
  Pd  Pd184  1  0.40201735  0.79540648  0.20252085  1
  Pd  Pd185  1  0.60039716  0.59851505  -0.00763936  1
  Pd  Pd186  1  0.80171074  0.61016134  0.60262953  1
  Pd  Pd187  1  0.20380491  0.81101601  0.79242141  1
  Pd  Pd188  1  0.80639082  0.79423665  0.20181357  1
  Pd  Pd189  1  0.60591002  -0.00692675  0.00733990  1
  Pd  Pd190  1  0.20839981  -0.01124373  0.79330936  1
  Pd  Pd191  1  0.19419158  0.60559773  0.40173605  1
  Pd  Pd192  1  0.80786547  0.00153270  0.39197493  1
  Pd  Pd193  1  0.79265166  -0.00515816  0.21009913  1
  Pd  Pd194  1  0.79490182  0.40572768  0.79255070  1
  Pd  Pd195  1  0.39835251  0.21030793  0.59595039  1
  Pd  Pd196  1  -0.00761836  0.20329762  -0.00730000  1
  Pd  Pd197  1  0.59896876  0.19445496  0.39372329  1
  Pd  Pd198  1  0.40169797  0.18701473  0.80806663  1
  Pd  Pd199  1  0.79434142  0.40047073  0.59380024  1
  Rh  Rh200  1  0.80602263  0.80127021  0.79279682  1
  Rh  Rh201  1  -0.00963894  0.79595521  0.18922886  1
  Rh  Rh202  1  0.40190047  0.00383772  0.60086473  1
  Rh  Rh203  1  0.59536791  0.20731228  0.59975320  1
  Rh  Rh204  1  0.21502156  0.20465217  0.01266185  1
  Rh  Rh205  1  0.78617174  0.60460683  0.00605976  1
  Rh  Rh206  1  0.59590866  0.60315893  0.39957645  1
  Rh  Rh207  1  0.18921716  0.20992293  0.78449118  1
  Rh  Rh208  1  0.19863871  -0.00523923  0.01387483  1
  Rh  Rh209  1  0.00056762  0.20091011  0.60430737  1
  Rh  Rh210  1  0.38853802  0.59193384  0.59491035  1
  Rh  Rh211  1  0.00874721  -0.00699468  0.59446341  1
  Rh  Rh212  1  0.19608114  0.00233301  0.60717246  1
  Rh  Rh213  1  0.59927138  0.19196097  0.79670336  1
  Rh  Rh214  1  0.60528040  0.19075011  0.19962143  1
  Rh  Rh215  1  -0.00209295  0.80433850  0.40755405  1
  Rh  Rh216  1  0.40187010  0.19223867  0.40075648  1
  Rh  Rh217  1  0.59655635  0.00914737  0.79278477  1
  Rh  Rh218  1  0.40104337  0.59523598  0.40202175  1
  Rh  Rh219  1  0.21540655  0.40156273  0.60991981  1
  Rh  Rh220  1  0.59751176  0.19796541  -0.00014397  1
  Rh  Rh221  1  0.40270942  0.20218694  0.19300198  1
  Rh  Rh222  1  0.39515137  0.81328057  0.80270927  1
  Rh  Rh223  1  0.40561784  0.80400145  0.40890000  1
  Rh  Rh224  1  0.80546087  0.79990813  0.40823050  1
  Rh  Rh225  1  0.00343594  0.38908704  0.80762059  1
  Rh  Rh226  1  0.40187305  0.80626346  -0.00298209  1
  Rh  Rh227  1  0.19832405  0.20405704  0.40687137  1
  Rh  Rh228  1  0.00482061  0.60572346  -0.00523031  1
  Rh  Rh229  1  0.39913661  -0.00626208  0.21157083  1
  Rh  Rh230  1  -0.00154616  0.60321471  0.80215001  1
  Rh  Rh231  1  0.39446101  0.38985479  0.00630621  1
  Rh  Rh232  1  0.60438612  0.40477935  0.20163407  1
  Rh  Rh233  1  0.39936903  0.40328268  0.20173290  1
  Rh  Rh234  1  0.19948345  0.79380956  0.60694898  1
  Rh  Rh235  1  0.80429867  0.60394514  0.40088247  1
  Rh  Rh236  1  0.20443223  0.39423572  0.39424850  1
  Rh  Rh237  1  0.40812102  0.79965453  0.59661765  1
  Rh  Rh238  1  0.20076800  0.19035344  0.19807302  1
  Rh  Rh239  1  0.20368296  0.59368403  0.79885166  1
  Rh  Rh240  1  0.20178976  0.80194514  0.40331072  1
  Rh  Rh241  1  -0.00004841  -0.00887558  0.00022646  1
  Rh  Rh242  1  0.40357180  0.40032319  0.40333191  1
  Rh  Rh243  1  -0.01162075  0.40503595  0.59127160  1
  Rh  Rh244  1  0.60640727  -0.00032266  0.60358929  1
  Rh  Rh245  1  -0.00552785  0.80823026  0.60386984  1
  Rh  Rh246  1  0.80040345  0.39044520  0.00459411  1
  Rh  Rh247  1  0.60929823  0.40849936  0.79063408  1
  Rh  Rh248  1  0.00880144  0.59485908  0.59172825  1
  Rh  Rh249  1  0.40113033  0.60280994  -0.00706107  1
