# generated using pymatgen
data_ZrScNbPdRh
_symmetry_space_group_name_H-M   'P 1'
_cell_length_a   16.55130765
_cell_length_b   16.55499499
_cell_length_c   16.55141786
_cell_angle_alpha   89.96893497
_cell_angle_beta   90.00438222
_cell_angle_gamma   90.01593037
_symmetry_Int_Tables_number   1
_chemical_formula_structural   ZrScNbPdRh
_chemical_formula_sum   'Zr50 Sc50 Nb50 Pd50 Rh50'
_cell_volume   4535.20043822
_cell_formula_units_Z   50
loop_
 _symmetry_equiv_pos_site_id
 _symmetry_equiv_pos_as_xyz
  1  'x, y, z'
loop_
 _atom_site_type_symbol
 _atom_site_label
 _atom_site_symmetry_multiplicity
 _atom_site_fract_x
 _atom_site_fract_y
 _atom_site_fract_z
 _atom_site_occupancy
  Zr  Zr0  1  0.50693470  0.10962864  0.08497257  1
  Zr  Zr1  1  0.49958194  0.29627453  0.10566170  1
  Zr  Zr2  1  0.70736771  0.09620742  0.69732310  1
  Zr  Zr3  1  0.70326415  0.89888550  0.50079578  1
  Zr  Zr4  1  0.90130081  0.71708491  0.30020716  1
  Zr  Zr5  1  0.29634648  0.90411777  0.50109526  1
  Zr  Zr6  1  0.10402747  0.89856088  0.09525058  1
  Zr  Zr7  1  0.29881174  0.70466325  0.09727182  1
  Zr  Zr8  1  0.89832387  0.70070853  0.89758371  1
  Zr  Zr9  1  0.28940792  0.90015926  0.30697595  1
  Zr  Zr10  1  0.88541167  0.29597549  0.69861495  1
  Zr  Zr11  1  0.49672807  0.69581943  0.09791277  1
  Zr  Zr12  1  0.89774683  0.29653696  0.09356720  1
  Zr  Zr13  1  0.10459454  0.29385641  0.50400451  1
  Zr  Zr14  1  0.10359965  0.29559381  0.90142452  1
  Zr  Zr15  1  0.89600893  0.69766667  0.09373936  1
  Zr  Zr16  1  0.50653825  0.49561467  0.50207213  1
  Zr  Zr17  1  0.10418202  0.49922223  0.10033006  1
  Zr  Zr18  1  0.90083438  0.50163552  0.09750303  1
  Zr  Zr19  1  0.09614885  0.89438355  0.69860891  1
  Zr  Zr20  1  0.29453048  0.70559093  0.49829392  1
  Zr  Zr21  1  0.10050581  0.49748900  0.50667601  1
  Zr  Zr22  1  0.29560346  0.09900163  0.30449226  1
  Zr  Zr23  1  0.70201544  0.70349820  0.10147835  1
  Zr  Zr24  1  0.90104961  0.09757816  0.30607886  1
  Zr  Zr25  1  0.50175829  0.50174490  0.30760000  1
  Zr  Zr26  1  0.50212954  0.89014286  0.70228560  1
  Zr  Zr27  1  0.70395641  0.09421126  0.49193725  1
  Zr  Zr28  1  0.89608587  0.29608816  0.30523003  1
  Zr  Zr29  1  0.11197788  0.50041357  0.89530033  1
  Zr  Zr30  1  0.50953510  0.49735421  0.70053010  1
  Zr  Zr31  1  0.69656112  0.49987408  0.10168291  1
  Zr  Zr32  1  0.30032145  0.30037549  0.69509038  1
  Zr  Zr33  1  0.29560633  0.50594093  0.09262275  1
  Zr  Zr34  1  0.49631482  0.69665916  0.30747126  1
  Zr  Zr35  1  0.09908256  0.09757001  0.30695274  1
  Zr  Zr36  1  0.09427122  0.69785494  0.09478714  1
  Zr  Zr37  1  0.90365382  0.49329312  0.30581444  1
  Zr  Zr38  1  0.70427965  0.89457486  0.70081521  1
  Zr  Zr39  1  0.11038641  0.30242232  0.09947466  1
  Zr  Zr40  1  0.29536186  0.70504360  0.70269457  1
  Zr  Zr41  1  0.69942561  0.50451987  0.50313318  1
  Zr  Zr42  1  0.29737218  0.49670697  0.70331024  1
  Zr  Zr43  1  0.30009337  0.89233761  0.90744543  1
  Zr  Zr44  1  0.10287574  0.49490719  0.30180029  1
  Zr  Zr45  1  0.90010883  0.09791600  0.69567520  1
  Zr  Zr46  1  0.69332900  0.49405120  0.88594168  1
  Zr  Zr47  1  0.30082947  0.70368464  0.30985704  1
  Zr  Zr48  1  0.49641124  0.30676456  0.68889077  1
  Zr  Zr49  1  0.10456450  0.71056316  0.30631305  1
  Sc  Sc50  1  0.49948274  0.29531049  0.90447837  1
  Sc  Sc51  1  0.89876630  0.50142154  0.68934642  1
  Sc  Sc52  1  0.89032952  0.49818273  0.89984583  1
  Sc  Sc53  1  0.70308544  0.89453214  0.89403887  1
  Sc  Sc54  1  0.89990697  0.89950902  0.49980920  1
  Sc  Sc55  1  0.50073606  0.50743596  0.10854667  1
  Sc  Sc56  1  0.90426869  0.70213070  0.69227040  1
  Sc  Sc57  1  0.69723921  0.49113388  0.69182445  1
  Sc  Sc58  1  0.10826266  0.29247598  0.69750214  1
  Sc  Sc59  1  0.70376210  0.10654360  0.30257864  1
  Sc  Sc60  1  0.90498898  0.88589918  0.10322023  1
  Sc  Sc61  1  0.50248434  0.89920118  0.90125153  1
  Sc  Sc62  1  0.89999845  0.90148564  0.69523982  1
  Sc  Sc63  1  0.69209075  0.71243680  0.30744028  1
  Sc  Sc64  1  0.89666469  0.48903965  0.50684935  1
  Sc  Sc65  1  0.30709445  0.29493909  0.30038450  1
  Sc  Sc66  1  0.69580768  0.70297107  0.69204958  1
  Sc  Sc67  1  0.49900740  0.91439060  0.09881401  1
  Sc  Sc68  1  0.28818083  0.10140882  0.69520204  1
  Sc  Sc69  1  0.29938197  0.10557043  0.90472099  1
  Sc  Sc70  1  0.50639587  0.08653713  0.69492343  1
  Sc  Sc71  1  0.31161266  0.10498512  0.10080884  1
  Sc  Sc72  1  0.90059366  0.89294496  0.88750836  1
  Sc  Sc73  1  0.69661585  0.29185738  0.10145081  1
  Sc  Sc74  1  0.70328378  0.90113929  0.30863037  1
  Sc  Sc75  1  0.69571247  0.29587092  0.30021006  1
  Sc  Sc76  1  0.69127683  0.09592637  0.90533000  1
  Sc  Sc77  1  0.10430902  0.50722195  0.69826626  1
  Sc  Sc78  1  0.10939932  0.29996634  0.30552964  1
  Sc  Sc79  1  0.90345239  0.10003555  0.50114438  1
  Sc  Sc80  1  0.50143482  0.90333683  0.30208485  1
  Sc  Sc81  1  0.69424577  0.10316716  0.10159101  1
  Sc  Sc82  1  0.30440518  0.70301291  0.90232144  1
  Sc  Sc83  1  0.29772775  0.09652583  0.49782542  1
  Sc  Sc84  1  0.29926512  0.89149686  0.69430085  1
  Sc  Sc85  1  0.70425192  0.30498128  0.49342672  1
  Sc  Sc86  1  0.49909010  0.10499863  0.29460679  1
  Sc  Sc87  1  0.50042776  0.30553853  0.30108734  1
  Sc  Sc88  1  0.30184876  0.50363988  0.30343196  1
  Sc  Sc89  1  0.29284135  0.30373612  0.89182844  1
  Sc  Sc90  1  0.69529496  0.90229260  0.10051481  1
  Sc  Sc91  1  0.70187431  0.70471303  0.89501015  1
  Sc  Sc92  1  0.69070490  0.48826070  0.31136148  1
  Sc  Sc93  1  0.09766964  0.90381240  0.50310087  1
  Sc  Sc94  1  0.09701772  0.09872284  0.69280320  1
  Sc  Sc95  1  0.29615549  0.50084701  0.50192962  1
  Sc  Sc96  1  0.70006336  0.70471484  0.50161829  1
  Sc  Sc97  1  0.89744210  0.11038636  0.10051625  1
  Sc  Sc98  1  0.10535884  0.10523000  0.90098853  1
  Sc  Sc99  1  0.09917690  0.69767395  0.69764150  1
  Nb  Nb100  1  0.49136295  0.29625086  0.50371109  1
  Nb  Nb101  1  0.50315097  0.09808992  0.50132570  1
  Nb  Nb102  1  0.89895514  0.69612417  0.50313116  1
  Nb  Nb103  1  0.50005892  0.50601553  0.90213979  1
  Nb  Nb104  1  0.30267319  0.50023364  0.89411138  1
  Nb  Nb105  1  0.49583951  0.70169455  0.70294121  1
  Nb  Nb106  1  0.29891672  0.89866801  0.09997526  1
  Nb  Nb107  1  0.09462482  0.70342875  0.88580626  1
  Nb  Nb108  1  0.10249542  0.09969548  0.50384885  1
  Nb  Nb109  1  0.90196506  0.29833267  0.50286647  1
  Nb  Nb110  1  0.49787698  0.69186074  0.49995882  1
  Nb  Nb111  1  0.09818407  0.10376437  0.09890047  1
  Nb  Nb112  1  0.30771065  0.29645439  0.50863506  1
  Nb  Nb113  1  0.49833537  0.10189679  0.89972001  1
  Nb  Nb114  1  0.70458013  0.30618221  0.88902490  1
  Nb  Nb115  1  0.91056416  0.90498907  0.30134278  1
  Nb  Nb116  1  0.89597244  0.29951139  0.89914337  1
  Nb  Nb117  1  0.08811593  0.90411608  0.29788099  1
  Nb  Nb118  1  0.90487761  0.10474124  0.90597992  1
  Nb  Nb119  1  0.30899704  0.30404597  0.09680304  1
  Nb  Nb120  1  0.69504799  0.29887925  0.70522335  1
  Nb  Nb121  1  0.49755159  0.91122087  0.50760098  1
  Nb  Nb122  1  0.09649251  0.69757416  0.50721947  1
  Nb  Nb123  1  0.49802213  0.70052557  0.89981884  1
  Nb  Nb124  1  0.10016548  0.89990936  0.89500191  1
  Nb  Nb125  1  0.79753307  0.59957954  0.79313473  1
  Nb  Nb126  1  0.59648253  0.40191532  -0.00404505  1
  Nb  Nb127  1  0.20106215  -0.00725088  0.80427504  1
  Nb  Nb128  1  0.40728519  0.19265928  0.79607971  1
  Nb  Nb129  1  0.80697626  0.60378037  0.39911813  1
  Nb  Nb130  1  -0.00217046  0.60298962  0.40314684  1
  Nb  Nb131  1  0.40012239  0.40601552  -0.00238369  1
  Nb  Nb132  1  0.80251661  0.59735186  0.21128098  1
  Nb  Nb133  1  0.39614335  0.00117757  0.80186354  1
  Nb  Nb134  1  0.40581566  0.59970460  0.80071476  1
  Nb  Nb135  1  -0.00848623  0.20304478  0.80368984  1
  Nb  Nb136  1  0.00092965  0.39625454  -0.00635509  1
  Nb  Nb137  1  -0.00195857  0.60254541  0.20795217  1
  Nb  Nb138  1  0.39431737  0.80427493  0.19868812  1
  Nb  Nb139  1  0.80873469  -0.00109853  0.20072064  1
  Nb  Nb140  1  0.59898295  0.19918032  0.59632036  1
  Nb  Nb141  1  0.59938809  0.20126002  0.79378253  1
  Nb  Nb142  1  0.40470064  0.60381874  0.60554539  1
  Nb  Nb143  1  0.59541902  0.79404105  0.00084736  1
  Nb  Nb144  1  -0.00051485  0.00296765  -0.00275226  1
  Nb  Nb145  1  0.19518766  -0.00106351  0.19557983  1
  Nb  Nb146  1  -0.00375805  0.39255590  0.80316941  1
  Nb  Nb147  1  0.80950347  -0.00035060  0.00175474  1
  Nb  Nb148  1  0.80116100  0.40201224  0.19986528  1
  Nb  Nb149  1  0.00587990  0.20002929  0.19905868  1
  Pd  Pd150  1  0.58862779  0.80591001  0.41179847  1
  Pd  Pd151  1  0.00311795  0.39729877  0.40838636  1
  Pd  Pd152  1  0.59659091  0.00011799  0.80399035  1
  Pd  Pd153  1  0.58788792  0.80546959  0.19395257  1
  Pd  Pd154  1  0.59694812  0.00061160  0.39426242  1
  Pd  Pd155  1  -0.00230612  0.00609493  0.18738084  1
  Pd  Pd156  1  -0.00292533  0.39352503  0.19364924  1
  Pd  Pd157  1  0.39925472  -0.00016492  -0.00546303  1
  Pd  Pd158  1  0.40793699  0.80890712  0.40252100  1
  Pd  Pd159  1  -0.00086635  0.80637655  -0.00857403  1
  Pd  Pd160  1  0.79549231  0.18945999  0.80957197  1
  Pd  Pd161  1  0.00355047  0.59180551  -0.00793112  1
  Pd  Pd162  1  0.00665977  0.00853564  0.80441024  1
  Pd  Pd163  1  0.40075674  0.19610611  0.39916507  1
  Pd  Pd164  1  0.40430034  0.79681574  0.59118858  1
  Pd  Pd165  1  0.00223995  0.20123863  0.39985003  1
  Pd  Pd166  1  0.79135304  0.20196168  0.58986784  1
  Pd  Pd167  1  0.19743568  0.60401530  0.20603413  1
  Pd  Pd168  1  0.39296437  0.00371345  0.60916526  1
  Pd  Pd169  1  0.21056227  0.20026663  0.00523526  1
  Pd  Pd170  1  0.59481360  0.79769816  0.59334073  1
  Pd  Pd171  1  0.60687011  0.60091207  -0.00361418  1
  Pd  Pd172  1  0.78882510  0.59878267  -0.00979095  1
  Pd  Pd173  1  0.19419601  0.59856088  0.40479310  1
  Pd  Pd174  1  0.40728707  0.39699789  0.80694007  1
  Pd  Pd175  1  0.78820479  0.19493273  -0.00602593  1
  Pd  Pd176  1  0.19191350  0.78995725  -0.00901207  1
  Pd  Pd177  1  0.39334674  0.60472013  0.20401089  1
  Pd  Pd178  1  0.59477523  0.20388022  0.40481382  1
  Pd  Pd179  1  0.19869393  0.00646348  0.00055283  1
  Pd  Pd180  1  0.00409218  0.39157357  0.61205562  1
  Pd  Pd181  1  0.39722461  0.40655562  0.19634486  1
  Pd  Pd182  1  0.39603599  0.40187523  0.40531415  1
  Pd  Pd183  1  -0.00906364  0.59071527  0.79712997  1
  Pd  Pd184  1  0.40363716  0.18381878  0.60686838  1
  Pd  Pd185  1  0.21361201  0.39804320  0.20538951  1
  Pd  Pd186  1  0.19965926  0.80396815  0.20009908  1
  Pd  Pd187  1  0.21177425  0.39160922  0.40489863  1
  Pd  Pd188  1  0.79281363  0.39719517  0.00383173  1
  Pd  Pd189  1  0.60950673  0.00576836  0.20634264  1
  Pd  Pd190  1  0.40633381  0.00219228  0.39902512  1
  Pd  Pd191  1  0.39270881  -0.00231432  0.20242965  1
  Pd  Pd192  1  0.20004641  0.60973250  -0.01129762  1
  Pd  Pd193  1  0.60278350  0.60849135  0.79436550  1
  Pd  Pd194  1  0.79571900  0.80751469  0.20354960  1
  Pd  Pd195  1  0.80283813  0.00410065  0.80936195  1
  Pd  Pd196  1  0.20197170  0.19518201  0.19818584  1
  Pd  Pd197  1  0.61027299  0.60142187  0.21370678  1
  Pd  Pd198  1  0.60697149  -0.00032650  0.59908772  1
  Pd  Pd199  1  0.00204273  0.80088777  0.41260166  1
  Rh  Rh200  1  0.19323066  0.79967053  0.59561559  1
  Rh  Rh201  1  0.60779939  0.21066285  -0.01187969  1
  Rh  Rh202  1  0.20663788  0.39982543  -0.00225439  1
  Rh  Rh203  1  0.80499530  0.20011020  0.20522222  1
  Rh  Rh204  1  0.39323798  0.21165412  -0.00957301  1
  Rh  Rh205  1  0.40165112  0.19903822  0.20182365  1
  Rh  Rh206  1  -0.00170017  0.79777759  0.79415135  1
  Rh  Rh207  1  0.40192377  0.80085870  0.80352447  1
  Rh  Rh208  1  0.59780728  0.79689812  0.80577892  1
  Rh  Rh209  1  0.20703966  0.20283566  0.40821903  1
  Rh  Rh210  1  0.60814394  -0.01055440  -0.00631913  1
  Rh  Rh211  1  0.60484460  0.39630199  0.19391020  1
  Rh  Rh212  1  0.19671974  0.80174882  0.80287100  1
  Rh  Rh213  1  0.80169310  -0.00423182  0.59636143  1
  Rh  Rh214  1  0.20606850  0.60417185  0.60161738  1
  Rh  Rh215  1  0.20376999  0.19588711  0.59296408  1
  Rh  Rh216  1  -0.00029061  0.79948281  0.59846684  1
  Rh  Rh217  1  0.80456645  0.80078182  0.40333022  1
  Rh  Rh218  1  -0.00042858  0.59921837  0.59389910  1
  Rh  Rh219  1  0.80232045  0.20228857  0.40593904  1
  Rh  Rh220  1  0.80604525  -0.00447660  0.39529353  1
  Rh  Rh221  1  0.39479936  0.41138668  0.59282944  1
  Rh  Rh222  1  0.79693070  0.60208974  0.59861210  1
  Rh  Rh223  1  0.19213991  0.39969734  0.79206154  1
  Rh  Rh224  1  0.00208629  0.00069187  0.41084078  1
  Rh  Rh225  1  0.80068739  0.40000354  0.39835846  1
  Rh  Rh226  1  0.18955974  -0.00310331  0.39910190  1
  Rh  Rh227  1  0.39870861  0.59374729  0.41124431  1
  Rh  Rh228  1  0.59581622  0.60682084  0.60027950  1
  Rh  Rh229  1  0.79512997  0.39365360  0.59972614  1
  Rh  Rh230  1  0.80364872  0.78976410  0.78877725  1
  Rh  Rh231  1  0.41068106  0.80601291  0.01004036  1
  Rh  Rh232  1  0.00329284  0.20300485  0.00109878  1
  Rh  Rh233  1  0.19930186  0.19167454  0.79585102  1
  Rh  Rh234  1  0.79079533  0.80972184  0.00154556  1
  Rh  Rh235  1  0.20129724  0.39738725  0.60023889  1
  Rh  Rh236  1  0.58968461  0.38880327  0.80625642  1
  Rh  Rh237  1  0.59342107  0.39097590  0.40628340  1
  Rh  Rh238  1  0.19754795  -0.00283604  0.60518589  1
  Rh  Rh239  1  -0.00062697  0.00172758  0.59631432  1
  Rh  Rh240  1  0.60617154  0.38716857  0.59081581  1
  Rh  Rh241  1  0.00642792  0.79522878  0.19666792  1
  Rh  Rh242  1  0.18881700  0.80871350  0.40847817  1
  Rh  Rh243  1  0.20669202  0.60789306  0.80321536  1
  Rh  Rh244  1  0.39626507  0.59448772  -0.00737767  1
  Rh  Rh245  1  -0.00148650  0.20212654  0.60370165  1
  Rh  Rh246  1  0.80316256  0.80062860  0.59869009  1
  Rh  Rh247  1  0.80755772  0.40926689  0.78915544  1
  Rh  Rh248  1  0.59601052  0.19811298  0.20357761  1
  Rh  Rh249  1  0.60848102  0.60426454  0.40074833  1
