# generated using pymatgen
data_ZrScNbPdRh
_symmetry_space_group_name_H-M   'P 1'
_cell_length_a   16.56399581
_cell_length_b   16.56217789
_cell_length_c   16.55651156
_cell_angle_alpha   89.98774241
_cell_angle_beta   90.03358392
_cell_angle_gamma   89.96302852
_symmetry_Int_Tables_number   1
_chemical_formula_structural   ZrScNbPdRh
_chemical_formula_sum   'Zr50 Sc50 Nb50 Pd50 Rh50'
_cell_volume   4542.04276145
_cell_formula_units_Z   50
loop_
 _symmetry_equiv_pos_site_id
 _symmetry_equiv_pos_as_xyz
  1  'x, y, z'
loop_
 _atom_site_type_symbol
 _atom_site_label
 _atom_site_symmetry_multiplicity
 _atom_site_fract_x
 _atom_site_fract_y
 _atom_site_fract_z
 _atom_site_occupancy
  Zr  Zr0  1  0.29488237  0.69782735  0.50316325  1
  Zr  Zr1  1  0.90020566  0.09229665  0.30044491  1
  Zr  Zr2  1  0.10498280  0.70437608  0.29187990  1
  Zr  Zr3  1  0.10294554  0.50008893  0.10983259  1
  Zr  Zr4  1  0.30098358  0.70269619  0.69520654  1
  Zr  Zr5  1  0.70222774  0.89479477  0.90922305  1
  Zr  Zr6  1  0.69437709  0.50334222  0.89870298  1
  Zr  Zr7  1  0.90379148  0.50000971  0.10024950  1
  Zr  Zr8  1  0.89124937  0.91227993  0.70541547  1
  Zr  Zr9  1  0.50184216  0.30365005  0.69076608  1
  Zr  Zr10  1  0.50708992  0.90080011  0.69034774  1
  Zr  Zr11  1  0.70592403  0.70315802  0.49860089  1
  Zr  Zr12  1  0.09926301  0.29874238  0.50150652  1
  Zr  Zr13  1  0.69216562  0.30603598  0.48988715  1
  Zr  Zr14  1  0.09637017  0.09395109  0.30749383  1
  Zr  Zr15  1  0.50413866  0.29449790  0.50081896  1
  Zr  Zr16  1  0.50003941  0.30096553  0.29540509  1
  Zr  Zr17  1  0.69591634  0.10535727  0.10732545  1
  Zr  Zr18  1  0.09974673  0.49123247  0.70633996  1
  Zr  Zr19  1  0.09230468  0.70274967  0.09449464  1
  Zr  Zr20  1  0.09987912  0.48961492  0.50316522  1
  Zr  Zr21  1  0.90620386  0.69082623  0.90845407  1
  Zr  Zr22  1  0.69736747  0.69517926  0.70142659  1
  Zr  Zr23  1  0.49536332  0.69440790  0.69702564  1
  Zr  Zr24  1  0.69522321  0.90182402  0.31056356  1
  Zr  Zr25  1  0.90050049  0.09673843  0.89213321  1
  Zr  Zr26  1  0.29061678  0.89978378  0.70014465  1
  Zr  Zr27  1  0.49781542  0.09852239  0.10534420  1
  Zr  Zr28  1  0.30257789  0.49132455  0.09644765  1
  Zr  Zr29  1  0.89602448  0.70251348  0.30226078  1
  Zr  Zr30  1  0.29706448  0.09713747  0.70049894  1
  Zr  Zr31  1  0.49133748  0.70352727  0.49429198  1
  Zr  Zr32  1  0.30546826  0.49088255  0.89978498  1
  Zr  Zr33  1  0.29469788  0.09834565  0.49862350  1
  Zr  Zr34  1  0.70026950  0.90039296  0.50819606  1
  Zr  Zr35  1  0.50331906  0.10779299  0.68719846  1
  Zr  Zr36  1  0.69562934  0.49361355  0.10577521  1
  Zr  Zr37  1  0.30025544  0.29861723  0.10720198  1
  Zr  Zr38  1  0.29980140  0.30438368  0.49598756  1
  Zr  Zr39  1  0.89308752  0.30415138  0.10141484  1
  Zr  Zr40  1  0.69587843  0.30721299  0.91167115  1
  Zr  Zr41  1  0.89727037  0.69549336  0.09801427  1
  Zr  Zr42  1  0.30384321  0.50708839  0.69993281  1
  Zr  Zr43  1  0.30267167  0.70539467  0.30722625  1
  Zr  Zr44  1  0.51028089  0.90015067  0.49136757  1
  Zr  Zr45  1  0.89517648  0.49548882  0.90233571  1
  Zr  Zr46  1  0.49910759  0.50470333  0.70766682  1
  Zr  Zr47  1  0.09247190  0.09547592  0.49837847  1
  Zr  Zr48  1  0.89697400  0.30051986  0.29976959  1
  Zr  Zr49  1  0.10016179  0.70377933  0.69619256  1
  Sc  Sc50  1  0.30293805  0.69966632  0.11112267  1
  Sc  Sc51  1  0.91069641  0.30167757  0.49671775  1
  Sc  Sc52  1  0.69716593  0.30416276  0.29248564  1
  Sc  Sc53  1  0.90612032  0.09857989  0.69497564  1
  Sc  Sc54  1  0.90031346  0.50176857  0.70550889  1
  Sc  Sc55  1  0.49970122  0.49443528  0.90652826  1
  Sc  Sc56  1  0.08808824  0.49408893  0.89942281  1
  Sc  Sc57  1  0.30191058  0.30396576  0.91096393  1
  Sc  Sc58  1  0.30096279  0.30668052  0.71011036  1
  Sc  Sc59  1  0.30582018  0.49183002  0.29275076  1
  Sc  Sc60  1  0.69864687  0.09807216  0.49934643  1
  Sc  Sc61  1  0.30062587  0.10740126  0.10103439  1
  Sc  Sc62  1  0.70473200  0.10369981  0.90264395  1
  Sc  Sc63  1  0.28792320  0.89619579  0.29895768  1
  Sc  Sc64  1  0.28753786  0.09794200  0.28942307  1
  Sc  Sc65  1  0.09975640  0.89830035  0.49512087  1
  Sc  Sc66  1  0.29223279  0.89215378  0.49366271  1
  Sc  Sc67  1  0.70018625  0.10070882  0.29778028  1
  Sc  Sc68  1  0.90366253  0.89943093  0.90234041  1
  Sc  Sc69  1  0.50733360  0.90660119  0.91360954  1
  Sc  Sc70  1  0.90545839  0.89699702  0.10536016  1
  Sc  Sc71  1  0.50820052  0.49910269  0.49249330  1
  Sc  Sc72  1  0.89479113  0.10651816  0.10522701  1
  Sc  Sc73  1  0.11083631  0.10604632  0.10298435  1
  Sc  Sc74  1  0.50271576  0.29562266  0.09790901  1
  Sc  Sc75  1  0.10777205  0.30235025  0.09345494  1
  Sc  Sc76  1  0.89921444  0.49521014  0.28840335  1
  Sc  Sc77  1  0.51044650  0.10587165  0.49753145  1
  Sc  Sc78  1  0.49405698  0.70165900  0.29972789  1
  Sc  Sc79  1  0.10846270  0.30184305  0.30482322  1
  Sc  Sc80  1  0.69347011  0.69597151  0.29717939  1
  Sc  Sc81  1  0.29256030  0.90558979  0.89931831  1
  Sc  Sc82  1  0.71736767  0.09461853  0.69458754  1
  Sc  Sc83  1  0.69428649  0.50204503  0.69812874  1
  Sc  Sc84  1  0.10220970  0.90804728  0.69649337  1
  Sc  Sc85  1  0.50466777  0.50307553  0.29279594  1
  Sc  Sc86  1  0.69692843  0.30239800  0.69355451  1
  Sc  Sc87  1  0.10779773  0.89200524  0.90386225  1
  Sc  Sc88  1  0.10268347  0.10877283  0.89516707  1
  Sc  Sc89  1  0.29381778  0.71279743  0.89734389  1
  Sc  Sc90  1  0.50782683  0.68960237  0.90609548  1
  Sc  Sc91  1  0.89578582  0.89138729  0.49267161  1
  Sc  Sc92  1  0.50224579  0.69680216  0.10793453  1
  Sc  Sc93  1  0.29462730  0.90909082  0.10464984  1
  Sc  Sc94  1  0.89618319  0.29372179  0.69969868  1
  Sc  Sc95  1  0.90046497  0.29783222  0.90457205  1
  Sc  Sc96  1  0.90127988  0.69168447  0.69097174  1
  Sc  Sc97  1  0.51047162  0.09833488  0.29215408  1
  Sc  Sc98  1  0.49950046  0.10374553  0.91738004  1
  Sc  Sc99  1  0.29788451  0.10225614  0.90885740  1
  Nb  Nb100  1  0.09759011  0.69884755  0.89934626  1
  Nb  Nb101  1  0.69444247  0.89160891  0.09708296  1
  Nb  Nb102  1  0.09409179  0.90261046  0.29347775  1
  Nb  Nb103  1  0.90370697  0.69504667  0.49601993  1
  Nb  Nb104  1  0.10648755  0.30233828  0.89306135  1
  Nb  Nb105  1  0.10476244  0.09949213  0.69776661  1
  Nb  Nb106  1  0.70186529  0.90060612  0.70311090  1
  Nb  Nb107  1  0.70274473  0.71175294  0.08938238  1
  Nb  Nb108  1  0.10375905  0.29599282  0.70820747  1
  Nb  Nb109  1  0.29876765  0.50150769  0.50350020  1
  Nb  Nb110  1  0.49302419  0.50058687  0.10077937  1
  Nb  Nb111  1  0.90096998  0.49917619  0.49668258  1
  Nb  Nb112  1  0.30671442  0.29620748  0.29548854  1
  Nb  Nb113  1  0.70228744  0.49630116  0.49036047  1
  Nb  Nb114  1  0.09807095  0.89777650  0.10296869  1
  Nb  Nb115  1  0.70383456  0.70531534  0.90793263  1
  Nb  Nb116  1  0.10115076  0.50850997  0.29889736  1
  Nb  Nb117  1  0.90377032  0.10302332  0.49611636  1
  Nb  Nb118  1  0.50003052  0.29923218  0.89953685  1
  Nb  Nb119  1  0.09467926  0.69982351  0.49873276  1
  Nb  Nb120  1  0.50641651  0.90253688  0.10507466  1
  Nb  Nb121  1  0.70074004  0.49228919  0.30672744  1
  Nb  Nb122  1  0.69927882  0.29895811  0.10054125  1
  Nb  Nb123  1  0.49981852  0.90155010  0.29977582  1
  Nb  Nb124  1  0.89772055  0.90072455  0.29909019  1
  Nb  Nb125  1  0.40150570  0.00192169  0.39779453  1
  Nb  Nb126  1  0.40418757  0.80579809  0.00270646  1
  Nb  Nb127  1  0.19574341  0.59618331  0.40283589  1
  Nb  Nb128  1  0.79438791  0.80331765  0.19831524  1
  Nb  Nb129  1  0.39720165  0.19690990  0.39387629  1
  Nb  Nb130  1  -0.00297201  0.79641320  0.79974261  1
  Nb  Nb131  1  0.80228573  -0.00294246  0.00684480  1
  Nb  Nb132  1  0.40837145  0.00228594  0.79621025  1
  Nb  Nb133  1  0.59662672  0.19823943  0.80149141  1
  Nb  Nb134  1  0.79921667  0.79539558  0.80307658  1
  Nb  Nb135  1  0.60035432  0.00134330  0.79786201  1
  Nb  Nb136  1  0.39841534  0.40615958  0.59651279  1
  Nb  Nb137  1  0.41041755  0.80878998  0.80333162  1
  Nb  Nb138  1  0.19345584  0.20103435  0.60614643  1
  Nb  Nb139  1  0.40782513  0.19881240  0.80208566  1
  Nb  Nb140  1  0.19755941  0.59940788  -0.00435856  1
  Nb  Nb141  1  0.19625803  0.60107614  0.80490097  1
  Nb  Nb142  1  0.80470493  0.20006582  0.40054720  1
  Nb  Nb143  1  0.80020739  0.40690082  0.58788320  1
  Nb  Nb144  1  0.40011605  -0.00026682  0.59470364  1
  Nb  Nb145  1  0.00147045  0.00213106  0.00428336  1
  Nb  Nb146  1  0.00152321  0.59987769  0.40189158  1
  Nb  Nb147  1  0.80436070  0.59342990  0.40353814  1
  Nb  Nb148  1  0.00059617  0.20153987  0.20330674  1
  Nb  Nb149  1  0.60327772  0.80198870  0.80172559  1
  Pd  Pd150  1  0.39293356  0.59110421  0.39733459  1
  Pd  Pd151  1  0.79835176  0.59211022  0.59459302  1
  Pd  Pd152  1  0.00457735  0.20100014  0.60678759  1
  Pd  Pd153  1  0.20998680  0.59856256  0.20041292  1
  Pd  Pd154  1  0.21092222  0.20069796  0.80268023  1
  Pd  Pd155  1  0.20319312  0.19965664  0.40010033  1
  Pd  Pd156  1  0.60150664  0.80031680  0.20507632  1
  Pd  Pd157  1  0.38984333  0.61103665  -0.00139793  1
  Pd  Pd158  1  -0.00935916  0.39631217  0.61041253  1
  Pd  Pd159  1  -0.00713420  0.79753317  0.20121858  1
  Pd  Pd160  1  0.39650180  0.81028212  0.59757753  1
  Pd  Pd161  1  0.00486215  0.19606162  0.00563649  1
  Pd  Pd162  1  0.59719182  0.59816652  0.59131980  1
  Pd  Pd163  1  0.59913385  0.39546232  0.79961341  1
  Pd  Pd164  1  0.00453864  0.39581083  0.00141816  1
  Pd  Pd165  1  0.79180463  0.60280568  0.20367854  1
  Pd  Pd166  1  0.01002240  0.38999825  0.20317610  1
  Pd  Pd167  1  0.79686832  0.39629234  0.79191331  1
  Pd  Pd168  1  0.79969518  0.60364549  0.80220408  1
  Pd  Pd169  1  0.39985373  0.80908033  0.19619161  1
  Pd  Pd170  1  0.01408898  -0.00713216  0.80933343  1
  Pd  Pd171  1  0.40528850  0.39997786  0.40235728  1
  Pd  Pd172  1  0.19148945  0.00494055  0.00074707  1
  Pd  Pd173  1  0.20656267  0.39240269  0.60748928  1
  Pd  Pd174  1  0.60203944  0.79209007  0.60107735  1
  Pd  Pd175  1  0.60296814  0.59919891  0.00889932  1
  Pd  Pd176  1  0.00063164  0.40660097  0.38929179  1
  Pd  Pd177  1  0.80105093  0.00500899  0.40676436  1
  Pd  Pd178  1  0.00449782  0.59263209  0.59816096  1
  Pd  Pd179  1  0.79115093  0.20695734  0.80238499  1
  Pd  Pd180  1  -0.00914052  0.38841431  0.79887457  1
  Pd  Pd181  1  0.80854285  0.80012007  0.60713157  1
  Pd  Pd182  1  0.18996915  0.59758029  0.60102215  1
  Pd  Pd183  1  0.20398082  0.40705979  0.39047932  1
  Pd  Pd184  1  0.00383750  0.80064951  0.39581908  1
  Pd  Pd185  1  0.60350208  0.60406882  0.39903682  1
  Pd  Pd186  1  0.79275526  -0.01092392  0.19404455  1
  Pd  Pd187  1  -0.00648438  0.80872204  0.60613695  1
  Pd  Pd188  1  0.20780357  0.79483926  0.01115234  1
  Pd  Pd189  1  0.80165091  0.19589338  -0.00066466  1
  Pd  Pd190  1  0.60958129  0.00773538  0.00150684  1
  Pd  Pd191  1  0.79141365  0.59186783  0.00451242  1
  Pd  Pd192  1  0.60398528  0.60066823  0.19629229  1
  Pd  Pd193  1  0.39453910  -0.00501790  0.00002164  1
  Pd  Pd194  1  0.00486511  0.00796119  0.19112655  1
  Pd  Pd195  1  0.39610426  -0.00124851  0.20841499  1
  Pd  Pd196  1  0.79925383  0.20893384  0.58675455  1
  Pd  Pd197  1  0.39336346  0.61118199  0.81504010  1
  Pd  Pd198  1  -0.00171621  0.20150354  0.79713327  1
  Pd  Pd199  1  -0.00639555  -0.00752458  0.59224718  1
  Rh  Rh200  1  0.61778476  0.19496667  0.60542176  1
  Rh  Rh201  1  0.19311564  0.20561405  0.20276920  1
  Rh  Rh202  1  0.59632387  0.00588725  0.39708072  1
  Rh  Rh203  1  0.40971443  0.59043491  0.58754951  1
  Rh  Rh204  1  0.60139404  0.20569728  0.19882723  1
  Rh  Rh205  1  0.19882515  0.00362001  0.80614585  1
  Rh  Rh206  1  -0.00618611  -0.01167611  0.40202846  1
  Rh  Rh207  1  0.79055321  -0.00455319  0.81222269  1
  Rh  Rh208  1  0.19268745  -0.00310952  0.19871744  1
  Rh  Rh209  1  0.80094267  0.20485848  0.20684957  1
  Rh  Rh210  1  0.40881243  0.39340139  0.00727439  1
  Rh  Rh211  1  0.40660649  0.39832242  0.19445985  1
  Rh  Rh212  1  0.19956104  0.20661524  -0.00349282  1
  Rh  Rh213  1  0.60547033  -0.00635423  0.19912994  1
  Rh  Rh214  1  0.20022559  0.40537156  0.80589115  1
  Rh  Rh215  1  0.19258441  0.40620070  -0.00631682  1
  Rh  Rh216  1  0.40111807  0.81201448  0.39669937  1
  Rh  Rh217  1  0.60134644  0.20086389  0.00001251  1
  Rh  Rh218  1  0.39884310  0.20397305  0.00025938  1
  Rh  Rh219  1  0.81359142  0.80678975  0.00342865  1
  Rh  Rh220  1  0.19573544  0.79608170  0.79456563  1
  Rh  Rh221  1  0.18985558  0.79437511  0.40026727  1
  Rh  Rh222  1  0.40189445  0.19475225  0.20426997  1
  Rh  Rh223  1  0.19428023  0.80211869  0.59542580  1
  Rh  Rh224  1  0.39919471  0.59607474  0.20183181  1
  Rh  Rh225  1  0.59900263  0.79274660  0.39584502  1
  Rh  Rh226  1  -0.00113398  0.80852836  -0.00537570  1
  Rh  Rh227  1  0.79738850  0.40436096  0.00328392  1
  Rh  Rh228  1  0.79431922  0.39994494  0.19784739  1
  Rh  Rh229  1  0.38328765  0.20405379  0.59526447  1
  Rh  Rh230  1  0.00503016  0.60602101  0.79691088  1
  Rh  Rh231  1  0.60294511  0.60428969  0.80646386  1
  Rh  Rh232  1  0.59626816  0.40102738  0.19622510  1
  Rh  Rh233  1  -0.00311283  0.60394457  0.20327712  1
  Rh  Rh234  1  0.59351716  0.40173314  0.00720302  1
  Rh  Rh235  1  0.19923032  -0.00710675  0.39604851  1
  Rh  Rh236  1  0.20037658  0.00252936  0.59343457  1
  Rh  Rh237  1  0.19848581  0.80434679  0.19467284  1
  Rh  Rh238  1  0.58533407  0.79283959  0.00149690  1
  Rh  Rh239  1  0.60488701  0.00575655  0.60299627  1
  Rh  Rh240  1  0.79605990  0.79487260  0.39338513  1
  Rh  Rh241  1  0.40767274  0.39249646  0.79581659  1
  Rh  Rh242  1  0.80364339  0.39771571  0.40042340  1
  Rh  Rh243  1  0.59972996  0.41038580  0.59872535  1
  Rh  Rh244  1  0.00853605  0.58976011  0.00376789  1
  Rh  Rh245  1  0.59275985  0.40038333  0.39073654  1
  Rh  Rh246  1  -0.00574888  0.19904004  0.39165303  1
  Rh  Rh247  1  0.19961454  0.39741256  0.20619485  1
  Rh  Rh248  1  0.80680739  -0.00043097  0.58984689  1
  Rh  Rh249  1  0.60337461  0.20018115  0.39165097  1
