# generated using pymatgen
data_ZrScNbPdRh
_symmetry_space_group_name_H-M   'P 1'
_cell_length_a   16.56362404
_cell_length_b   16.55935327
_cell_length_c   16.56079735
_cell_angle_alpha   89.98404678
_cell_angle_beta   89.95199729
_cell_angle_gamma   90.01423045
_symmetry_Int_Tables_number   1
_chemical_formula_structural   ZrScNbPdRh
_chemical_formula_sum   'Zr50 Sc50 Nb50 Pd50 Rh50'
_cell_volume   4542.34164680
_cell_formula_units_Z   50
loop_
 _symmetry_equiv_pos_site_id
 _symmetry_equiv_pos_as_xyz
  1  'x, y, z'
loop_
 _atom_site_type_symbol
 _atom_site_label
 _atom_site_symmetry_multiplicity
 _atom_site_fract_x
 _atom_site_fract_y
 _atom_site_fract_z
 _atom_site_occupancy
  Zr  Zr0  1  0.30788103  0.29218010  0.69804408  1
  Zr  Zr1  1  0.70082505  0.51842917  0.89958391  1
  Zr  Zr2  1  0.09605655  0.50128503  0.30246840  1
  Zr  Zr3  1  0.70153222  0.10933552  0.70252416  1
  Zr  Zr4  1  0.50031489  0.10309386  0.70528776  1
  Zr  Zr5  1  0.70004775  0.90399916  0.49817370  1
  Zr  Zr6  1  0.49827977  0.89992452  0.50159494  1
  Zr  Zr7  1  0.30741569  0.90486601  0.50150313  1
  Zr  Zr8  1  0.49601658  0.71035776  0.09790232  1
  Zr  Zr9  1  0.89469553  0.69497731  0.90397730  1
  Zr  Zr10  1  0.89589095  0.71420130  0.10093331  1
  Zr  Zr11  1  0.49721167  0.50237517  0.69923599  1
  Zr  Zr12  1  0.09625693  0.09632995  0.09759563  1
  Zr  Zr13  1  0.90093798  0.09687920  0.10034730  1
  Zr  Zr14  1  0.49871698  0.70292193  0.70435300  1
  Zr  Zr15  1  0.70310024  0.29473160  0.50927089  1
  Zr  Zr16  1  0.29891228  0.29483018  0.09456951  1
  Zr  Zr17  1  0.30232259  0.29021630  0.29646071  1
  Zr  Zr18  1  0.90060575  0.29866389  0.49522991  1
  Zr  Zr19  1  0.09808491  0.90602717  0.89294000  1
  Zr  Zr20  1  0.90100030  0.09500995  0.30977624  1
  Zr  Zr21  1  0.70852650  0.10382368  0.49151110  1
  Zr  Zr22  1  0.69047645  0.29737033  0.30533459  1
  Zr  Zr23  1  0.50404579  0.29890213  0.49877528  1
  Zr  Zr24  1  0.90554224  0.89947320  0.70030336  1
  Zr  Zr25  1  0.69992582  0.90124623  0.69955152  1
  Zr  Zr26  1  0.89767786  0.50486557  0.69582422  1
  Zr  Zr27  1  0.50570873  0.49664887  0.30223040  1
  Zr  Zr28  1  0.09239010  0.30741587  0.30450765  1
  Zr  Zr29  1  0.48992329  0.49179369  0.50075876  1
  Zr  Zr30  1  0.69866295  0.29511352  0.10087386  1
  Zr  Zr31  1  0.90593293  0.50222922  0.89369156  1
  Zr  Zr32  1  0.89467389  0.29843341  0.09981407  1
  Zr  Zr33  1  0.50426038  0.09869216  0.09438837  1
  Zr  Zr34  1  0.30848795  0.71030919  0.90278997  1
  Zr  Zr35  1  0.49947218  0.30463076  0.30446595  1
  Zr  Zr36  1  0.49625443  0.09487458  0.90304514  1
  Zr  Zr37  1  0.09688135  0.69611181  0.49973900  1
  Zr  Zr38  1  0.10122946  0.69601694  0.10243802  1
  Zr  Zr39  1  0.29237186  0.69263950  0.09783106  1
  Zr  Zr40  1  0.09662632  0.50387977  0.70825105  1
  Zr  Zr41  1  0.50200120  0.50684580  0.89690944  1
  Zr  Zr42  1  0.90401651  0.70031192  0.69328829  1
  Zr  Zr43  1  0.70090010  0.50579727  0.69970857  1
  Zr  Zr44  1  0.29213446  0.29179069  0.89487646  1
  Zr  Zr45  1  0.49556841  0.90420846  0.29955291  1
  Zr  Zr46  1  0.29835383  0.09981279  0.51167664  1
  Zr  Zr47  1  0.49320149  0.70500154  0.50376279  1
  Zr  Zr48  1  0.70391513  0.69996515  0.29259086  1
  Zr  Zr49  1  0.09291235  0.10092566  0.30216670  1
  Sc  Sc50  1  0.09816298  0.90190275  0.69817971  1
  Sc  Sc51  1  0.29025658  0.49887214  0.30849381  1
  Sc  Sc52  1  0.31303650  0.30013649  0.49897789  1
  Sc  Sc53  1  0.90075640  0.90555004  0.90694907  1
  Sc  Sc54  1  0.09533303  0.69478736  0.29906486  1
  Sc  Sc55  1  0.50572679  0.70781576  0.29693616  1
  Sc  Sc56  1  0.11222912  0.09326190  0.69604500  1
  Sc  Sc57  1  0.70469549  0.70414343  0.50677940  1
  Sc  Sc58  1  0.29898144  0.70290112  0.70202094  1
  Sc  Sc59  1  0.90040461  0.09135398  0.89890471  1
  Sc  Sc60  1  0.09834400  0.70236511  0.69973178  1
  Sc  Sc61  1  0.90261223  0.70056857  0.50268649  1
  Sc  Sc62  1  0.70053349  0.09075038  0.89663114  1
  Sc  Sc63  1  0.90319825  0.69610326  0.29725507  1
  Sc  Sc64  1  0.90303369  0.49218316  0.09765494  1
  Sc  Sc65  1  0.11810515  0.29732704  0.70403850  1
  Sc  Sc66  1  0.49602838  0.09692697  0.50886143  1
  Sc  Sc67  1  0.90123694  0.09514398  0.70478359  1
  Sc  Sc68  1  0.09701718  0.68889054  0.89928623  1
  Sc  Sc69  1  0.51033057  0.51171615  0.09852023  1
  Sc  Sc70  1  0.28557182  0.70331238  0.29596274  1
  Sc  Sc71  1  0.49253204  0.28693514  0.89396823  1
  Sc  Sc72  1  0.08323293  0.90116817  0.29692669  1
  Sc  Sc73  1  0.69726778  0.70092935  0.09479513  1
  Sc  Sc74  1  0.88685909  0.29937698  0.68973965  1
  Sc  Sc75  1  0.29660518  0.90321928  0.70778756  1
  Sc  Sc76  1  0.70098150  0.89440992  0.09654700  1
  Sc  Sc77  1  0.70209564  0.28469846  0.90154832  1
  Sc  Sc78  1  0.90327825  0.30686570  0.90786157  1
  Sc  Sc79  1  0.30727350  0.10682173  0.10139639  1
  Sc  Sc80  1  0.09516494  0.29621655  0.09090108  1
  Sc  Sc81  1  0.49745797  0.09363090  0.29316448  1
  Sc  Sc82  1  0.90944117  0.89873659  0.50237432  1
  Sc  Sc83  1  0.69911600  0.50339686  0.10248185  1
  Sc  Sc84  1  0.90236201  0.50790725  0.50155989  1
  Sc  Sc85  1  0.69427336  0.10179143  0.09805970  1
  Sc  Sc86  1  0.30117271  0.09751463  0.70232869  1
  Sc  Sc87  1  0.10044878  0.09917908  0.89787470  1
  Sc  Sc88  1  0.31226522  0.88918256  0.10915451  1
  Sc  Sc89  1  0.50474698  0.70556743  0.89970888  1
  Sc  Sc90  1  0.70491255  0.50405710  0.50526804  1
  Sc  Sc91  1  0.30814087  0.50415428  0.69668457  1
  Sc  Sc92  1  0.90487437  0.30248715  0.29273759  1
  Sc  Sc93  1  0.90462443  0.49894807  0.29722140  1
  Sc  Sc94  1  0.49655096  0.89826310  0.89954360  1
  Sc  Sc95  1  0.29399631  0.70022024  0.50558950  1
  Sc  Sc96  1  0.29221429  0.50560666  0.90326550  1
  Sc  Sc97  1  0.69824844  0.69893644  0.69926380  1
  Sc  Sc98  1  0.08548159  0.89770926  0.10260563  1
  Sc  Sc99  1  0.69835023  0.50073272  0.29527421  1
  Nb  Nb100  1  0.09663787  0.09723127  0.50190622  1
  Nb  Nb101  1  0.09667351  0.48994266  0.89866165  1
  Nb  Nb102  1  0.29903183  0.50303635  0.49938790  1
  Nb  Nb103  1  0.50155353  0.90140077  0.70069982  1
  Nb  Nb104  1  0.50017650  0.29644612  0.09427523  1
  Nb  Nb105  1  0.10632188  0.49709147  0.49175387  1
  Nb  Nb106  1  0.09992802  0.90765068  0.50282481  1
  Nb  Nb107  1  0.70174557  0.08818637  0.30182094  1
  Nb  Nb108  1  0.10043551  0.29999651  0.49653895  1
  Nb  Nb109  1  0.30289823  0.09008998  0.89802657  1
  Nb  Nb110  1  0.30057228  0.91025705  0.30383282  1
  Nb  Nb111  1  0.29792367  0.09576487  0.30313185  1
  Nb  Nb112  1  0.49968932  0.90678903  0.10971473  1
  Nb  Nb113  1  0.69740412  0.29783513  0.70088605  1
  Nb  Nb114  1  0.70171824  0.70824083  0.89978572  1
  Nb  Nb115  1  0.50196780  0.29829801  0.70081195  1
  Nb  Nb116  1  0.89553863  0.89614047  0.29348220  1
  Nb  Nb117  1  0.11365308  0.50480191  0.09627805  1
  Nb  Nb118  1  0.29748267  0.50090357  0.10028318  1
  Nb  Nb119  1  0.10125340  0.30563051  0.89003464  1
  Nb  Nb120  1  0.30011835  0.90320418  0.89970039  1
  Nb  Nb121  1  0.89890716  0.90067902  0.10813967  1
  Nb  Nb122  1  0.69783424  0.90805007  0.30595003  1
  Nb  Nb123  1  0.90530226  0.09926837  0.50092955  1
  Nb  Nb124  1  0.70343238  0.89138179  0.89467827  1
  Nb  Nb125  1  0.80157337  0.00243676  0.59620889  1
  Nb  Nb126  1  0.39935582  0.60044808  0.39802044  1
  Nb  Nb127  1  0.79806734  0.39826632  0.40083949  1
  Nb  Nb128  1  0.19617938  0.19463417  0.40367738  1
  Nb  Nb129  1  0.20101898  0.40054260  0.19423445  1
  Nb  Nb130  1  0.20044538  0.40392604  0.59177000  1
  Nb  Nb131  1  0.40279236  0.39955104  0.00397831  1
  Nb  Nb132  1  0.39611312  0.59527899  0.20259514  1
  Nb  Nb133  1  0.19737684  0.00126220  0.39950546  1
  Nb  Nb134  1  0.01128339  0.39698340  0.59619693  1
  Nb  Nb135  1  0.60243350  0.39507637  0.79972316  1
  Nb  Nb136  1  0.59507353  0.60127249  0.40275662  1
  Nb  Nb137  1  0.20596332  -0.00702195  0.00400579  1
  Nb  Nb138  1  0.20094780  0.80591714  -0.00228944  1
  Nb  Nb139  1  0.79124699  0.40152084  0.79907256  1
  Nb  Nb140  1  0.19499397  0.81376163  0.40209471  1
  Nb  Nb141  1  0.20362545  0.00017271  0.20305411  1
  Nb  Nb142  1  0.79990494  0.80707771  0.39285276  1
  Nb  Nb143  1  0.79760800  -0.00362044  0.20599179  1
  Nb  Nb144  1  0.00662242  0.20059530  0.59844544  1
  Nb  Nb145  1  0.59585882  0.39533177  -0.00601090  1
  Nb  Nb146  1  0.60016706  0.39570894  0.60848928  1
  Nb  Nb147  1  0.00559034  0.20659634  0.79638840  1
  Nb  Nb148  1  0.39815243  0.40315889  0.19188095  1
  Nb  Nb149  1  0.79976788  0.79964866  0.80306101  1
  Pd  Pd150  1  0.80161129  0.59948259  0.01094652  1
  Pd  Pd151  1  0.19805859  0.80552572  0.59796734  1
  Pd  Pd152  1  -0.01077682  0.38831263  0.78641392  1
  Pd  Pd153  1  0.39436892  -0.00605065  0.00882118  1
  Pd  Pd154  1  0.00383202  0.80226997  -0.00532696  1
  Pd  Pd155  1  0.80260070  0.19071239  -0.00521818  1
  Pd  Pd156  1  0.81308434  0.20561778  0.80573788  1
  Pd  Pd157  1  0.19060473  0.81305758  0.20214420  1
  Pd  Pd158  1  0.40905405  0.19955641  0.19925869  1
  Pd  Pd159  1  0.79541188  0.60155762  0.40035256  1
  Pd  Pd160  1  0.19807411  0.59487945  0.60446823  1
  Pd  Pd161  1  0.78783240  0.40339415  -0.00847900  1
  Pd  Pd162  1  0.39557997  0.60521427  0.80232858  1
  Pd  Pd163  1  0.58818327  0.00685715  0.40340633  1
  Pd  Pd164  1  -0.00121244  0.19881883  -0.01245753  1
  Pd  Pd165  1  0.59458209  0.80715726  0.00031031  1
  Pd  Pd166  1  -0.00186062  0.80091511  0.40004007  1
  Pd  Pd167  1  0.60636881  0.00891648  0.59937954  1
  Pd  Pd168  1  -0.00448214  0.59722602  0.19132984  1
  Pd  Pd169  1  0.60025835  0.79935802  0.60218476  1
  Pd  Pd170  1  0.59506910  0.59688359  0.59279368  1
  Pd  Pd171  1  0.59231984  0.18675421  0.39760305  1
  Pd  Pd172  1  0.20305575  0.60251802  0.80240811  1
  Pd  Pd173  1  0.80407760  0.20721890  0.38927842  1
  Pd  Pd174  1  0.21150156  0.40789979  0.79114923  1
  Pd  Pd175  1  0.00230481  0.59320970  0.00528973  1
  Pd  Pd176  1  0.19779253  0.18925847  -0.00734757  1
  Pd  Pd177  1  0.60787736  0.79453009  0.40104329  1
  Pd  Pd178  1  0.80672706  0.59736262  0.19212288  1
  Pd  Pd179  1  -0.00035160  0.20200582  0.19809155  1
  Pd  Pd180  1  0.60516251  -0.00966143  -0.00294526  1
  Pd  Pd181  1  0.59826761  -0.00245468  0.80353883  1
  Pd  Pd182  1  0.39968873  0.39970181  0.80909399  1
  Pd  Pd183  1  0.60522300  0.80781803  0.19854975  1
  Pd  Pd184  1  0.19125756  0.19928554  0.20390377  1
  Pd  Pd185  1  0.38806825  0.79166659  0.39252665  1
  Pd  Pd186  1  0.20955174  0.38845269  0.39933833  1
  Pd  Pd187  1  0.79500867  -0.00293000  0.00689572  1
  Pd  Pd188  1  0.19707362  0.79736363  0.80545118  1
  Pd  Pd189  1  0.40279302  0.59654609  0.00429862  1
  Pd  Pd190  1  0.40056084  0.18963430  0.40261876  1
  Pd  Pd191  1  0.59696889  0.19424248  0.20511857  1
  Pd  Pd192  1  0.39583503  0.79191396  0.21007032  1
  Pd  Pd193  1  0.20189771  0.39905102  0.00047594  1
  Pd  Pd194  1  0.39333680  0.80449301  0.61033415  1
  Pd  Pd195  1  0.00528904  0.40183096  0.00400184  1
  Pd  Pd196  1  0.79700484  0.19190118  0.20760851  1
  Pd  Pd197  1  0.79731925  0.40100457  0.20671808  1
  Pd  Pd198  1  0.59631926  0.39900001  0.18770982  1
  Pd  Pd199  1  -0.00556053  0.79592250  0.80653795  1
  Rh  Rh200  1  0.01099853  0.40328077  0.18891714  1
  Rh  Rh201  1  0.00922040  0.59293735  0.59567675  1
  Rh  Rh202  1  0.19670714  0.60417237  -0.01018981  1
  Rh  Rh203  1  0.39574904  0.00484479  0.19414903  1
  Rh  Rh204  1  0.79373778  0.80541577  0.20460801  1
  Rh  Rh205  1  0.79757078  0.40515731  0.59916327  1
  Rh  Rh206  1  0.81035094  0.18660090  0.60308707  1
  Rh  Rh207  1  0.00233413  0.20035978  0.40490021  1
  Rh  Rh208  1  0.20223871  0.61113719  0.40045081  1
  Rh  Rh209  1  0.40597332  0.20013938  0.60215807  1
  Rh  Rh210  1  0.39734799  0.19974743  -0.00601156  1
  Rh  Rh211  1  0.60381784  0.79982054  0.79783481  1
  Rh  Rh212  1  0.00860404  0.80050793  0.59769269  1
  Rh  Rh213  1  0.20245871  0.58986890  0.20794801  1
  Rh  Rh214  1  -0.00063075  0.59817175  0.40211477  1
  Rh  Rh215  1  0.39622886  0.19126280  0.80133324  1
  Rh  Rh216  1  0.20087941  0.00226873  0.80442477  1
  Rh  Rh217  1  -0.01215221  0.40812574  0.40758614  1
  Rh  Rh218  1  0.40385867  0.80710222  0.79673000  1
  Rh  Rh219  1  0.00093920  0.79180518  0.20160266  1
  Rh  Rh220  1  0.00031195  0.60314148  0.80061870  1
  Rh  Rh221  1  0.59505534  0.60695148  0.20331078  1
  Rh  Rh222  1  0.19821400  0.19034448  0.80403762  1
  Rh  Rh223  1  0.39569047  0.60588324  0.59446481  1
  Rh  Rh224  1  0.59950443  0.20022371  -0.00568835  1
  Rh  Rh225  1  0.59673573  0.19933218  0.60021350  1
  Rh  Rh226  1  0.40127664  0.00601074  0.40322431  1
  Rh  Rh227  1  0.80223619  0.60825932  0.59876550  1
  Rh  Rh228  1  0.00443975  0.00970686  0.79647104  1
  Rh  Rh229  1  0.80270749  0.80768528  0.60008850  1
  Rh  Rh230  1  -0.00154012  -0.00761720  0.40173089  1
  Rh  Rh231  1  0.40241507  -0.00463433  0.61171841  1
  Rh  Rh232  1  0.59869451  0.60898013  0.80105565  1
  Rh  Rh233  1  0.80295463  0.80512292  -0.00514365  1
  Rh  Rh234  1  0.39840133  0.39564568  0.60297354  1
  Rh  Rh235  1  0.60638839  -0.00327109  0.19606320  1
  Rh  Rh236  1  0.61580562  0.40784118  0.41516578  1
  Rh  Rh237  1  -0.00390989  0.00689712  0.60387861  1
  Rh  Rh238  1  0.60165788  0.60655406  0.00040291  1
  Rh  Rh239  1  0.80069981  -0.01036586  0.79450656  1
  Rh  Rh240  1  -0.00597916  0.00234953  0.19971821  1
  Rh  Rh241  1  0.39206913  0.40497286  0.39135141  1
  Rh  Rh242  1  0.80137306  0.60749193  0.79524162  1
  Rh  Rh243  1  0.40126389  0.80719168  0.00147109  1
  Rh  Rh244  1  0.20285552  -0.00589436  0.59818749  1
  Rh  Rh245  1  0.40361693  -0.00416756  0.79569262  1
  Rh  Rh246  1  0.00313333  -0.00277161  0.00181949  1
  Rh  Rh247  1  0.59800587  0.19913559  0.80544182  1
  Rh  Rh248  1  0.81134209  -0.00846248  0.40337348  1
  Rh  Rh249  1  0.19762837  0.20825061  0.59187841  1
