# generated using pymatgen
data_ZrScNbPdRh
_symmetry_space_group_name_H-M   'P 1'
_cell_length_a   16.55250738
_cell_length_b   16.55415203
_cell_length_c   16.55387101
_cell_angle_alpha   89.98296750
_cell_angle_beta   90.02228924
_cell_angle_gamma   89.99912834
_symmetry_Int_Tables_number   1
_chemical_formula_structural   ZrScNbPdRh
_chemical_formula_sum   'Zr50 Sc50 Nb50 Pd50 Rh50'
_cell_volume   4535.97073915
_cell_formula_units_Z   50
loop_
 _symmetry_equiv_pos_site_id
 _symmetry_equiv_pos_as_xyz
  1  'x, y, z'
loop_
 _atom_site_type_symbol
 _atom_site_label
 _atom_site_symmetry_multiplicity
 _atom_site_fract_x
 _atom_site_fract_y
 _atom_site_fract_z
 _atom_site_occupancy
  Zr  Zr0  1  0.09990336  0.30209689  0.50301089  1
  Zr  Zr1  1  0.50906696  0.50066736  0.30182876  1
  Zr  Zr2  1  0.70610740  0.10362322  0.89466777  1
  Zr  Zr3  1  0.70220592  0.69290852  0.88980719  1
  Zr  Zr4  1  0.50826390  0.30573520  0.49821032  1
  Zr  Zr5  1  0.10868658  0.70696918  0.30289850  1
  Zr  Zr6  1  0.50011089  0.30370504  0.09700083  1
  Zr  Zr7  1  0.71287461  0.10199137  0.09152515  1
  Zr  Zr8  1  0.70289569  0.29899331  0.70589258  1
  Zr  Zr9  1  0.90447833  0.30379807  0.10135697  1
  Zr  Zr10  1  0.30531143  0.10491958  0.69556981  1
  Zr  Zr11  1  0.50954953  0.30365813  0.69536892  1
  Zr  Zr12  1  0.51002932  0.69933728  0.69022684  1
  Zr  Zr13  1  0.29688630  0.70174024  0.30134043  1
  Zr  Zr14  1  0.50365387  0.09192125  0.88830794  1
  Zr  Zr15  1  0.90209436  0.49540199  0.10645586  1
  Zr  Zr16  1  0.10454714  0.89150853  0.90566608  1
  Zr  Zr17  1  0.09160492  0.49462427  0.09483018  1
  Zr  Zr18  1  0.10737392  0.69938340  0.09096638  1
  Zr  Zr19  1  0.69161155  0.50320261  0.10488072  1
  Zr  Zr20  1  0.89966483  0.48595090  0.30069923  1
  Zr  Zr21  1  0.30605955  0.70187229  0.49056210  1
  Zr  Zr22  1  0.69472306  0.29293105  0.09550834  1
  Zr  Zr23  1  0.49773557  0.09568055  0.30496883  1
  Zr  Zr24  1  0.49467531  0.69653555  0.31007179  1
  Zr  Zr25  1  0.89949557  0.10256641  0.29972877  1
  Zr  Zr26  1  0.29469876  0.49966305  0.50472829  1
  Zr  Zr27  1  0.89462524  0.09717449  0.90996348  1
  Zr  Zr28  1  0.70039145  0.09861626  0.50708878  1
  Zr  Zr29  1  0.49785889  0.89268523  0.09279157  1
  Zr  Zr30  1  0.29419358  0.30149186  0.50125956  1
  Zr  Zr31  1  0.50283692  0.08935279  0.50388037  1
  Zr  Zr32  1  0.90543821  0.89262325  0.50695393  1
  Zr  Zr33  1  0.10423464  0.69451301  0.90303592  1
  Zr  Zr34  1  0.29983408  0.50543867  0.70441088  1
  Zr  Zr35  1  0.89624813  0.70295644  0.70036032  1
  Zr  Zr36  1  0.30159007  0.10049510  0.50209802  1
  Zr  Zr37  1  0.10204306  0.10730241  0.70058355  1
  Zr  Zr38  1  0.69500414  0.50390199  0.71515645  1
  Zr  Zr39  1  0.90576349  0.50123689  0.49518676  1
  Zr  Zr40  1  0.09939648  0.10390919  0.09927606  1
  Zr  Zr41  1  0.90130559  0.29503557  0.49749412  1
  Zr  Zr42  1  0.49217994  0.49935880  0.90062051  1
  Zr  Zr43  1  0.29426810  0.29598870  0.69585847  1
  Zr  Zr44  1  0.09205621  0.10578597  0.90216558  1
  Zr  Zr45  1  0.50611517  0.30254763  0.30067256  1
  Zr  Zr46  1  0.49733471  0.50108372  0.09642700  1
  Zr  Zr47  1  0.09579478  0.30063933  0.69996496  1
  Zr  Zr48  1  0.90210525  0.69179383  0.09899314  1
  Zr  Zr49  1  0.30129557  0.50501060  0.09728627  1
  Sc  Sc50  1  0.49297996  0.70596637  0.90683301  1
  Sc  Sc51  1  0.09548361  0.90268109  0.29845628  1
  Sc  Sc52  1  0.70042357  0.09975632  0.29487712  1
  Sc  Sc53  1  0.09466776  0.50243480  0.69845417  1
  Sc  Sc54  1  0.50464627  0.50239725  0.49418792  1
  Sc  Sc55  1  0.50248084  0.50146540  0.70670172  1
  Sc  Sc56  1  0.29597415  0.70126799  0.90182690  1
  Sc  Sc57  1  0.28792390  0.30344066  0.30388733  1
  Sc  Sc58  1  0.69933268  0.29456902  0.50455154  1
  Sc  Sc59  1  0.30071538  0.51126005  0.30580105  1
  Sc  Sc60  1  0.89570704  0.89801973  0.69779068  1
  Sc  Sc61  1  0.08861589  0.29759851  0.90217867  1
  Sc  Sc62  1  0.31305106  0.29926643  0.90530020  1
  Sc  Sc63  1  0.69014268  0.69186012  0.29615783  1
  Sc  Sc64  1  0.90007781  0.69984907  0.89521236  1
  Sc  Sc65  1  0.90942055  0.90950319  0.29980990  1
  Sc  Sc66  1  0.69200457  0.70201095  0.51343788  1
  Sc  Sc67  1  0.09383026  0.50043804  0.30286978  1
  Sc  Sc68  1  0.70732227  0.90705861  0.88843172  1
  Sc  Sc69  1  0.50619014  0.90754013  0.29221351  1
  Sc  Sc70  1  0.90112959  0.29541758  0.89158209  1
  Sc  Sc71  1  0.09887989  0.90318136  0.10053403  1
  Sc  Sc72  1  0.30034334  0.69863298  0.69142135  1
  Sc  Sc73  1  0.70852533  0.89889329  0.69537942  1
  Sc  Sc74  1  0.29694807  0.89462066  0.69857161  1
  Sc  Sc75  1  0.50476983  0.10215700  0.09768716  1
  Sc  Sc76  1  0.09811770  0.70927713  0.50048898  1
  Sc  Sc77  1  0.90882055  0.49171035  0.88900735  1
  Sc  Sc78  1  0.30131576  0.89694157  0.50454645  1
  Sc  Sc79  1  0.50467399  0.29845183  0.90588344  1
  Sc  Sc80  1  0.29160099  0.10371828  0.10278234  1
  Sc  Sc81  1  0.89525017  0.10942683  0.69852727  1
  Sc  Sc82  1  0.90088903  0.91272090  0.09632167  1
  Sc  Sc83  1  0.10032539  0.29961097  0.30258018  1
  Sc  Sc84  1  0.08816944  0.10554446  0.50297472  1
  Sc  Sc85  1  0.10277649  0.89574382  0.68295690  1
  Sc  Sc86  1  0.29869178  0.90253127  0.09695127  1
  Sc  Sc87  1  0.89920101  0.10777460  0.49931227  1
  Sc  Sc88  1  0.31184618  0.10444334  0.89369209  1
  Sc  Sc89  1  0.90188050  0.67935273  0.30823125  1
  Sc  Sc90  1  0.29314228  0.90217117  0.29629357  1
  Sc  Sc91  1  0.29130699  0.09567210  0.29491008  1
  Sc  Sc92  1  0.50055000  0.90417544  0.69953556  1
  Sc  Sc93  1  0.69567858  0.49519693  0.49645970  1
  Sc  Sc94  1  0.89504498  0.90521538  0.90102000  1
  Sc  Sc95  1  0.68865715  0.89590014  0.10845837  1
  Sc  Sc96  1  0.10582177  0.69823492  0.70005662  1
  Sc  Sc97  1  0.70380402  0.29570151  0.30012653  1
  Sc  Sc98  1  0.50905199  0.69793152  0.09711382  1
  Sc  Sc99  1  0.69965464  0.49903623  0.30195837  1
  Nb  Nb100  1  0.89961591  0.29454030  0.30168958  1
  Nb  Nb101  1  0.70038889  0.89591776  0.30155300  1
  Nb  Nb102  1  0.90172360  0.49710377  0.69772469  1
  Nb  Nb103  1  0.10470381  0.29876850  0.10123057  1
  Nb  Nb104  1  0.70202837  0.90071001  0.49939886  1
  Nb  Nb105  1  0.70005397  0.49800816  0.89684643  1
  Nb  Nb106  1  0.10893697  0.50028549  0.90022478  1
  Nb  Nb107  1  0.30967030  0.89925041  0.90009009  1
  Nb  Nb108  1  0.69952346  0.70121122  0.09887792  1
  Nb  Nb109  1  0.50969251  0.10251015  0.69911907  1
  Nb  Nb110  1  0.89484672  0.70102411  0.50397147  1
  Nb  Nb111  1  0.70593879  0.30208095  0.90011653  1
  Nb  Nb112  1  0.50887658  0.89870088  0.49891624  1
  Nb  Nb113  1  0.69414067  0.10005205  0.70516491  1
  Nb  Nb114  1  0.70181827  0.69925413  0.70615891  1
  Nb  Nb115  1  0.09244802  0.09274504  0.29830994  1
  Nb  Nb116  1  0.90097224  0.10224215  0.09905746  1
  Nb  Nb117  1  0.90043022  0.30833776  0.70336003  1
  Nb  Nb118  1  0.29358537  0.30028160  0.10664106  1
  Nb  Nb119  1  0.30062316  0.50025247  0.90125111  1
  Nb  Nb120  1  0.09513525  0.89941975  0.49449078  1
  Nb  Nb121  1  0.30134772  0.69917179  0.10150719  1
  Nb  Nb122  1  0.49382893  0.89991314  0.89938903  1
  Nb  Nb123  1  0.09610378  0.48914869  0.50789550  1
  Nb  Nb124  1  0.49975214  0.71019242  0.49934877  1
  Nb  Nb125  1  0.39773622  0.20718117  0.20425043  1
  Nb  Nb126  1  0.00680214  -0.00245788  0.79928338  1
  Nb  Nb127  1  0.79661768  0.80077819  0.39864154  1
  Nb  Nb128  1  0.79617721  0.59423617  -0.00157998  1
  Nb  Nb129  1  -0.00540134  0.79282766  0.19731378  1
  Nb  Nb130  1  0.80223084  0.59683218  0.60567026  1
  Nb  Nb131  1  0.60072365  0.79984053  0.79855214  1
  Nb  Nb132  1  0.39852199  0.40047031  0.60018898  1
  Nb  Nb133  1  0.60137763  0.80630195  0.40465496  1
  Nb  Nb134  1  0.80430593  0.40466436  0.60714220  1
  Nb  Nb135  1  0.39868322  0.79444627  0.19738608  1
  Nb  Nb136  1  0.18900583  -0.00038447  0.40561129  1
  Nb  Nb137  1  0.79523537  0.40393718  -0.00397434  1
  Nb  Nb138  1  0.40099533  0.19994297  0.39824006  1
  Nb  Nb139  1  0.19931336  -0.00166198  0.80326453  1
  Nb  Nb140  1  0.00052930  0.19920912  0.19870813  1
  Nb  Nb141  1  0.00411504  0.80445710  0.80025588  1
  Nb  Nb142  1  0.79471319  0.79299188  0.00733306  1
  Nb  Nb143  1  0.20166178  0.40321325  0.80815495  1
  Nb  Nb144  1  0.80330574  0.79608361  0.20344739  1
  Nb  Nb145  1  0.39696348  0.39735965  0.19948267  1
  Nb  Nb146  1  0.59759728  -0.00335212  -0.00953037  1
  Nb  Nb147  1  0.20060677  0.39817572  -0.00000372  1
  Nb  Nb148  1  0.79610402  -0.00751957  0.40359873  1
  Nb  Nb149  1  0.20306360  0.00019530  -0.01319399  1
  Pd  Pd150  1  0.80639569  0.00500603  0.59979034  1
  Pd  Pd151  1  0.38997299  -0.00409697  0.39834180  1
  Pd  Pd152  1  0.60443053  0.59161065  0.59714356  1
  Pd  Pd153  1  0.60112781  0.59989916  -0.00758839  1
  Pd  Pd154  1  0.00982155  0.60443552  0.20393062  1
  Pd  Pd155  1  0.19346232  0.60413776  0.59378066  1
  Pd  Pd156  1  -0.00097808  0.60682313  0.59655672  1
  Pd  Pd157  1  0.59945089  0.20620056  0.80475988  1
  Pd  Pd158  1  0.40600565  0.79346014  0.79170466  1
  Pd  Pd159  1  0.20344955  0.20438929  0.81113158  1
  Pd  Pd160  1  0.20603921  0.20180721  -0.00882307  1
  Pd  Pd161  1  0.39769673  0.39279376  0.79396605  1
  Pd  Pd162  1  -0.00963227  0.79551893  0.39024921  1
  Pd  Pd163  1  0.40560491  0.60112607  0.19990029  1
  Pd  Pd164  1  0.79629835  0.60183596  0.20015449  1
  Pd  Pd165  1  0.40109722  0.80434423  0.60297024  1
  Pd  Pd166  1  0.01045806  0.60221898  0.40754153  1
  Pd  Pd167  1  0.19826822  0.18933542  0.39765373  1
  Pd  Pd168  1  0.39616249  0.39985677  0.39828668  1
  Pd  Pd169  1  0.79552077  0.39394745  0.40740660  1
  Pd  Pd170  1  0.19398062  0.40886024  0.39697419  1
  Pd  Pd171  1  0.19773971  0.00319416  0.59712004  1
  Pd  Pd172  1  -0.00831170  0.59186268  -0.01007441  1
  Pd  Pd173  1  0.19921662  0.80662556  0.19369482  1
  Pd  Pd174  1  0.00122484  0.60428858  0.80050153  1
  Pd  Pd175  1  0.59804269  0.19421284  0.19938893  1
  Pd  Pd176  1  0.40146687  -0.00634695  0.60501492  1
  Pd  Pd177  1  0.78784050  0.60730352  0.41154105  1
  Pd  Pd178  1  0.60235152  0.00615855  0.19246653  1
  Pd  Pd179  1  0.41022659  0.20725921  0.79599635  1
  Pd  Pd180  1  0.40011315  0.19383046  0.00939874  1
  Pd  Pd181  1  0.19812818  0.80233507  0.79668104  1
  Pd  Pd182  1  0.40777529  0.59467496  0.59392124  1
  Pd  Pd183  1  0.18962397  0.59580672  0.41008119  1
  Pd  Pd184  1  0.40002169  0.61300639  0.80203947  1
  Pd  Pd185  1  0.39686129  0.00152208  0.19149748  1
  Pd  Pd186  1  0.79991157  -0.00733262  0.20181939  1
  Pd  Pd187  1  0.41108535  0.20560368  0.59269517  1
  Pd  Pd188  1  0.20037311  0.40919301  0.19944003  1
  Pd  Pd189  1  0.79071451  0.39281191  0.19621472  1
  Pd  Pd190  1  0.40523500  0.81731260  0.38946527  1
  Pd  Pd191  1  0.39441521  -0.00308386  0.78826225  1
  Pd  Pd192  1  0.19251453  0.59435888  0.19853412  1
  Pd  Pd193  1  0.61036244  0.80834163  -0.01458362  1
  Pd  Pd194  1  0.60081575  0.19410389  0.40203340  1
  Pd  Pd195  1  0.39900501  0.00844461  0.00573104  1
  Pd  Pd196  1  -0.00499623  0.00395734  0.60418293  1
  Pd  Pd197  1  0.60465325  -0.00639591  0.60873999  1
  Pd  Pd198  1  0.60388159  0.40242215  -0.00617152  1
  Pd  Pd199  1  -0.01180468  0.80380714  0.00045573  1
  Rh  Rh200  1  0.60132123  0.18987138  -0.00921965  1
  Rh  Rh201  1  -0.00260256  0.00299065  0.41007307  1
  Rh  Rh202  1  0.39673746  0.60710936  -0.00184813  1
  Rh  Rh203  1  0.39341785  0.79467086  0.00743930  1
  Rh  Rh204  1  0.80247983  0.80252649  0.80526628  1
  Rh  Rh205  1  0.78610106  -0.01496507  0.00854526  1
  Rh  Rh206  1  -0.00908692  0.19473775  0.79699623  1
  Rh  Rh207  1  0.40208589  0.59558593  0.40859717  1
  Rh  Rh208  1  0.80909454  0.00777579  0.78961652  1
  Rh  Rh209  1  0.19474110  0.19763286  0.20820145  1
  Rh  Rh210  1  0.58512197  0.60894351  0.80814205  1
  Rh  Rh211  1  0.01046104  0.40112954  0.79883652  1
  Rh  Rh212  1  0.60880655  -0.00187350  0.39951422  1
  Rh  Rh213  1  0.20317096  0.59728396  0.79991479  1
  Rh  Rh214  1  -0.00735900  0.20481998  0.00753710  1
  Rh  Rh215  1  0.20109960  0.81265710  0.40458814  1
  Rh  Rh216  1  0.00100658  0.39767199  -0.00543860  1
  Rh  Rh217  1  0.80047966  0.40208520  0.80144832  1
  Rh  Rh218  1  0.60203041  -0.00837921  0.79738741  1
  Rh  Rh219  1  0.80703692  0.20307263  0.19854851  1
  Rh  Rh220  1  0.19390081  -0.00135607  0.19903341  1
  Rh  Rh221  1  0.60340673  0.80716477  0.60379344  1
  Rh  Rh222  1  0.79587769  0.79199087  0.59633011  1
  Rh  Rh223  1  0.00110351  0.00293051  0.19108469  1
  Rh  Rh224  1  0.20171240  0.79513767  0.59117437  1
  Rh  Rh225  1  0.61003800  0.39686326  0.39674903  1
  Rh  Rh226  1  0.79721381  0.20824744  0.60722242  1
  Rh  Rh227  1  0.20204501  0.40652853  0.61266437  1
  Rh  Rh228  1  0.00252350  0.79512156  0.60639876  1
  Rh  Rh229  1  0.60012573  0.39994551  0.20248007  1
  Rh  Rh230  1  0.19363513  0.19518224  0.59357657  1
  Rh  Rh231  1  0.59760486  0.39704949  0.80823654  1
  Rh  Rh232  1  -0.00628746  0.39613852  0.59834334  1
  Rh  Rh233  1  0.21019302  0.80478679  0.00364610  1
  Rh  Rh234  1  0.00644979  0.00075695  -0.00383148  1
  Rh  Rh235  1  0.00174515  0.20171588  0.39141929  1
  Rh  Rh236  1  0.59510674  0.60160116  0.20045488  1
  Rh  Rh237  1  0.79492776  0.19137548  0.39892407  1
  Rh  Rh238  1  0.20620699  0.59572606  -0.00054913  1
  Rh  Rh239  1  0.00235326  0.39500322  0.39893735  1
  Rh  Rh240  1  0.60149539  0.61038095  0.40842520  1
  Rh  Rh241  1  0.60137391  0.19624345  0.59995651  1
  Rh  Rh242  1  -0.00476294  0.20677431  0.60490326  1
  Rh  Rh243  1  0.59384846  0.79207113  0.21135752  1
  Rh  Rh244  1  0.80634811  0.21202896  -0.00104953  1
  Rh  Rh245  1  0.00422941  0.38944084  0.20888655  1
  Rh  Rh246  1  0.80904850  0.59194936  0.79891688  1
  Rh  Rh247  1  0.60314319  0.40641376  0.60337097  1
  Rh  Rh248  1  0.39274600  0.39919156  0.00799650  1
  Rh  Rh249  1  0.80213144  0.19847192  0.79789895  1
