# generated using pymatgen
data_ZrScNbPdRh
_symmetry_space_group_name_H-M   'P 1'
_cell_length_a   16.56038669
_cell_length_b   16.55992593
_cell_length_c   16.56489825
_cell_angle_alpha   90.02504221
_cell_angle_beta   89.99232475
_cell_angle_gamma   90.02432439
_symmetry_Int_Tables_number   1
_chemical_formula_structural   ZrScNbPdRh
_chemical_formula_sum   'Zr50 Sc50 Nb50 Pd50 Rh50'
_cell_volume   4542.73655290
_cell_formula_units_Z   50
loop_
 _symmetry_equiv_pos_site_id
 _symmetry_equiv_pos_as_xyz
  1  'x, y, z'
loop_
 _atom_site_type_symbol
 _atom_site_label
 _atom_site_symmetry_multiplicity
 _atom_site_fract_x
 _atom_site_fract_y
 _atom_site_fract_z
 _atom_site_occupancy
  Zr  Zr0  1  0.09729800  0.69985570  0.69734614  1
  Zr  Zr1  1  0.10351940  0.89828149  0.10322449  1
  Zr  Zr2  1  0.09603470  0.71119772  0.49956870  1
  Zr  Zr3  1  0.09415279  0.29964918  0.70026189  1
  Zr  Zr4  1  0.89920885  0.90234261  0.29923846  1
  Zr  Zr5  1  0.89827035  0.90445234  0.90943160  1
  Zr  Zr6  1  0.10570668  0.90622142  0.68415222  1
  Zr  Zr7  1  0.29483459  0.30338837  0.90052400  1
  Zr  Zr8  1  0.49816439  0.09735687  0.30814851  1
  Zr  Zr9  1  0.70380217  0.10815779  0.89650216  1
  Zr  Zr10  1  0.29847873  0.10250630  0.10675440  1
  Zr  Zr11  1  0.89520179  0.90178728  0.69363946  1
  Zr  Zr12  1  0.90459557  0.69081792  0.11124526  1
  Zr  Zr13  1  0.29994132  0.49713918  0.89308596  1
  Zr  Zr14  1  0.09564350  0.70055058  0.28849293  1
  Zr  Zr15  1  0.29972818  0.29749320  0.29869374  1
  Zr  Zr16  1  0.09938031  0.09808747  0.09874437  1
  Zr  Zr17  1  0.09876177  0.09504586  0.29859434  1
  Zr  Zr18  1  0.51329054  0.29811249  0.29513653  1
  Zr  Zr19  1  0.10156985  0.90031207  0.30532626  1
  Zr  Zr20  1  0.49698378  0.89857359  0.29771581  1
  Zr  Zr21  1  0.50254239  0.89639016  0.70018555  1
  Zr  Zr22  1  0.50967045  0.30207894  0.10043464  1
  Zr  Zr23  1  0.70228079  0.89009763  0.90655870  1
  Zr  Zr24  1  0.70590461  0.69390480  0.29956689  1
  Zr  Zr25  1  0.69366468  0.68614111  0.90158439  1
  Zr  Zr26  1  0.70872402  0.29183530  0.30741813  1
  Zr  Zr27  1  0.70017355  0.10182544  0.49816989  1
  Zr  Zr28  1  0.50239835  0.69890760  0.69797386  1
  Zr  Zr29  1  0.89840616  0.70115334  0.49856037  1
  Zr  Zr30  1  0.29266359  0.09710936  0.90244052  1
  Zr  Zr31  1  0.29911188  0.50007360  0.29789054  1
  Zr  Zr32  1  0.50618901  0.89488873  0.49661426  1
  Zr  Zr33  1  0.89133749  0.49140836  0.90257821  1
  Zr  Zr34  1  0.89903340  0.10068842  0.09238724  1
  Zr  Zr35  1  0.89396124  0.69888155  0.30193416  1
  Zr  Zr36  1  0.10478087  0.90760957  0.90840937  1
  Zr  Zr37  1  0.50006148  0.50087107  0.69325616  1
  Zr  Zr38  1  0.49733707  0.89304232  0.90500924  1
  Zr  Zr39  1  0.90182695  0.49040500  0.09457586  1
  Zr  Zr40  1  0.49711318  0.08905339  0.90789380  1
  Zr  Zr41  1  0.70501346  0.09902858  0.69438395  1
  Zr  Zr42  1  0.88667260  0.70197839  0.90082363  1
  Zr  Zr43  1  0.69953658  0.49711674  0.71333480  1
  Zr  Zr44  1  0.49787696  0.90351508  0.09710876  1
  Zr  Zr45  1  0.69826762  0.29376602  0.70676612  1
  Zr  Zr46  1  0.10849591  0.49305028  0.29976049  1
  Zr  Zr47  1  0.09218992  0.50218579  0.69668678  1
  Zr  Zr48  1  0.29457793  0.29755966  0.49552778  1
  Zr  Zr49  1  0.09391579  0.90664289  0.49561890  1
  Sc  Sc50  1  0.30251687  0.50736311  0.10377419  1
  Sc  Sc51  1  0.50115976  0.31026108  0.70511798  1
  Sc  Sc52  1  0.48829917  0.69691917  0.09580657  1
  Sc  Sc53  1  0.30842759  0.70834480  0.90295426  1
  Sc  Sc54  1  0.29976888  0.49796242  0.70317886  1
  Sc  Sc55  1  0.69800220  0.49117066  0.50403047  1
  Sc  Sc56  1  0.70608238  0.49218652  0.30523599  1
  Sc  Sc57  1  0.89513961  0.29580960  0.50388149  1
  Sc  Sc58  1  0.70177153  0.29847605  0.10592095  1
  Sc  Sc59  1  0.69508596  0.49428701  0.08111693  1
  Sc  Sc60  1  0.30439762  0.49939971  0.48668323  1
  Sc  Sc61  1  0.49986975  0.31529252  0.49909208  1
  Sc  Sc62  1  0.09843686  0.70398693  0.89810630  1
  Sc  Sc63  1  0.30262245  0.31040197  0.70334142  1
  Sc  Sc64  1  0.69865221  0.70399349  0.49870085  1
  Sc  Sc65  1  0.70547123  0.09930507  0.10618039  1
  Sc  Sc66  1  0.10175015  0.10845471  0.90094822  1
  Sc  Sc67  1  0.10162824  0.29783535  0.29351308  1
  Sc  Sc68  1  0.90545079  0.49614919  0.70491858  1
  Sc  Sc69  1  0.28195535  0.89701016  0.49574343  1
  Sc  Sc70  1  0.49064944  0.71161685  0.29758580  1
  Sc  Sc71  1  0.30705232  0.90763775  0.89876230  1
  Sc  Sc72  1  0.90076466  0.50191324  0.28665036  1
  Sc  Sc73  1  0.28951657  0.09120288  0.70301941  1
  Sc  Sc74  1  0.89946756  0.11028357  0.69815470  1
  Sc  Sc75  1  0.29851244  0.89578323  0.30093488  1
  Sc  Sc76  1  0.89823380  0.90919863  0.09992404  1
  Sc  Sc77  1  0.51506244  0.50289669  0.90613589  1
  Sc  Sc78  1  0.09943242  0.10188990  0.69591892  1
  Sc  Sc79  1  0.69818303  0.89435734  0.29393302  1
  Sc  Sc80  1  0.09839440  0.49317468  0.89292997  1
  Sc  Sc81  1  0.70060045  0.70410047  0.70950796  1
  Sc  Sc82  1  0.70063317  0.30879408  0.89451676  1
  Sc  Sc83  1  0.90160771  0.10639737  0.28584058  1
  Sc  Sc84  1  0.70205596  0.69488776  0.09764412  1
  Sc  Sc85  1  0.69791478  0.90496789  0.51363555  1
  Sc  Sc86  1  0.90518409  0.49399219  0.51400645  1
  Sc  Sc87  1  0.30076297  0.70164904  0.49097506  1
  Sc  Sc88  1  0.69691634  0.90685024  0.09990918  1
  Sc  Sc89  1  0.09701923  0.48986117  0.10731721  1
  Sc  Sc90  1  0.30103821  0.70590704  0.10521234  1
  Sc  Sc91  1  0.90045051  0.69906067  0.70193687  1
  Sc  Sc92  1  0.09742573  0.28820729  0.49711691  1
  Sc  Sc93  1  0.50451376  0.09347824  0.10959153  1
  Sc  Sc94  1  0.29835304  0.70410199  0.29559874  1
  Sc  Sc95  1  0.90550345  0.89715011  0.50090677  1
  Sc  Sc96  1  0.89882941  0.30007705  0.70219465  1
  Sc  Sc97  1  0.90456923  0.30077297  0.09818374  1
  Sc  Sc98  1  0.50645668  0.09979520  0.70389623  1
  Sc  Sc99  1  0.10116496  0.29854621  0.90344799  1
  Nb  Nb100  1  0.10793305  0.30061855  0.09533752  1
  Nb  Nb101  1  0.09819120  0.50110994  0.49934058  1
  Nb  Nb102  1  0.70474086  0.50264695  0.89933771  1
  Nb  Nb103  1  0.49903405  0.51128081  0.49846112  1
  Nb  Nb104  1  0.70020149  0.90478309  0.70175850  1
  Nb  Nb105  1  0.30485589  0.10260502  0.30992293  1
  Nb  Nb106  1  0.10121458  0.09342042  0.49975436  1
  Nb  Nb107  1  0.49718101  0.49847958  0.29995740  1
  Nb  Nb108  1  0.90229829  0.30677110  0.29835318  1
  Nb  Nb109  1  0.29879437  0.70282192  0.69940759  1
  Nb  Nb110  1  0.90296780  0.28912588  0.90360926  1
  Nb  Nb111  1  0.70265446  0.10608314  0.30061547  1
  Nb  Nb112  1  0.49878422  0.09171450  0.50230600  1
  Nb  Nb113  1  0.30284829  0.10334727  0.49349991  1
  Nb  Nb114  1  0.49894994  0.69969473  0.50325215  1
  Nb  Nb115  1  0.29914476  0.89833730  0.69614165  1
  Nb  Nb116  1  0.49733386  0.70155591  0.89705749  1
  Nb  Nb117  1  0.90018081  0.09606550  0.50552788  1
  Nb  Nb118  1  0.50014244  0.29688403  0.89746112  1
  Nb  Nb119  1  0.90263690  0.10353815  0.90234872  1
  Nb  Nb120  1  0.50008528  0.49857889  0.10245325  1
  Nb  Nb121  1  0.29866623  0.89949009  0.09674829  1
  Nb  Nb122  1  0.30135627  0.30134863  0.09953118  1
  Nb  Nb123  1  0.09929831  0.70062667  0.09598038  1
  Nb  Nb124  1  0.70113752  0.29450090  0.50106294  1
  Nb  Nb125  1  0.19347131  0.60335895  0.00065320  1
  Nb  Nb126  1  0.00288797  0.60020795  0.00274791  1
  Nb  Nb127  1  0.59218999  0.59319460  0.20431546  1
  Nb  Nb128  1  0.60777213  -0.00530177  0.80320274  1
  Nb  Nb129  1  -0.00425400  0.00077975  0.80234430  1
  Nb  Nb130  1  0.40233280  0.19368163  0.59862033  1
  Nb  Nb131  1  0.20076794  0.80560119  0.79334419  1
  Nb  Nb132  1  0.40523346  0.39956584  0.19762889  1
  Nb  Nb133  1  0.79911666  0.00745394  0.39910179  1
  Nb  Nb134  1  0.59506384  0.20079578  -0.00407540  1
  Nb  Nb135  1  0.00201444  0.59490439  0.39937357  1
  Nb  Nb136  1  0.40068727  0.19946398  0.80379678  1
  Nb  Nb137  1  0.40510163  0.60451447  0.80008393  1
  Nb  Nb138  1  0.79827930  0.59781016  0.60398739  1
  Nb  Nb139  1  0.19277300  0.40607782  0.59407143  1
  Nb  Nb140  1  0.58995468  0.59835164  0.39937986  1
  Nb  Nb141  1  0.40400888  0.39718437  0.00387688  1
  Nb  Nb142  1  0.80145171  -0.00008563  0.80224988  1
  Nb  Nb143  1  0.00182169  0.81133977  0.80007594  1
  Nb  Nb144  1  0.40131751  0.20477640  0.00010503  1
  Nb  Nb145  1  0.59609250  0.20091479  0.59342654  1
  Nb  Nb146  1  0.39692924  -0.00043656  0.59446594  1
  Nb  Nb147  1  0.39773763  0.80165237  0.59949349  1
  Nb  Nb148  1  0.00057571  0.40096236  0.39782767  1
  Nb  Nb149  1  0.19752263  0.59861804  0.59688168  1
  Pd  Pd150  1  0.60143915  0.40507814  0.40192615  1
  Pd  Pd151  1  -0.00203676  0.19804159  0.59685416  1
  Pd  Pd152  1  0.81417684  0.19382460  0.39994954  1
  Pd  Pd153  1  0.79521042  0.79285872  0.60137798  1
  Pd  Pd154  1  0.40384801  0.00471892  0.79100743  1
  Pd  Pd155  1  0.20517055  0.20515034  0.79260863  1
  Pd  Pd156  1  0.78489787  0.58411741  0.19004744  1
  Pd  Pd157  1  0.79845043  0.80449825  0.19172318  1
  Pd  Pd158  1  0.19760412  0.19989481  0.20179491  1
  Pd  Pd159  1  -0.00323514  0.80716641  0.19916107  1
  Pd  Pd160  1  0.60454923  0.79422876  0.39771006  1
  Pd  Pd161  1  0.80141264  0.79709974  0.01394733  1
  Pd  Pd162  1  0.20787302  -0.00223518  0.20668046  1
  Pd  Pd163  1  0.60783805  0.40790852  0.20268455  1
  Pd  Pd164  1  0.20775220  0.20141443  0.60541747  1
  Pd  Pd165  1  0.81230820  0.40455248  0.40476685  1
  Pd  Pd166  1  -0.00513246  0.79432435  -0.00125178  1
  Pd  Pd167  1  0.60407018  0.39526362  0.60064088  1
  Pd  Pd168  1  0.19858191  0.60233397  0.19151911  1
  Pd  Pd169  1  0.61114726  -0.00369563  0.39248398  1
  Pd  Pd170  1  0.19285679  0.19529569  0.39530223  1
  Pd  Pd171  1  0.19368021  0.60854057  0.40330015  1
  Pd  Pd172  1  0.41177634  0.20916134  0.40660392  1
  Pd  Pd173  1  0.59712510  0.79003915  0.00940189  1
  Pd  Pd174  1  -0.00662845  0.20091872  0.39810283  1
  Pd  Pd175  1  0.39515621  0.59389668  -0.00696826  1
  Pd  Pd176  1  0.60365147  0.80172311  0.80169570  1
  Pd  Pd177  1  -0.00731303  0.60567556  0.81230153  1
  Pd  Pd178  1  0.59677155  0.78819388  0.19132759  1
  Pd  Pd179  1  0.60515544  0.00322356  0.20894224  1
  Pd  Pd180  1  0.40522212  0.20241873  0.19763329  1
  Pd  Pd181  1  0.79709531  0.40048938  0.60725763  1
  Pd  Pd182  1  0.39192119  -0.00303912  0.20253886  1
  Pd  Pd183  1  0.61260600  0.60320556  0.59564931  1
  Pd  Pd184  1  0.40345856  0.60890767  0.39185862  1
  Pd  Pd185  1  0.79490791  0.40012612  0.19533857  1
  Pd  Pd186  1  0.40285903  0.39564496  0.39427350  1
  Pd  Pd187  1  0.20709915  0.79671790  -0.00542901  1
  Pd  Pd188  1  -0.01107979  0.00910384  0.39671405  1
  Pd  Pd189  1  0.20360889  0.41215859  0.00666054  1
  Pd  Pd190  1  0.38761428  0.60257591  0.60163621  1
  Pd  Pd191  1  0.79266030  0.81452934  0.40618917  1
  Pd  Pd192  1  0.20675583  0.60821565  0.80272571  1
  Pd  Pd193  1  0.79214095  0.20704221  0.00241290  1
  Pd  Pd194  1  -0.00309961  0.39141456  0.80773794  1
  Pd  Pd195  1  0.39133755  -0.01146971  0.40589067  1
  Pd  Pd196  1  0.00179874  0.20648633  0.19262596  1
  Pd  Pd197  1  0.39113711  0.40038785  0.59338532  1
  Pd  Pd198  1  0.80301643  0.58628399  0.41247266  1
  Pd  Pd199  1  0.59193497  0.20090123  0.40897455  1
  Rh  Rh200  1  0.59240657  0.19503847  0.80028453  1
  Rh  Rh201  1  0.20288515  0.00252885  0.00494548  1
  Rh  Rh202  1  0.80928252  0.20139097  0.80180071  1
  Rh  Rh203  1  0.00342066  0.39820551  -0.00270350  1
  Rh  Rh204  1  0.20250144  0.19941747  0.00559436  1
  Rh  Rh205  1  0.20918279  0.39630107  0.19502553  1
  Rh  Rh206  1  0.79687022  0.00195891  0.20883005  1
  Rh  Rh207  1  0.00395828  0.00704403  -0.00129928  1
  Rh  Rh208  1  0.00320160  0.39206685  0.20337617  1
  Rh  Rh209  1  0.80479059  0.39349336  0.80270603  1
  Rh  Rh210  1  0.80685033  0.59685576  0.00385057  1
  Rh  Rh211  1  0.40317815  0.59645654  0.20543605  1
  Rh  Rh212  1  0.60507247  0.19127802  0.19826015  1
  Rh  Rh213  1  0.79489016  0.20408280  0.59801198  1
  Rh  Rh214  1  0.19545178  0.79555416  0.39196307  1
  Rh  Rh215  1  0.59722554  0.40582986  0.80438946  1
  Rh  Rh216  1  0.00640869  0.59246031  0.19861828  1
  Rh  Rh217  1  0.59956986  0.79561121  0.60244192  1
  Rh  Rh218  1  0.39819395  0.80216963  0.40722175  1
  Rh  Rh219  1  -0.00010237  -0.00255001  0.19575616  1
  Rh  Rh220  1  0.59490891  0.60613852  0.00711673  1
  Rh  Rh221  1  0.79449708  0.00457361  -0.00288625  1
  Rh  Rh222  1  0.20586761  0.79074187  0.60076905  1
  Rh  Rh223  1  0.80477270  0.20578582  0.20010617  1
  Rh  Rh224  1  0.60109896  0.39382876  -0.00676269  1
  Rh  Rh225  1  0.39795348  0.80334297  0.00420903  1
  Rh  Rh226  1  0.39158363  0.00389428  0.01102624  1
  Rh  Rh227  1  -0.00213882  0.00856221  0.60414002  1
  Rh  Rh228  1  0.00597525  0.20371223  0.00241533  1
  Rh  Rh229  1  0.59294034  0.00500219  0.60793982  1
  Rh  Rh230  1  0.20344757  0.00798809  0.39788899  1
  Rh  Rh231  1  0.79825518  0.39035100  -0.00405693  1
  Rh  Rh232  1  -0.00463277  0.80010297  0.60632192  1
  Rh  Rh233  1  0.80609013  0.00082258  0.59681268  1
  Rh  Rh234  1  0.00649022  0.38777180  0.59114048  1
  Rh  Rh235  1  0.80445435  0.80765803  0.79798830  1
  Rh  Rh236  1  0.59395235  0.59703809  0.80045007  1
  Rh  Rh237  1  0.19034849  0.39120687  0.40702251  1
  Rh  Rh238  1  0.18934471  -0.00790314  0.79831928  1
  Rh  Rh239  1  0.80408371  0.59624503  0.79368033  1
  Rh  Rh240  1  0.39332809  0.79471532  0.79372481  1
  Rh  Rh241  1  0.20634946  0.00930315  0.58930538  1
  Rh  Rh242  1  0.61137583  0.00790589  -0.00533171  1
  Rh  Rh243  1  -0.00176631  0.79351176  0.39180086  1
  Rh  Rh244  1  0.19990250  0.80249758  0.19852111  1
  Rh  Rh245  1  0.18908823  0.39826755  0.78795126  1
  Rh  Rh246  1  -0.00128221  0.19612815  0.80335023  1
  Rh  Rh247  1  0.41147806  0.40788776  0.80975766  1
  Rh  Rh248  1  0.39751488  0.80888207  0.19440564  1
  Rh  Rh249  1  -0.00420672  0.60701467  0.59163916  1
