# generated using pymatgen
data_ZrScNbPdRh
_symmetry_space_group_name_H-M   'P 1'
_cell_length_a   16.56077676
_cell_length_b   16.55669208
_cell_length_c   16.56113743
_cell_angle_alpha   90.01236279
_cell_angle_beta   89.94272590
_cell_angle_gamma   89.98706855
_symmetry_Int_Tables_number   1
_chemical_formula_structural   ZrScNbPdRh
_chemical_formula_sum   'Zr50 Sc50 Nb50 Pd50 Rh50'
_cell_volume   4540.92362793
_cell_formula_units_Z   50
loop_
 _symmetry_equiv_pos_site_id
 _symmetry_equiv_pos_as_xyz
  1  'x, y, z'
loop_
 _atom_site_type_symbol
 _atom_site_label
 _atom_site_symmetry_multiplicity
 _atom_site_fract_x
 _atom_site_fract_y
 _atom_site_fract_z
 _atom_site_occupancy
  Zr  Zr0  1  0.30305409  0.89917196  0.90382737  1
  Zr  Zr1  1  0.69995707  0.69960538  0.09364344  1
  Zr  Zr2  1  0.09877320  0.90272149  0.90272426  1
  Zr  Zr3  1  0.89833282  0.90309757  0.69774670  1
  Zr  Zr4  1  0.50553266  0.30754300  0.49487834  1
  Zr  Zr5  1  0.69653212  0.49898993  0.09983175  1
  Zr  Zr6  1  0.90203051  0.89336488  0.49664038  1
  Zr  Zr7  1  0.49733869  0.09572003  0.89756224  1
  Zr  Zr8  1  0.30155654  0.50263538  0.30727996  1
  Zr  Zr9  1  0.09556044  0.90600699  0.30608415  1
  Zr  Zr10  1  0.89726582  0.10864066  0.09548279  1
  Zr  Zr11  1  0.69752355  0.29735178  0.30159683  1
  Zr  Zr12  1  0.30058655  0.29599756  0.69974243  1
  Zr  Zr13  1  0.69631813  0.69101702  0.28921694  1
  Zr  Zr14  1  0.10171513  0.09952001  0.89976236  1
  Zr  Zr15  1  0.29877686  0.90618167  0.49725298  1
  Zr  Zr16  1  0.30174693  0.09231668  0.30403531  1
  Zr  Zr17  1  0.89559974  0.50409983  0.30122925  1
  Zr  Zr18  1  0.50051868  0.50858453  0.50216239  1
  Zr  Zr19  1  0.50007650  0.89658315  0.49481249  1
  Zr  Zr20  1  0.09790043  0.50560428  0.90608451  1
  Zr  Zr21  1  0.10049762  0.30253790  0.30132381  1
  Zr  Zr22  1  0.70636312  0.30406430  0.89071098  1
  Zr  Zr23  1  0.30110636  0.10468810  0.90198612  1
  Zr  Zr24  1  0.89971650  0.89056387  0.89549732  1
  Zr  Zr25  1  0.30079275  0.89651319  0.69806515  1
  Zr  Zr26  1  0.10576580  0.89964277  0.09566287  1
  Zr  Zr27  1  0.30286430  0.09761950  0.09450983  1
  Zr  Zr28  1  0.50956830  0.49601517  0.90729506  1
  Zr  Zr29  1  0.50333638  0.69298035  0.89973975  1
  Zr  Zr30  1  0.49733763  0.29948639  0.89892044  1
  Zr  Zr31  1  0.10380566  0.70301164  0.30682024  1
  Zr  Zr32  1  0.50067602  0.09491267  0.09867691  1
  Zr  Zr33  1  0.90783696  0.49777280  0.10651904  1
  Zr  Zr34  1  0.90048156  0.51464518  0.90342501  1
  Zr  Zr35  1  0.70687391  0.90406543  0.30278723  1
  Zr  Zr36  1  0.09868220  0.29538626  0.50211107  1
  Zr  Zr37  1  0.09745898  0.89458442  0.50208111  1
  Zr  Zr38  1  0.69832651  0.89889611  0.70270667  1
  Zr  Zr39  1  0.09687725  0.50073123  0.70596132  1
  Zr  Zr40  1  0.50418484  0.30785293  0.30242097  1
  Zr  Zr41  1  0.50417688  0.30731924  0.70148397  1
  Zr  Zr42  1  0.69542557  0.10401388  0.49089396  1
  Zr  Zr43  1  0.90609432  0.69305651  0.49583727  1
  Zr  Zr44  1  0.49734605  0.89683724  0.09406787  1
  Zr  Zr45  1  0.70196060  0.30191350  0.10466375  1
  Zr  Zr46  1  0.10207367  0.70003988  0.70347334  1
  Zr  Zr47  1  0.70054230  0.10003039  0.30092470  1
  Zr  Zr48  1  0.09798563  0.09800849  0.49683335  1
  Zr  Zr49  1  0.09879869  0.31459599  0.10091499  1
  Sc  Sc50  1  0.30619909  0.89567360  0.29931547  1
  Sc  Sc51  1  0.10313582  0.70567126  0.10645379  1
  Sc  Sc52  1  0.89837796  0.69335269  0.30606568  1
  Sc  Sc53  1  0.50346922  0.51084353  0.30382102  1
  Sc  Sc54  1  0.90043578  0.10712507  0.89986995  1
  Sc  Sc55  1  0.70026451  0.90139066  0.90138714  1
  Sc  Sc56  1  0.90228491  0.10224554  0.71078825  1
  Sc  Sc57  1  0.89889145  0.91085864  0.09416854  1
  Sc  Sc58  1  0.31287006  0.50739364  0.89938273  1
  Sc  Sc59  1  0.29516842  0.29927215  0.09198633  1
  Sc  Sc60  1  0.29063211  0.10121988  0.50169347  1
  Sc  Sc61  1  0.50513759  0.09133353  0.30092031  1
  Sc  Sc62  1  0.49208165  0.90150782  0.29483041  1
  Sc  Sc63  1  0.70428065  0.50018772  0.29386550  1
  Sc  Sc64  1  0.30356643  0.70104687  0.29066703  1
  Sc  Sc65  1  0.89594196  0.69601011  0.09160690  1
  Sc  Sc66  1  0.31211074  0.70207438  0.90032199  1
  Sc  Sc67  1  0.30997464  0.69103159  0.70403884  1
  Sc  Sc68  1  0.29625371  0.69741013  0.48906426  1
  Sc  Sc69  1  0.50261555  0.69986273  0.10319451  1
  Sc  Sc70  1  0.28513458  0.30133490  0.49699305  1
  Sc  Sc71  1  0.70709699  0.09273252  0.89490822  1
  Sc  Sc72  1  0.29044153  0.30978238  0.30863903  1
  Sc  Sc73  1  0.09122837  0.10212836  0.30767250  1
  Sc  Sc74  1  0.10093791  0.49752603  0.28232044  1
  Sc  Sc75  1  0.08040754  0.69939076  0.89775782  1
  Sc  Sc76  1  0.89588211  0.29795977  0.29025788  1
  Sc  Sc77  1  0.30375830  0.09516507  0.70084740  1
  Sc  Sc78  1  0.50610339  0.09417110  0.49684656  1
  Sc  Sc79  1  0.09333535  0.90204624  0.69381900  1
  Sc  Sc80  1  0.89487513  0.29463182  0.71117785  1
  Sc  Sc81  1  0.70200097  0.89652972  0.49925872  1
  Sc  Sc82  1  0.50438112  0.50898011  0.70150809  1
  Sc  Sc83  1  0.30897313  0.29516077  0.90438815  1
  Sc  Sc84  1  0.69493386  0.30537894  0.49727099  1
  Sc  Sc85  1  0.30278367  0.50639601  0.70056820  1
  Sc  Sc86  1  0.09463780  0.29808701  0.69010247  1
  Sc  Sc87  1  0.89720291  0.09463845  0.29743684  1
  Sc  Sc88  1  0.69346304  0.70230339  0.51375100  1
  Sc  Sc89  1  0.90409696  0.49120824  0.69441477  1
  Sc  Sc90  1  0.09558982  0.09691044  0.09130421  1
  Sc  Sc91  1  0.50170709  0.90865185  0.70046678  1
  Sc  Sc92  1  0.70274033  0.09397606  0.09975998  1
  Sc  Sc93  1  0.29924527  0.50362693  0.10661162  1
  Sc  Sc94  1  0.90178682  0.10638023  0.49512972  1
  Sc  Sc95  1  0.89633135  0.70436039  0.71575367  1
  Sc  Sc96  1  0.09266659  0.10186116  0.69375851  1
  Sc  Sc97  1  0.88894218  0.30491102  0.50437421  1
  Sc  Sc98  1  0.69852641  0.90218547  0.09319566  1
  Sc  Sc99  1  0.50811289  0.30677170  0.09729059  1
  Nb  Nb100  1  0.50432402  0.89513034  0.89778986  1
  Nb  Nb101  1  0.69984172  0.30565822  0.69835453  1
  Nb  Nb102  1  0.69263394  0.69147637  0.70390597  1
  Nb  Nb103  1  0.71218024  0.68517001  0.89664392  1
  Nb  Nb104  1  0.69473563  0.09547680  0.70104742  1
  Nb  Nb105  1  0.90078159  0.29356140  0.90361004  1
  Nb  Nb106  1  0.70089340  0.50602641  0.89702412  1
  Nb  Nb107  1  0.10120891  0.50223488  0.09642368  1
  Nb  Nb108  1  0.29880061  0.71512407  0.10034098  1
  Nb  Nb109  1  0.88901308  0.69837777  0.90394678  1
  Nb  Nb110  1  0.50510757  0.49506545  0.09867134  1
  Nb  Nb111  1  0.50560163  0.69877841  0.30184848  1
  Nb  Nb112  1  0.09789755  0.69812301  0.50176399  1
  Nb  Nb113  1  0.08388703  0.49704647  0.51504749  1
  Nb  Nb114  1  0.29908230  0.88899591  0.10357704  1
  Nb  Nb115  1  0.71065954  0.49203639  0.51153641  1
  Nb  Nb116  1  0.89890384  0.50020968  0.50164042  1
  Nb  Nb117  1  0.50423398  0.69689309  0.50768520  1
  Nb  Nb118  1  0.50579089  0.10392262  0.69947909  1
  Nb  Nb119  1  0.50909688  0.69609889  0.68788511  1
  Nb  Nb120  1  0.10509080  0.30127836  0.90435979  1
  Nb  Nb121  1  0.30010750  0.49857838  0.49919405  1
  Nb  Nb122  1  0.70017003  0.49491348  0.70553596  1
  Nb  Nb123  1  0.89547402  0.30044782  0.09306829  1
  Nb  Nb124  1  0.89910384  0.89666785  0.30169105  1
  Nb  Nb125  1  0.80474243  0.39934973  -0.00327661  1
  Nb  Nb126  1  0.19689548  0.39657810  0.80472657  1
  Nb  Nb127  1  0.39691191  0.20563419  0.20488170  1
  Nb  Nb128  1  0.40613623  0.20371716  0.59610323  1
  Nb  Nb129  1  0.79805654  0.59579285  0.60461836  1
  Nb  Nb130  1  0.60002639  0.79084565  0.79850974  1
  Nb  Nb131  1  0.40181669  0.40091523  0.20339444  1
  Nb  Nb132  1  0.79724751  0.00740483  0.60145575  1
  Nb  Nb133  1  0.20190001  -0.00039922  0.19703429  1
  Nb  Nb134  1  0.60265948  0.19825808  0.79459687  1
  Nb  Nb135  1  0.39838200  0.40089635  0.59333211  1
  Nb  Nb136  1  0.80480777  0.80365442  0.20141575  1
  Nb  Nb137  1  -0.00320046  0.40649288  0.40536038  1
  Nb  Nb138  1  0.00360815  0.39380558  0.81231016  1
  Nb  Nb139  1  0.19935454  0.60408238  0.00471646  1
  Nb  Nb140  1  0.40592931  0.79343975  0.59607270  1
  Nb  Nb141  1  0.40073079  0.20310466  0.40022184  1
  Nb  Nb142  1  0.20164654  0.19578287  0.19931398  1
  Nb  Nb143  1  -0.00660297  0.80582179  0.20530901  1
  Nb  Nb144  1  0.59485595  0.79144925  0.39629323  1
  Nb  Nb145  1  0.60334038  0.19983271  -0.00826340  1
  Nb  Nb146  1  0.19659741  0.20469693  0.80246835  1
  Nb  Nb147  1  0.78649856  0.19692510  0.60808209  1
  Nb  Nb148  1  0.19231323  0.59751248  0.59035897  1
  Nb  Nb149  1  0.20058305  0.80160305  0.80013952  1
  Pd  Pd150  1  0.20458774  0.80405440  0.39684139  1
  Pd  Pd151  1  -0.00689379  0.60830168  0.61152140  1
  Pd  Pd152  1  0.00693407  0.20230039  0.19465531  1
  Pd  Pd153  1  -0.01151764  0.21232941  0.39855384  1
  Pd  Pd154  1  0.80190438  0.79335762  0.60346977  1
  Pd  Pd155  1  0.80353274  0.39624427  0.39468596  1
  Pd  Pd156  1  0.19446348  0.00329208  0.60473639  1
  Pd  Pd157  1  0.60868897  0.41640347  0.39765186  1
  Pd  Pd158  1  0.60449466  0.80764887  0.20422732  1
  Pd  Pd159  1  0.20309524  0.60512908  0.19431132  1
  Pd  Pd160  1  0.20540523  0.60386048  0.80888607  1
  Pd  Pd161  1  0.59383310  0.19841741  0.19477084  1
  Pd  Pd162  1  0.80663065  0.00375750  0.40818510  1
  Pd  Pd163  1  -0.01594269  0.20208010  0.60109956  1
  Pd  Pd164  1  0.78769377  0.60304626  0.41169479  1
  Pd  Pd165  1  0.78945867  0.79961069  0.80277265  1
  Pd  Pd166  1  0.39633836  0.60507756  0.01275941  1
  Pd  Pd167  1  0.40465164  0.59834912  0.19458100  1
  Pd  Pd168  1  0.61249976  0.59978243  0.40915937  1
  Pd  Pd169  1  0.21220798  0.41214047  -0.00637903  1
  Pd  Pd170  1  0.18224938  0.41404952  0.40534527  1
  Pd  Pd171  1  0.18720688  0.58852454  0.40618388  1
  Pd  Pd172  1  0.60408102  -0.00487677  0.59489870  1
  Pd  Pd173  1  -0.00682321  0.40031592  -0.00372515  1
  Pd  Pd174  1  0.00615580  0.20282673  0.00178632  1
  Pd  Pd175  1  0.39664943  0.40868274  0.79461505  1
  Pd  Pd176  1  0.40196876  -0.00025140  0.79902593  1
  Pd  Pd177  1  -0.00613167  0.79163420  0.60516402  1
  Pd  Pd178  1  0.39873299  -0.00733266  -0.00055949  1
  Pd  Pd179  1  0.00195170  -0.00177177  0.19708178  1
  Pd  Pd180  1  0.40317070  0.00409074  0.59474383  1
  Pd  Pd181  1  -0.00326231  0.00018233  0.80327848  1
  Pd  Pd182  1  0.79898369  0.19498003  0.20079855  1
  Pd  Pd183  1  0.19735817  0.78839274  -0.01352017  1
  Pd  Pd184  1  0.60288144  -0.00828176  0.19921781  1
  Pd  Pd185  1  0.40747940  0.79754652  0.79095652  1
  Pd  Pd186  1  0.60016012  0.20358524  0.60090527  1
  Pd  Pd187  1  0.40374973  0.79057793  0.40196077  1
  Pd  Pd188  1  0.01047536  0.58966031  0.39450594  1
  Pd  Pd189  1  0.19789389  0.00019240  0.79315634  1
  Pd  Pd190  1  0.40132837  0.60876790  0.40130100  1
  Pd  Pd191  1  0.20488798  0.40852397  0.60724207  1
  Pd  Pd192  1  -0.00559740  0.79740863  0.00843976  1
  Pd  Pd193  1  0.60529341  0.79508874  -0.01082890  1
  Pd  Pd194  1  0.80443636  0.00067247  -0.00682950  1
  Pd  Pd195  1  0.21174696  0.78615071  0.60498652  1
  Pd  Pd196  1  0.78984586  0.78569681  0.39540711  1
  Pd  Pd197  1  0.81216426  0.40715427  0.80449983  1
  Pd  Pd198  1  -0.00024688  0.61173963  0.19851317  1
  Pd  Pd199  1  0.39483017  0.40112724  0.00894974  1
  Rh  Rh200  1  0.00548066  0.80571800  0.79718253  1
  Rh  Rh201  1  0.79693211  0.59108190  0.00765238  1
  Rh  Rh202  1  -0.01056863  0.00441723  0.59383891  1
  Rh  Rh203  1  0.59357875  0.40931718  0.20763726  1
  Rh  Rh204  1  0.80192320  -0.00271990  0.19764158  1
  Rh  Rh205  1  0.19425918  0.19793679  0.00021278  1
  Rh  Rh206  1  0.60023986  0.40173701  0.80162019  1
  Rh  Rh207  1  0.80142500  0.39708191  0.60678983  1
  Rh  Rh208  1  0.38862158  0.60046149  0.59294698  1
  Rh  Rh209  1  0.59989674  0.00477116  -0.00606298  1
  Rh  Rh210  1  0.79828927  0.20535810  0.40206198  1
  Rh  Rh211  1  0.20947226  0.39700805  0.19451934  1
  Rh  Rh212  1  -0.01022302  0.38796283  0.60064377  1
  Rh  Rh213  1  -0.01028418  0.59775134  0.79597523  1
  Rh  Rh214  1  0.39650136  0.39781421  0.40201840  1
  Rh  Rh215  1  0.19789406  -0.00284224  0.39671587  1
  Rh  Rh216  1  0.60168658  0.60061353  0.00227789  1
  Rh  Rh217  1  0.40659471  0.79544141  0.19814352  1
  Rh  Rh218  1  0.40035643  0.00772480  0.40577165  1
  Rh  Rh219  1  0.80346607  0.40084527  0.19536321  1
  Rh  Rh220  1  0.59374572  0.19831567  0.39550401  1
  Rh  Rh221  1  0.19351319  0.80950720  0.20942785  1
  Rh  Rh222  1  0.41295459  0.59799036  0.80000158  1
  Rh  Rh223  1  -0.00586822  0.39577869  0.20501723  1
  Rh  Rh224  1  0.79766299  0.80173430  0.00252566  1
  Rh  Rh225  1  0.59409100  0.59508853  0.19259039  1
  Rh  Rh226  1  0.01074849  0.20634575  0.80441150  1
  Rh  Rh227  1  0.20320206  0.19319702  0.39230506  1
  Rh  Rh228  1  0.20764143  -0.00240672  0.00504851  1
  Rh  Rh229  1  0.61249041  0.39520976  -0.00605240  1
  Rh  Rh230  1  0.80479591  0.59253437  0.78956867  1
  Rh  Rh231  1  0.00724099  0.60892460  0.01030777  1
  Rh  Rh232  1  0.79043707  0.20548220  -0.00027606  1
  Rh  Rh233  1  0.79164668  0.19458478  0.79424609  1
  Rh  Rh234  1  0.41421229  0.20509914  0.01296304  1
  Rh  Rh235  1  0.00096331  0.79755283  0.39700320  1
  Rh  Rh236  1  0.39402063  -0.00077353  0.19338897  1
  Rh  Rh237  1  0.59651897  -0.00273462  0.80518947  1
  Rh  Rh238  1  -0.00651210  -0.00140972  0.40627264  1
  Rh  Rh239  1  0.59394802  0.80847125  0.60258496  1
  Rh  Rh240  1  0.61312453  0.58778002  0.59821603  1
  Rh  Rh241  1  0.80299947  0.60468702  0.19310300  1
  Rh  Rh242  1  0.80457709  -0.00024409  0.79615865  1
  Rh  Rh243  1  0.40038130  0.19376553  0.78940348  1
  Rh  Rh244  1  -0.00765172  0.00224909  -0.00779324  1
  Rh  Rh245  1  0.20606563  0.19184795  0.60920721  1
  Rh  Rh246  1  0.59840827  -0.01349518  0.39484317  1
  Rh  Rh247  1  0.59872441  0.59984845  0.80267533  1
  Rh  Rh248  1  0.40521093  0.79774685  0.00164579  1
  Rh  Rh249  1  0.59495214  0.40787494  0.60169378  1
