# generated using pymatgen
data_ZrScNbPdRh
_symmetry_space_group_name_H-M   'P 1'
_cell_length_a   16.55998164
_cell_length_b   16.56276802
_cell_length_c   16.55902310
_cell_angle_alpha   89.98353802
_cell_angle_beta   89.97948467
_cell_angle_gamma   90.01531336
_symmetry_Int_Tables_number   1
_chemical_formula_structural   ZrScNbPdRh
_chemical_formula_sum   'Zr50 Sc50 Nb50 Pd50 Rh50'
_cell_volume   4541.79387766
_cell_formula_units_Z   50
loop_
 _symmetry_equiv_pos_site_id
 _symmetry_equiv_pos_as_xyz
  1  'x, y, z'
loop_
 _atom_site_type_symbol
 _atom_site_label
 _atom_site_symmetry_multiplicity
 _atom_site_fract_x
 _atom_site_fract_y
 _atom_site_fract_z
 _atom_site_occupancy
  Zr  Zr0  1  0.70479324  0.70468061  0.69342101  1
  Zr  Zr1  1  0.09404874  0.30903087  0.49640981  1
  Zr  Zr2  1  0.90434976  0.90177677  0.70490423  1
  Zr  Zr3  1  0.09734071  0.49170664  0.31020277  1
  Zr  Zr4  1  0.89368848  0.09765548  0.09402326  1
  Zr  Zr5  1  0.10381475  0.29903618  0.89846081  1
  Zr  Zr6  1  0.09903794  0.09646518  0.70263332  1
  Zr  Zr7  1  0.10376597  0.89780634  0.90409818  1
  Zr  Zr8  1  0.10338459  0.89453137  0.10844647  1
  Zr  Zr9  1  0.50380027  0.89192467  0.09112916  1
  Zr  Zr10  1  0.09997034  0.50371194  0.50296720  1
  Zr  Zr11  1  0.50198822  0.51763489  0.90492008  1
  Zr  Zr12  1  0.89866324  0.68318865  0.91071897  1
  Zr  Zr13  1  0.69442621  0.29597733  0.09738403  1
  Zr  Zr14  1  0.10221222  0.50025168  0.90235382  1
  Zr  Zr15  1  0.29879937  0.90554360  0.49656928  1
  Zr  Zr16  1  0.70287637  0.90243241  0.69868553  1
  Zr  Zr17  1  0.49929356  0.08795363  0.90249886  1
  Zr  Zr18  1  0.09791628  0.90130365  0.50783997  1
  Zr  Zr19  1  0.89663746  0.89732915  0.10540437  1
  Zr  Zr20  1  0.89528991  0.30800645  0.09837212  1
  Zr  Zr21  1  0.30668825  0.70606495  0.30028345  1
  Zr  Zr22  1  0.29887568  0.49708438  0.49503443  1
  Zr  Zr23  1  0.29538056  0.89339537  0.09594224  1
  Zr  Zr24  1  0.50090674  0.90108878  0.69865409  1
  Zr  Zr25  1  0.49384800  0.30052690  0.49277777  1
  Zr  Zr26  1  0.89815215  0.90263741  0.49599732  1
  Zr  Zr27  1  0.10995881  0.70027108  0.70034312  1
  Zr  Zr28  1  0.10681066  0.10385791  0.29362294  1
  Zr  Zr29  1  0.48594758  0.09985600  0.29917383  1
  Zr  Zr30  1  0.70588025  0.49966373  0.90281069  1
  Zr  Zr31  1  0.90238072  0.49821935  0.08442183  1
  Zr  Zr32  1  0.69637236  0.30081533  0.49258920  1
  Zr  Zr33  1  0.88822334  0.89660545  0.90525573  1
  Zr  Zr34  1  0.69852234  0.50489993  0.70100135  1
  Zr  Zr35  1  0.90980175  0.30268350  0.90738010  1
  Zr  Zr36  1  0.29575497  0.10256179  0.69515718  1
  Zr  Zr37  1  0.70062630  0.10106422  0.30011895  1
  Zr  Zr38  1  0.70852510  0.89220937  0.29652222  1
  Zr  Zr39  1  0.48560472  0.50124623  0.10002460  1
  Zr  Zr40  1  0.89687466  0.70425713  0.50620016  1
  Zr  Zr41  1  0.49933561  0.49543344  0.49408354  1
  Zr  Zr42  1  0.70085989  0.69437683  0.30329688  1
  Zr  Zr43  1  0.70811620  0.09326764  0.50025487  1
  Zr  Zr44  1  0.70682551  0.90039360  0.08860108  1
  Zr  Zr45  1  0.49871875  0.50387358  0.70471634  1
  Zr  Zr46  1  0.49774901  0.10107223  0.09888086  1
  Zr  Zr47  1  0.29218957  0.69201902  0.10328888  1
  Zr  Zr48  1  0.29761943  0.29767862  0.70182989  1
  Zr  Zr49  1  0.70748582  0.70000960  0.49695606  1
  Sc  Sc50  1  0.49540312  0.09997588  0.70542991  1
  Sc  Sc51  1  0.49847333  0.30082237  0.29891783  1
  Sc  Sc52  1  0.90987688  0.09856213  0.89216152  1
  Sc  Sc53  1  0.30409327  0.10238972  0.50216016  1
  Sc  Sc54  1  0.10457291  0.70764705  0.29843039  1
  Sc  Sc55  1  0.29768825  0.49889667  0.90887910  1
  Sc  Sc56  1  0.90867657  0.50643813  0.49609693  1
  Sc  Sc57  1  0.29888276  0.49592560  0.29466210  1
  Sc  Sc58  1  0.29850620  0.29643951  0.29869800  1
  Sc  Sc59  1  0.29571359  0.31049042  0.89409059  1
  Sc  Sc60  1  0.10082414  0.10217070  0.89419421  1
  Sc  Sc61  1  0.29051677  0.71120842  0.49981727  1
  Sc  Sc62  1  0.48818177  0.89120043  0.30244792  1
  Sc  Sc63  1  0.68735905  0.09605826  0.89875446  1
  Sc  Sc64  1  0.09879733  0.10592241  0.50419154  1
  Sc  Sc65  1  0.69532600  0.70825122  0.10694861  1
  Sc  Sc66  1  0.50788233  0.28516757  0.89287667  1
  Sc  Sc67  1  0.90268497  0.51036704  0.69185783  1
  Sc  Sc68  1  0.10094404  0.29124872  0.70234443  1
  Sc  Sc69  1  0.90041940  0.09821175  0.50495548  1
  Sc  Sc70  1  0.29989036  0.49557941  0.71054489  1
  Sc  Sc71  1  0.90572715  0.09750519  0.69873279  1
  Sc  Sc72  1  0.09760818  0.89875635  0.69994128  1
  Sc  Sc73  1  0.30556219  0.29943642  0.49665456  1
  Sc  Sc74  1  0.49071506  0.10200822  0.49781993  1
  Sc  Sc75  1  0.90955159  0.30599200  0.29175299  1
  Sc  Sc76  1  0.50431353  0.69674631  0.28432273  1
  Sc  Sc77  1  0.09663292  0.30149518  0.10178432  1
  Sc  Sc78  1  0.69053261  0.30729198  0.28875238  1
  Sc  Sc79  1  0.29985386  0.09471411  0.11605603  1
  Sc  Sc80  1  0.90880681  0.29663344  0.68978818  1
  Sc  Sc81  1  0.89838756  0.70811341  0.31084097  1
  Sc  Sc82  1  0.30013659  0.09006874  0.89875292  1
  Sc  Sc83  1  0.49331938  0.29760361  0.70465298  1
  Sc  Sc84  1  0.10131047  0.29694330  0.30078768  1
  Sc  Sc85  1  0.10231440  0.70046658  0.50296342  1
  Sc  Sc86  1  0.10413781  0.09674612  0.10823234  1
  Sc  Sc87  1  0.90082639  0.70816800  0.70227700  1
  Sc  Sc88  1  0.70132760  0.09412552  0.69708506  1
  Sc  Sc89  1  0.10738967  0.69617102  0.89698138  1
  Sc  Sc90  1  0.70125708  0.69367465  0.90523102  1
  Sc  Sc91  1  0.29678360  0.90291133  0.69246019  1
  Sc  Sc92  1  0.69823605  0.09877786  0.09779656  1
  Sc  Sc93  1  0.90404197  0.09210314  0.29741017  1
  Sc  Sc94  1  0.30552359  0.89625622  0.90789694  1
  Sc  Sc95  1  0.49007614  0.90260306  0.50501430  1
  Sc  Sc96  1  0.50605706  0.49848730  0.29546560  1
  Sc  Sc97  1  0.70487233  0.48771695  0.10604093  1
  Sc  Sc98  1  0.29980971  0.89721069  0.29745810  1
  Sc  Sc99  1  0.90763393  0.29875037  0.50156403  1
  Nb  Nb100  1  0.10033887  0.49920858  0.69880134  1
  Nb  Nb101  1  0.29381951  0.49521850  0.09647812  1
  Nb  Nb102  1  0.50387950  0.89979317  0.90415909  1
  Nb  Nb103  1  0.90082536  0.49496096  0.90234381  1
  Nb  Nb104  1  0.49873416  0.70305721  0.50187689  1
  Nb  Nb105  1  0.11664150  0.51168288  0.09595570  1
  Nb  Nb106  1  0.49140595  0.70507708  0.90321305  1
  Nb  Nb107  1  0.69265743  0.90130934  0.89981860  1
  Nb  Nb108  1  0.30518560  0.70333878  0.70515710  1
  Nb  Nb109  1  0.90882712  0.90265879  0.30306487  1
  Nb  Nb110  1  0.49690457  0.70264495  0.70168583  1
  Nb  Nb111  1  0.69997465  0.50458109  0.49549754  1
  Nb  Nb112  1  0.10097251  0.69778996  0.09931418  1
  Nb  Nb113  1  0.30478011  0.30850500  0.09801397  1
  Nb  Nb114  1  0.49495453  0.69164408  0.09079451  1
  Nb  Nb115  1  0.70318268  0.50190758  0.30558896  1
  Nb  Nb116  1  0.70008102  0.90226369  0.50019374  1
  Nb  Nb117  1  0.69504918  0.30262726  0.70180304  1
  Nb  Nb118  1  0.08657879  0.90966526  0.29659737  1
  Nb  Nb119  1  0.49833084  0.29964798  0.09933345  1
  Nb  Nb120  1  0.69601972  0.29716895  0.89489926  1
  Nb  Nb121  1  0.30583832  0.70491676  0.90020934  1
  Nb  Nb122  1  0.29768344  0.09938568  0.30041448  1
  Nb  Nb123  1  0.89996216  0.49955514  0.29287768  1
  Nb  Nb124  1  0.90143656  0.69373406  0.09787514  1
  Nb  Nb125  1  0.60041737  0.80174924  0.40584638  1
  Nb  Nb126  1  0.00055623  -0.00986779  0.00342607  1
  Nb  Nb127  1  0.59351528  0.80003474  0.80544369  1
  Nb  Nb128  1  0.79996476  0.20573590  0.39605504  1
  Nb  Nb129  1  0.79922466  0.40359169  0.39860492  1
  Nb  Nb130  1  0.00087734  0.59903494  0.19531904  1
  Nb  Nb131  1  0.59529962  0.39569193  -0.00156684  1
  Nb  Nb132  1  0.21000253  0.20388749  0.00612613  1
  Nb  Nb133  1  0.80448110  0.39638658  0.79770419  1
  Nb  Nb134  1  0.19653488  0.00304301  0.39445465  1
  Nb  Nb135  1  0.59420905  0.60259909  0.59685894  1
  Nb  Nb136  1  0.00012539  0.79435421  0.00673381  1
  Nb  Nb137  1  0.60166556  0.40152616  0.59874860  1
  Nb  Nb138  1  0.19636738  0.40318039  0.60054273  1
  Nb  Nb139  1  0.79261321  0.40200559  0.59767817  1
  Nb  Nb140  1  0.79668272  0.20875903  0.80075561  1
  Nb  Nb141  1  0.40252096  0.60443376  0.40476416  1
  Nb  Nb142  1  0.79702526  0.20352594  -0.00984875  1
  Nb  Nb143  1  0.60060252  -0.00706163  0.39749995  1
  Nb  Nb144  1  0.39521955  0.20382108  0.00575482  1
  Nb  Nb145  1  0.40074560  0.60800693  0.60123116  1
  Nb  Nb146  1  0.59828139  -0.00666313  0.20415363  1
  Nb  Nb147  1  0.80829585  0.59647948  0.20193278  1
  Nb  Nb148  1  -0.00295266  0.40667024  0.80010974  1
  Nb  Nb149  1  0.60194865  0.20635846  0.59948576  1
  Pd  Pd150  1  -0.00825280  0.19603958  0.39567563  1
  Pd  Pd151  1  0.00640767  0.18818456  0.00606512  1
  Pd  Pd152  1  0.19757742  0.20832797  0.59238235  1
  Pd  Pd153  1  0.59164941  0.01021492  0.59236640  1
  Pd  Pd154  1  0.19705173  0.01032618  0.00355362  1
  Pd  Pd155  1  0.00675193  0.79722747  0.40399553  1
  Pd  Pd156  1  0.01128867  0.41057447  0.18986210  1
  Pd  Pd157  1  0.79764105  0.01085084  0.80424689  1
  Pd  Pd158  1  0.60787203  0.59246784  0.19086855  1
  Pd  Pd159  1  0.59629803  0.40243430  0.80369605  1
  Pd  Pd160  1  0.21178215  0.59694128  0.60502427  1
  Pd  Pd161  1  -0.00071584  0.59830705  0.79632462  1
  Pd  Pd162  1  -0.00412187  0.79031960  0.19965770  1
  Pd  Pd163  1  -0.00058510  0.79394275  0.81127306  1
  Pd  Pd164  1  0.40151800  0.81058678  0.80097166  1
  Pd  Pd165  1  0.60010217  0.19024421  0.40278800  1
  Pd  Pd166  1  0.79743248  0.20558797  0.60053223  1
  Pd  Pd167  1  0.60175337  0.61426831  0.79761261  1
  Pd  Pd168  1  0.20654837  0.80789040  0.79851123  1
  Pd  Pd169  1  0.19685593  0.59837867  0.21240454  1
  Pd  Pd170  1  0.59409096  0.19367613  0.20239849  1
  Pd  Pd171  1  0.80770855  0.79124824  0.20168603  1
  Pd  Pd172  1  0.41008506  0.39259140  -0.01277174  1
  Pd  Pd173  1  0.20401217  0.19724648  0.40524693  1
  Pd  Pd174  1  0.39125298  0.60029258  0.80159022  1
  Pd  Pd175  1  0.40291066  0.79600092  0.18872208  1
  Pd  Pd176  1  0.19055633  0.81316053  0.39452293  1
  Pd  Pd177  1  0.40273209  -0.01054822  0.19606433  1
  Pd  Pd178  1  0.00161288  0.61036145  0.60419712  1
  Pd  Pd179  1  0.79300079  0.79365184  0.80923035  1
  Pd  Pd180  1  0.20649812  0.60278500  0.39295043  1
  Pd  Pd181  1  0.39441053  -0.00823950  0.79823812  1
  Pd  Pd182  1  0.79772484  -0.00056748  0.20382221  1
  Pd  Pd183  1  0.40053239  0.39985894  0.20601604  1
  Pd  Pd184  1  -0.00354512  0.19663686  0.19619965  1
  Pd  Pd185  1  0.39205124  0.79927763  0.59813065  1
  Pd  Pd186  1  0.60271500  0.79214255  -0.00604667  1
  Pd  Pd187  1  0.80389145  0.20420357  0.20163466  1
  Pd  Pd188  1  0.59061785  0.60696017  0.40092805  1
  Pd  Pd189  1  0.80611248  0.59803617  0.79627375  1
  Pd  Pd190  1  0.20847277  0.59672555  0.80356518  1
  Pd  Pd191  1  0.59984908  0.79842432  0.59858872  1
  Pd  Pd192  1  0.20238563  -0.00681153  0.79907114  1
  Pd  Pd193  1  0.60785449  0.59380097  0.01312561  1
  Pd  Pd194  1  0.19453825  0.39480531  0.19968570  1
  Pd  Pd195  1  -0.00029190  0.60714908  0.39293725  1
  Pd  Pd196  1  0.39629937  0.40336362  0.60433961  1
  Pd  Pd197  1  0.39170491  0.19748287  0.81100173  1
  Pd  Pd198  1  0.41028165  0.40103940  0.81189399  1
  Pd  Pd199  1  0.00605615  0.01083767  0.40479999  1
  Rh  Rh200  1  0.20720207  0.20872599  0.19185793  1
  Rh  Rh201  1  0.20273583  0.39501118  0.40426977  1
  Rh  Rh202  1  0.20087403  0.80098322  0.60609452  1
  Rh  Rh203  1  0.80070914  0.79069791  -0.00171926  1
  Rh  Rh204  1  0.81112202  0.59243930  0.39504958  1
  Rh  Rh205  1  0.39885459  0.40520112  0.38882479  1
  Rh  Rh206  1  0.39386044  0.59631901  0.20254697  1
  Rh  Rh207  1  0.79890631  0.80703752  0.40250254  1
  Rh  Rh208  1  0.20700672  0.19633373  0.81010143  1
  Rh  Rh209  1  0.80819534  -0.00643532  0.60393515  1
  Rh  Rh210  1  0.40689027  0.20079335  0.60247802  1
  Rh  Rh211  1  0.39525908  0.20626863  0.19779182  1
  Rh  Rh212  1  -0.00646723  0.20661905  0.79460574  1
  Rh  Rh213  1  0.80066087  0.00100909  0.39559373  1
  Rh  Rh214  1  0.19791971  0.80287315  0.20673619  1
  Rh  Rh215  1  -0.00879099  0.39979399  0.39965958  1
  Rh  Rh216  1  -0.00411404  0.00429232  0.19187490  1
  Rh  Rh217  1  0.78923886  0.39012471  -0.00887704  1
  Rh  Rh218  1  0.19592808  0.39425160  0.00665743  1
  Rh  Rh219  1  0.39402243  0.00068436  0.39927867  1
  Rh  Rh220  1  0.39936293  0.00528262  0.60366103  1
  Rh  Rh221  1  0.00468456  -0.00754452  0.80748654  1
  Rh  Rh222  1  0.80100189  0.01183686  -0.01288230  1
  Rh  Rh223  1  0.39792056  0.00237107  0.00647002  1
  Rh  Rh224  1  0.01079222  0.59928938  0.00301259  1
  Rh  Rh225  1  0.39314351  0.20028907  0.39452712  1
  Rh  Rh226  1  0.00142110  0.79770014  0.60286782  1
  Rh  Rh227  1  0.18868078  0.40061036  0.79000604  1
  Rh  Rh228  1  0.19774749  0.78978909  -0.00185015  1
  Rh  Rh229  1  0.79897424  0.40272418  0.20806323  1
  Rh  Rh230  1  0.19854647  0.00302207  0.59312756  1
  Rh  Rh231  1  0.40749675  0.79118542  0.40091893  1
  Rh  Rh232  1  0.59646936  0.20175504  0.00104223  1
  Rh  Rh233  1  0.00356547  0.40346105  0.60606628  1
  Rh  Rh234  1  0.79883262  0.59626289  0.59638143  1
  Rh  Rh235  1  0.59297395  0.40496336  0.19240158  1
  Rh  Rh236  1  0.20241587  -0.00942944  0.20928458  1
  Rh  Rh237  1  0.39647657  0.79322895  0.00537974  1
  Rh  Rh238  1  0.59897038  -0.00648278  0.79771126  1
  Rh  Rh239  1  0.01426103  0.40688497  0.00201353  1
  Rh  Rh240  1  0.60354192  0.40285472  0.39670878  1
  Rh  Rh241  1  0.59628326  0.80702100  0.20382103  1
  Rh  Rh242  1  0.38839819  0.60510564  0.00065665  1
  Rh  Rh243  1  0.60608281  0.18761006  0.78808482  1
  Rh  Rh244  1  0.80557174  0.80969853  0.59907307  1
  Rh  Rh245  1  0.20680761  0.60674506  -0.00851965  1
  Rh  Rh246  1  -0.00086591  0.00050413  0.60159926  1
  Rh  Rh247  1  0.60041400  0.00020571  0.00820384  1
  Rh  Rh248  1  0.00461869  0.19456800  0.60144711  1
  Rh  Rh249  1  0.78854111  0.60159830  0.01469796  1
