# generated using pymatgen
data_ZrScNbPdRh
_symmetry_space_group_name_H-M   'P 1'
_cell_length_a   16.55837697
_cell_length_b   16.55462888
_cell_length_c   16.55588477
_cell_angle_alpha   90.00958314
_cell_angle_beta   90.00070914
_cell_angle_gamma   90.00345177
_symmetry_Int_Tables_number   1
_chemical_formula_structural   ZrScNbPdRh
_chemical_formula_sum   'Zr50 Sc50 Nb50 Pd50 Rh50'
_cell_volume   4538.26240068
_cell_formula_units_Z   50
loop_
 _symmetry_equiv_pos_site_id
 _symmetry_equiv_pos_as_xyz
  1  'x, y, z'
loop_
 _atom_site_type_symbol
 _atom_site_label
 _atom_site_symmetry_multiplicity
 _atom_site_fract_x
 _atom_site_fract_y
 _atom_site_fract_z
 _atom_site_occupancy
  Zr  Zr0  1  0.09440798  0.89645658  0.90425815  1
  Zr  Zr1  1  0.90547316  0.89321584  0.09569506  1
  Zr  Zr2  1  0.09956607  0.29842889  0.70024356  1
  Zr  Zr3  1  0.89750985  0.10211668  0.89451898  1
  Zr  Zr4  1  0.69540007  0.09579507  0.49700534  1
  Zr  Zr5  1  0.10039946  0.30432922  0.89838845  1
  Zr  Zr6  1  0.50477654  0.88935636  0.49225397  1
  Zr  Zr7  1  0.30333090  0.30495716  0.89884827  1
  Zr  Zr8  1  0.89466185  0.89242535  0.89538784  1
  Zr  Zr9  1  0.30903517  0.69709813  0.10003291  1
  Zr  Zr10  1  0.49433942  0.29610730  0.30189041  1
  Zr  Zr11  1  0.69675744  0.50300817  0.89643929  1
  Zr  Zr12  1  0.10394015  0.69936580  0.89394450  1
  Zr  Zr13  1  0.30270852  0.50555328  0.69418794  1
  Zr  Zr14  1  0.70393250  0.49811953  0.49443563  1
  Zr  Zr15  1  0.69219313  0.90944903  0.30272270  1
  Zr  Zr16  1  0.09784415  0.10263747  0.09919020  1
  Zr  Zr17  1  0.50003697  0.09468296  0.50801524  1
  Zr  Zr18  1  0.90757750  0.49368538  0.50013825  1
  Zr  Zr19  1  0.10286217  0.89602179  0.10235858  1
  Zr  Zr20  1  0.09403961  0.50029552  0.10891613  1
  Zr  Zr21  1  0.50202431  0.69562287  0.49769936  1
  Zr  Zr22  1  0.69872129  0.49448679  0.09845887  1
  Zr  Zr23  1  0.68434729  0.09861425  0.89361916  1
  Zr  Zr24  1  0.89978300  0.89559296  0.29721722  1
  Zr  Zr25  1  0.29559195  0.49716959  0.49515456  1
  Zr  Zr26  1  0.89868048  0.69553015  0.90863870  1
  Zr  Zr27  1  0.49758430  0.90325882  0.09918363  1
  Zr  Zr28  1  0.31228041  0.11462815  0.29689505  1
  Zr  Zr29  1  0.29782834  0.89183331  0.89754027  1
  Zr  Zr30  1  0.70421333  0.11043881  0.69869417  1
  Zr  Zr31  1  0.90304046  0.69686002  0.70150407  1
  Zr  Zr32  1  0.50245324  0.69305688  0.30563249  1
  Zr  Zr33  1  0.90420771  0.49861170  0.70436010  1
  Zr  Zr34  1  0.09667795  0.69190359  0.29983249  1
  Zr  Zr35  1  0.50249048  0.10522926  0.69921427  1
  Zr  Zr36  1  0.09886929  0.30967531  0.49729601  1
  Zr  Zr37  1  0.69924274  0.30106167  0.09744405  1
  Zr  Zr38  1  0.90099040  0.30135473  0.90189029  1
  Zr  Zr39  1  0.10768036  0.89402493  0.49727248  1
  Zr  Zr40  1  0.89464936  0.49909012  0.90219256  1
  Zr  Zr41  1  0.30248736  0.11167717  0.89845370  1
  Zr  Zr42  1  0.89874225  0.11150624  0.09636152  1
  Zr  Zr43  1  0.09650266  0.69777403  0.10453227  1
  Zr  Zr44  1  0.30499954  0.69863698  0.89774952  1
  Zr  Zr45  1  0.08949095  0.30482197  0.10384834  1
  Zr  Zr46  1  0.49636758  0.69118350  0.90320149  1
  Zr  Zr47  1  0.29761505  0.91844777  0.30158494  1
  Zr  Zr48  1  0.90106002  0.10306572  0.50621836  1
  Zr  Zr49  1  0.30388449  0.50598014  0.89694498  1
  Sc  Sc50  1  0.90159009  0.89925500  0.50240581  1
  Sc  Sc51  1  0.69061056  0.70101194  0.50169351  1
  Sc  Sc52  1  0.50795973  0.50389248  0.10137278  1
  Sc  Sc53  1  0.69773106  0.90071917  0.10321461  1
  Sc  Sc54  1  0.29824677  0.09802237  0.49640149  1
  Sc  Sc55  1  0.10226061  0.30489743  0.29940451  1
  Sc  Sc56  1  0.30026528  0.89231270  0.69493725  1
  Sc  Sc57  1  0.09023211  0.49865413  0.89575731  1
  Sc  Sc58  1  0.90112511  0.69325461  0.10403836  1
  Sc  Sc59  1  0.89973092  0.49899164  0.30540208  1
  Sc  Sc60  1  0.30598109  0.89985445  0.50151035  1
  Sc  Sc61  1  0.69585988  0.10360711  0.09823026  1
  Sc  Sc62  1  0.50657720  0.30529750  0.09702649  1
  Sc  Sc63  1  0.70018559  0.29280857  0.49960386  1
  Sc  Sc64  1  0.29617408  0.30390021  0.69735239  1
  Sc  Sc65  1  0.49802863  0.10330725  0.09133236  1
  Sc  Sc66  1  0.10784259  0.89234073  0.29787412  1
  Sc  Sc67  1  0.70432878  0.68624012  0.10409052  1
  Sc  Sc68  1  0.10436843  0.88676385  0.70203173  1
  Sc  Sc69  1  0.10518434  0.69394291  0.49328663  1
  Sc  Sc70  1  0.29841846  0.30701567  0.50369679  1
  Sc  Sc71  1  0.90519946  0.30325809  0.49482389  1
  Sc  Sc72  1  0.10125536  0.11071491  0.49920417  1
  Sc  Sc73  1  0.49365231  0.50608542  0.50841280  1
  Sc  Sc74  1  0.90536325  0.69371557  0.49504644  1
  Sc  Sc75  1  0.29259036  0.69856993  0.70499222  1
  Sc  Sc76  1  0.30391805  0.10057574  0.10598698  1
  Sc  Sc77  1  0.90174335  0.30460595  0.29681873  1
  Sc  Sc78  1  0.89590376  0.30393045  0.10004773  1
  Sc  Sc79  1  0.49815632  0.69806462  0.69658853  1
  Sc  Sc80  1  0.70295349  0.50091435  0.29420141  1
  Sc  Sc81  1  0.08958501  0.11237508  0.89526746  1
  Sc  Sc82  1  0.12004461  0.09858988  0.30082924  1
  Sc  Sc83  1  0.89681843  0.10545960  0.29887922  1
  Sc  Sc84  1  0.70563478  0.30666178  0.29641393  1
  Sc  Sc85  1  0.09588954  0.50005180  0.49925368  1
  Sc  Sc86  1  0.49438885  0.90351168  0.68759577  1
  Sc  Sc87  1  0.49943756  0.90206494  0.90052855  1
  Sc  Sc88  1  0.70025800  0.69075971  0.30079140  1
  Sc  Sc89  1  0.29875465  0.89969160  0.10010491  1
  Sc  Sc90  1  0.50292236  0.29449481  0.90858508  1
  Sc  Sc91  1  0.70223913  0.89162592  0.70786485  1
  Sc  Sc92  1  0.49577641  0.29687797  0.50276566  1
  Sc  Sc93  1  0.69021224  0.69644418  0.70326961  1
  Sc  Sc94  1  0.29910417  0.68169685  0.30027152  1
  Sc  Sc95  1  0.90117919  0.69564331  0.29471395  1
  Sc  Sc96  1  0.50721895  0.51215674  0.70151698  1
  Sc  Sc97  1  0.31469497  0.30102915  0.10976218  1
  Sc  Sc98  1  0.29605967  0.11554136  0.69682402  1
  Sc  Sc99  1  0.30041456  0.69762466  0.50025398  1
  Nb  Nb100  1  0.88998145  0.29061077  0.69821248  1
  Nb  Nb101  1  0.29509940  0.50089670  0.11048834  1
  Nb  Nb102  1  0.70047039  0.30453754  0.70507840  1
  Nb  Nb103  1  0.90234691  0.50431057  0.09410905  1
  Nb  Nb104  1  0.70201036  0.49726166  0.70247906  1
  Nb  Nb105  1  0.50163475  0.50084262  0.89877849  1
  Nb  Nb106  1  0.50045218  0.89822985  0.29671507  1
  Nb  Nb107  1  0.50161199  0.70026333  0.10297599  1
  Nb  Nb108  1  0.50513550  0.50024807  0.29974768  1
  Nb  Nb109  1  0.89967358  0.89862751  0.69688981  1
  Nb  Nb110  1  0.30416013  0.31159217  0.30136322  1
  Nb  Nb111  1  0.49811247  0.30814255  0.69546783  1
  Nb  Nb112  1  0.69983195  0.89467326  0.90293466  1
  Nb  Nb113  1  0.50809653  0.09792691  0.30222601  1
  Nb  Nb114  1  0.70467018  0.89897971  0.49950848  1
  Nb  Nb115  1  0.09667314  0.10177687  0.69728322  1
  Nb  Nb116  1  0.69627587  0.10076075  0.30101594  1
  Nb  Nb117  1  0.49612539  0.09968051  0.89885908  1
  Nb  Nb118  1  0.09421324  0.51058954  0.69824800  1
  Nb  Nb119  1  0.90070379  0.10176680  0.69762092  1
  Nb  Nb120  1  0.09907286  0.69125160  0.69736184  1
  Nb  Nb121  1  0.29716902  0.49028412  0.29041981  1
  Nb  Nb122  1  0.69960166  0.30835303  0.90170495  1
  Nb  Nb123  1  0.69716188  0.70309128  0.90435802  1
  Nb  Nb124  1  0.10900198  0.49902745  0.29817820  1
  Nb  Nb125  1  -0.00294688  -0.00017545  0.78663262  1
  Nb  Nb126  1  0.79872811  0.59182957  0.60295079  1
  Nb  Nb127  1  0.79749577  0.39766503  0.60797799  1
  Nb  Nb128  1  0.80305172  -0.00128714  0.60561680  1
  Nb  Nb129  1  0.00207300  0.79515291  0.60318637  1
  Nb  Nb130  1  0.20166526  0.59405879  0.00453512  1
  Nb  Nb131  1  0.00268291  -0.00038873  0.39668842  1
  Nb  Nb132  1  0.79742267  -0.00318853  -0.00486105  1
  Nb  Nb133  1  0.20110448  0.20705523  0.00229902  1
  Nb  Nb134  1  0.79470362  0.80489600  0.40157270  1
  Nb  Nb135  1  0.60548423  0.40116626  0.60412303  1
  Nb  Nb136  1  -0.00150613  0.00046243  0.20206753  1
  Nb  Nb137  1  0.59624477  0.40140111  0.40195400  1
  Nb  Nb138  1  0.39611440  0.00806613  0.80029795  1
  Nb  Nb139  1  0.40588288  0.79963238  0.20589137  1
  Nb  Nb140  1  0.19289731  0.00303942  0.60704734  1
  Nb  Nb141  1  0.59374537  0.79749845  0.20050732  1
  Nb  Nb142  1  0.19756900  0.00707702  -0.00742056  1
  Nb  Nb143  1  0.79602749  0.19464660  0.39868036  1
  Nb  Nb144  1  0.59949325  0.19736143  0.20722449  1
  Nb  Nb145  1  0.60113715  0.79402180  0.00138386  1
  Nb  Nb146  1  0.80280191  0.00345607  0.19640581  1
  Nb  Nb147  1  0.19601857  0.00414002  0.79899220  1
  Nb  Nb148  1  0.40760089  0.40429038  0.80016252  1
  Nb  Nb149  1  0.20386122  0.40380185  0.00703491  1
  Pd  Pd150  1  0.39733514  0.79171259  0.59965347  1
  Pd  Pd151  1  0.79998779  0.60746345  0.40434347  1
  Pd  Pd152  1  0.39689739  0.58965246  0.39723062  1
  Pd  Pd153  1  0.80083731  -0.00171444  0.79824549  1
  Pd  Pd154  1  0.60107193  0.80242141  0.60273885  1
  Pd  Pd155  1  0.20140743  0.79458460  0.00254520  1
  Pd  Pd156  1  0.40759753  0.80538296  0.79484831  1
  Pd  Pd157  1  0.40656078  0.00329248  0.40231249  1
  Pd  Pd158  1  0.80720425  0.40556409  0.19649496  1
  Pd  Pd159  1  0.80426639  0.79429204  0.59383684  1
  Pd  Pd160  1  0.21224468  0.79506590  0.39374531  1
  Pd  Pd161  1  0.79514054  0.20456667  0.80831404  1
  Pd  Pd162  1  0.21329714  0.79346384  0.20892864  1
  Pd  Pd163  1  0.40074179  0.40758710  0.00047648  1
  Pd  Pd164  1  0.80971563  0.00076134  0.40039228  1
  Pd  Pd165  1  0.00379385  -0.00913282  0.59781398  1
  Pd  Pd166  1  -0.00435789  0.39431780  0.79402956  1
  Pd  Pd167  1  0.79787134  0.79017767  0.79753298  1
  Pd  Pd168  1  -0.00284360  0.19645476  0.39181799  1
  Pd  Pd169  1  0.00130686  0.20888233  0.59957999  1
  Pd  Pd170  1  0.39463235  0.20200704  0.59508769  1
  Pd  Pd171  1  0.78866691  0.80130266  0.20515335  1
  Pd  Pd172  1  0.00413228  0.19489072  0.21152959  1
  Pd  Pd173  1  0.59006807  0.80095964  0.80490265  1
  Pd  Pd174  1  0.19308514  0.40582106  0.60403973  1
  Pd  Pd175  1  0.59227914  -0.00841758  0.79313363  1
  Pd  Pd176  1  0.79459102  0.60700858  0.79748148  1
  Pd  Pd177  1  -0.00306034  0.00314928  -0.00281346  1
  Pd  Pd178  1  0.19902239  0.60142480  0.59434360  1
  Pd  Pd179  1  0.39021260  0.79935434  0.39131053  1
  Pd  Pd180  1  0.59222832  0.39751380  0.79949604  1
  Pd  Pd181  1  0.60023479  0.20883059  0.60076171  1
  Pd  Pd182  1  0.39801592  0.20002845  0.40992234  1
  Pd  Pd183  1  0.79211895  0.79853076  0.00994044  1
  Pd  Pd184  1  0.60378621  -0.00442519  0.00154945  1
  Pd  Pd185  1  0.20460803  0.21000762  0.19538109  1
  Pd  Pd186  1  0.78920687  0.19568800  -0.01023008  1
  Pd  Pd187  1  0.39066171  0.00060958  -0.00711482  1
  Pd  Pd188  1  0.61136878  -0.00951180  0.60745751  1
  Pd  Pd189  1  0.59211752  -0.00185225  0.40461158  1
  Pd  Pd190  1  0.40523767  0.00269965  0.20015427  1
  Pd  Pd191  1  0.40048207  0.58935137  0.00894029  1
  Pd  Pd192  1  0.00027391  0.79956848  0.79581346  1
  Pd  Pd193  1  0.40803044  0.20782598  0.79625604  1
  Pd  Pd194  1  0.20867972  0.21166909  0.40135735  1
  Pd  Pd195  1  0.20324638  0.40966354  0.79842824  1
  Pd  Pd196  1  0.40650625  0.40584851  0.40315235  1
  Pd  Pd197  1  0.59403317  0.21085040  0.80111930  1
  Pd  Pd198  1  0.41115288  0.40778892  0.19663784  1
  Pd  Pd199  1  -0.00534313  0.80119759  0.40380637  1
  Rh  Rh200  1  0.00208135  0.20966990  -0.00107092  1
  Rh  Rh201  1  0.60869423  0.79900640  0.39343611  1
  Rh  Rh202  1  0.80259475  0.39371502  0.79997675  1
  Rh  Rh203  1  -0.00386906  0.39469670  0.60890530  1
  Rh  Rh204  1  0.00464202  0.59314814  0.39477226  1
  Rh  Rh205  1  0.40636504  0.40632707  0.60751195  1
  Rh  Rh206  1  0.59988823  0.00536111  0.19646033  1
  Rh  Rh207  1  0.60102287  0.60191469  0.20123662  1
  Rh  Rh208  1  0.79547179  0.59592166  0.00181755  1
  Rh  Rh209  1  0.39851615  0.20145315  0.00479966  1
  Rh  Rh210  1  0.79901940  0.40293926  -0.00026372  1
  Rh  Rh211  1  0.79463051  0.38811586  0.40740347  1
  Rh  Rh212  1  0.19617613  0.00166966  0.18943856  1
  Rh  Rh213  1  0.20072223  0.59089789  0.39871652  1
  Rh  Rh214  1  -0.00670982  0.40683192  0.20381072  1
  Rh  Rh215  1  0.20090774  0.39141989  0.19855186  1
  Rh  Rh216  1  0.59980707  0.40312300  -0.00653715  1
  Rh  Rh217  1  0.39550344  0.60580308  0.60038428  1
  Rh  Rh218  1  0.60068690  0.20116896  0.00194028  1
  Rh  Rh219  1  -0.00625143  0.59236636  0.20628509  1
  Rh  Rh220  1  0.60046211  0.60365627  0.80373793  1
  Rh  Rh221  1  -0.00024182  0.60170760  0.80673999  1
  Rh  Rh222  1  0.60419324  0.20871200  0.39179557  1
  Rh  Rh223  1  0.19472180  0.00113653  0.41116382  1
  Rh  Rh224  1  -0.00000108  0.78823484  0.00284568  1
  Rh  Rh225  1  0.80528914  0.59070839  0.19802958  1
  Rh  Rh226  1  0.00764606  0.40414569  0.39053278  1
  Rh  Rh227  1  0.38561732  0.00789944  0.61052064  1
  Rh  Rh228  1  0.19969725  0.79845398  0.79786360  1
  Rh  Rh229  1  -0.00101064  0.40248931  0.00266331  1
  Rh  Rh230  1  0.60217838  0.60235282  -0.00113507  1
  Rh  Rh231  1  0.40804158  0.80086851  0.00550464  1
  Rh  Rh232  1  0.19535425  0.79766921  0.59947758  1
  Rh  Rh233  1  0.19755690  0.19999588  0.59504058  1
  Rh  Rh234  1  0.19989972  0.60215915  0.19750860  1
  Rh  Rh235  1  0.00608190  0.59963889  -0.00203528  1
  Rh  Rh236  1  0.19973125  0.40080149  0.39562758  1
  Rh  Rh237  1  0.59535568  0.39257433  0.20981256  1
  Rh  Rh238  1  -0.00396702  0.20160736  0.79309379  1
  Rh  Rh239  1  0.59980066  0.58942144  0.40192648  1
  Rh  Rh240  1  0.19262626  0.19986000  0.80286883  1
  Rh  Rh241  1  -0.00183352  0.60514666  0.59553044  1
  Rh  Rh242  1  0.78951002  0.19638655  0.20715987  1
  Rh  Rh243  1  0.00281966  0.80046419  0.20068304  1
  Rh  Rh244  1  0.40641373  0.59608946  0.20260085  1
  Rh  Rh245  1  0.79884345  0.20116434  0.59287963  1
  Rh  Rh246  1  0.60767272  0.59451407  0.59719657  1
  Rh  Rh247  1  0.41251454  0.19837827  0.19740558  1
  Rh  Rh248  1  0.19461655  0.59446296  0.80263267  1
  Rh  Rh249  1  0.40414929  0.59709770  0.79350233  1
