# generated using pymatgen
data_ZrScNbPdRh
_symmetry_space_group_name_H-M   'P 1'
_cell_length_a   16.55601768
_cell_length_b   16.55813604
_cell_length_c   16.55918407
_cell_angle_alpha   90.01155091
_cell_angle_beta   89.98214443
_cell_angle_gamma   89.98508368
_symmetry_Int_Tables_number   1
_chemical_formula_structural   ZrScNbPdRh
_chemical_formula_sum   'Zr50 Sc50 Nb50 Pd50 Rh50'
_cell_volume   4539.48115003
_cell_formula_units_Z   50
loop_
 _symmetry_equiv_pos_site_id
 _symmetry_equiv_pos_as_xyz
  1  'x, y, z'
loop_
 _atom_site_type_symbol
 _atom_site_label
 _atom_site_symmetry_multiplicity
 _atom_site_fract_x
 _atom_site_fract_y
 _atom_site_fract_z
 _atom_site_occupancy
  Zr  Zr0  1  0.29398550  0.89310672  0.50912900  1
  Zr  Zr1  1  0.90083495  0.70001306  0.30310306  1
  Zr  Zr2  1  0.70310164  0.70656879  0.70376933  1
  Zr  Zr3  1  0.69204291  0.69213438  0.09934772  1
  Zr  Zr4  1  0.49836090  0.10746108  0.50028226  1
  Zr  Zr5  1  0.09987927  0.10375718  0.70000013  1
  Zr  Zr6  1  0.49329125  0.29446741  0.69460437  1
  Zr  Zr7  1  0.70024959  0.70637592  0.50177372  1
  Zr  Zr8  1  0.49487859  0.49696509  0.49598482  1
  Zr  Zr9  1  0.69478678  0.29983947  0.09097643  1
  Zr  Zr10  1  0.70182861  0.89664299  0.50188827  1
  Zr  Zr11  1  0.10674256  0.70033499  0.10272390  1
  Zr  Zr12  1  0.29933860  0.70691606  0.69068867  1
  Zr  Zr13  1  0.69730796  0.89303144  0.70102451  1
  Zr  Zr14  1  0.70171303  0.10748486  0.69808693  1
  Zr  Zr15  1  0.10392066  0.30458056  0.29513183  1
  Zr  Zr16  1  0.29714550  0.30641194  0.70147077  1
  Zr  Zr17  1  0.90944065  0.70629068  0.09360650  1
  Zr  Zr18  1  0.70942638  0.90545615  0.09012041  1
  Zr  Zr19  1  0.10166853  0.69862103  0.91237737  1
  Zr  Zr20  1  0.70489711  0.10814702  0.90886355  1
  Zr  Zr21  1  0.10369766  0.29811705  0.50218162  1
  Zr  Zr22  1  0.69992758  0.89211386  0.30041980  1
  Zr  Zr23  1  0.29956335  0.70844806  0.89964053  1
  Zr  Zr24  1  0.69679970  0.31115443  0.69452815  1
  Zr  Zr25  1  0.91056735  0.10552876  0.69429813  1
  Zr  Zr26  1  0.90151326  0.09971045  0.29684224  1
  Zr  Zr27  1  0.09920199  0.88977916  0.10140338  1
  Zr  Zr28  1  0.49481275  0.09657794  0.09739565  1
  Zr  Zr29  1  0.49853184  0.69921554  0.90863010  1
  Zr  Zr30  1  0.50835857  0.30103203  0.49592486  1
  Zr  Zr31  1  0.30021994  0.10076422  0.69822985  1
  Zr  Zr32  1  0.09332287  0.49592633  0.69761962  1
  Zr  Zr33  1  0.90182986  0.11570837  0.89331555  1
  Zr  Zr34  1  0.49682072  0.89859569  0.29880081  1
  Zr  Zr35  1  0.29572429  0.29769995  0.29601543  1
  Zr  Zr36  1  0.69747261  0.10380822  0.09535646  1
  Zr  Zr37  1  0.11207196  0.90585580  0.69535009  1
  Zr  Zr38  1  0.30094429  0.69608348  0.10153513  1
  Zr  Zr39  1  0.70761729  0.30467952  0.89858046  1
  Zr  Zr40  1  0.29359366  0.29928218  0.49879160  1
  Zr  Zr41  1  0.50403091  0.70027055  0.70842376  1
  Zr  Zr42  1  0.90758362  0.90190588  0.49630058  1
  Zr  Zr43  1  0.09653615  0.30285613  0.90574676  1
  Zr  Zr44  1  0.30322293  0.49501849  0.88995487  1
  Zr  Zr45  1  0.70664937  0.89685514  0.89710891  1
  Zr  Zr46  1  0.49176859  0.10391419  0.30321966  1
  Zr  Zr47  1  0.50152306  0.49123625  0.70493604  1
  Zr  Zr48  1  0.50190331  0.51787383  0.09453446  1
  Zr  Zr49  1  0.29935984  0.90596933  0.70578825  1
  Sc  Sc50  1  0.69637085  0.70670536  0.89668392  1
  Sc  Sc51  1  0.30193956  0.49689273  0.10581815  1
  Sc  Sc52  1  0.49906927  0.90169224  0.69908936  1
  Sc  Sc53  1  0.10708331  0.69903958  0.49761218  1
  Sc  Sc54  1  0.69987657  0.47546956  0.50832998  1
  Sc  Sc55  1  0.90486948  0.48743827  0.50204971  1
  Sc  Sc56  1  0.48976054  0.49987616  0.29826700  1
  Sc  Sc57  1  0.90462585  0.49496814  0.30221502  1
  Sc  Sc58  1  0.28958167  0.68723497  0.30262117  1
  Sc  Sc59  1  0.09301447  0.49770922  0.89838645  1
  Sc  Sc60  1  0.91683518  0.30295701  0.10671853  1
  Sc  Sc61  1  0.89444113  0.09631363  0.09454018  1
  Sc  Sc62  1  0.10407851  0.49431451  0.10017132  1
  Sc  Sc63  1  0.49272375  0.10211911  0.69215888  1
  Sc  Sc64  1  0.29718554  0.49939876  0.29969780  1
  Sc  Sc65  1  0.90642335  0.89474246  0.30355706  1
  Sc  Sc66  1  0.09976025  0.10954451  0.09732205  1
  Sc  Sc67  1  0.50344666  0.70181367  0.29011511  1
  Sc  Sc68  1  0.69905233  0.70357720  0.29981669  1
  Sc  Sc69  1  0.89674791  0.88981996  0.69405268  1
  Sc  Sc70  1  0.49673890  0.90691722  0.50319618  1
  Sc  Sc71  1  0.29990076  0.50807353  0.49726992  1
  Sc  Sc72  1  0.89678310  0.49341955  0.10883306  1
  Sc  Sc73  1  0.10992490  0.90032221  0.90371373  1
  Sc  Sc74  1  0.29684865  0.90717330  0.30788626  1
  Sc  Sc75  1  0.49432566  0.10330788  0.90768486  1
  Sc  Sc76  1  0.30220624  0.09966841  0.49646133  1
  Sc  Sc77  1  0.49451641  0.29934682  0.30102132  1
  Sc  Sc78  1  0.69752329  0.29767576  0.30315716  1
  Sc  Sc79  1  0.90435271  0.70931358  0.50298633  1
  Sc  Sc80  1  0.09908184  0.10372134  0.90340997  1
  Sc  Sc81  1  0.30573046  0.09983248  0.89559569  1
  Sc  Sc82  1  0.30139109  0.10037714  0.30490521  1
  Sc  Sc83  1  0.10263041  0.89201393  0.30504915  1
  Sc  Sc84  1  0.89953271  0.30484259  0.29682437  1
  Sc  Sc85  1  0.48682500  0.29096734  0.09925008  1
  Sc  Sc86  1  0.49359109  0.90239752  0.90973106  1
  Sc  Sc87  1  0.90519261  0.69714525  0.69900603  1
  Sc  Sc88  1  0.50200671  0.50186839  0.89871453  1
  Sc  Sc89  1  0.90679551  0.29974760  0.70499129  1
  Sc  Sc90  1  0.49272254  0.30338853  0.89616410  1
  Sc  Sc91  1  0.09987518  0.89868063  0.49658900  1
  Sc  Sc92  1  0.70839574  0.50421703  0.28636240  1
  Sc  Sc93  1  0.70175100  0.10953350  0.29047178  1
  Sc  Sc94  1  0.10266461  0.09240271  0.30884058  1
  Sc  Sc95  1  0.90202574  0.69945817  0.90270054  1
  Sc  Sc96  1  0.29905603  0.30437591  0.90310555  1
  Sc  Sc97  1  0.30547344  0.89902851  0.10959519  1
  Sc  Sc98  1  0.10231629  0.49651314  0.49747356  1
  Sc  Sc99  1  0.09649204  0.09460452  0.51016375  1
  Nb  Nb100  1  0.49694518  0.70924982  0.10055480  1
  Nb  Nb101  1  0.89872657  0.49849693  0.70268209  1
  Nb  Nb102  1  0.10000584  0.69652655  0.70414015  1
  Nb  Nb103  1  0.29648515  0.90957731  0.89968055  1
  Nb  Nb104  1  0.69595449  0.49662395  0.08924064  1
  Nb  Nb105  1  0.29921048  0.10710031  0.09682692  1
  Nb  Nb106  1  0.90443679  0.09856512  0.49940161  1
  Nb  Nb107  1  0.50118098  0.89333889  0.10816848  1
  Nb  Nb108  1  0.90008227  0.30960207  0.89661810  1
  Nb  Nb109  1  0.89692662  0.89754671  0.90567049  1
  Nb  Nb110  1  0.10444604  0.50801926  0.30302501  1
  Nb  Nb111  1  0.89266742  0.29906987  0.49559013  1
  Nb  Nb112  1  0.29072236  0.49722941  0.70251996  1
  Nb  Nb113  1  0.10640802  0.29827846  0.69696717  1
  Nb  Nb114  1  0.49107216  0.68643360  0.50164045  1
  Nb  Nb115  1  0.69678488  0.10575668  0.49733717  1
  Nb  Nb116  1  0.69956076  0.49763211  0.70414879  1
  Nb  Nb117  1  0.69942918  0.29284276  0.49846815  1
  Nb  Nb118  1  0.30614381  0.69733551  0.49924472  1
  Nb  Nb119  1  0.28140916  0.29330604  0.10381991  1
  Nb  Nb120  1  0.11564899  0.30077739  0.10144900  1
  Nb  Nb121  1  0.90202272  0.89781779  0.09389246  1
  Nb  Nb122  1  0.89641112  0.48624033  0.89433815  1
  Nb  Nb123  1  0.09907928  0.69628225  0.30095875  1
  Nb  Nb124  1  0.70276679  0.48841452  0.90208967  1
  Nb  Nb125  1  0.60286571  0.59618360  0.60004555  1
  Nb  Nb126  1  0.19844442  0.60162638  0.79416634  1
  Nb  Nb127  1  0.80040431  0.00648865  0.59650245  1
  Nb  Nb128  1  0.80147538  0.20197885  0.58953000  1
  Nb  Nb129  1  0.79658454  0.58719536  -0.00606794  1
  Nb  Nb130  1  0.20820015  0.00283393  0.00503557  1
  Nb  Nb131  1  0.80030955  0.58751720  0.80122659  1
  Nb  Nb132  1  0.60453912  0.00445135  0.39667521  1
  Nb  Nb133  1  0.79484886  0.59803457  0.41179781  1
  Nb  Nb134  1  0.80440931  0.80109509  0.19112457  1
  Nb  Nb135  1  0.00678741  0.80243549  0.80192902  1
  Nb  Nb136  1  -0.00463129  0.20095545  0.40503187  1
  Nb  Nb137  1  0.00705862  0.60342884  0.20457769  1
  Nb  Nb138  1  0.59821680  -0.00377821  0.19878368  1
  Nb  Nb139  1  0.59821915  0.40358820  0.18979476  1
  Nb  Nb140  1  0.39670703  0.79050758  0.40689572  1
  Nb  Nb141  1  0.19804771  0.20521833  0.79740871  1
  Nb  Nb142  1  0.79675058  0.00649975  0.40466806  1
  Nb  Nb143  1  0.79645639  0.59140964  0.60394034  1
  Nb  Nb144  1  0.60157271  0.19937657  0.80031558  1
  Nb  Nb145  1  -0.00118856  -0.00676316  0.19374053  1
  Nb  Nb146  1  0.80374296  0.00216095  0.79754351  1
  Nb  Nb147  1  0.60585972  0.00654713  0.80274749  1
  Nb  Nb148  1  0.60284179  0.59784884  0.40772725  1
  Nb  Nb149  1  -0.00443620  -0.00807379  0.80266447  1
  Pd  Pd150  1  0.60731407  0.40942054  0.38430819  1
  Pd  Pd151  1  0.00479382  0.39281021  0.39616744  1
  Pd  Pd152  1  0.39405324  0.80763222  0.00288433  1
  Pd  Pd153  1  0.00625123  -0.00146855  -0.00104969  1
  Pd  Pd154  1  0.60764180  0.59687285  0.80383558  1
  Pd  Pd155  1  0.19520196  0.79640420  0.80165909  1
  Pd  Pd156  1  0.59633661  -0.00327588  -0.00032009  1
  Pd  Pd157  1  -0.00166309  0.39271398  0.60129963  1
  Pd  Pd158  1  0.40243161  0.59208370  0.61288209  1
  Pd  Pd159  1  0.19244752  0.00446220  0.19368477  1
  Pd  Pd160  1  0.60247283  0.00381739  0.60044112  1
  Pd  Pd161  1  0.79309922  0.40558373  0.39379070  1
  Pd  Pd162  1  0.79182523  0.39132571  0.19569728  1
  Pd  Pd163  1  0.20009683  0.00097059  0.40859424  1
  Pd  Pd164  1  -0.00193513  0.20611202  0.00443095  1
  Pd  Pd165  1  -0.00952118  0.58491821  0.00717806  1
  Pd  Pd166  1  0.20724075  0.58854481  -0.00579335  1
  Pd  Pd167  1  0.40282276  0.39795936  0.19203148  1
  Pd  Pd168  1  0.80395839  0.19630015  0.39774266  1
  Pd  Pd169  1  0.81464928  0.21377441  0.00962237  1
  Pd  Pd170  1  0.80276645  -0.00764449  0.20626326  1
  Pd  Pd171  1  0.01089432  0.80104213  0.60513534  1
  Pd  Pd172  1  0.80388477  0.20990414  0.19272472  1
  Pd  Pd173  1  0.59651709  0.59452248  0.20847646  1
  Pd  Pd174  1  0.19709231  0.59798232  0.60041118  1
  Pd  Pd175  1  0.19586182  0.18607912  0.20886993  1
  Pd  Pd176  1  -0.00504915  0.59943843  0.59222962  1
  Pd  Pd177  1  0.00709925  0.19321177  0.20547015  1
  Pd  Pd178  1  0.20389802  0.40726066  -0.00255060  1
  Pd  Pd179  1  0.58406316  0.39506181  0.00149913  1
  Pd  Pd180  1  0.39073109  0.20460028  -0.00335717  1
  Pd  Pd181  1  0.41194941  0.00280015  0.80040397  1
  Pd  Pd182  1  0.39217418  0.40398422  0.59638655  1
  Pd  Pd183  1  0.20757486  0.79949667  0.21021983  1
  Pd  Pd184  1  -0.00689483  0.60001553  0.40478914  1
  Pd  Pd185  1  0.40758929  0.80250617  0.59815232  1
  Pd  Pd186  1  0.39909683  0.40124842  0.00787411  1
  Pd  Pd187  1  0.58414636  0.79651391  0.40864758  1
  Pd  Pd188  1  0.39943768  0.00418841  0.19933924  1
  Pd  Pd189  1  0.39049925  0.39718709  0.39860808  1
  Pd  Pd190  1  0.39133490  0.59818581  -0.00161873  1
  Pd  Pd191  1  0.39328699  0.60168321  0.79375789  1
  Pd  Pd192  1  0.80903594  0.60693000  0.19481267  1
  Pd  Pd193  1  0.60139683  0.80392145  0.00041338  1
  Pd  Pd194  1  -0.00065962  0.40330228  0.00701945  1
  Pd  Pd195  1  -0.00153083  0.60375423  0.80465509  1
  Pd  Pd196  1  0.58766546  0.79378207  0.59431561  1
  Pd  Pd197  1  0.38752230  0.79267589  0.21454584  1
  Pd  Pd198  1  0.40356121  0.80681544  0.80317234  1
  Pd  Pd199  1  0.59372176  0.20314650  0.20060132  1
  Rh  Rh200  1  0.40162473  0.39913381  0.79782286  1
  Rh  Rh201  1  0.20393845  0.00431039  0.59441931  1
  Rh  Rh202  1  0.40503315  0.60589307  0.38742055  1
  Rh  Rh203  1  0.19553762  0.79407180  0.59717623  1
  Rh  Rh204  1  0.39730203  0.20196272  0.79930380  1
  Rh  Rh205  1  0.80659185  0.79863391  0.39467802  1
  Rh  Rh206  1  -0.00374973  0.00363326  0.39099973  1
  Rh  Rh207  1  0.81541999  0.79508341  0.80200870  1
  Rh  Rh208  1  0.39208141  -0.00542796  0.00874897  1
  Rh  Rh209  1  0.81087566  0.39827276  0.00823527  1
  Rh  Rh210  1  0.19452326  0.59438258  0.19733250  1
  Rh  Rh211  1  0.19912634  0.59950085  0.40541507  1
  Rh  Rh212  1  0.21209398  0.81104936  0.00376286  1
  Rh  Rh213  1  0.20093951  0.40389477  0.39810406  1
  Rh  Rh214  1  0.40003651  0.60602730  0.20008889  1
  Rh  Rh215  1  0.40284739  -0.00857117  0.40419672  1
  Rh  Rh216  1  0.60272924  0.20508904  0.60328044  1
  Rh  Rh217  1  0.39508855  0.00022656  0.59895836  1
  Rh  Rh218  1  0.39017895  0.19826914  0.20077634  1
  Rh  Rh219  1  0.19292271  0.01294143  0.81092260  1
  Rh  Rh220  1  0.79678243  0.20678696  0.79253646  1
  Rh  Rh221  1  0.59334958  0.39966328  0.59944003  1
  Rh  Rh222  1  -0.00395066  -0.01021260  0.60797758  1
  Rh  Rh223  1  0.00491476  0.39446290  0.79595049  1
  Rh  Rh224  1  0.20338361  0.19613081  0.60316140  1
  Rh  Rh225  1  0.01031358  0.20755700  0.80342547  1
  Rh  Rh226  1  0.80788918  0.39574230  0.60492805  1
  Rh  Rh227  1  0.19925998  0.40626668  0.20339893  1
  Rh  Rh228  1  0.18968741  0.39963630  0.80167219  1
  Rh  Rh229  1  0.00824349  0.79512418  0.40088425  1
  Rh  Rh230  1  0.20117082  0.40697317  0.59560008  1
  Rh  Rh231  1  0.80351361  0.39747850  0.79077808  1
  Rh  Rh232  1  0.60598192  0.60118442  -0.01130788  1
  Rh  Rh233  1  0.39619282  0.20842004  0.40258667  1
  Rh  Rh234  1  0.80372737  0.79852276  0.59957927  1
  Rh  Rh235  1  -0.00402366  0.21224045  0.58972609  1
  Rh  Rh236  1  0.58645778  0.81298242  0.80936804  1
  Rh  Rh237  1  0.59217180  0.20739772  -0.00952699  1
  Rh  Rh238  1  0.39268148  0.20373291  0.59276772  1
  Rh  Rh239  1  -0.00438508  0.79867654  0.20507944  1
  Rh  Rh240  1  0.61113275  0.80560666  0.18752001  1
  Rh  Rh241  1  0.19120240  0.19623797  0.40247244  1
  Rh  Rh242  1  0.59851410  0.19634934  0.39305193  1
  Rh  Rh243  1  0.20528034  0.19501168  -0.00959343  1
  Rh  Rh244  1  0.80891464  0.00594739  -0.00971038  1
  Rh  Rh245  1  0.20589451  0.79385459  0.40041932  1
  Rh  Rh246  1  0.00473793  0.80787121  -0.01040687  1
  Rh  Rh247  1  0.79711209  0.78699118  0.00374321  1
  Rh  Rh248  1  0.59606396  0.39229479  0.80395078  1
  Rh  Rh249  1  0.01227832  0.40875409  0.20404004  1
