# generated using pymatgen
data_ZrScNbPdRh
_symmetry_space_group_name_H-M   'P 1'
_cell_length_a   16.56055926
_cell_length_b   16.55891981
_cell_length_c   16.56228822
_cell_angle_alpha   89.97876867
_cell_angle_beta   89.98540904
_cell_angle_gamma   90.00169658
_symmetry_Int_Tables_number   1
_chemical_formula_structural   ZrScNbPdRh
_chemical_formula_sum   'Zr50 Sc50 Nb50 Pd50 Rh50'
_cell_volume   4541.79257287
_cell_formula_units_Z   50
loop_
 _symmetry_equiv_pos_site_id
 _symmetry_equiv_pos_as_xyz
  1  'x, y, z'
loop_
 _atom_site_type_symbol
 _atom_site_label
 _atom_site_symmetry_multiplicity
 _atom_site_fract_x
 _atom_site_fract_y
 _atom_site_fract_z
 _atom_site_occupancy
  Zr  Zr0  1  0.88413849  0.70304682  0.30091681  1
  Zr  Zr1  1  0.09511007  0.90320138  0.09496796  1
  Zr  Zr2  1  0.10698906  0.30179164  0.89410709  1
  Zr  Zr3  1  0.70069791  0.30094048  0.68993486  1
  Zr  Zr4  1  0.69701989  0.50646225  0.50599796  1
  Zr  Zr5  1  0.48405235  0.49721789  0.50754998  1
  Zr  Zr6  1  0.89141854  0.50352983  0.89957088  1
  Zr  Zr7  1  0.70294861  0.10351289  0.09300888  1
  Zr  Zr8  1  0.10158732  0.09582307  0.69787731  1
  Zr  Zr9  1  0.31079429  0.09840575  0.90578205  1
  Zr  Zr10  1  0.10284450  0.69646185  0.89262615  1
  Zr  Zr11  1  0.10131103  0.49548246  0.29806390  1
  Zr  Zr12  1  0.50363017  0.89017151  0.11143582  1
  Zr  Zr13  1  0.10441269  0.28845981  0.29629890  1
  Zr  Zr14  1  0.69901219  0.30152789  0.10259995  1
  Zr  Zr15  1  0.09727963  0.30365524  0.49311719  1
  Zr  Zr16  1  0.50168956  0.10365627  0.49173004  1
  Zr  Zr17  1  0.09991184  0.50112566  0.90106692  1
  Zr  Zr18  1  0.10203646  0.29327029  0.70532044  1
  Zr  Zr19  1  0.89911461  0.48932359  0.10074781  1
  Zr  Zr20  1  0.29981457  0.50546582  0.30276037  1
  Zr  Zr21  1  0.90036569  0.90980131  0.89996156  1
  Zr  Zr22  1  0.70038100  0.50135085  0.70568734  1
  Zr  Zr23  1  0.69804858  0.89925444  0.09467297  1
  Zr  Zr24  1  0.50228920  0.10338877  0.69569805  1
  Zr  Zr25  1  0.70734359  0.10124739  0.69769218  1
  Zr  Zr26  1  0.50485779  0.10450204  0.90348773  1
  Zr  Zr27  1  0.49646821  0.09761793  0.10318863  1
  Zr  Zr28  1  0.69924470  0.69929634  0.50271469  1
  Zr  Zr29  1  0.49936579  0.30510468  0.69565712  1
  Zr  Zr30  1  0.49770456  0.29887592  0.90602187  1
  Zr  Zr31  1  0.69387769  0.69631444  0.69497919  1
  Zr  Zr32  1  0.69724611  0.89483953  0.29582807  1
  Zr  Zr33  1  0.29704972  0.29684836  0.70241033  1
  Zr  Zr34  1  0.08930057  0.10311197  0.89647076  1
  Zr  Zr35  1  0.69680959  0.90268799  0.69905064  1
  Zr  Zr36  1  0.70107748  0.90261244  0.89593639  1
  Zr  Zr37  1  0.89817544  0.50203294  0.30170633  1
  Zr  Zr38  1  0.50358188  0.29540937  0.50514599  1
  Zr  Zr39  1  0.09635642  0.30217002  0.11056906  1
  Zr  Zr40  1  0.50427849  0.90187681  0.49974582  1
  Zr  Zr41  1  0.89771263  0.70100075  0.09600368  1
  Zr  Zr42  1  0.49852414  0.08691872  0.30064004  1
  Zr  Zr43  1  0.69522430  0.29255011  0.90072421  1
  Zr  Zr44  1  0.09658904  0.10907523  0.10536749  1
  Zr  Zr45  1  0.30030096  0.90124095  0.69724959  1
  Zr  Zr46  1  0.30550942  0.69493642  0.09544644  1
  Zr  Zr47  1  0.49548902  0.30174419  0.10286206  1
  Zr  Zr48  1  0.71004233  0.09964362  0.89530473  1
  Zr  Zr49  1  0.90343954  0.69861799  0.69712963  1
  Sc  Sc50  1  0.11312145  0.69614495  0.30365938  1
  Sc  Sc51  1  0.09487180  0.89632135  0.90355786  1
  Sc  Sc52  1  0.29580507  0.70277591  0.69793464  1
  Sc  Sc53  1  0.29727625  0.69643029  0.30186230  1
  Sc  Sc54  1  0.29251787  0.89276098  0.49926854  1
  Sc  Sc55  1  0.30084825  0.50864962  0.69183756  1
  Sc  Sc56  1  0.89909526  0.70197246  0.50336581  1
  Sc  Sc57  1  0.29710312  0.49684741  0.10509503  1
  Sc  Sc58  1  0.70212027  0.90310872  0.50925009  1
  Sc  Sc59  1  0.30203953  0.10429162  0.30449216  1
  Sc  Sc60  1  0.28847963  0.50568014  0.90412534  1
  Sc  Sc61  1  0.90508814  0.49754207  0.50593193  1
  Sc  Sc62  1  0.69643015  0.70742598  0.10965027  1
  Sc  Sc63  1  0.29824110  0.10578800  0.69953276  1
  Sc  Sc64  1  0.09909252  0.51295543  0.70021378  1
  Sc  Sc65  1  0.90105457  0.70393806  0.89814838  1
  Sc  Sc66  1  0.30029857  0.70392936  0.90322268  1
  Sc  Sc67  1  0.70147774  0.49905298  0.89490295  1
  Sc  Sc68  1  0.10116055  0.70426930  0.49995157  1
  Sc  Sc69  1  0.49652813  0.49847861  0.29724271  1
  Sc  Sc70  1  0.50477439  0.89081115  0.69950975  1
  Sc  Sc71  1  0.49620705  0.88814279  0.89842041  1
  Sc  Sc72  1  0.89816380  0.29410015  0.90268381  1
  Sc  Sc73  1  0.91208397  0.30546338  0.30052428  1
  Sc  Sc74  1  0.90163271  0.90834495  0.50220379  1
  Sc  Sc75  1  0.90720771  0.90958666  0.68968121  1
  Sc  Sc76  1  0.89711056  0.90033050  0.08910481  1
  Sc  Sc77  1  0.30146977  0.89804305  0.09453936  1
  Sc  Sc78  1  0.10692409  0.49521581  0.10194697  1
  Sc  Sc79  1  0.89589652  0.30476664  0.50241678  1
  Sc  Sc80  1  0.49656902  0.49420839  0.10545345  1
  Sc  Sc81  1  0.09746052  0.89841848  0.69483243  1
  Sc  Sc82  1  0.30714957  0.09510170  0.10351287  1
  Sc  Sc83  1  0.89968938  0.10099130  0.32023409  1
  Sc  Sc84  1  0.29900960  0.89574435  0.29863635  1
  Sc  Sc85  1  0.69820770  0.69634192  0.89183976  1
  Sc  Sc86  1  0.50917906  0.49319489  0.89874233  1
  Sc  Sc87  1  0.30066707  0.69221730  0.49841236  1
  Sc  Sc88  1  0.30111541  0.29450662  0.29332554  1
  Sc  Sc89  1  0.09412887  0.50756015  0.49461787  1
  Sc  Sc90  1  0.31281244  0.29168854  0.49920549  1
  Sc  Sc91  1  0.49934299  0.69233900  0.28762253  1
  Sc  Sc92  1  0.90401152  0.10457829  0.08743017  1
  Sc  Sc93  1  0.10937544  0.70311130  0.09560476  1
  Sc  Sc94  1  0.49261559  0.29656071  0.29956730  1
  Sc  Sc95  1  0.90263557  0.09789558  0.70531197  1
  Sc  Sc96  1  0.49989333  0.69147646  0.51098246  1
  Sc  Sc97  1  0.89437931  0.30037166  0.69455755  1
  Sc  Sc98  1  0.69925765  0.49482136  0.10825646  1
  Sc  Sc99  1  0.10382968  0.90629912  0.50342009  1
  Nb  Nb100  1  0.09634055  0.70356859  0.70239172  1
  Nb  Nb101  1  0.30139291  0.29627869  0.10167853  1
  Nb  Nb102  1  0.30052447  0.49827522  0.49829060  1
  Nb  Nb103  1  0.70145413  0.10628871  0.30728306  1
  Nb  Nb104  1  0.89819845  0.10034832  0.50717487  1
  Nb  Nb105  1  0.50158826  0.89840051  0.30221940  1
  Nb  Nb106  1  0.69509384  0.50108282  0.30323414  1
  Nb  Nb107  1  0.90040824  0.29682455  0.10799958  1
  Nb  Nb108  1  0.49860182  0.70587004  0.08651717  1
  Nb  Nb109  1  0.49978719  0.50048555  0.70365860  1
  Nb  Nb110  1  0.89960699  0.90223393  0.29956984  1
  Nb  Nb111  1  0.50076867  0.69991918  0.90210866  1
  Nb  Nb112  1  0.69732947  0.69257548  0.30817141  1
  Nb  Nb113  1  0.50374749  0.69544649  0.70821218  1
  Nb  Nb114  1  0.69764644  0.29667920  0.30531417  1
  Nb  Nb115  1  0.10039506  0.90028326  0.30211145  1
  Nb  Nb116  1  0.70012745  0.29454685  0.49646620  1
  Nb  Nb117  1  0.70941876  0.11706583  0.49100642  1
  Nb  Nb118  1  0.10257681  0.10263288  0.30320929  1
  Nb  Nb119  1  0.29801494  0.09714114  0.50224650  1
  Nb  Nb120  1  0.89336319  0.49685769  0.70045416  1
  Nb  Nb121  1  0.10702759  0.10146068  0.49281105  1
  Nb  Nb122  1  0.29886351  0.30008779  0.89970630  1
  Nb  Nb123  1  0.29898080  0.90614470  0.89674179  1
  Nb  Nb124  1  0.89782827  0.10114388  0.89364781  1
  Nb  Nb125  1  0.40759791  0.59892169  0.80079333  1
  Nb  Nb126  1  0.20467017  0.20556986  0.00071884  1
  Nb  Nb127  1  0.59898194  0.79511606  0.39550185  1
  Nb  Nb128  1  0.80027702  0.19889608  0.20664424  1
  Nb  Nb129  1  0.20389883  -0.00220362  0.80633137  1
  Nb  Nb130  1  -0.00075795  0.80741616  0.39037178  1
  Nb  Nb131  1  0.59399163  0.60617737  0.00296759  1
  Nb  Nb132  1  0.59990100  -0.00229620  -0.00039515  1
  Nb  Nb133  1  0.78846682  0.40122420  0.39784553  1
  Nb  Nb134  1  -0.00196395  -0.00144765  0.21038879  1
  Nb  Nb135  1  0.39864839  0.00198947  0.59452475  1
  Nb  Nb136  1  -0.00227280  0.60545347  0.19735045  1
  Nb  Nb137  1  0.39597433  0.40277416  0.80045332  1
  Nb  Nb138  1  0.41083255  0.79948986  0.39760617  1
  Nb  Nb139  1  0.20178400  0.40185220  0.59256747  1
  Nb  Nb140  1  0.20523232  0.39938409  0.40359522  1
  Nb  Nb141  1  0.18992531  0.00176484  0.20426170  1
  Nb  Nb142  1  -0.00327755  0.40462369  0.79801883  1
  Nb  Nb143  1  0.00375465  0.19407556  0.59362830  1
  Nb  Nb144  1  0.80225996  0.00596869  0.20499236  1
  Nb  Nb145  1  -0.00006578  0.80182816  0.20582802  1
  Nb  Nb146  1  0.60547576  0.19728512  0.20601398  1
  Nb  Nb147  1  0.60366965  0.39902958  0.40029400  1
  Nb  Nb148  1  0.80036441  0.80439833  0.79222200  1
  Nb  Nb149  1  -0.00115118  0.59727812  0.00368961  1
  Pd  Pd150  1  0.79725035  0.80770132  0.40822183  1
  Pd  Pd151  1  0.79572269  0.39406098  -0.00236401  1
  Pd  Pd152  1  -0.00115109  0.39918335  -0.00525009  1
  Pd  Pd153  1  -0.00581225  0.20145703  0.40639097  1
  Pd  Pd154  1  0.79941034  0.39292478  0.21056293  1
  Pd  Pd155  1  0.19742630  0.20582847  0.58974004  1
  Pd  Pd156  1  0.20288804  0.80128783  -0.00465634  1
  Pd  Pd157  1  0.79042697  0.60262670  0.00521134  1
  Pd  Pd158  1  0.39605676  0.79654717  0.20502194  1
  Pd  Pd159  1  0.58698608  0.59792022  0.40115188  1
  Pd  Pd160  1  0.00346503  0.20980950  -0.00282640  1
  Pd  Pd161  1  0.60493020  0.40817954  0.00163928  1
  Pd  Pd162  1  0.39968219  0.39618123  0.39433708  1
  Pd  Pd163  1  0.19984812  0.80598697  0.80048998  1
  Pd  Pd164  1  0.60149164  0.40505373  0.59548961  1
  Pd  Pd165  1  0.20235004  0.41394950  0.78814722  1
  Pd  Pd166  1  0.38861473  -0.00890618  0.40383656  1
  Pd  Pd167  1  0.80449942  0.59291681  0.41021618  1
  Pd  Pd168  1  0.39570221  0.79277702  0.80088598  1
  Pd  Pd169  1  0.80587647  0.80414936  0.60329822  1
  Pd  Pd170  1  0.00343556  -0.00244314  0.40448830  1
  Pd  Pd171  1  0.40302929  -0.00111387  0.79028645  1
  Pd  Pd172  1  -0.00588821  0.59555490  0.80329613  1
  Pd  Pd173  1  0.80237062  0.39087427  0.80235270  1
  Pd  Pd174  1  0.59827617  0.60120805  0.19108836  1
  Pd  Pd175  1  0.59002548  -0.00302228  0.80548707  1
  Pd  Pd176  1  0.60887422  0.00598985  0.19678884  1
  Pd  Pd177  1  -0.00232599  0.61359326  0.39335938  1
  Pd  Pd178  1  0.41203702  -0.01247651  0.00311786  1
  Pd  Pd179  1  0.39203931  0.40739377  -0.00542063  1
  Pd  Pd180  1  0.19562556  0.00937294  0.00044546  1
  Pd  Pd181  1  0.00794564  0.39687604  0.60924110  1
  Pd  Pd182  1  0.19864614  0.80398535  0.19862938  1
  Pd  Pd183  1  0.20416161  0.39388514  0.00751533  1
  Pd  Pd184  1  0.60062522  0.20377972  0.79377458  1
  Pd  Pd185  1  -0.00599866  0.80781188  0.79499266  1
  Pd  Pd186  1  0.39991210  0.59969819  0.19580302  1
  Pd  Pd187  1  0.79315186  0.79296801  -0.01092486  1
  Pd  Pd188  1  0.19507176  0.60052858  0.59579242  1
  Pd  Pd189  1  0.40124721  0.20534377  0.79961272  1
  Pd  Pd190  1  0.80332710  0.80790713  0.19576373  1
  Pd  Pd191  1  0.00098392  0.60231568  0.59947037  1
  Pd  Pd192  1  0.40335774  0.79988253  0.59454815  1
  Pd  Pd193  1  0.20604947  -0.00145716  0.39463584  1
  Pd  Pd194  1  0.60190070  0.01071094  0.59226975  1
  Pd  Pd195  1  0.79718812  0.59768754  0.19504400  1
  Pd  Pd196  1  0.19565583  0.79617670  0.59863032  1
  Pd  Pd197  1  0.40604616  0.58912183  -0.00787960  1
  Pd  Pd198  1  0.79379833  -0.00539901  0.40111899  1
  Pd  Pd199  1  0.61293838  -0.00423673  0.40468205  1
  Rh  Rh200  1  0.39522522  0.20367932  0.00479395  1
  Rh  Rh201  1  0.20755725  0.20471222  0.40307379  1
  Rh  Rh202  1  0.60644839  0.79764823  0.80014054  1
  Rh  Rh203  1  0.80746135  0.19785140  0.59984727  1
  Rh  Rh204  1  0.20785016  0.60644281  0.79585233  1
  Rh  Rh205  1  0.80052748  0.00509751  0.00225883  1
  Rh  Rh206  1  0.00361355  0.80057298  0.59002731  1
  Rh  Rh207  1  0.19694036  0.60122735  0.19507413  1
  Rh  Rh208  1  0.80581884  0.20615464  0.00364058  1
  Rh  Rh209  1  0.59360757  0.59402666  0.60403151  1
  Rh  Rh210  1  0.38965562  -0.00657579  0.20482676  1
  Rh  Rh211  1  0.59854809  0.78999759  0.20888486  1
  Rh  Rh212  1  0.20066998  0.79845897  0.40178119  1
  Rh  Rh213  1  0.79605121  0.00841448  0.59767910  1
  Rh  Rh214  1  0.00350783  0.78940394  0.00347353  1
  Rh  Rh215  1  -0.00299904  0.00428733  -0.00026878  1
  Rh  Rh216  1  0.40083672  0.19686733  0.39826223  1
  Rh  Rh217  1  0.20589587  0.39752709  0.20853616  1
  Rh  Rh218  1  0.00576268  -0.00376772  0.80185616  1
  Rh  Rh219  1  0.80265709  0.20317318  0.79670530  1
  Rh  Rh220  1  0.39036201  0.39946803  0.61014970  1
  Rh  Rh221  1  0.00708762  0.01016479  0.59057268  1
  Rh  Rh222  1  0.39456405  0.39914040  0.20162527  1
  Rh  Rh223  1  0.81103548  0.21149940  0.39865295  1
  Rh  Rh224  1  0.60371172  0.79882268  -0.00581266  1
  Rh  Rh225  1  0.40461752  0.19545945  0.20118217  1
  Rh  Rh226  1  0.39937977  0.19048432  0.59821371  1
  Rh  Rh227  1  0.80264803  0.60834657  0.79280650  1
  Rh  Rh228  1  0.79418263  0.40451856  0.59284474  1
  Rh  Rh229  1  -0.01127884  0.20872193  0.79084966  1
  Rh  Rh230  1  -0.01493110  0.18757308  0.20795734  1
  Rh  Rh231  1  0.20944357  0.19124911  0.19275242  1
  Rh  Rh232  1  0.59505674  0.59880595  0.80815617  1
  Rh  Rh233  1  0.20156176  0.59329016  0.40546463  1
  Rh  Rh234  1  0.59550268  0.39397284  0.21009865  1
  Rh  Rh235  1  0.59798726  0.39347850  0.79802229  1
  Rh  Rh236  1  0.20779074  0.18499091  0.81395006  1
  Rh  Rh237  1  0.59000572  0.20474898  0.39420153  1
  Rh  Rh238  1  0.80815752  -0.00582483  0.79176997  1
  Rh  Rh239  1  0.00149398  0.40233921  0.39655866  1
  Rh  Rh240  1  0.80576222  0.59599133  0.60169488  1
  Rh  Rh241  1  0.39545504  0.80464924  -0.00256645  1
  Rh  Rh242  1  0.59549705  0.79467282  0.59649216  1
  Rh  Rh243  1  0.59530887  0.19654832  0.00857758  1
  Rh  Rh244  1  0.20628786  0.00238701  0.60548320  1
  Rh  Rh245  1  0.19456528  0.60185763  0.00350908  1
  Rh  Rh246  1  0.60663128  0.19411430  0.59884460  1
  Rh  Rh247  1  0.00152464  0.40606212  0.20190633  1
  Rh  Rh248  1  0.40231169  0.60674241  0.40043613  1
  Rh  Rh249  1  0.40024844  0.60496190  0.61045946  1
