# generated using pymatgen
data_ZrScNbPdRh
_symmetry_space_group_name_H-M   'P 1'
_cell_length_a   16.55533857
_cell_length_b   16.55892029
_cell_length_c   16.55741284
_cell_angle_alpha   89.98230109
_cell_angle_beta   90.03855199
_cell_angle_gamma   89.99756289
_symmetry_Int_Tables_number   1
_chemical_formula_structural   ZrScNbPdRh
_chemical_formula_sum   'Zr50 Sc50 Nb50 Pd50 Rh50'
_cell_volume   4539.02359625
_cell_formula_units_Z   50
loop_
 _symmetry_equiv_pos_site_id
 _symmetry_equiv_pos_as_xyz
  1  'x, y, z'
loop_
 _atom_site_type_symbol
 _atom_site_label
 _atom_site_symmetry_multiplicity
 _atom_site_fract_x
 _atom_site_fract_y
 _atom_site_fract_z
 _atom_site_occupancy
  Zr  Zr0  1  0.69279327  0.09817643  0.70515108  1
  Zr  Zr1  1  0.50102455  0.29525232  0.49795007  1
  Zr  Zr2  1  0.09681070  0.29905272  0.29966766  1
  Zr  Zr3  1  0.70754259  0.29670139  0.49761588  1
  Zr  Zr4  1  0.09488529  0.89870616  0.29890847  1
  Zr  Zr5  1  0.50862837  0.09923446  0.88813796  1
  Zr  Zr6  1  0.70851668  0.52014899  0.69876471  1
  Zr  Zr7  1  0.49890147  0.70421788  0.90160366  1
  Zr  Zr8  1  0.29608051  0.30094149  0.69753791  1
  Zr  Zr9  1  0.30744761  0.30212188  0.09820375  1
  Zr  Zr10  1  0.10232980  0.69792702  0.69900375  1
  Zr  Zr11  1  0.30606123  0.89411295  0.29888300  1
  Zr  Zr12  1  0.29485717  0.90377239  0.50483594  1
  Zr  Zr13  1  0.50750661  0.70659033  0.09847560  1
  Zr  Zr14  1  0.29672262  0.49289211  0.09791212  1
  Zr  Zr15  1  0.88814448  0.10137618  0.49747484  1
  Zr  Zr16  1  0.90106567  0.69951281  0.49349248  1
  Zr  Zr17  1  0.49958076  0.49928567  0.30271295  1
  Zr  Zr18  1  0.69732282  0.49852093  0.90777906  1
  Zr  Zr19  1  0.49953921  0.68375329  0.69995609  1
  Zr  Zr20  1  0.09989311  0.09862792  0.09640567  1
  Zr  Zr21  1  0.90111915  0.10134895  0.89935036  1
  Zr  Zr22  1  0.70808744  0.89461249  0.90926108  1
  Zr  Zr23  1  0.89176891  0.69204208  0.70980769  1
  Zr  Zr24  1  0.50159379  0.90119502  0.90565374  1
  Zr  Zr25  1  0.10055579  0.69986761  0.30557067  1
  Zr  Zr26  1  0.48827986  0.70557215  0.29420252  1
  Zr  Zr27  1  0.69099190  0.29690253  0.30237950  1
  Zr  Zr28  1  0.90101571  0.50768140  0.29963165  1
  Zr  Zr29  1  0.70367820  0.90603728  0.69818536  1
  Zr  Zr30  1  0.89456417  0.30095971  0.50522272  1
  Zr  Zr31  1  0.30357730  0.50159700  0.70982446  1
  Zr  Zr32  1  0.70041966  0.90142579  0.29751917  1
  Zr  Zr33  1  0.50660170  0.89682621  0.29422479  1
  Zr  Zr34  1  0.69885394  0.29251432  0.90203804  1
  Zr  Zr35  1  0.88997947  0.90311443  0.49838337  1
  Zr  Zr36  1  0.10121965  0.49727551  0.10457319  1
  Zr  Zr37  1  0.50200459  0.90595239  0.50042543  1
  Zr  Zr38  1  0.89782087  0.09300901  0.70520113  1
  Zr  Zr39  1  0.29729939  0.90025844  0.69631050  1
  Zr  Zr40  1  0.89660379  0.49258376  0.51450495  1
  Zr  Zr41  1  0.28899461  0.49240864  0.50543769  1
  Zr  Zr42  1  0.70168853  0.69712179  0.29139631  1
  Zr  Zr43  1  0.49972228  0.29997575  0.29239229  1
  Zr  Zr44  1  0.29916494  0.69400178  0.70751416  1
  Zr  Zr45  1  0.09497331  0.49792595  0.69779919  1
  Zr  Zr46  1  0.10228507  0.90510548  0.70359775  1
  Zr  Zr47  1  0.91470915  0.29609129  0.09932986  1
  Zr  Zr48  1  0.89823512  0.30022524  0.30580733  1
  Zr  Zr49  1  0.30137671  0.69740375  0.10744596  1
  Sc  Sc50  1  0.10754457  0.89364474  0.49898094  1
  Sc  Sc51  1  0.09268685  0.09708764  0.30028579  1
  Sc  Sc52  1  0.90155817  0.70559974  0.11040097  1
  Sc  Sc53  1  0.70410435  0.29041313  0.69508699  1
  Sc  Sc54  1  0.29627184  0.29933050  0.50277100  1
  Sc  Sc55  1  0.89921285  0.70385006  0.29863865  1
  Sc  Sc56  1  0.69104684  0.50814115  0.10294465  1
  Sc  Sc57  1  0.91028480  0.49710007  0.89625800  1
  Sc  Sc58  1  0.90571976  0.50311005  0.10898534  1
  Sc  Sc59  1  0.49746794  0.10206141  0.69029489  1
  Sc  Sc60  1  0.89540474  0.89468456  0.10209376  1
  Sc  Sc61  1  0.69794169  0.09405996  0.29880561  1
  Sc  Sc62  1  0.29845014  0.09685429  0.90692273  1
  Sc  Sc63  1  0.70389832  0.09979234  0.90091241  1
  Sc  Sc64  1  0.90109226  0.30153365  0.69487177  1
  Sc  Sc65  1  0.70376743  0.89743712  0.10167088  1
  Sc  Sc66  1  0.50220241  0.50023282  0.90051528  1
  Sc  Sc67  1  0.50632013  0.29951911  0.90635011  1
  Sc  Sc68  1  0.10319050  0.50125701  0.30061922  1
  Sc  Sc69  1  0.10483791  0.89875781  0.90023771  1
  Sc  Sc70  1  0.70305979  0.69364513  0.49426311  1
  Sc  Sc71  1  0.29935429  0.50567947  0.29325290  1
  Sc  Sc72  1  0.69489628  0.09900449  0.50043736  1
  Sc  Sc73  1  0.69781641  0.90834116  0.49148824  1
  Sc  Sc74  1  0.09891073  0.50590417  0.50502241  1
  Sc  Sc75  1  0.49433499  0.29886709  0.69624492  1
  Sc  Sc76  1  0.10156053  0.10608165  0.88874732  1
  Sc  Sc77  1  0.11314465  0.09261787  0.49560700  1
  Sc  Sc78  1  0.90101614  0.71286308  0.89933421  1
  Sc  Sc79  1  0.29005844  0.30811999  0.90294767  1
  Sc  Sc80  1  0.30582187  0.10057219  0.09243208  1
  Sc  Sc81  1  0.30377618  0.89789416  0.89647089  1
  Sc  Sc82  1  0.10551520  0.31419432  0.50471552  1
  Sc  Sc83  1  0.70549145  0.69925511  0.89852174  1
  Sc  Sc84  1  0.10134227  0.48849080  0.89644111  1
  Sc  Sc85  1  0.50040738  0.91712654  0.70359563  1
  Sc  Sc86  1  0.49720758  0.69627009  0.49068286  1
  Sc  Sc87  1  0.28874002  0.70149736  0.49788547  1
  Sc  Sc88  1  0.49398385  0.50415495  0.49778543  1
  Sc  Sc89  1  0.50326807  0.49320908  0.09534403  1
  Sc  Sc90  1  0.49877207  0.09807313  0.09618602  1
  Sc  Sc91  1  0.09989946  0.70995017  0.89790300  1
  Sc  Sc92  1  0.30034669  0.30812024  0.30173159  1
  Sc  Sc93  1  0.89900516  0.09576312  0.10280827  1
  Sc  Sc94  1  0.09514324  0.70909716  0.10314224  1
  Sc  Sc95  1  0.29093267  0.10290249  0.69188209  1
  Sc  Sc96  1  0.70304371  0.09276246  0.10011042  1
  Sc  Sc97  1  0.30535121  0.90831748  0.08573460  1
  Sc  Sc98  1  0.50685875  0.09793801  0.28590756  1
  Sc  Sc99  1  0.89478030  0.90282164  0.29948222  1
  Nb  Nb100  1  0.69669951  0.30120592  0.10091189  1
  Nb  Nb101  1  0.70054032  0.70319583  0.70022894  1
  Nb  Nb102  1  0.70037692  0.50090116  0.30059788  1
  Nb  Nb103  1  0.50682165  0.29704834  0.10449506  1
  Nb  Nb104  1  0.70548223  0.70013150  0.09613009  1
  Nb  Nb105  1  0.90126517  0.89721342  0.70433882  1
  Nb  Nb106  1  0.50430814  0.89785298  0.09897126  1
  Nb  Nb107  1  0.90190389  0.30286701  0.90468568  1
  Nb  Nb108  1  0.30516876  0.09862372  0.49674187  1
  Nb  Nb109  1  0.10047756  0.89974336  0.09701753  1
  Nb  Nb110  1  0.89710103  0.49909796  0.70035676  1
  Nb  Nb111  1  0.29969886  0.70382263  0.29306502  1
  Nb  Nb112  1  0.29512005  0.10072414  0.29938800  1
  Nb  Nb113  1  0.29606938  0.50373404  0.90079522  1
  Nb  Nb114  1  0.30174183  0.69071699  0.89487444  1
  Nb  Nb115  1  0.10364580  0.28657620  0.70990592  1
  Nb  Nb116  1  0.89972754  0.10395406  0.29707929  1
  Nb  Nb117  1  0.70319702  0.49547233  0.50137712  1
  Nb  Nb118  1  0.09429951  0.10375596  0.70295130  1
  Nb  Nb119  1  0.90547403  0.89842445  0.89724447  1
  Nb  Nb120  1  0.08749997  0.29872286  0.90318468  1
  Nb  Nb121  1  0.10069250  0.70279891  0.50503098  1
  Nb  Nb122  1  0.49147617  0.09760753  0.50158175  1
  Nb  Nb123  1  0.10293685  0.29953822  0.09632140  1
  Nb  Nb124  1  0.50365892  0.49772086  0.69888014  1
  Nb  Nb125  1  0.00557834  0.19369135  0.59950776  1
  Nb  Nb126  1  0.80330386  0.39791199  0.00414285  1
  Nb  Nb127  1  0.20111397  -0.00032583  0.19790671  1
  Nb  Nb128  1  0.39535894  0.20242833  0.80051775  1
  Nb  Nb129  1  0.20226790  0.80682529  0.20020116  1
  Nb  Nb130  1  0.79938307  0.79915389  0.60389682  1
  Nb  Nb131  1  -0.00540165  0.80206697  0.60374851  1
  Nb  Nb132  1  0.20100115  0.60009533  -0.00323106  1
  Nb  Nb133  1  0.39305108  0.60027602  -0.00280766  1
  Nb  Nb134  1  0.60377607  0.40767883  0.60155841  1
  Nb  Nb135  1  0.79897413  0.20717367  0.20072246  1
  Nb  Nb136  1  0.39761960  0.19109273  0.39815783  1
  Nb  Nb137  1  -0.00057062  -0.00045807  0.60394776  1
  Nb  Nb138  1  0.79366097  0.39809695  0.19853153  1
  Nb  Nb139  1  0.79923468  0.40143499  0.80329590  1
  Nb  Nb140  1  0.60202098  0.79918714  0.79298422  1
  Nb  Nb141  1  0.00269289  0.60203847  0.00144257  1
  Nb  Nb142  1  0.60516371  0.40396273  0.78963260  1
  Nb  Nb143  1  -0.00202475  0.20055795  0.40795278  1
  Nb  Nb144  1  0.00046346  -0.00597719  -0.00352701  1
  Nb  Nb145  1  0.40484953  0.79873955  0.60411429  1
  Nb  Nb146  1  0.39834613  0.00562176  0.39678833  1
  Nb  Nb147  1  0.19927600  0.19799214  0.19733540  1
  Nb  Nb148  1  0.80697012  0.59820923  0.00374331  1
  Nb  Nb149  1  0.60062871  0.79683568  0.60496643  1
  Pd  Pd150  1  0.60149530  0.59958418  0.39823688  1
  Pd  Pd151  1  -0.00096062  0.80531277  0.40552916  1
  Pd  Pd152  1  0.20078207  0.39208861  0.20273979  1
  Pd  Pd153  1  0.80158861  0.20139432  0.00985196  1
  Pd  Pd154  1  0.19853877  0.20439202  0.39738357  1
  Pd  Pd155  1  0.40810290  0.59181842  0.19127887  1
  Pd  Pd156  1  0.19416749  0.19818456  0.59294281  1
  Pd  Pd157  1  0.59903823  0.40488336  0.40875936  1
  Pd  Pd158  1  0.19938758  0.20352566  -0.00084484  1
  Pd  Pd159  1  0.40473519  0.40048647  0.59691082  1
  Pd  Pd160  1  0.39309587  0.79629959  0.00192862  1
  Pd  Pd161  1  0.20378753  -0.00436576  0.39176412  1
  Pd  Pd162  1  0.00216816  0.59507018  0.40418761  1
  Pd  Pd163  1  0.20434893  0.00596209  0.80297343  1
  Pd  Pd164  1  0.59179106  0.18891145  0.39778090  1
  Pd  Pd165  1  -0.00217822  0.40099836  0.20295885  1
  Pd  Pd166  1  -0.00249004  0.00453532  0.40883299  1
  Pd  Pd167  1  0.40580765  0.20067710  -0.00908727  1
  Pd  Pd168  1  0.40618355  0.40196431  -0.00548804  1
  Pd  Pd169  1  0.38552858  0.59984847  0.40139284  1
  Pd  Pd170  1  0.20121008  0.80077910  0.80144880  1
  Pd  Pd171  1  0.40955290  0.80292349  0.79149070  1
  Pd  Pd172  1  0.39105850  0.01225330  0.79681295  1
  Pd  Pd173  1  -0.00529345  0.60606917  0.60032020  1
  Pd  Pd174  1  0.80662144  0.20683298  0.79701413  1
  Pd  Pd175  1  -0.00467870  0.39216772  0.79306592  1
  Pd  Pd176  1  0.39160039  0.60291510  0.59223149  1
  Pd  Pd177  1  0.60206231  0.00286948  0.00164994  1
  Pd  Pd178  1  0.60484287  0.79497781  0.40386260  1
  Pd  Pd179  1  0.40859966  0.39560509  0.80749054  1
  Pd  Pd180  1  -0.00218402  -0.00470447  0.19195823  1
  Pd  Pd181  1  0.39576278  0.39544544  0.40209774  1
  Pd  Pd182  1  0.60001477  0.19248354  0.00686458  1
  Pd  Pd183  1  0.79714617  -0.00311092  0.80778783  1
  Pd  Pd184  1  0.79902389  0.40587669  0.39334702  1
  Pd  Pd185  1  0.39376121  0.19924750  0.20357669  1
  Pd  Pd186  1  0.39717892  -0.00169902  0.19878554  1
  Pd  Pd187  1  0.80038915  0.59545249  0.40208677  1
  Pd  Pd188  1  0.60153764  0.40539551  0.19828287  1
  Pd  Pd189  1  0.20680286  0.79500803  0.00223354  1
  Pd  Pd190  1  0.39602720  0.80293891  0.41046777  1
  Pd  Pd191  1  0.19530452  0.39620957  0.79937181  1
  Pd  Pd192  1  0.59941328  0.20254193  0.60057721  1
  Pd  Pd193  1  0.59302136  0.60176233  0.20148757  1
  Pd  Pd194  1  0.00334215  0.60285222  0.80999460  1
  Pd  Pd195  1  0.00304278  0.40238350  0.40541100  1
  Pd  Pd196  1  0.00269414  0.19019799  -0.00367888  1
  Pd  Pd197  1  0.60137407  0.60091768  0.58842569  1
  Pd  Pd198  1  0.20298646  0.59867741  0.39817054  1
  Pd  Pd199  1  0.60044502  0.60074513  0.80820036  1
  Rh  Rh200  1  0.60657335  0.79945567  0.19574633  1
  Rh  Rh201  1  0.79787090  0.59478826  0.19399841  1
  Rh  Rh202  1  0.19159519  0.61085103  0.19691550  1
  Rh  Rh203  1  0.00193045  0.19956926  0.20737523  1
  Rh  Rh204  1  -0.00802291  0.20707730  0.79650320  1
  Rh  Rh205  1  0.00291848  -0.00474436  0.80425549  1
  Rh  Rh206  1  0.60744201  0.19478441  0.19192674  1
  Rh  Rh207  1  0.40926314  0.00145690  -0.00472462  1
  Rh  Rh208  1  0.20287399  0.59870121  0.60361698  1
  Rh  Rh209  1  0.20011681  0.79457432  0.60378762  1
  Rh  Rh210  1  0.79497533  0.80525229  0.79727119  1
  Rh  Rh211  1  0.79967861  0.19346428  0.39107414  1
  Rh  Rh212  1  0.19174993  0.39998215  -0.00116560  1
  Rh  Rh213  1  0.00542843  0.60598893  0.19919955  1
  Rh  Rh214  1  0.18975960  0.59692664  0.80621945  1
  Rh  Rh215  1  0.80184694  0.19031581  0.60687297  1
  Rh  Rh216  1  0.39667210  0.80894190  0.18833949  1
  Rh  Rh217  1  0.60107344  -0.00500971  0.19147168  1
  Rh  Rh218  1  0.80660993  0.59286405  0.81591378  1
  Rh  Rh219  1  0.00377192  0.80126173  0.79406005  1
  Rh  Rh220  1  0.20723003  0.20333486  0.80764994  1
  Rh  Rh221  1  0.59076693  0.00545792  0.39712634  1
  Rh  Rh222  1  0.40541851  0.59010853  0.80838420  1
  Rh  Rh223  1  0.58841371  0.20904233  0.79214939  1
  Rh  Rh224  1  0.20060707  0.79716568  0.39442860  1
  Rh  Rh225  1  0.60367196  0.39427903  -0.00091034  1
  Rh  Rh226  1  0.19422371  0.00584337  0.60267392  1
  Rh  Rh227  1  0.39575657  -0.00307484  0.59859818  1
  Rh  Rh228  1  0.39364775  0.20161560  0.59918956  1
  Rh  Rh229  1  0.60624853  0.79812244  -0.00286561  1
  Rh  Rh230  1  0.79705969  0.79961440  0.20364838  1
  Rh  Rh231  1  0.81077999  -0.00397325  -0.00145503  1
  Rh  Rh232  1  0.80439693  0.60743852  0.59306992  1
  Rh  Rh233  1  0.60929244  -0.00979149  0.80987330  1
  Rh  Rh234  1  -0.00462834  0.80330803  0.00076040  1
  Rh  Rh235  1  0.80589709  0.79391795  0.00460905  1
  Rh  Rh236  1  0.80261081  0.00585364  0.20292920  1
  Rh  Rh237  1  0.78833688  0.40284323  0.61277193  1
  Rh  Rh238  1  0.79677364  0.00460822  0.39165784  1
  Rh  Rh239  1  0.79410989  0.80015900  0.40007818  1
  Rh  Rh240  1  0.40575772  0.40181574  0.19814360  1
  Rh  Rh241  1  0.60026039  0.60927638  -0.00022158  1
  Rh  Rh242  1  0.00134093  0.40628641  0.00317851  1
  Rh  Rh243  1  0.20003077  0.40606371  0.39653363  1
  Rh  Rh244  1  0.19176729  -0.00077836  -0.00023403  1
  Rh  Rh245  1  0.79967079  -0.00052664  0.60112156  1
  Rh  Rh246  1  0.60301306  -0.00031167  0.59511204  1
  Rh  Rh247  1  0.19489854  0.40119315  0.61159379  1
  Rh  Rh248  1  0.00281410  0.80296992  0.20320314  1
  Rh  Rh249  1  0.00632178  0.39232674  0.60877296  1
