# generated using pymatgen
data_ZrScNbPdRh
_symmetry_space_group_name_H-M   'P 1'
_cell_length_a   16.55357919
_cell_length_b   16.54963046
_cell_length_c   16.55514490
_cell_angle_alpha   90.02542196
_cell_angle_beta   90.02251671
_cell_angle_gamma   89.96691818
_symmetry_Int_Tables_number   1
_chemical_formula_structural   ZrScNbPdRh
_chemical_formula_sum   'Zr50 Sc50 Nb50 Pd50 Rh50'
_cell_volume   4535.37340529
_cell_formula_units_Z   50
loop_
 _symmetry_equiv_pos_site_id
 _symmetry_equiv_pos_as_xyz
  1  'x, y, z'
loop_
 _atom_site_type_symbol
 _atom_site_label
 _atom_site_symmetry_multiplicity
 _atom_site_fract_x
 _atom_site_fract_y
 _atom_site_fract_z
 _atom_site_occupancy
  Zr  Zr0  1  0.09981621  0.30037127  0.69175852  1
  Zr  Zr1  1  0.49735999  0.10000680  0.70523917  1
  Zr  Zr2  1  0.31270584  0.89928009  0.91022561  1
  Zr  Zr3  1  0.09973013  0.28818628  0.89160131  1
  Zr  Zr4  1  0.90249381  0.89228803  0.48929209  1
  Zr  Zr5  1  0.50489238  0.69408604  0.69012670  1
  Zr  Zr6  1  0.69854263  0.30123760  0.70959342  1
  Zr  Zr7  1  0.90059665  0.10754324  0.09966879  1
  Zr  Zr8  1  0.48719370  0.89892196  0.49842817  1
  Zr  Zr9  1  0.50109556  0.30434183  0.89413953  1
  Zr  Zr10  1  0.90018298  0.29919545  0.09776011  1
  Zr  Zr11  1  0.70489204  0.69942924  0.89734538  1
  Zr  Zr12  1  0.70226145  0.69147736  0.50324555  1
  Zr  Zr13  1  0.70285917  0.10203167  0.69974745  1
  Zr  Zr14  1  0.49078527  0.69890365  0.49757756  1
  Zr  Zr15  1  0.70049397  0.89454393  0.29778825  1
  Zr  Zr16  1  0.49225570  0.10133028  0.30392987  1
  Zr  Zr17  1  0.30514043  0.10408815  0.90330823  1
  Zr  Zr18  1  0.10823256  0.69858950  0.69322413  1
  Zr  Zr19  1  0.49543571  0.10103198  0.89626605  1
  Zr  Zr20  1  0.50782937  0.89275682  0.29835043  1
  Zr  Zr21  1  0.51062002  0.30617117  0.09687191  1
  Zr  Zr22  1  0.70320958  0.90347677  0.89716328  1
  Zr  Zr23  1  0.50530008  0.30883652  0.50450979  1
  Zr  Zr24  1  0.88693509  0.50017922  0.49761093  1
  Zr  Zr25  1  0.69630405  0.70148095  0.70513483  1
  Zr  Zr26  1  0.29876431  0.10537486  0.29990289  1
  Zr  Zr27  1  0.29073832  0.29517389  0.30135091  1
  Zr  Zr28  1  0.49932770  0.10397962  0.10382720  1
  Zr  Zr29  1  0.09673310  0.09929533  0.29184846  1
  Zr  Zr30  1  0.09914850  0.30150543  0.49623490  1
  Zr  Zr31  1  0.49943344  0.50217644  0.30473079  1
  Zr  Zr32  1  0.70592984  0.90163227  0.49616506  1
  Zr  Zr33  1  0.69928778  0.90523850  0.09860524  1
  Zr  Zr34  1  0.29492416  0.50174319  0.09984258  1
  Zr  Zr35  1  0.30423716  0.69763044  0.30399656  1
  Zr  Zr36  1  0.09288782  0.10962844  0.70551575  1
  Zr  Zr37  1  0.09718133  0.89912149  0.29732368  1
  Zr  Zr38  1  0.49556623  0.69977149  0.90629930  1
  Zr  Zr39  1  0.29532600  0.69307059  0.69538127  1
  Zr  Zr40  1  0.50247151  0.29979847  0.29889740  1
  Zr  Zr41  1  0.69877765  0.30310833  0.90669541  1
  Zr  Zr42  1  0.89992207  0.69928880  0.30660247  1
  Zr  Zr43  1  0.30537491  0.49758997  0.90428468  1
  Zr  Zr44  1  0.89622181  0.90107295  0.90088039  1
  Zr  Zr45  1  0.31024090  0.08612092  0.50029354  1
  Zr  Zr46  1  0.90341587  0.30317932  0.49617083  1
  Zr  Zr47  1  0.30263841  0.10052404  0.69642931  1
  Zr  Zr48  1  0.10148522  0.90114724  0.50388555  1
  Zr  Zr49  1  0.09052342  0.89995964  0.89560916  1
  Sc  Sc50  1  0.09744001  0.70269162  0.29686372  1
  Sc  Sc51  1  0.69878716  0.30627162  0.30082631  1
  Sc  Sc52  1  0.10307449  0.70364661  0.10447633  1
  Sc  Sc53  1  0.29731763  0.90931137  0.29779734  1
  Sc  Sc54  1  0.90961428  0.89885385  0.29929875  1
  Sc  Sc55  1  0.90300926  0.89589341  0.70056840  1
  Sc  Sc56  1  0.10044752  0.48946905  0.30377768  1
  Sc  Sc57  1  0.89692639  0.30162758  0.90091715  1
  Sc  Sc58  1  0.90574706  0.89849263  0.09590936  1
  Sc  Sc59  1  0.50209540  0.69179873  0.10312283  1
  Sc  Sc60  1  0.70179378  0.49734032  0.90329335  1
  Sc  Sc61  1  0.09510178  0.70002333  0.49791416  1
  Sc  Sc62  1  0.70446461  0.31560470  0.50137994  1
  Sc  Sc63  1  0.30121724  0.69862308  0.09717503  1
  Sc  Sc64  1  0.30699637  0.30105704  0.89893045  1
  Sc  Sc65  1  0.10304733  0.70018820  0.89268572  1
  Sc  Sc66  1  0.29842072  0.69645795  0.90343558  1
  Sc  Sc67  1  0.30125047  0.90057750  0.10637927  1
  Sc  Sc68  1  0.49879132  0.49071705  0.90539915  1
  Sc  Sc69  1  0.29266616  0.90059014  0.68735407  1
  Sc  Sc70  1  0.10642269  0.49013297  0.69074242  1
  Sc  Sc71  1  0.10622543  0.10403481  0.49931125  1
  Sc  Sc72  1  0.70817357  0.10702014  0.30143911  1
  Sc  Sc73  1  0.90408959  0.49453386  0.90778407  1
  Sc  Sc74  1  0.29145893  0.50595207  0.30188611  1
  Sc  Sc75  1  0.29310967  0.29188774  0.50253396  1
  Sc  Sc76  1  0.70385160  0.11038950  0.09417006  1
  Sc  Sc77  1  0.09940043  0.49887756  0.89936174  1
  Sc  Sc78  1  0.29510486  0.49550288  0.69262156  1
  Sc  Sc79  1  0.88747773  0.69640621  0.70173982  1
  Sc  Sc80  1  0.70347670  0.50606568  0.69410898  1
  Sc  Sc81  1  0.30197349  0.69539056  0.50194206  1
  Sc  Sc82  1  0.70505419  0.50010904  0.30271099  1
  Sc  Sc83  1  0.10156144  0.89698570  0.69496935  1
  Sc  Sc84  1  0.29863559  0.10359396  0.10836107  1
  Sc  Sc85  1  0.89961455  0.50060906  0.30933459  1
  Sc  Sc86  1  0.69769675  0.10376751  0.89909242  1
  Sc  Sc87  1  0.50151211  0.49885059  0.51368241  1
  Sc  Sc88  1  0.90334031  0.30015526  0.69594169  1
  Sc  Sc89  1  0.50346591  0.50100047  0.09471439  1
  Sc  Sc90  1  0.69441204  0.69784417  0.29644105  1
  Sc  Sc91  1  0.50067487  0.90131987  0.09876240  1
  Sc  Sc92  1  0.90125695  0.70644449  0.89850735  1
  Sc  Sc93  1  0.09716019  0.90057559  0.11536316  1
  Sc  Sc94  1  0.50175261  0.90820531  0.90341507  1
  Sc  Sc95  1  0.09240029  0.29855147  0.11350742  1
  Sc  Sc96  1  0.91054312  0.10326839  0.90409883  1
  Sc  Sc97  1  0.89656177  0.69189536  0.09551803  1
  Sc  Sc98  1  0.09662962  0.49412466  0.49433826  1
  Sc  Sc99  1  0.29931819  0.29467549  0.10321624  1
  Nb  Nb100  1  0.30386717  0.30178445  0.70060997  1
  Nb  Nb101  1  0.09349997  0.29751568  0.30770481  1
  Nb  Nb102  1  0.88682454  0.09934110  0.50094276  1
  Nb  Nb103  1  0.49595814  0.49600958  0.69930055  1
  Nb  Nb104  1  0.70233689  0.09867765  0.50359557  1
  Nb  Nb105  1  0.50869796  0.89770088  0.70135811  1
  Nb  Nb106  1  0.90674047  0.49523393  0.10116073  1
  Nb  Nb107  1  0.29316001  0.50068783  0.49569231  1
  Nb  Nb108  1  0.09745410  0.10130822  0.09470146  1
  Nb  Nb109  1  0.50039626  0.09714266  0.50439567  1
  Nb  Nb110  1  0.29404237  0.90252061  0.49860543  1
  Nb  Nb111  1  0.71616277  0.50829234  0.10384762  1
  Nb  Nb112  1  0.90683911  0.29367497  0.29485277  1
  Nb  Nb113  1  0.89744849  0.10772290  0.29834299  1
  Nb  Nb114  1  0.69987124  0.49784259  0.49660616  1
  Nb  Nb115  1  0.90390944  0.49788355  0.69445435  1
  Nb  Nb116  1  0.09298852  0.49532235  0.10075550  1
  Nb  Nb117  1  0.70551107  0.30566183  0.10008196  1
  Nb  Nb118  1  0.49780142  0.30834293  0.69923523  1
  Nb  Nb119  1  0.69684684  0.89836979  0.70191465  1
  Nb  Nb120  1  0.89766579  0.10498778  0.69122616  1
  Nb  Nb121  1  0.49604447  0.69936025  0.30723762  1
  Nb  Nb122  1  0.70208884  0.69325337  0.10222991  1
  Nb  Nb123  1  0.89871781  0.69659765  0.49536913  1
  Nb  Nb124  1  0.10172048  0.10062258  0.90052675  1
  Nb  Nb125  1  0.40595808  0.79428015  0.20739628  1
  Nb  Nb126  1  0.19802036  0.80997468  -0.00143335  1
  Nb  Nb127  1  0.60062153  0.00639234  0.40604389  1
  Nb  Nb128  1  0.60779281  0.79450026  0.00378614  1
  Nb  Nb129  1  0.60075575  0.19455650  0.41247731  1
  Nb  Nb130  1  0.80475075  0.00125277  0.19934230  1
  Nb  Nb131  1  0.40275978  0.59851621  0.79412651  1
  Nb  Nb132  1  -0.00048826  0.59529833  0.78935704  1
  Nb  Nb133  1  0.79756037  0.79849960  0.59685589  1
  Nb  Nb134  1  -0.01041751  0.00932600  0.59585628  1
  Nb  Nb135  1  -0.00831362  0.59800544  0.59939421  1
  Nb  Nb136  1  0.60050298  0.00023806  0.59958087  1
  Nb  Nb137  1  0.19372520  0.00222796  -0.00270240  1
  Nb  Nb138  1  0.79608573  0.79965736  0.19576126  1
  Nb  Nb139  1  0.19813421  0.00413529  0.80843440  1
  Nb  Nb140  1  0.80318781  0.00311127  0.79383920  1
  Nb  Nb141  1  0.39935241  0.40058551  0.20490706  1
  Nb  Nb142  1  0.19439894  0.39847585  0.00443589  1
  Nb  Nb143  1  0.40482559  0.79663595  0.79226715  1
  Nb  Nb144  1  0.59951478  0.19796660  0.59909603  1
  Nb  Nb145  1  -0.00113863  0.59017108  0.19603810  1
  Nb  Nb146  1  0.39513945  0.40128134  0.39957881  1
  Nb  Nb147  1  0.20254651  0.80532612  0.40109155  1
  Nb  Nb148  1  0.59669559  0.59852415  0.40468092  1
  Nb  Nb149  1  0.80709651  0.40032002  0.19506986  1
  Pd  Pd150  1  0.00516515  0.60633344  -0.00215633  1
  Pd  Pd151  1  0.40123080  -0.00610899  0.20052724  1
  Pd  Pd152  1  0.20367418  0.39907085  0.80572640  1
  Pd  Pd153  1  0.60683235  0.41231729  0.19492131  1
  Pd  Pd154  1  0.79322168  0.21001665  0.40161916  1
  Pd  Pd155  1  0.39390981  0.80237181  0.60520541  1
  Pd  Pd156  1  0.00830033  0.79459395  0.00499502  1
  Pd  Pd157  1  0.21211791  0.81020478  0.80691068  1
  Pd  Pd158  1  0.20972852  0.19918156  0.79713251  1
  Pd  Pd159  1  0.60295971  0.59886014  -0.00287619  1
  Pd  Pd160  1  0.80824880  0.19491141  0.80645138  1
  Pd  Pd161  1  0.20119740  0.39598157  0.19724674  1
  Pd  Pd162  1  -0.00284671  0.78853362  0.78955785  1
  Pd  Pd163  1  0.19917951  0.58874451  0.79870338  1
  Pd  Pd164  1  0.59996338  0.59647737  0.20734363  1
  Pd  Pd165  1  0.40481882  0.20450847  0.59963404  1
  Pd  Pd166  1  0.60232009  0.79517087  0.40814426  1
  Pd  Pd167  1  -0.00025734  0.40168955  0.79913757  1
  Pd  Pd168  1  0.59903107  0.00239326  -0.00048487  1
  Pd  Pd169  1  -0.00228315  0.00953558  0.40594767  1
  Pd  Pd170  1  0.80286112  -0.01061591  0.60610121  1
  Pd  Pd171  1  0.79691936  0.79770956  0.00729630  1
  Pd  Pd172  1  0.59284166  0.59042648  0.80371868  1
  Pd  Pd173  1  0.80930474  0.59063547  0.80757077  1
  Pd  Pd174  1  0.80405491  0.40624691  0.79813416  1
  Pd  Pd175  1  0.60854307  0.19798876  0.20647486  1
  Pd  Pd176  1  0.19636318  0.20438620  0.00691499  1
  Pd  Pd177  1  0.40337252  0.20839112  0.40979434  1
  Pd  Pd178  1  0.60262139  0.41032219  0.79765758  1
  Pd  Pd179  1  0.20217569  0.19627867  0.59909176  1
  Pd  Pd180  1  0.19103337  0.60782103  0.40069208  1
  Pd  Pd181  1  0.00315797  -0.00152829  0.00616326  1
  Pd  Pd182  1  0.39209114  -0.01251527  0.79074688  1
  Pd  Pd183  1  0.80092824  0.00066931  0.38785449  1
  Pd  Pd184  1  0.19731875  0.00034151  0.39644878  1
  Pd  Pd185  1  0.40299441  0.20560936  0.00502995  1
  Pd  Pd186  1  0.18954798  0.60135413  0.20259124  1
  Pd  Pd187  1  0.39983658  0.59815817  0.19696144  1
  Pd  Pd188  1  -0.00919132  0.79326607  0.60382105  1
  Pd  Pd189  1  0.00893816  0.38972286  -0.00489028  1
  Pd  Pd190  1  0.79504235  0.21317823  0.59688176  1
  Pd  Pd191  1  0.59888915  0.19974449  -0.00370762  1
  Pd  Pd192  1  0.38798334  0.40261297  0.59284548  1
  Pd  Pd193  1  0.60962831  0.01348221  0.20626558  1
  Pd  Pd194  1  0.80741301  0.59734712  -0.00778515  1
  Pd  Pd195  1  0.59296825  0.80073136  0.81123566  1
  Pd  Pd196  1  0.60479405  0.80507711  0.59149796  1
  Pd  Pd197  1  -0.00324564  0.00320418  0.79051686  1
  Pd  Pd198  1  -0.00169594  0.19030208  0.40590015  1
  Pd  Pd199  1  0.18996419  0.60056199  0.00109699  1
  Rh  Rh200  1  0.80208461  0.60198537  0.59958264  1
  Rh  Rh201  1  0.39715782  0.00991203  0.01245387  1
  Rh  Rh202  1  -0.00893119  0.20439654  0.79919769  1
  Rh  Rh203  1  0.20279330  0.39468610  0.59305809  1
  Rh  Rh204  1  0.38740887  0.80911614  0.39286280  1
  Rh  Rh205  1  -0.00651744  0.40389156  0.21158052  1
  Rh  Rh206  1  -0.01369884  0.78508945  0.19601806  1
  Rh  Rh207  1  0.60915823  0.40089431  0.61066410  1
  Rh  Rh208  1  0.40523329  0.58696358  0.41072463  1
  Rh  Rh209  1  0.00241878  0.59844414  0.40043318  1
  Rh  Rh210  1  0.78954085  0.60283761  0.39480069  1
  Rh  Rh211  1  -0.00224771  0.40519594  0.59303613  1
  Rh  Rh212  1  0.40100663  0.59652211  -0.00389360  1
  Rh  Rh213  1  0.81077150  0.60002036  0.20403201  1
  Rh  Rh214  1  0.18808893  0.00864969  0.61010206  1
  Rh  Rh215  1  0.80557522  0.00790301  -0.00286283  1
  Rh  Rh216  1  0.59776304  0.78763655  0.18990826  1
  Rh  Rh217  1  0.19570878  0.00731912  0.19274399  1
  Rh  Rh218  1  0.40555822  -0.00952972  0.60717066  1
  Rh  Rh219  1  0.39136769  0.39693536  0.01358259  1
  Rh  Rh220  1  0.60780168  0.00239437  0.79643554  1
  Rh  Rh221  1  0.00417544  0.20608695  -0.00033855  1
  Rh  Rh222  1  0.79903164  0.20209277  -0.00587132  1
  Rh  Rh223  1  -0.00461275  0.39933637  0.39744995  1
  Rh  Rh224  1  0.59294090  0.20388749  0.79779609  1
  Rh  Rh225  1  0.01085664  0.79676199  0.39790960  1
  Rh  Rh226  1  -0.00514037  0.19587966  0.59079694  1
  Rh  Rh227  1  0.59485305  0.40631301  0.40316736  1
  Rh  Rh228  1  0.79792246  0.39978220  0.60583151  1
  Rh  Rh229  1  0.79865808  0.20465648  0.20106852  1
  Rh  Rh230  1  0.39693273  0.40417733  0.79407253  1
  Rh  Rh231  1  0.39462056  0.59146079  0.60216323  1
  Rh  Rh232  1  0.21419787  0.79690956  0.20226932  1
  Rh  Rh233  1  0.20442403  0.39618004  0.40219192  1
  Rh  Rh234  1  0.79796402  0.40243151  0.00609516  1
  Rh  Rh235  1  0.40362670  0.79699502  0.00876056  1
  Rh  Rh236  1  -0.00953434  0.00905039  0.19851105  1
  Rh  Rh237  1  0.80459871  0.39357601  0.38846490  1
  Rh  Rh238  1  0.40140919  0.21032987  0.79545731  1
  Rh  Rh239  1  0.60253809  0.59368385  0.59621510  1
  Rh  Rh240  1  0.19049761  0.19969255  0.20113282  1
  Rh  Rh241  1  0.19117926  0.59488979  0.58936251  1
  Rh  Rh242  1  0.40615046  0.20978776  0.19494197  1
  Rh  Rh243  1  0.00287048  0.19693209  0.19975155  1
  Rh  Rh244  1  0.40275583  -0.00543847  0.39383219  1
  Rh  Rh245  1  0.61213982  0.40797264  0.00739182  1
  Rh  Rh246  1  0.19717539  0.19409100  0.39912207  1
  Rh  Rh247  1  0.80124313  0.80827544  0.79282230  1
  Rh  Rh248  1  0.20326796  0.79485932  0.58701764  1
  Rh  Rh249  1  0.79730147  0.79294537  0.39654450  1
