# generated using pymatgen
data_ZrScNbPdRh
_symmetry_space_group_name_H-M   'P 1'
_cell_length_a   16.55208315
_cell_length_b   16.55357829
_cell_length_c   16.54892473
_cell_angle_alpha   89.98691908
_cell_angle_beta   90.03904719
_cell_angle_gamma   90.01750381
_symmetry_Int_Tables_number   1
_chemical_formula_structural   ZrScNbPdRh
_chemical_formula_sum   'Zr50 Sc50 Nb50 Pd50 Rh50'
_cell_volume   4534.34118179
_cell_formula_units_Z   50
loop_
 _symmetry_equiv_pos_site_id
 _symmetry_equiv_pos_as_xyz
  1  'x, y, z'
loop_
 _atom_site_type_symbol
 _atom_site_label
 _atom_site_symmetry_multiplicity
 _atom_site_fract_x
 _atom_site_fract_y
 _atom_site_fract_z
 _atom_site_occupancy
  Zr  Zr0  1  0.89336347  0.09859188  0.30134921  1
  Zr  Zr1  1  0.30169624  0.70335702  0.50007395  1
  Zr  Zr2  1  0.49838505  0.10340974  0.09058659  1
  Zr  Zr3  1  0.50122781  0.89410083  0.09707409  1
  Zr  Zr4  1  0.50450221  0.09559249  0.89317448  1
  Zr  Zr5  1  0.30263146  0.90061759  0.29589176  1
  Zr  Zr6  1  0.90244714  0.29693675  0.69565576  1
  Zr  Zr7  1  0.70405227  0.70019167  0.09136103  1
  Zr  Zr8  1  0.29046226  0.29906726  0.89426012  1
  Zr  Zr9  1  0.49982472  0.10169041  0.69947823  1
  Zr  Zr10  1  0.29748326  0.29857863  0.70199761  1
  Zr  Zr11  1  0.89332543  0.09014703  0.09316534  1
  Zr  Zr12  1  0.50579438  0.89582211  0.29928809  1
  Zr  Zr13  1  0.91062717  0.50277018  0.70050488  1
  Zr  Zr14  1  0.89483639  0.90479013  0.69492327  1
  Zr  Zr15  1  0.89598349  0.70028654  0.90899234  1
  Zr  Zr16  1  0.90799201  0.90004885  0.09553162  1
  Zr  Zr17  1  0.90695211  0.49749780  0.90669355  1
  Zr  Zr18  1  0.28498814  0.29803578  0.29659324  1
  Zr  Zr19  1  0.69311964  0.30131160  0.09603554  1
  Zr  Zr20  1  0.10813680  0.88952332  0.29078996  1
  Zr  Zr21  1  0.48656793  0.49521339  0.09924774  1
  Zr  Zr22  1  0.29780793  0.70522224  0.29834279  1
  Zr  Zr23  1  0.49573833  0.10437720  0.50525158  1
  Zr  Zr24  1  0.10290462  0.49945157  0.09894839  1
  Zr  Zr25  1  0.09481735  0.69530490  0.70075429  1
  Zr  Zr26  1  0.89695237  0.90420736  0.50276409  1
  Zr  Zr27  1  0.89836511  0.69560924  0.10709845  1
  Zr  Zr28  1  0.89522209  0.29934526  0.50345299  1
  Zr  Zr29  1  0.70351643  0.50380666  0.50265588  1
  Zr  Zr30  1  0.30080706  0.89895053  0.50086104  1
  Zr  Zr31  1  0.69378880  0.29925019  0.30735386  1
  Zr  Zr32  1  0.30170337  0.10809044  0.09990850  1
  Zr  Zr33  1  0.49546350  0.30038509  0.09434790  1
  Zr  Zr34  1  0.30957985  0.49994952  0.29873414  1
  Zr  Zr35  1  0.29871226  0.49873636  0.50310833  1
  Zr  Zr36  1  0.09801241  0.89554924  0.70306717  1
  Zr  Zr37  1  0.90721094  0.89796589  0.29547011  1
  Zr  Zr38  1  0.29783494  0.10729724  0.89841435  1
  Zr  Zr39  1  0.49936761  0.09300204  0.31084269  1
  Zr  Zr40  1  0.50611703  0.69761168  0.69610808  1
  Zr  Zr41  1  0.30404935  0.50230638  0.90692192  1
  Zr  Zr42  1  0.69894378  0.29870504  0.70083324  1
  Zr  Zr43  1  0.30424632  0.69910431  0.08968771  1
  Zr  Zr44  1  0.50582373  0.90655960  0.71312826  1
  Zr  Zr45  1  0.69093741  0.49812652  0.89626800  1
  Zr  Zr46  1  0.70323856  0.71373966  0.70722889  1
  Zr  Zr47  1  0.30122184  0.49058845  0.70127998  1
  Zr  Zr48  1  0.70387137  0.89859833  0.50721038  1
  Zr  Zr49  1  0.09815788  0.09824011  0.09692229  1
  Sc  Sc50  1  0.69727584  0.51343773  0.70095891  1
  Sc  Sc51  1  0.11526515  0.10649924  0.29744445  1
  Sc  Sc52  1  0.88648053  0.31007566  0.08970376  1
  Sc  Sc53  1  0.30370560  0.30355569  0.09795885  1
  Sc  Sc54  1  0.09739864  0.71094471  0.89767337  1
  Sc  Sc55  1  0.30227031  0.10159705  0.30066804  1
  Sc  Sc56  1  0.69578234  0.89872684  0.30789177  1
  Sc  Sc57  1  0.10155609  0.10274785  0.90039845  1
  Sc  Sc58  1  0.30028599  0.87667327  0.89552031  1
  Sc  Sc59  1  0.69572307  0.10687252  0.71120094  1
  Sc  Sc60  1  0.70332087  0.69819413  0.28819496  1
  Sc  Sc61  1  0.90926696  0.50393356  0.50113781  1
  Sc  Sc62  1  0.49021281  0.70027211  0.90493194  1
  Sc  Sc63  1  0.48917424  0.49110002  0.48853168  1
  Sc  Sc64  1  0.11424810  0.29962458  0.09973141  1
  Sc  Sc65  1  0.49734898  0.29641172  0.69969003  1
  Sc  Sc66  1  0.70073349  0.10495575  0.49153877  1
  Sc  Sc67  1  0.09729674  0.49015679  0.30682583  1
  Sc  Sc68  1  0.09920256  0.70189275  0.49894336  1
  Sc  Sc69  1  0.69614040  0.49791722  0.10584199  1
  Sc  Sc70  1  0.49597364  0.49707589  0.89896671  1
  Sc  Sc71  1  0.50283199  0.30550939  0.90044627  1
  Sc  Sc72  1  0.50516921  0.69703606  0.10175319  1
  Sc  Sc73  1  0.70286506  0.89285168  0.09745661  1
  Sc  Sc74  1  0.30636067  0.09769425  0.69581770  1
  Sc  Sc75  1  0.09523815  0.70598078  0.10246983  1
  Sc  Sc76  1  0.50307416  0.70513821  0.49357235  1
  Sc  Sc77  1  0.89817552  0.51163800  0.30457123  1
  Sc  Sc78  1  0.10000051  0.49786835  0.69629801  1
  Sc  Sc79  1  0.89611171  0.30730854  0.30553196  1
  Sc  Sc80  1  0.30029776  0.09461399  0.49969714  1
  Sc  Sc81  1  0.29918273  0.89953726  0.69030300  1
  Sc  Sc82  1  0.69888617  0.29686339  0.90145158  1
  Sc  Sc83  1  0.89726801  0.09987375  0.50654895  1
  Sc  Sc84  1  0.11273978  0.90437353  0.50580606  1
  Sc  Sc85  1  0.49999805  0.70017655  0.29724689  1
  Sc  Sc86  1  0.89791440  0.69596492  0.70715292  1
  Sc  Sc87  1  0.09936593  0.49405643  0.89843313  1
  Sc  Sc88  1  0.69951817  0.70153425  0.51171501  1
  Sc  Sc89  1  0.09147099  0.09342917  0.69119905  1
  Sc  Sc90  1  0.90026094  0.10032500  0.69171251  1
  Sc  Sc91  1  0.30712271  0.30421890  0.50128596  1
  Sc  Sc92  1  0.50441089  0.90479390  0.48852855  1
  Sc  Sc93  1  0.70023155  0.10832750  0.90630894  1
  Sc  Sc94  1  0.69389046  0.89009102  0.89732505  1
  Sc  Sc95  1  0.49628184  0.30452480  0.31161609  1
  Sc  Sc96  1  0.30074783  0.71252248  0.70004332  1
  Sc  Sc97  1  0.49537787  0.49879274  0.29647004  1
  Sc  Sc98  1  0.50194724  0.49303803  0.71009282  1
  Sc  Sc99  1  0.09899120  0.31021639  0.49128926  1
  Nb  Nb100  1  0.90801968  0.49956660  0.10145528  1
  Nb  Nb101  1  0.29773105  0.89828546  0.10075260  1
  Nb  Nb102  1  0.29851541  0.50003506  0.10476162  1
  Nb  Nb103  1  0.89717209  0.29828819  0.89732315  1
  Nb  Nb104  1  0.69376857  0.29959709  0.49765914  1
  Nb  Nb105  1  0.70345149  0.90089487  0.70018636  1
  Nb  Nb106  1  0.69553186  0.49481892  0.30418965  1
  Nb  Nb107  1  0.09464802  0.29883383  0.29734563  1
  Nb  Nb108  1  0.09856589  0.70096463  0.30110614  1
  Nb  Nb109  1  0.91269202  0.70427077  0.30562487  1
  Nb  Nb110  1  0.69871075  0.10318705  0.10153478  1
  Nb  Nb111  1  0.90914869  0.90890933  0.90516900  1
  Nb  Nb112  1  0.10232008  0.29279131  0.89262319  1
  Nb  Nb113  1  0.29762437  0.69401271  0.89818010  1
  Nb  Nb114  1  0.10052285  0.50851803  0.49917103  1
  Nb  Nb115  1  0.89514793  0.10477526  0.90004749  1
  Nb  Nb116  1  0.09956310  0.90180431  0.09461231  1
  Nb  Nb117  1  0.90597755  0.69893071  0.49293815  1
  Nb  Nb118  1  0.69981444  0.10285155  0.29870476  1
  Nb  Nb119  1  0.09440830  0.90041933  0.90151574  1
  Nb  Nb120  1  0.10410755  0.29542751  0.70697683  1
  Nb  Nb121  1  0.70819485  0.69525244  0.90468148  1
  Nb  Nb122  1  0.50536852  0.29719837  0.50387459  1
  Nb  Nb123  1  0.49837270  0.90724574  0.90315830  1
  Nb  Nb124  1  0.09903049  0.10456607  0.50003728  1
  Nb  Nb125  1  0.80366418  -0.00173213  0.80456228  1
  Nb  Nb126  1  -0.00284371  0.39778956  0.19606512  1
  Nb  Nb127  1  0.60112883  0.39559637  0.59413924  1
  Nb  Nb128  1  -0.00498398  0.20450288  -0.00360479  1
  Nb  Nb129  1  0.80978583  0.79229356  0.39967821  1
  Nb  Nb130  1  0.19386363  0.20189151  0.59815473  1
  Nb  Nb131  1  0.39890388  0.59865218  0.60040741  1
  Nb  Nb132  1  0.19841435  0.60100987  0.39661525  1
  Nb  Nb133  1  -0.00689280  0.20540567  0.19689874  1
  Nb  Nb134  1  0.60322108  0.00048383  0.60545291  1
  Nb  Nb135  1  0.60046633  0.19494675  0.20265809  1
  Nb  Nb136  1  0.79567072  0.19867932  0.19888116  1
  Nb  Nb137  1  0.20328722  -0.00994672  -0.00170827  1
  Nb  Nb138  1  0.60327524  0.00697643  0.19774104  1
  Nb  Nb139  1  0.20072641  0.60001773  0.20307855  1
  Nb  Nb140  1  -0.00603828  0.79915576  0.59855329  1
  Nb  Nb141  1  0.79216222  0.40345679  0.40509236  1
  Nb  Nb142  1  -0.00220605  0.20300828  0.80301483  1
  Nb  Nb143  1  0.20556689  0.60244917  0.80251161  1
  Nb  Nb144  1  0.39372792  -0.00844552  -0.00332917  1
  Nb  Nb145  1  0.00205306  0.19843801  0.39634470  1
  Nb  Nb146  1  0.60521175  0.59468828  0.39668293  1
  Nb  Nb147  1  0.80614144  0.39950146  0.79988305  1
  Nb  Nb148  1  0.00730579  0.00527497  0.39953791  1
  Nb  Nb149  1  0.19607149  -0.00765389  0.80583321  1
  Pd  Pd150  1  0.19618456  0.80045827  0.00059259  1
  Pd  Pd151  1  0.20535538  0.60583608  0.60281267  1
  Pd  Pd152  1  0.39352094  0.20397245  0.40160158  1
  Pd  Pd153  1  0.40638592  0.00051688  0.19367904  1
  Pd  Pd154  1  0.41306493  0.80388127  0.59980797  1
  Pd  Pd155  1  0.58321388  0.58705216  0.58909354  1
  Pd  Pd156  1  0.39500542  0.60238390  0.79139396  1
  Pd  Pd157  1  0.80531124  0.40159442  0.20704715  1
  Pd  Pd158  1  0.40608162  0.79860574  0.79802990  1
  Pd  Pd159  1  0.38459845  -0.00833284  0.80699898  1
  Pd  Pd160  1  0.60425701  -0.00199113  0.00209943  1
  Pd  Pd161  1  0.78788629  -0.00743071  -0.00991306  1
  Pd  Pd162  1  0.00927971  0.00737160  0.20904126  1
  Pd  Pd163  1  0.80018905  -0.00594635  0.39835131  1
  Pd  Pd164  1  0.40680485  0.20616904  0.20921917  1
  Pd  Pd165  1  0.40254500  0.79449924  0.19547600  1
  Pd  Pd166  1  0.80912584  0.80867418  0.81105137  1
  Pd  Pd167  1  0.79092961  0.19251605  0.59986406  1
  Pd  Pd168  1  0.59777183  0.61151361  0.80932603  1
  Pd  Pd169  1  0.20136928  0.39772347  -0.00391978  1
  Pd  Pd170  1  0.00750574  0.38839631  0.00645921  1
  Pd  Pd171  1  0.20197812  0.00228874  0.19478184  1
  Pd  Pd172  1  0.19164918  0.60517627  -0.00153211  1
  Pd  Pd173  1  0.59320581  0.59581931  -0.00118500  1
  Pd  Pd174  1  0.80301068  0.59265413  0.80282760  1
  Pd  Pd175  1  0.59248433  0.81112389  0.60031194  1
  Pd  Pd176  1  0.19172972  0.39260410  0.59859084  1
  Pd  Pd177  1  0.00021580  0.39467161  0.79946032  1
  Pd  Pd178  1  0.01003089  0.39783670  0.59674422  1
  Pd  Pd179  1  0.20204172  0.40443510  0.40003532  1
  Pd  Pd180  1  0.00837193  0.59288404  0.20719508  1
  Pd  Pd181  1  0.00695155  0.81215632  0.40983778  1
  Pd  Pd182  1  0.40598466  0.20556829  0.80226947  1
  Pd  Pd183  1  0.79417408  0.40530786  0.60364262  1
  Pd  Pd184  1  0.00847246  0.60657013  -0.00313733  1
  Pd  Pd185  1  0.19977925  0.00075130  0.39736647  1
  Pd  Pd186  1  0.59698289  0.59686685  0.20348559  1
  Pd  Pd187  1  0.80837758  0.60690216  0.60251794  1
  Pd  Pd188  1  0.79252970  0.40760749  -0.00652998  1
  Pd  Pd189  1  0.59439623  0.79232646  0.81136029  1
  Pd  Pd190  1  0.40286696  0.80152989  0.39725593  1
  Pd  Pd191  1  0.80002116  0.59419233  0.20002418  1
  Pd  Pd192  1  0.79810514  0.58675732  0.00560421  1
  Pd  Pd193  1  0.58924848  0.39455447  0.20164342  1
  Pd  Pd194  1  -0.01130617  0.79907051  0.79785266  1
  Pd  Pd195  1  0.80139839  0.80224840  0.20457203  1
  Pd  Pd196  1  0.59830802  0.79252472  -0.00647044  1
  Pd  Pd197  1  0.78995922  -0.00501545  0.20050096  1
  Pd  Pd198  1  -0.00117748  0.01017378  0.80337504  1
  Pd  Pd199  1  0.79447132  0.60464531  0.39787436  1
  Rh  Rh200  1  0.19006355  0.79515144  0.60188211  1
  Rh  Rh201  1  0.39571609  0.60389598  0.19488764  1
  Rh  Rh202  1  0.60408468  0.80470329  0.19893149  1
  Rh  Rh203  1  0.01021921  0.59797135  0.39676455  1
  Rh  Rh204  1  -0.00178784  0.60652652  0.59687917  1
  Rh  Rh205  1  0.00484388  -0.00837354  0.58875192  1
  Rh  Rh206  1  0.40168337  0.60624127  0.40674343  1
  Rh  Rh207  1  0.00097236  0.79942349  0.19330857  1
  Rh  Rh208  1  0.19665314  0.20332283  0.40926728  1
  Rh  Rh209  1  0.19730198  0.40681377  0.20142772  1
  Rh  Rh210  1  0.40062453  0.20014885  -0.01108169  1
  Rh  Rh211  1  0.60838550  0.39652675  0.79252895  1
  Rh  Rh212  1  0.19972550  0.79371016  0.19120548  1
  Rh  Rh213  1  0.39267353  0.39675171  -0.00356919  1
  Rh  Rh214  1  0.18901054  0.18193034  0.78534644  1
  Rh  Rh215  1  0.40197683  0.80139584  -0.00003142  1
  Rh  Rh216  1  0.19685679  0.19763348  0.00387762  1
  Rh  Rh217  1  0.39268461  -0.00441388  0.40079181  1
  Rh  Rh218  1  0.39045561  0.20314613  0.59769497  1
  Rh  Rh219  1  0.41143716  -0.00602345  0.59795789  1
  Rh  Rh220  1  0.40269020  0.59865336  0.00309438  1
  Rh  Rh221  1  0.80562232  0.80613750  -0.00298663  1
  Rh  Rh222  1  0.20039258  0.00852101  0.60730502  1
  Rh  Rh223  1  0.59834462  0.40602890  0.00092801  1
  Rh  Rh224  1  0.41148849  0.40162526  0.60472816  1
  Rh  Rh225  1  0.19823005  0.79652030  0.40263166  1
  Rh  Rh226  1  0.59602722  0.20414033  0.80554894  1
  Rh  Rh227  1  0.59491343  0.19484033  0.39983595  1
  Rh  Rh228  1  0.19832651  0.40860999  0.80270964  1
  Rh  Rh229  1  0.80633149  0.20003492  0.79748583  1
  Rh  Rh230  1  0.78510617  0.01228731  0.61149930  1
  Rh  Rh231  1  0.60230399  0.19860581  0.59892692  1
  Rh  Rh232  1  0.39662539  0.39346655  0.80422125  1
  Rh  Rh233  1  0.80601094  0.20821263  0.39740649  1
  Rh  Rh234  1  0.61334058  0.00030514  0.80045884  1
  Rh  Rh235  1  0.00802254  0.00762268  -0.00691523  1
  Rh  Rh236  1  0.80277550  0.20106475  0.00685957  1
  Rh  Rh237  1  -0.00958940  0.39987765  0.39900805  1
  Rh  Rh238  1  0.61545677  0.78349489  0.39682221  1
  Rh  Rh239  1  0.80933076  0.78989655  0.59470341  1
  Rh  Rh240  1  0.00884504  0.20941338  0.59619997  1
  Rh  Rh241  1  0.59713380  0.20181873  -0.00058382  1
  Rh  Rh242  1  0.39763184  0.39215668  0.20287825  1
  Rh  Rh243  1  0.19691685  0.79860200  0.79746722  1
  Rh  Rh244  1  -0.00409088  0.79710687  0.00331303  1
  Rh  Rh245  1  0.19933611  0.20109449  0.19504746  1
  Rh  Rh246  1  0.00815118  0.59930997  0.80795362  1
  Rh  Rh247  1  0.39407960  0.39242066  0.39699106  1
  Rh  Rh248  1  0.60200848  0.40821804  0.40830979  1
  Rh  Rh249  1  0.60471158  0.00522359  0.40389493  1
