# generated using pymatgen
data_ZrScNbPdRh
_symmetry_space_group_name_H-M   'P 1'
_cell_length_a   16.55254804
_cell_length_b   16.55279917
_cell_length_c   16.55290014
_cell_angle_alpha   89.99033566
_cell_angle_beta   89.99727825
_cell_angle_gamma   89.97614686
_symmetry_Int_Tables_number   1
_chemical_formula_structural   ZrScNbPdRh
_chemical_formula_sum   'Zr50 Sc50 Nb50 Pd50 Rh50'
_cell_volume   4535.34525504
_cell_formula_units_Z   50
loop_
 _symmetry_equiv_pos_site_id
 _symmetry_equiv_pos_as_xyz
  1  'x, y, z'
loop_
 _atom_site_type_symbol
 _atom_site_label
 _atom_site_symmetry_multiplicity
 _atom_site_fract_x
 _atom_site_fract_y
 _atom_site_fract_z
 _atom_site_occupancy
  Zr  Zr0  1  0.91052821  0.70203190  0.30254320  1
  Zr  Zr1  1  0.89088846  0.30156841  0.50542589  1
  Zr  Zr2  1  0.69190330  0.89549241  0.70436827  1
  Zr  Zr3  1  0.49950408  0.70446541  0.31590014  1
  Zr  Zr4  1  0.50402884  0.49991476  0.10260024  1
  Zr  Zr5  1  0.10620051  0.70293870  0.10158428  1
  Zr  Zr6  1  0.29466499  0.50108583  0.69882130  1
  Zr  Zr7  1  0.09766042  0.89811196  0.89762007  1
  Zr  Zr8  1  0.49155158  0.29725742  0.30138740  1
  Zr  Zr9  1  0.49513072  0.10339645  0.49365484  1
  Zr  Zr10  1  0.90127456  0.09213242  0.29446597  1
  Zr  Zr11  1  0.29870593  0.10143584  0.90531045  1
  Zr  Zr12  1  0.71038303  0.10043965  0.89662411  1
  Zr  Zr13  1  0.69804121  0.10015645  0.09456717  1
  Zr  Zr14  1  0.50766132  0.50849387  0.50134610  1
  Zr  Zr15  1  0.09540632  0.10001517  0.30905747  1
  Zr  Zr16  1  0.09765537  0.69979214  0.70025693  1
  Zr  Zr17  1  0.09997691  0.11121684  0.10758386  1
  Zr  Zr18  1  0.09638744  0.89395038  0.70039030  1
  Zr  Zr19  1  0.70335867  0.49648273  0.10073331  1
  Zr  Zr20  1  0.30967269  0.09648586  0.30977589  1
  Zr  Zr21  1  0.29809468  0.70096269  0.49515641  1
  Zr  Zr22  1  0.10339398  0.50575240  0.30410971  1
  Zr  Zr23  1  0.29710682  0.30484150  0.69810412  1
  Zr  Zr24  1  0.09584724  0.89729530  0.29906131  1
  Zr  Zr25  1  0.09352725  0.90870268  0.50566038  1
  Zr  Zr26  1  0.49746161  0.09414132  0.29454987  1
  Zr  Zr27  1  0.09559000  0.70128353  0.50328197  1
  Zr  Zr28  1  0.90417911  0.70222208  0.89696732  1
  Zr  Zr29  1  0.10173272  0.30270645  0.70141635  1
  Zr  Zr30  1  0.90804117  0.70231697  0.10519094  1
  Zr  Zr31  1  0.50712368  0.89622675  0.89717514  1
  Zr  Zr32  1  0.29045652  0.69828116  0.70817367  1
  Zr  Zr33  1  0.30057287  0.10040257  0.09368360  1
  Zr  Zr34  1  0.70389563  0.09334675  0.69863008  1
  Zr  Zr35  1  0.49264876  0.49444084  0.29559819  1
  Zr  Zr36  1  0.49640824  0.51535327  0.90277316  1
  Zr  Zr37  1  0.09839943  0.10566031  0.89308703  1
  Zr  Zr38  1  0.68830932  0.70024059  0.50303027  1
  Zr  Zr39  1  0.50059014  0.69531765  0.08589269  1
  Zr  Zr40  1  0.48684006  0.29668306  0.70406271  1
  Zr  Zr41  1  0.69910793  0.29797770  0.90435987  1
  Zr  Zr42  1  0.69995336  0.70234201  0.29966908  1
  Zr  Zr43  1  0.29734047  0.28996943  0.50794726  1
  Zr  Zr44  1  0.69709008  0.69489087  0.10056182  1
  Zr  Zr45  1  0.10319106  0.29132245  0.29277261  1
  Zr  Zr46  1  0.09612249  0.30294723  0.89475069  1
  Zr  Zr47  1  0.90285726  0.09557441  0.49902406  1
  Zr  Zr48  1  0.09068576  0.09220466  0.69950082  1
  Zr  Zr49  1  0.70299293  0.29921450  0.49992217  1
  Sc  Sc50  1  0.90261412  0.49442940  0.50667583  1
  Sc  Sc51  1  0.09993901  0.89048543  0.09842886  1
  Sc  Sc52  1  0.70288829  0.09985199  0.28564798  1
  Sc  Sc53  1  0.30152150  0.10575577  0.70425585  1
  Sc  Sc54  1  0.49566254  0.10564543  0.09680541  1
  Sc  Sc55  1  0.29356140  0.89565607  0.09617285  1
  Sc  Sc56  1  0.09887522  0.69848235  0.29683542  1
  Sc  Sc57  1  0.29978985  0.69365914  0.29720923  1
  Sc  Sc58  1  0.70039671  0.10300565  0.50985028  1
  Sc  Sc59  1  0.90750397  0.69913069  0.70530877  1
  Sc  Sc60  1  0.30367811  0.50334557  0.10431050  1
  Sc  Sc61  1  0.70155980  0.50017162  0.28948738  1
  Sc  Sc62  1  0.30403492  0.49722809  0.29563326  1
  Sc  Sc63  1  0.70528894  0.49533193  0.90049941  1
  Sc  Sc64  1  0.88642075  0.30691354  0.09796959  1
  Sc  Sc65  1  0.29707199  0.90359598  0.90271647  1
  Sc  Sc66  1  0.89712941  0.49515593  0.88490702  1
  Sc  Sc67  1  0.69560635  0.30349771  0.09841920  1
  Sc  Sc68  1  0.49631911  0.29600947  0.50529765  1
  Sc  Sc69  1  0.11804089  0.49810204  0.09947276  1
  Sc  Sc70  1  0.89731851  0.10104910  0.70437941  1
  Sc  Sc71  1  0.28900204  0.30410623  0.10649149  1
  Sc  Sc72  1  0.89530372  0.30488522  0.88859651  1
  Sc  Sc73  1  0.09670055  0.50476148  0.70238411  1
  Sc  Sc74  1  0.29386365  0.49962991  0.50071547  1
  Sc  Sc75  1  0.50259139  0.29810835  0.09916880  1
  Sc  Sc76  1  0.49845909  0.50057979  0.70187648  1
  Sc  Sc77  1  0.69605705  0.70413406  0.89609712  1
  Sc  Sc78  1  0.49212186  0.11054213  0.90196687  1
  Sc  Sc79  1  0.50990106  0.90044471  0.10148285  1
  Sc  Sc80  1  0.89096087  0.29246562  0.30339260  1
  Sc  Sc81  1  0.50263333  0.88900918  0.49296093  1
  Sc  Sc82  1  0.69925718  0.29721189  0.29670789  1
  Sc  Sc83  1  0.30017803  0.90543419  0.49464215  1
  Sc  Sc84  1  0.29831684  0.29420320  0.89078447  1
  Sc  Sc85  1  0.89583444  0.89249147  0.90448249  1
  Sc  Sc86  1  0.90065063  0.89792294  0.69435172  1
  Sc  Sc87  1  0.10382320  0.50781110  0.50840598  1
  Sc  Sc88  1  0.29482406  0.51203960  0.89921407  1
  Sc  Sc89  1  0.51669108  0.69475635  0.70494343  1
  Sc  Sc90  1  0.70262749  0.90390117  0.09660800  1
  Sc  Sc91  1  0.70513531  0.29434895  0.69523915  1
  Sc  Sc92  1  0.70552830  0.89501404  0.89701448  1
  Sc  Sc93  1  0.69809604  0.49869210  0.70061860  1
  Sc  Sc94  1  0.29180799  0.90070752  0.70564819  1
  Sc  Sc95  1  0.10448451  0.70026663  0.89412676  1
  Sc  Sc96  1  0.88691916  0.09570531  0.10516075  1
  Sc  Sc97  1  0.70244415  0.49407836  0.50413815  1
  Sc  Sc98  1  0.70183767  0.89179075  0.50974562  1
  Sc  Sc99  1  0.50425796  0.09926482  0.70310268  1
  Nb  Nb100  1  0.49916884  0.90055378  0.29900862  1
  Nb  Nb101  1  0.09704804  0.50400435  0.90559445  1
  Nb  Nb102  1  0.90033353  0.49503757  0.69814161  1
  Nb  Nb103  1  0.30649386  0.89939865  0.30036590  1
  Nb  Nb104  1  0.30153600  0.30548386  0.30462231  1
  Nb  Nb105  1  0.10376221  0.10484862  0.49872019  1
  Nb  Nb106  1  0.49839837  0.69994888  0.50214186  1
  Nb  Nb107  1  0.90399030  0.10288741  0.90306799  1
  Nb  Nb108  1  0.49856089  0.89821750  0.70021947  1
  Nb  Nb109  1  0.09552507  0.30531571  0.09984772  1
  Nb  Nb110  1  0.49711042  0.29988605  0.90190248  1
  Nb  Nb111  1  0.90059736  0.90072551  0.10016334  1
  Nb  Nb112  1  0.90499889  0.50834079  0.29457832  1
  Nb  Nb113  1  0.49660394  0.69959969  0.90246187  1
  Nb  Nb114  1  0.90585981  0.31307523  0.69716144  1
  Nb  Nb115  1  0.89853255  0.70390786  0.49977558  1
  Nb  Nb116  1  0.30018280  0.09800769  0.50106717  1
  Nb  Nb117  1  0.10215501  0.29186947  0.49564189  1
  Nb  Nb118  1  0.90440583  0.89114873  0.49076275  1
  Nb  Nb119  1  0.70406895  0.70319975  0.69784987  1
  Nb  Nb120  1  0.89894183  0.50523716  0.10710463  1
  Nb  Nb121  1  0.31222843  0.69645426  0.90447488  1
  Nb  Nb122  1  0.90056784  0.89966913  0.30000264  1
  Nb  Nb123  1  0.30272619  0.70185392  0.09871513  1
  Nb  Nb124  1  0.69222261  0.89968179  0.29463972  1
  Nb  Nb125  1  0.40501625  0.79466179  0.80083823  1
  Nb  Nb126  1  0.59728298  0.39697989  0.39894663  1
  Nb  Nb127  1  0.60357180  0.00514823  -0.00606346  1
  Nb  Nb128  1  0.40156049  0.39944386  -0.00544681  1
  Nb  Nb129  1  0.40192735  0.60964289  0.59973242  1
  Nb  Nb130  1  0.20315255  0.00062501  0.20574982  1
  Nb  Nb131  1  0.79802198  -0.01154045  0.39529858  1
  Nb  Nb132  1  0.59225737  0.39264350  0.80554813  1
  Nb  Nb133  1  0.00349257  0.39732934  0.39614582  1
  Nb  Nb134  1  -0.00338903  0.20337741  0.00023527  1
  Nb  Nb135  1  0.00004287  0.40340310  0.00504782  1
  Nb  Nb136  1  0.60413854  -0.00447081  0.39318941  1
  Nb  Nb137  1  0.19558894  0.38984086  0.40065369  1
  Nb  Nb138  1  0.40192689  0.79894350  0.20113669  1
  Nb  Nb139  1  -0.00068076  0.40428372  0.20039223  1
  Nb  Nb140  1  0.19930969  0.80366079  0.39691637  1
  Nb  Nb141  1  -0.00427895  0.00628300  0.00004189  1
  Nb  Nb142  1  0.00053812  0.59264134  0.00123735  1
  Nb  Nb143  1  0.80299855  0.60570538  0.60002827  1
  Nb  Nb144  1  0.40355109  0.79804411  0.60616590  1
  Nb  Nb145  1  0.80889931  0.59865562  0.00346459  1
  Nb  Nb146  1  0.80341195  0.80655570  0.20435127  1
  Nb  Nb147  1  0.00308479  0.20329368  0.59711169  1
  Nb  Nb148  1  0.80639807  0.60328684  0.40303017  1
  Nb  Nb149  1  0.40208601  -0.00400372  0.59981212  1
  Pd  Pd150  1  -0.01110258  -0.00874906  0.80596245  1
  Pd  Pd151  1  0.20573449  0.39702317  -0.00710291  1
  Pd  Pd152  1  0.20661066  0.80558089  0.59294738  1
  Pd  Pd153  1  0.39957947  -0.00333773  0.79742297  1
  Pd  Pd154  1  0.39278221  0.20667883  0.19496874  1
  Pd  Pd155  1  0.80451812  -0.00653573  0.59387459  1
  Pd  Pd156  1  0.19605139  0.20952464  -0.00187158  1
  Pd  Pd157  1  0.60987798  0.58893049  0.39416563  1
  Pd  Pd158  1  0.19871354  -0.00408336  0.39701010  1
  Pd  Pd159  1  0.80575692  0.20355749  0.00167137  1
  Pd  Pd160  1  0.40064263  0.41100227  0.59474395  1
  Pd  Pd161  1  0.59117682  0.60249659  0.20714097  1
  Pd  Pd162  1  0.20099064  0.00297620  0.79832690  1
  Pd  Pd163  1  0.39407123  0.59243602  0.40432863  1
  Pd  Pd164  1  0.60602974  0.19691589  0.39572493  1
  Pd  Pd165  1  -0.00751211  0.20501636  0.40431990  1
  Pd  Pd166  1  0.80592317  0.79563063  0.60565033  1
  Pd  Pd167  1  0.59394376  0.40403171  -0.00586539  1
  Pd  Pd168  1  0.80822415  -0.00902140  0.80160832  1
  Pd  Pd169  1  0.39784011  0.40024155  0.41238614  1
  Pd  Pd170  1  0.60020885  0.20171803  0.79863634  1
  Pd  Pd171  1  0.59797603  0.39393528  0.60365178  1
  Pd  Pd172  1  0.00780622  -0.00478772  0.19023912  1
  Pd  Pd173  1  0.19761635  0.40950138  0.80555605  1
  Pd  Pd174  1  -0.01591116  0.21080272  0.19096613  1
  Pd  Pd175  1  0.21224582  0.19185079  0.20879054  1
  Pd  Pd176  1  0.59189719  -0.00512874  0.59004048  1
  Pd  Pd177  1  0.59781781  0.79710196  0.19515363  1
  Pd  Pd178  1  0.80095225  0.41140124  0.39230308  1
  Pd  Pd179  1  0.20370730  0.60067808  0.19995220  1
  Pd  Pd180  1  -0.00383567  0.59367392  0.41137214  1
  Pd  Pd181  1  0.40908217  -0.00726809  0.00359807  1
  Pd  Pd182  1  0.59825160  0.00680568  0.80741383  1
  Pd  Pd183  1  0.60819779  0.59520316  0.80324625  1
  Pd  Pd184  1  0.79362620  0.80047915  0.39665756  1
  Pd  Pd185  1  0.80544501  0.20594169  0.79327164  1
  Pd  Pd186  1  0.40099729  0.40858096  0.80782207  1
  Pd  Pd187  1  0.19425328  0.19169333  0.60825330  1
  Pd  Pd188  1  0.79837367  0.60245384  0.79797483  1
  Pd  Pd189  1  0.80383016  0.39669849  0.20779165  1
  Pd  Pd190  1  0.01050298  0.39737933  0.59183160  1
  Pd  Pd191  1  0.79181415  0.18493374  0.39814588  1
  Pd  Pd192  1  0.40143326  0.80989097  0.00136149  1
  Pd  Pd193  1  0.18668108  0.00150497  0.00817711  1
  Pd  Pd194  1  0.20723603  0.00347289  0.60277190  1
  Pd  Pd195  1  0.20183013  0.79341267  -0.00890877  1
  Pd  Pd196  1  0.39572195  -0.00938198  0.18693497  1
  Pd  Pd197  1  0.59601463  0.20182325  0.60506045  1
  Pd  Pd198  1  0.59917539  0.20231304  0.19696798  1
  Pd  Pd199  1  0.79722009  0.79270224  0.00775313  1
  Rh  Rh200  1  0.59949642  0.19385993  -0.00265624  1
  Rh  Rh201  1  -0.00484794  -0.00077594  0.40379859  1
  Rh  Rh202  1  0.39274585  0.59343364  0.00720450  1
  Rh  Rh203  1  0.40040387  0.18798706  0.60254472  1
  Rh  Rh204  1  0.80181320  0.61211816  0.20240690  1
  Rh  Rh205  1  0.00299285  0.79960845  -0.00181162  1
  Rh  Rh206  1  0.39520349  0.20382762  0.40301033  1
  Rh  Rh207  1  0.81041316  0.19963712  0.60701524  1
  Rh  Rh208  1  0.40971090  -0.00648892  0.40914663  1
  Rh  Rh209  1  0.40068315  0.60687319  0.78982240  1
  Rh  Rh210  1  0.19473796  0.40059159  0.59351066  1
  Rh  Rh211  1  0.59756365  0.00429946  0.19569107  1
  Rh  Rh212  1  0.78878228  0.39497285  0.79110456  1
  Rh  Rh213  1  0.00518734  0.40752297  0.80195656  1
  Rh  Rh214  1  0.60436585  0.80598862  -0.00280659  1
  Rh  Rh215  1  0.60335552  0.60024620  0.60362564  1
  Rh  Rh216  1  0.79630389  -0.00978983  0.20364128  1
  Rh  Rh217  1  0.19745714  0.40224562  0.21022909  1
  Rh  Rh218  1  0.19457696  0.60033933  0.80555830  1
  Rh  Rh219  1  0.39048479  0.21384483  0.00427348  1
  Rh  Rh220  1  0.00201477  0.59529970  0.80294238  1
  Rh  Rh221  1  0.00942466  0.80042268  0.40231644  1
  Rh  Rh222  1  0.79596675  0.40738850  0.60695480  1
  Rh  Rh223  1  0.59809753  0.79520719  0.80103342  1
  Rh  Rh224  1  -0.00946384  0.60287830  0.60232105  1
  Rh  Rh225  1  0.39924783  0.39439348  0.18757724  1
  Rh  Rh226  1  0.60457694  0.80672666  0.40184288  1
  Rh  Rh227  1  0.21197773  0.80528887  0.20822554  1
  Rh  Rh228  1  0.80861345  0.41007370  -0.00248925  1
  Rh  Rh229  1  0.59614407  0.39358995  0.20889974  1
  Rh  Rh230  1  0.20760271  0.79945334  0.80939180  1
  Rh  Rh231  1  0.21045462  0.20066160  0.39579907  1
  Rh  Rh232  1  0.01593115  0.59100085  0.18860173  1
  Rh  Rh233  1  -0.00762897  0.20621812  0.79430041  1
  Rh  Rh234  1  -0.00442787  0.79851851  0.59954163  1
  Rh  Rh235  1  0.39616494  0.19721097  0.80045352  1
  Rh  Rh236  1  0.39336563  0.80202137  0.39886889  1
  Rh  Rh237  1  0.40551468  0.61123679  0.19606973  1
  Rh  Rh238  1  0.20312734  0.60174179  0.39824487  1
  Rh  Rh239  1  0.80093158  -0.00064020  -0.00466582  1
  Rh  Rh240  1  -0.00534119  0.00375208  0.59698720  1
  Rh  Rh241  1  0.80071671  0.79928384  0.79250431  1
  Rh  Rh242  1  0.59333530  0.79970477  0.60399455  1
  Rh  Rh243  1  0.20177598  0.60795829  0.00076005  1
  Rh  Rh244  1  -0.00403294  0.80655272  0.19806277  1
  Rh  Rh245  1  -0.00124202  0.80329668  0.79989131  1
  Rh  Rh246  1  0.61412549  0.59715664  -0.00744383  1
  Rh  Rh247  1  0.79749556  0.20321102  0.19422524  1
  Rh  Rh248  1  0.20012819  0.19659729  0.79419179  1
  Rh  Rh249  1  0.20234855  0.60066730  0.60305389  1
