# generated using pymatgen
data_ZrScNbPdRh
_symmetry_space_group_name_H-M   'P 1'
_cell_length_a   16.55739639
_cell_length_b   16.55598740
_cell_length_c   16.55803329
_cell_angle_alpha   89.98786031
_cell_angle_beta   90.02292494
_cell_angle_gamma   89.99621344
_symmetry_Int_Tables_number   1
_chemical_formula_structural   ZrScNbPdRh
_chemical_formula_sum   'Zr50 Sc50 Nb50 Pd50 Rh50'
_cell_volume   4538.95460425
_cell_formula_units_Z   50
loop_
 _symmetry_equiv_pos_site_id
 _symmetry_equiv_pos_as_xyz
  1  'x, y, z'
loop_
 _atom_site_type_symbol
 _atom_site_label
 _atom_site_symmetry_multiplicity
 _atom_site_fract_x
 _atom_site_fract_y
 _atom_site_fract_z
 _atom_site_occupancy
  Zr  Zr0  1  0.50072378  0.30319901  0.29794154  1
  Zr  Zr1  1  0.69792329  0.70009441  0.09524818  1
  Zr  Zr2  1  0.49251800  0.90002257  0.70259240  1
  Zr  Zr3  1  0.50153872  0.49630220  0.50700990  1
  Zr  Zr4  1  0.29765226  0.49466722  0.90074937  1
  Zr  Zr5  1  0.50226787  0.09993646  0.50320203  1
  Zr  Zr6  1  0.08948033  0.70305193  0.89736810  1
  Zr  Zr7  1  0.49627939  0.09445811  0.30469264  1
  Zr  Zr8  1  0.49690003  0.68963490  0.70165869  1
  Zr  Zr9  1  0.29762520  0.90181770  0.69407831  1
  Zr  Zr10  1  0.90438933  0.30400942  0.89627994  1
  Zr  Zr11  1  0.91137948  0.29766505  0.28955086  1
  Zr  Zr12  1  0.29872356  0.10055403  0.90007575  1
  Zr  Zr13  1  0.10505734  0.29102896  0.30830308  1
  Zr  Zr14  1  0.10627908  0.10747591  0.90142689  1
  Zr  Zr15  1  0.10213096  0.70096972  0.29019015  1
  Zr  Zr16  1  0.49620123  0.10686003  0.10159329  1
  Zr  Zr17  1  0.30156492  0.49606107  0.09757291  1
  Zr  Zr18  1  0.10172773  0.70176037  0.50011380  1
  Zr  Zr19  1  0.48911620  0.09803670  0.69973877  1
  Zr  Zr20  1  0.89930534  0.69868784  0.89954291  1
  Zr  Zr21  1  0.09939035  0.71028803  0.09824045  1
  Zr  Zr22  1  0.89824931  0.49724336  0.49422694  1
  Zr  Zr23  1  0.31168074  0.91147108  0.29399862  1
  Zr  Zr24  1  0.50328722  0.49354435  0.09703481  1
  Zr  Zr25  1  0.89909400  0.10083097  0.49822623  1
  Zr  Zr26  1  0.90322627  0.90184269  0.50155160  1
  Zr  Zr27  1  0.09864152  0.49154409  0.49698987  1
  Zr  Zr28  1  0.30518020  0.30233560  0.69875372  1
  Zr  Zr29  1  0.50060118  0.69469167  0.89715215  1
  Zr  Zr30  1  0.30128785  0.69698148  0.29730591  1
  Zr  Zr31  1  0.70713860  0.30183223  0.50588539  1
  Zr  Zr32  1  0.29514799  0.29912608  0.90567670  1
  Zr  Zr33  1  0.10853709  0.89421458  0.90183683  1
  Zr  Zr34  1  0.09577444  0.50076945  0.89433452  1
  Zr  Zr35  1  0.08982521  0.49139775  0.29994833  1
  Zr  Zr36  1  0.30112252  0.89745513  0.89638588  1
  Zr  Zr37  1  0.70250010  0.10197696  0.49858578  1
  Zr  Zr38  1  0.70031204  0.90340289  0.49741463  1
  Zr  Zr39  1  0.08676823  0.30056438  0.70387200  1
  Zr  Zr40  1  0.90220627  0.89425050  0.88988357  1
  Zr  Zr41  1  0.10381797  0.51137825  0.09806260  1
  Zr  Zr42  1  0.70538507  0.09956447  0.30247472  1
  Zr  Zr43  1  0.29603667  0.69452564  0.10068381  1
  Zr  Zr44  1  0.69220329  0.49974564  0.90124479  1
  Zr  Zr45  1  0.49356738  0.49778753  0.70261986  1
  Zr  Zr46  1  0.29489410  0.10522672  0.09761260  1
  Zr  Zr47  1  0.49946021  0.10532035  0.89377606  1
  Zr  Zr48  1  0.90646096  0.09703142  0.30256560  1
  Zr  Zr49  1  0.50034399  0.30295586  0.70096944  1
  Sc  Sc50  1  0.09569859  0.30002307  0.90101194  1
  Sc  Sc51  1  0.89684092  0.10066945  0.90462151  1
  Sc  Sc52  1  0.69899147  0.30141801  0.88344622  1
  Sc  Sc53  1  0.10052192  0.50047138  0.70646002  1
  Sc  Sc54  1  0.69267033  0.50618744  0.10596233  1
  Sc  Sc55  1  0.70431947  0.90410180  0.71320797  1
  Sc  Sc56  1  0.50141707  0.49582107  0.29590819  1
  Sc  Sc57  1  0.90591134  0.10840590  0.69782736  1
  Sc  Sc58  1  0.69649501  0.10236898  0.71484458  1
  Sc  Sc59  1  0.29662794  0.90433412  0.09318339  1
  Sc  Sc60  1  0.90533884  0.70303452  0.70895655  1
  Sc  Sc61  1  0.09752476  0.89881929  0.51054228  1
  Sc  Sc62  1  0.09413524  0.90093030  0.28025180  1
  Sc  Sc63  1  0.30772207  0.10000732  0.49894633  1
  Sc  Sc64  1  0.29669882  0.50029418  0.70787209  1
  Sc  Sc65  1  0.30328498  0.49729731  0.29854007  1
  Sc  Sc66  1  0.90718055  0.50336159  0.09980671  1
  Sc  Sc67  1  0.30048243  0.29672791  0.49366603  1
  Sc  Sc68  1  0.30324857  0.70389664  0.89781257  1
  Sc  Sc69  1  0.10697248  0.69737835  0.70043204  1
  Sc  Sc70  1  0.08815048  0.29540002  0.09925288  1
  Sc  Sc71  1  0.50032303  0.30837596  0.10675331  1
  Sc  Sc72  1  0.71368776  0.90266554  0.90283851  1
  Sc  Sc73  1  0.90011332  0.90803791  0.10696125  1
  Sc  Sc74  1  0.49076655  0.89680768  0.90084302  1
  Sc  Sc75  1  0.70098846  0.69311191  0.29205566  1
  Sc  Sc76  1  0.69525743  0.30126367  0.30288404  1
  Sc  Sc77  1  0.29780155  0.10545038  0.29229797  1
  Sc  Sc78  1  0.30341842  0.49790907  0.49752460  1
  Sc  Sc79  1  0.70611066  0.90295258  0.09815802  1
  Sc  Sc80  1  0.50214059  0.69980430  0.09647844  1
  Sc  Sc81  1  0.30121723  0.69874253  0.51017660  1
  Sc  Sc82  1  0.89508319  0.30011021  0.70213977  1
  Sc  Sc83  1  0.90189911  0.49372335  0.70224365  1
  Sc  Sc84  1  0.49718101  0.91516938  0.50342737  1
  Sc  Sc85  1  0.90297655  0.69719510  0.29992358  1
  Sc  Sc86  1  0.70303520  0.90136658  0.30371910  1
  Sc  Sc87  1  0.49488077  0.89311346  0.10072652  1
  Sc  Sc88  1  0.49516051  0.30435455  0.50317608  1
  Sc  Sc89  1  0.89991112  0.90139169  0.30110753  1
  Sc  Sc90  1  0.29418167  0.29601529  0.30398797  1
  Sc  Sc91  1  0.89366243  0.09850609  0.10931053  1
  Sc  Sc92  1  0.69537066  0.49955834  0.69052926  1
  Sc  Sc93  1  0.50135469  0.69921277  0.28756372  1
  Sc  Sc94  1  0.10523785  0.90025137  0.69531976  1
  Sc  Sc95  1  0.09045029  0.09862175  0.49733874  1
  Sc  Sc96  1  0.90244508  0.69369734  0.09564554  1
  Sc  Sc97  1  0.48935122  0.69288278  0.51321705  1
  Sc  Sc98  1  0.70717354  0.49781868  0.50075563  1
  Sc  Sc99  1  0.89939312  0.70388073  0.49460547  1
  Nb  Nb100  1  0.69609292  0.69852969  0.50878849  1
  Nb  Nb101  1  0.10405418  0.29938820  0.49875739  1
  Nb  Nb102  1  0.70838592  0.50363890  0.30035538  1
  Nb  Nb103  1  0.89461483  0.30221496  0.09779985  1
  Nb  Nb104  1  0.69637767  0.30440807  0.10045421  1
  Nb  Nb105  1  0.89522325  0.50019669  0.89608848  1
  Nb  Nb106  1  0.89072502  0.49889825  0.29717279  1
  Nb  Nb107  1  0.10520843  0.09612841  0.70511607  1
  Nb  Nb108  1  0.69744837  0.10099694  0.90783473  1
  Nb  Nb109  1  0.69630552  0.69439353  0.69929617  1
  Nb  Nb110  1  0.10070309  0.90402720  0.09607870  1
  Nb  Nb111  1  0.70073836  0.09934228  0.09994981  1
  Nb  Nb112  1  0.31176243  0.70400381  0.69474840  1
  Nb  Nb113  1  0.29415478  0.10096249  0.70114026  1
  Nb  Nb114  1  0.50574203  0.30822383  0.89827991  1
  Nb  Nb115  1  0.70184096  0.29592934  0.69606052  1
  Nb  Nb116  1  0.10740832  0.08924375  0.10339129  1
  Nb  Nb117  1  0.49825864  0.49430332  0.89590393  1
  Nb  Nb118  1  0.10543341  0.10100627  0.29773716  1
  Nb  Nb119  1  0.70258816  0.70178559  0.89830508  1
  Nb  Nb120  1  0.50235221  0.90198349  0.30131437  1
  Nb  Nb121  1  0.29444430  0.30116274  0.10439613  1
  Nb  Nb122  1  0.90170120  0.90165596  0.70038816  1
  Nb  Nb123  1  0.90834389  0.29471928  0.50894871  1
  Nb  Nb124  1  0.29813169  0.89689289  0.49694264  1
  Nb  Nb125  1  0.59457484  0.79521243  0.40642702  1
  Nb  Nb126  1  0.80150972  0.40115872  0.19804894  1
  Nb  Nb127  1  0.79411433  0.60151732  0.80305649  1
  Nb  Nb128  1  0.60219315  0.20206003  0.60527419  1
  Nb  Nb129  1  0.20011816  -0.00474581  0.39680326  1
  Nb  Nb130  1  0.60201416  0.00827984  0.00246177  1
  Nb  Nb131  1  0.60461651  0.20350794  -0.00128349  1
  Nb  Nb132  1  0.00643971  0.00099331  0.80116545  1
  Nb  Nb133  1  0.79994131  0.79564652  0.19818811  1
  Nb  Nb134  1  0.60489453  0.79200179  0.79911437  1
  Nb  Nb135  1  0.19406911  0.39122169  0.59824752  1
  Nb  Nb136  1  0.19574026  0.39757921  0.19682477  1
  Nb  Nb137  1  0.59880730  0.00304638  0.19754246  1
  Nb  Nb138  1  0.79522133  0.80128056  0.60458730  1
  Nb  Nb139  1  0.00080066  0.59668277  0.59532370  1
  Nb  Nb140  1  0.60283317  0.79986038  0.60321180  1
  Nb  Nb141  1  0.40312649  0.80408415  0.39956650  1
  Nb  Nb142  1  0.80367448  -0.00261716  0.60308001  1
  Nb  Nb143  1  0.00700904  -0.00036953  -0.00063580  1
  Nb  Nb144  1  0.79772123  0.39685058  0.00311131  1
  Nb  Nb145  1  0.20597874  0.80414118  0.39717272  1
  Nb  Nb146  1  0.60225379  0.60328941  0.40377636  1
  Nb  Nb147  1  0.19611953  0.19870476  0.60354258  1
  Nb  Nb148  1  0.79243528  0.20659378  0.00463743  1
  Nb  Nb149  1  0.19634381  0.60426489  0.39755263  1
  Pd  Pd150  1  0.20082079  0.00897942  0.58853010  1
  Pd  Pd151  1  0.01183460  -0.00908953  0.39514669  1
  Pd  Pd152  1  0.60104373  0.81176168  -0.00917252  1
  Pd  Pd153  1  0.20815085  0.81045019  0.19928169  1
  Pd  Pd154  1  0.00638112  0.19640017  0.59994713  1
  Pd  Pd155  1  0.60235567  0.19778594  0.19874526  1
  Pd  Pd156  1  0.80723618  0.38806699  0.39374346  1
  Pd  Pd157  1  0.20122593  0.79408897  0.79266638  1
  Pd  Pd158  1  0.39731540  0.80070534  0.19762306  1
  Pd  Pd159  1  0.80645047  0.39988440  0.60513064  1
  Pd  Pd160  1  0.19849760  0.20813528  0.79516569  1
  Pd  Pd161  1  0.40741938  0.21296327  0.00030083  1
  Pd  Pd162  1  0.80348598  0.19693104  0.80440990  1
  Pd  Pd163  1  0.40446058  -0.00079513  0.00154024  1
  Pd  Pd164  1  0.79462423  0.60884137  0.40175561  1
  Pd  Pd165  1  0.40301383  0.39286808  -0.00090615  1
  Pd  Pd166  1  -0.00956091  0.80894980  0.00709082  1
  Pd  Pd167  1  0.80743186  0.80403050  0.00829432  1
  Pd  Pd168  1  0.39622319  0.20646419  0.20379482  1
  Pd  Pd169  1  0.61055814  0.00255811  0.61116884  1
  Pd  Pd170  1  0.79265813  0.79196299  0.39638906  1
  Pd  Pd171  1  -0.00408755  0.79148177  0.60609124  1
  Pd  Pd172  1  0.79889153  0.59062937  -0.00062562  1
  Pd  Pd173  1  -0.00263054  0.40734635  0.00126172  1
  Pd  Pd174  1  0.19949747  0.59009422  0.59604826  1
  Pd  Pd175  1  0.81235993  0.60652532  0.60816267  1
  Pd  Pd176  1  0.40404450  0.60675114  0.39966238  1
  Pd  Pd177  1  0.59540862  0.59882637  -0.00066220  1
  Pd  Pd178  1  -0.00827232  0.18845936  0.00735110  1
  Pd  Pd179  1  0.39649118  0.39845909  0.39737213  1
  Pd  Pd180  1  0.40052358  0.20085220  0.39828546  1
  Pd  Pd181  1  0.01026902  0.80806871  0.39307300  1
  Pd  Pd182  1  -0.00387828  0.60164922  0.20087523  1
  Pd  Pd183  1  0.60865487  0.80826727  0.20491559  1
  Pd  Pd184  1  0.39846682  0.20637306  0.80270743  1
  Pd  Pd185  1  0.79596254  0.20689386  0.19983495  1
  Pd  Pd186  1  0.19750385  0.60870791  -0.01147246  1
  Pd  Pd187  1  0.81034968  0.01177153  0.79676786  1
  Pd  Pd188  1  -0.00929078  0.38986723  0.40171922  1
  Pd  Pd189  1  0.40660855  0.59416518  0.19623181  1
  Pd  Pd190  1  0.80861313  0.21026162  0.39671216  1
  Pd  Pd191  1  0.59872422  -0.01093584  0.81243952  1
  Pd  Pd192  1  0.59595120  0.20493262  0.40832204  1
  Pd  Pd193  1  0.60581960  0.40333802  0.79029566  1
  Pd  Pd194  1  0.40238168  0.59864736  -0.00365992  1
  Pd  Pd195  1  0.20632947  0.60877456  0.80278199  1
  Pd  Pd196  1  0.00602555  0.19075190  0.19275794  1
  Pd  Pd197  1  0.18847031  0.39362867  0.00580949  1
  Pd  Pd198  1  0.60332152  0.40836966  0.40066029  1
  Pd  Pd199  1  0.00202917  0.60092488  0.40099464  1
  Rh  Rh200  1  0.59666933  0.59484276  0.20517937  1
  Rh  Rh201  1  0.80542260  0.00616344  0.00020819  1
  Rh  Rh202  1  -0.01089753  0.79848379  0.19371439  1
  Rh  Rh203  1  0.60296961  0.39328271  0.60075529  1
  Rh  Rh204  1  0.38963215  0.39516302  0.20224598  1
  Rh  Rh205  1  0.20516797  0.79629057  0.59957091  1
  Rh  Rh206  1  0.79404812  0.40835229  0.80021326  1
  Rh  Rh207  1  -0.00015654  0.20127465  0.40117758  1
  Rh  Rh208  1  0.39117427  0.00078154  0.59995779  1
  Rh  Rh209  1  0.60127514  -0.00289104  0.39123605  1
  Rh  Rh210  1  0.38990996  0.00101736  0.79994255  1
  Rh  Rh211  1  -0.00200149  0.40316249  0.80126828  1
  Rh  Rh212  1  0.79364280  -0.00668696  0.20651499  1
  Rh  Rh213  1  0.39975115  0.19867501  0.60066887  1
  Rh  Rh214  1  0.01039807  0.80832263  0.79149523  1
  Rh  Rh215  1  0.00200898  0.59742608  -0.00653437  1
  Rh  Rh216  1  0.40648316  0.00144377  0.19019760  1
  Rh  Rh217  1  0.39559479  -0.00112236  0.40410698  1
  Rh  Rh218  1  0.60926523  0.40611574  0.20773527  1
  Rh  Rh219  1  0.79376724  0.79051261  0.79147660  1
  Rh  Rh220  1  -0.00229816  0.19397652  0.80280969  1
  Rh  Rh221  1  0.60267117  0.39516188  -0.00335566  1
  Rh  Rh222  1  0.79402513  0.19311737  0.60365769  1
  Rh  Rh223  1  0.59667883  0.20288448  0.79807430  1
  Rh  Rh224  1  0.39312368  0.59611665  0.80418124  1
  Rh  Rh225  1  0.20256463  -0.00067887  0.20400730  1
  Rh  Rh226  1  0.40624398  0.80854491  0.59474513  1
  Rh  Rh227  1  0.40389657  0.79597246  0.79735696  1
  Rh  Rh228  1  0.19896121  0.58647570  0.20987712  1
  Rh  Rh229  1  0.19939777  -0.00025578  -0.00461533  1
  Rh  Rh230  1  0.38942805  0.40271164  0.59920808  1
  Rh  Rh231  1  0.20382473  0.40646365  0.39712704  1
  Rh  Rh232  1  0.00068958  0.40315919  0.59915215  1
  Rh  Rh233  1  0.39011511  0.58787265  0.60595383  1
  Rh  Rh234  1  0.19812696  0.39278162  0.79585654  1
  Rh  Rh235  1  0.39536864  0.79321806  0.00433728  1
  Rh  Rh236  1  0.39739921  0.39815069  0.80760339  1
  Rh  Rh237  1  -0.00811495  0.59580646  0.79459806  1
  Rh  Rh238  1  -0.00128181  0.40426422  0.19404151  1
  Rh  Rh239  1  0.80338001  0.59984902  0.19511936  1
  Rh  Rh240  1  0.59657597  0.59701450  0.59340592  1
  Rh  Rh241  1  0.80561092  0.00103262  0.40275397  1
  Rh  Rh242  1  0.60350419  0.59914058  0.80292981  1
  Rh  Rh243  1  0.19708542  0.18324164  0.41064954  1
  Rh  Rh244  1  -0.00500130  0.00374666  0.61048105  1
  Rh  Rh245  1  0.19374984  0.20644128  0.19257283  1
  Rh  Rh246  1  0.20528686  0.79598150  0.00319209  1
  Rh  Rh247  1  0.19967491  -0.00183640  0.80352339  1
  Rh  Rh248  1  0.00085582  0.00559194  0.19494587  1
  Rh  Rh249  1  0.19584540  0.20480395  0.00676908  1
