# generated using pymatgen
data_ZrScNbPdRh
_symmetry_space_group_name_H-M   'P 1'
_cell_length_a   16.56142316
_cell_length_b   16.55866390
_cell_length_c   16.55983050
_cell_angle_alpha   89.97386847
_cell_angle_beta   90.01635807
_cell_angle_gamma   90.01138062
_symmetry_Int_Tables_number   1
_chemical_formula_structural   ZrScNbPdRh
_chemical_formula_sum   'Zr50 Sc50 Nb50 Pd50 Rh50'
_cell_volume   4541.28502790
_cell_formula_units_Z   50
loop_
 _symmetry_equiv_pos_site_id
 _symmetry_equiv_pos_as_xyz
  1  'x, y, z'
loop_
 _atom_site_type_symbol
 _atom_site_label
 _atom_site_symmetry_multiplicity
 _atom_site_fract_x
 _atom_site_fract_y
 _atom_site_fract_z
 _atom_site_occupancy
  Zr  Zr0  1  0.70107168  0.08795330  0.10439376  1
  Zr  Zr1  1  0.29857821  0.10467406  0.29182107  1
  Zr  Zr2  1  0.70114293  0.70754507  0.10156082  1
  Zr  Zr3  1  0.30197003  0.10344831  0.70559905  1
  Zr  Zr4  1  0.50236637  0.90042765  0.90210589  1
  Zr  Zr5  1  0.49495726  0.49858690  0.10007592  1
  Zr  Zr6  1  0.70723573  0.30151378  0.29844328  1
  Zr  Zr7  1  0.70497341  0.89412566  0.49935423  1
  Zr  Zr8  1  0.70334930  0.70747060  0.90519213  1
  Zr  Zr9  1  0.50362414  0.10918755  0.70062322  1
  Zr  Zr10  1  0.49718453  0.09842601  0.90020530  1
  Zr  Zr11  1  0.09899557  0.30467117  0.89732557  1
  Zr  Zr12  1  0.90660398  0.90497477  0.50650562  1
  Zr  Zr13  1  0.09738640  0.29179341  0.29841063  1
  Zr  Zr14  1  0.09085754  0.09261509  0.10031356  1
  Zr  Zr15  1  0.49760790  0.29650904  0.51113201  1
  Zr  Zr16  1  0.09068007  0.09321921  0.50497481  1
  Zr  Zr17  1  0.69443048  0.90044012  0.29469119  1
  Zr  Zr18  1  0.29664849  0.88550190  0.30526489  1
  Zr  Zr19  1  0.89545006  0.50338545  0.29705517  1
  Zr  Zr20  1  0.90580487  0.69705236  0.29944662  1
  Zr  Zr21  1  0.30959482  0.90405947  0.90347878  1
  Zr  Zr22  1  0.30947399  0.29960176  0.69644780  1
  Zr  Zr23  1  0.30756892  0.50593264  0.10182770  1
  Zr  Zr24  1  0.31194017  0.70123649  0.70333400  1
  Zr  Zr25  1  0.49551254  0.50079324  0.29914842  1
  Zr  Zr26  1  0.71360972  0.50203007  0.09986962  1
  Zr  Zr27  1  0.89832516  0.29564539  0.30215913  1
  Zr  Zr28  1  0.49571762  0.50114128  0.49429023  1
  Zr  Zr29  1  0.69810719  0.90517929  0.70574905  1
  Zr  Zr30  1  0.10372394  0.10698846  0.89447519  1
  Zr  Zr31  1  0.89421131  0.68963094  0.10327689  1
  Zr  Zr32  1  0.29618431  0.49506471  0.69365537  1
  Zr  Zr33  1  0.70268881  0.29994900  0.10046095  1
  Zr  Zr34  1  0.09135939  0.69632141  0.69948795  1
  Zr  Zr35  1  0.09920257  0.49570407  0.89539895  1
  Zr  Zr36  1  0.29929807  0.30037474  0.30016250  1
  Zr  Zr37  1  0.50999905  0.09184758  0.29758133  1
  Zr  Zr38  1  0.10068190  0.90164541  0.49450165  1
  Zr  Zr39  1  0.30442256  0.50538465  0.30808391  1
  Zr  Zr40  1  0.90128551  0.70160283  0.89360584  1
  Zr  Zr41  1  0.69536801  0.49546186  0.70274314  1
  Zr  Zr42  1  0.10780421  0.50048142  0.50880078  1
  Zr  Zr43  1  0.09444565  0.50322224  0.69940020  1
  Zr  Zr44  1  0.49296481  0.50197180  0.90141718  1
  Zr  Zr45  1  0.68936694  0.49945752  0.49937557  1
  Zr  Zr46  1  0.50022712  0.49816378  0.70360221  1
  Zr  Zr47  1  0.30044029  0.30985541  0.50345297  1
  Zr  Zr48  1  0.89834795  0.08771357  0.09980606  1
  Zr  Zr49  1  0.11041325  0.69912232  0.09507770  1
  Sc  Sc50  1  0.30331375  0.29941098  0.09768392  1
  Sc  Sc51  1  0.70720055  0.50407223  0.89581873  1
  Sc  Sc52  1  0.50293644  0.69780523  0.50460725  1
  Sc  Sc53  1  0.49463540  0.70758509  0.09614089  1
  Sc  Sc54  1  0.49304830  0.30030789  0.89265826  1
  Sc  Sc55  1  0.30544881  0.49508455  0.90084717  1
  Sc  Sc56  1  0.70401989  0.08932957  0.30350334  1
  Sc  Sc57  1  0.48747203  0.30108479  0.10153436  1
  Sc  Sc58  1  0.09361347  0.69878232  0.50156535  1
  Sc  Sc59  1  0.31053022  0.70013822  0.49686078  1
  Sc  Sc60  1  0.30588008  0.10323860  0.89751569  1
  Sc  Sc61  1  0.50487959  0.89376974  0.30037865  1
  Sc  Sc62  1  0.69837681  0.29675444  0.49648023  1
  Sc  Sc63  1  0.09667453  0.50315753  0.08599877  1
  Sc  Sc64  1  0.50558285  0.90000389  0.09591481  1
  Sc  Sc65  1  0.89736520  0.70813128  0.49819033  1
  Sc  Sc66  1  0.29784769  0.89730963  0.49783463  1
  Sc  Sc67  1  0.90616234  0.70084001  0.69883151  1
  Sc  Sc68  1  0.09781526  0.30236897  0.09127913  1
  Sc  Sc69  1  0.70063299  0.09030497  0.89521154  1
  Sc  Sc70  1  0.89298247  0.09743927  0.49556931  1
  Sc  Sc71  1  0.51003095  0.89394405  0.49899219  1
  Sc  Sc72  1  0.09065349  0.90753073  0.69189930  1
  Sc  Sc73  1  0.90276328  0.49668267  0.90171050  1
  Sc  Sc74  1  0.89836228  0.90172409  0.31089272  1
  Sc  Sc75  1  0.69657737  0.70356119  0.70926723  1
  Sc  Sc76  1  0.30901948  0.11036774  0.09345399  1
  Sc  Sc77  1  0.10371841  0.51798907  0.30664635  1
  Sc  Sc78  1  0.31034310  0.90318802  0.70677037  1
  Sc  Sc79  1  0.10826810  0.10503283  0.69900765  1
  Sc  Sc80  1  0.70837106  0.29805199  0.89307350  1
  Sc  Sc81  1  0.89367927  0.50666870  0.49097072  1
  Sc  Sc82  1  0.10499176  0.30355527  0.70937689  1
  Sc  Sc83  1  0.89140911  0.30193339  0.09894362  1
  Sc  Sc84  1  0.89078898  0.90257221  0.89733027  1
  Sc  Sc85  1  0.28716985  0.10728711  0.51055361  1
  Sc  Sc86  1  0.09261338  0.10031998  0.30373092  1
  Sc  Sc87  1  0.69916899  0.49380279  0.30446187  1
  Sc  Sc88  1  0.49102478  0.70298311  0.30614567  1
  Sc  Sc89  1  0.09549353  0.90350516  0.90230883  1
  Sc  Sc90  1  0.10831132  0.29384162  0.49888797  1
  Sc  Sc91  1  0.69517902  0.10061222  0.70002095  1
  Sc  Sc92  1  0.89560655  0.89883104  0.69862323  1
  Sc  Sc93  1  0.49770887  0.30343171  0.29585109  1
  Sc  Sc94  1  0.88868863  0.10095761  0.69881327  1
  Sc  Sc95  1  0.88732591  0.28920199  0.49339344  1
  Sc  Sc96  1  0.70793348  0.70950953  0.29736065  1
  Sc  Sc97  1  0.89055556  0.29296104  0.70934779  1
  Sc  Sc98  1  0.69801261  0.09780439  0.49726473  1
  Sc  Sc99  1  0.50527534  0.90008251  0.70098582  1
  Nb  Nb100  1  0.30253440  0.49257574  0.49963043  1
  Nb  Nb101  1  0.29937927  0.70923571  0.09588931  1
  Nb  Nb102  1  0.70029293  0.89273770  0.09638472  1
  Nb  Nb103  1  0.70126741  0.69930714  0.50389243  1
  Nb  Nb104  1  0.30345050  0.70394262  0.90272585  1
  Nb  Nb105  1  0.49106295  0.69826320  0.89680968  1
  Nb  Nb106  1  0.90628341  0.28942656  0.89908906  1
  Nb  Nb107  1  0.11080414  0.71184914  0.29935668  1
  Nb  Nb108  1  0.29812582  0.30102434  0.89719389  1
  Nb  Nb109  1  0.69647121  0.89512219  0.89892720  1
  Nb  Nb110  1  0.89931768  0.50347424  0.69223392  1
  Nb  Nb111  1  0.10181895  0.69855506  0.89705869  1
  Nb  Nb112  1  0.90158344  0.49977959  0.10216651  1
  Nb  Nb113  1  0.91199872  0.90140177  0.09657348  1
  Nb  Nb114  1  0.50330578  0.09704798  0.49778037  1
  Nb  Nb115  1  0.29971761  0.89510234  0.09906746  1
  Nb  Nb116  1  0.69138488  0.30143625  0.69604666  1
  Nb  Nb117  1  0.29093910  0.70161280  0.29645522  1
  Nb  Nb118  1  0.50627054  0.29849005  0.70177514  1
  Nb  Nb119  1  0.49797697  0.10225667  0.09901189  1
  Nb  Nb120  1  0.49261372  0.69630348  0.71107536  1
  Nb  Nb121  1  0.90085959  0.10009055  0.89795416  1
  Nb  Nb122  1  0.10747004  0.89300097  0.30205969  1
  Nb  Nb123  1  0.90228579  0.10284145  0.30624012  1
  Nb  Nb124  1  0.09803067  0.90116271  0.10098557  1
  Nb  Nb125  1  0.20154620  -0.00273381  0.00708128  1
  Nb  Nb126  1  0.39506338  -0.00377378  0.19959068  1
  Nb  Nb127  1  0.20131984  0.60684588  0.80312293  1
  Nb  Nb128  1  0.20124571  -0.00863644  0.19624615  1
  Nb  Nb129  1  0.60088922  0.40029801  0.00081093  1
  Nb  Nb130  1  0.60140505  0.19648172  0.19334501  1
  Nb  Nb131  1  0.59899800  0.60104239  0.19549470  1
  Nb  Nb132  1  0.59848331  0.59965727  0.00143639  1
  Nb  Nb133  1  0.00172464  0.40615511  0.20273317  1
  Nb  Nb134  1  0.19894178  0.79549260  0.80131226  1
  Nb  Nb135  1  -0.00680638  0.19543824  -0.00645484  1
  Nb  Nb136  1  0.20047096  0.79678008  0.60813670  1
  Nb  Nb137  1  0.00109074  0.39866120  0.39990474  1
  Nb  Nb138  1  0.00737911  0.80218833  0.19820387  1
  Nb  Nb139  1  -0.00910817  0.39617866  0.59546777  1
  Nb  Nb140  1  0.79214229  0.59843511  0.60010702  1
  Nb  Nb141  1  -0.00353346  0.20487395  0.60212871  1
  Nb  Nb142  1  0.00077060  0.79983311  0.00479684  1
  Nb  Nb143  1  0.59928813  0.20071712  0.00382303  1
  Nb  Nb144  1  0.40038486  0.00536953  0.40072020  1
  Nb  Nb145  1  0.40255623  0.19300532  0.40482264  1
  Nb  Nb146  1  0.79854667  0.40313864  0.60376366  1
  Nb  Nb147  1  0.40676530  0.00756853  0.59300623  1
  Nb  Nb148  1  -0.00449812  0.00937841  0.80285135  1
  Nb  Nb149  1  0.19544091  0.40501596  0.20130097  1
  Pd  Pd150  1  0.59411342  0.79761465  0.80120151  1
  Pd  Pd151  1  0.21006326  0.59604000  -0.00841843  1
  Pd  Pd152  1  0.80590537  0.39936749  0.79813635  1
  Pd  Pd153  1  0.19560195  0.80786192  -0.00888401  1
  Pd  Pd154  1  0.40334883  0.80246754  0.19932084  1
  Pd  Pd155  1  0.60437082  0.60968691  0.38758357  1
  Pd  Pd156  1  0.59810088  0.79317380  0.60815993  1
  Pd  Pd157  1  0.60040490  0.40071649  0.19248239  1
  Pd  Pd158  1  -0.00425742  0.60440797  -0.00569946  1
  Pd  Pd159  1  0.19513023  0.20146597  0.18696736  1
  Pd  Pd160  1  0.79054428  0.19458232  0.79874741  1
  Pd  Pd161  1  0.21037738  -0.01042777  0.60543704  1
  Pd  Pd162  1  -0.00713495  0.20582750  0.18729275  1
  Pd  Pd163  1  0.60079429  0.60850228  0.60788946  1
  Pd  Pd164  1  0.79934911  0.79204401  0.60765532  1
  Pd  Pd165  1  0.79629247  -0.00816322  -0.00386102  1
  Pd  Pd166  1  0.81247936  0.81082311  0.20044645  1
  Pd  Pd167  1  0.20596143  0.60943275  0.41026913  1
  Pd  Pd168  1  0.40149526  0.81059746  0.59771477  1
  Pd  Pd169  1  0.19696827  0.19566819  0.00257533  1
  Pd  Pd170  1  0.40119543  0.59521745  0.59732230  1
  Pd  Pd171  1  0.00256938  -0.00816167  0.21664772  1
  Pd  Pd172  1  0.20810029  0.40418079  0.00533821  1
  Pd  Pd173  1  0.00185820  0.59971641  0.40544183  1
  Pd  Pd174  1  0.80679475  -0.01036375  0.20487049  1
  Pd  Pd175  1  0.80218148  0.39923962  -0.00824084  1
  Pd  Pd176  1  0.40212099  0.61382817  0.19998544  1
  Pd  Pd177  1  0.79836324  0.19033938  0.20388331  1
  Pd  Pd178  1  0.80911567  0.80612675  0.00201787  1
  Pd  Pd179  1  0.00239821  0.81236933  0.80365982  1
  Pd  Pd180  1  0.59347580  0.39083293  0.40048332  1
  Pd  Pd181  1  0.80558201  0.60272079  0.79335690  1
  Pd  Pd182  1  0.79495582  0.00303734  0.59873134  1
  Pd  Pd183  1  0.59950297  0.39513946  0.81143841  1
  Pd  Pd184  1  0.20446378  0.00678156  0.39366293  1
  Pd  Pd185  1  0.60269934  0.79171677  0.39884817  1
  Pd  Pd186  1  -0.01053730  0.39959012  0.79210475  1
  Pd  Pd187  1  0.79180584  0.60575180  0.40148055  1
  Pd  Pd188  1  0.60859201  0.19678392  0.59720081  1
  Pd  Pd189  1  0.60029528  0.60387311  0.80863736  1
  Pd  Pd190  1  0.19384221  -0.00902474  0.80414019  1
  Pd  Pd191  1  0.19991462  0.59648345  0.19594645  1
  Pd  Pd192  1  0.79717990  0.19339111  -0.00348783  1
  Pd  Pd193  1  0.01210636  0.60104791  0.19790013  1
  Pd  Pd194  1  0.60195065  0.00172621  0.00029374  1
  Pd  Pd195  1  0.20941792  0.60954435  0.60015302  1
  Pd  Pd196  1  0.00077485  0.80074866  0.39683294  1
  Pd  Pd197  1  0.59860559  0.20363657  0.39088530  1
  Pd  Pd198  1  0.19094152  0.40316694  0.39254067  1
  Pd  Pd199  1  0.20210507  0.19334417  0.40309457  1
  Rh  Rh200  1  -0.00127618  0.19378642  0.79632524  1
  Rh  Rh201  1  0.40069205  0.39202331  -0.00312096  1
  Rh  Rh202  1  0.00008897  0.59409887  0.80453224  1
  Rh  Rh203  1  0.39634658  0.60399205  0.40130084  1
  Rh  Rh204  1  0.80819107  0.40339571  0.20218345  1
  Rh  Rh205  1  0.38615589  0.40105591  0.20431962  1
  Rh  Rh206  1  0.79277904  0.19097338  0.39397225  1
  Rh  Rh207  1  0.00040799  0.00014646  0.39605538  1
  Rh  Rh208  1  0.39850156  0.60911164  0.00037222  1
  Rh  Rh209  1  0.20891810  0.20924113  0.79808642  1
  Rh  Rh210  1  0.40194644  0.80313255  0.40406448  1
  Rh  Rh211  1  0.19964867  0.80124956  0.19488004  1
  Rh  Rh212  1  0.40475013  0.39185922  0.40095326  1
  Rh  Rh213  1  0.19265645  0.39473002  0.60369014  1
  Rh  Rh214  1  0.40247943  0.80499012  0.80443135  1
  Rh  Rh215  1  0.41194722  0.19340962  0.20916830  1
  Rh  Rh216  1  -0.01022642  0.39064838  0.00501285  1
  Rh  Rh217  1  0.79971748  0.80147407  0.40114244  1
  Rh  Rh218  1  0.41012762  0.40567055  0.60262194  1
  Rh  Rh219  1  0.80093001  0.59922935  -0.00480234  1
  Rh  Rh220  1  0.80402217  0.39934199  0.40520720  1
  Rh  Rh221  1  0.59915140  -0.00005978  0.80152613  1
  Rh  Rh222  1  0.39476066  -0.00001474  0.01023053  1
  Rh  Rh223  1  0.60217191  -0.01018824  0.40553817  1
  Rh  Rh224  1  0.79974541  -0.00223878  0.40122396  1
  Rh  Rh225  1  0.41093842  0.00311075  0.79080850  1
  Rh  Rh226  1  -0.00873734  0.01404836  0.61129548  1
  Rh  Rh227  1  0.39190334  0.59407898  0.80186825  1
  Rh  Rh228  1  0.59893108  0.39807602  0.59909259  1
  Rh  Rh229  1  0.19919415  0.79029250  0.41558774  1
  Rh  Rh230  1  0.00405304  0.00180181  -0.01155882  1
  Rh  Rh231  1  0.59626841  -0.00366657  0.19224329  1
  Rh  Rh232  1  0.80045386  -0.00222630  0.80041290  1
  Rh  Rh233  1  0.59902485  -0.00020483  0.59800648  1
  Rh  Rh234  1  -0.01405541  0.59501409  0.58968817  1
  Rh  Rh235  1  0.79015978  0.59677909  0.20806758  1
  Rh  Rh236  1  0.39806176  0.20382586  0.80175436  1
  Rh  Rh237  1  0.59593687  0.79531873  -0.00371191  1
  Rh  Rh238  1  0.79953780  0.80243140  0.79659632  1
  Rh  Rh239  1  -0.00160161  0.20016228  0.41140378  1
  Rh  Rh240  1  0.40328917  0.79979299  -0.00133056  1
  Rh  Rh241  1  0.59730597  0.79474183  0.19847106  1
  Rh  Rh242  1  0.20727961  0.40430371  0.79942771  1
  Rh  Rh243  1  0.19392872  0.20819739  0.60656531  1
  Rh  Rh244  1  0.00481130  0.80212058  0.59754074  1
  Rh  Rh245  1  0.79657268  0.20765545  0.60305636  1
  Rh  Rh246  1  0.39928510  0.19326961  0.59623523  1
  Rh  Rh247  1  0.60279489  0.20384733  0.80662092  1
  Rh  Rh248  1  0.40552808  0.20576470  -0.00865134  1
  Rh  Rh249  1  0.39780061  0.39852207  0.79559657  1
