# generated using pymatgen
data_ZrScNbPdRh
_symmetry_space_group_name_H-M   'P 1'
_cell_length_a   16.55070132
_cell_length_b   16.55406584
_cell_length_c   16.55308493
_cell_angle_alpha   90.03348233
_cell_angle_beta   90.00326365
_cell_angle_gamma   90.01855618
_symmetry_Int_Tables_number   1
_chemical_formula_structural   ZrScNbPdRh
_chemical_formula_sum   'Zr50 Sc50 Nb50 Pd50 Rh50'
_cell_volume   4535.23635588
_cell_formula_units_Z   50
loop_
 _symmetry_equiv_pos_site_id
 _symmetry_equiv_pos_as_xyz
  1  'x, y, z'
loop_
 _atom_site_type_symbol
 _atom_site_label
 _atom_site_symmetry_multiplicity
 _atom_site_fract_x
 _atom_site_fract_y
 _atom_site_fract_z
 _atom_site_occupancy
  Zr  Zr0  1  0.09341175  0.30383605  0.10231843  1
  Zr  Zr1  1  0.50696837  0.10046633  0.50475984  1
  Zr  Zr2  1  0.89501687  0.29920989  0.29600297  1
  Zr  Zr3  1  0.89997224  0.29475837  0.70696764  1
  Zr  Zr4  1  0.90459609  0.10663129  0.09682238  1
  Zr  Zr5  1  0.69979033  0.10219506  0.09504800  1
  Zr  Zr6  1  0.50542468  0.50894163  0.70066723  1
  Zr  Zr7  1  0.10061367  0.50012614  0.09965629  1
  Zr  Zr8  1  0.29496338  0.50070882  0.29776989  1
  Zr  Zr9  1  0.70379202  0.70212146  0.10059067  1
  Zr  Zr10  1  0.29977698  0.09026226  0.10137911  1
  Zr  Zr11  1  0.70357959  0.10947429  0.30479517  1
  Zr  Zr12  1  0.69752240  0.30191224  0.70406066  1
  Zr  Zr13  1  0.89324008  0.10198646  0.29913199  1
  Zr  Zr14  1  0.89768940  0.49507303  0.30560467  1
  Zr  Zr15  1  0.89515028  0.70075029  0.09984592  1
  Zr  Zr16  1  0.09113417  0.30326929  0.30242487  1
  Zr  Zr17  1  0.49742064  0.29693835  0.69823552  1
  Zr  Zr18  1  0.89828498  0.30078095  0.90275367  1
  Zr  Zr19  1  0.90769159  0.30890454  0.49270442  1
  Zr  Zr20  1  0.91077738  0.50067888  0.89769581  1
  Zr  Zr21  1  0.90198727  0.10275312  0.50514753  1
  Zr  Zr22  1  0.29388811  0.89808221  0.10412566  1
  Zr  Zr23  1  0.70719717  0.50263714  0.50066538  1
  Zr  Zr24  1  0.70455107  0.28990785  0.89613328  1
  Zr  Zr25  1  0.50757286  0.69338984  0.50112335  1
  Zr  Zr26  1  0.29755518  0.09526234  0.70759101  1
  Zr  Zr27  1  0.10534816  0.69811442  0.88648369  1
  Zr  Zr28  1  0.49787200  0.70684687  0.09830555  1
  Zr  Zr29  1  0.91088837  0.70625580  0.29941894  1
  Zr  Zr30  1  0.29516586  0.50206797  0.10204754  1
  Zr  Zr31  1  0.09864732  0.50388089  0.89660217  1
  Zr  Zr32  1  0.09605179  0.09523267  0.69176790  1
  Zr  Zr33  1  0.89560541  0.89870725  0.89669025  1
  Zr  Zr34  1  0.29467867  0.31284084  0.88775221  1
  Zr  Zr35  1  0.10686871  0.90866990  0.50153011  1
  Zr  Zr36  1  0.90469014  0.09608473  0.69899475  1
  Zr  Zr37  1  0.69234777  0.90148196  0.89960611  1
  Zr  Zr38  1  0.10352999  0.10565369  0.30614346  1
  Zr  Zr39  1  0.70772740  0.09408150  0.50001636  1
  Zr  Zr40  1  0.49297786  0.29712598  0.49850523  1
  Zr  Zr41  1  0.10145123  0.09246090  0.09678428  1
  Zr  Zr42  1  0.09191605  0.50809572  0.70397967  1
  Zr  Zr43  1  0.69016371  0.29880472  0.08119630  1
  Zr  Zr44  1  0.29912421  0.30286328  0.51284632  1
  Zr  Zr45  1  0.90089961  0.89337857  0.09996343  1
  Zr  Zr46  1  0.09888386  0.70543928  0.09632330  1
  Zr  Zr47  1  0.69881262  0.70279252  0.29723157  1
  Zr  Zr48  1  0.51285617  0.30610085  0.90653963  1
  Zr  Zr49  1  0.89733570  0.89851807  0.70079956  1
  Sc  Sc50  1  0.10143047  0.89323101  0.90750081  1
  Sc  Sc51  1  0.08716717  0.69424206  0.49461360  1
  Sc  Sc52  1  0.10391575  0.89526229  0.29540128  1
  Sc  Sc53  1  0.28403519  0.09883176  0.49527078  1
  Sc  Sc54  1  0.70893756  0.90167254  0.29868435  1
  Sc  Sc55  1  0.49695746  0.50526474  0.09685454  1
  Sc  Sc56  1  0.10970783  0.30008555  0.70133987  1
  Sc  Sc57  1  0.30605504  0.70237462  0.09760136  1
  Sc  Sc58  1  0.10965213  0.89491067  0.70085238  1
  Sc  Sc59  1  0.09301177  0.31321767  0.89714328  1
  Sc  Sc60  1  0.70000706  0.89467464  0.09843620  1
  Sc  Sc61  1  0.09817602  0.69619707  0.29682349  1
  Sc  Sc62  1  0.49871730  0.88691732  0.51042218  1
  Sc  Sc63  1  0.49932204  0.88759604  0.30080860  1
  Sc  Sc64  1  0.30673179  0.70161756  0.28824925  1
  Sc  Sc65  1  0.30035138  0.48503218  0.70290495  1
  Sc  Sc66  1  0.69747788  0.88927458  0.70068952  1
  Sc  Sc67  1  0.69617439  0.49147975  0.89749575  1
  Sc  Sc68  1  0.69603009  0.70632250  0.51021963  1
  Sc  Sc69  1  0.50178943  0.09631061  0.69592967  1
  Sc  Sc70  1  0.70923994  0.29559403  0.49976898  1
  Sc  Sc71  1  0.29981756  0.09409790  0.29825835  1
  Sc  Sc72  1  0.49711770  0.90402350  0.09193711  1
  Sc  Sc73  1  0.30416572  0.89908927  0.89709684  1
  Sc  Sc74  1  0.89066421  0.69677322  0.70030214  1
  Sc  Sc75  1  0.49852957  0.50374442  0.89893915  1
  Sc  Sc76  1  0.29854607  0.08898603  0.90027214  1
  Sc  Sc77  1  0.49817258  0.70609303  0.90056174  1
  Sc  Sc78  1  0.89564858  0.50351350  0.69660806  1
  Sc  Sc79  1  0.90438067  0.10058683  0.89066449  1
  Sc  Sc80  1  0.69724304  0.10735710  0.70030916  1
  Sc  Sc81  1  0.30319247  0.29252177  0.31025205  1
  Sc  Sc82  1  0.89713941  0.50655783  0.09579074  1
  Sc  Sc83  1  0.69727353  0.69681735  0.70050095  1
  Sc  Sc84  1  0.49914727  0.08402729  0.90308421  1
  Sc  Sc85  1  0.49521635  0.50689968  0.30838715  1
  Sc  Sc86  1  0.70447518  0.50413756  0.10259863  1
  Sc  Sc87  1  0.50742717  0.70303868  0.69839180  1
  Sc  Sc88  1  0.49988861  0.89758616  0.89939763  1
  Sc  Sc89  1  0.89437143  0.90760587  0.50711168  1
  Sc  Sc90  1  0.49690619  0.10184539  0.10090078  1
  Sc  Sc91  1  0.10072107  0.08700294  0.90052086  1
  Sc  Sc92  1  0.50484341  0.70080776  0.30018533  1
  Sc  Sc93  1  0.91052802  0.50441855  0.50769563  1
  Sc  Sc94  1  0.70703513  0.50034070  0.29503813  1
  Sc  Sc95  1  0.89834260  0.69964916  0.90074138  1
  Sc  Sc96  1  0.30043879  0.70873511  0.90360995  1
  Sc  Sc97  1  0.31506806  0.70552213  0.51202581  1
  Sc  Sc98  1  0.09751346  0.50210986  0.29412309  1
  Sc  Sc99  1  0.69689145  0.70861298  0.89244398  1
  Nb  Nb100  1  0.69967190  0.89604522  0.49671778  1
  Nb  Nb101  1  0.30006062  0.90076534  0.30420179  1
  Nb  Nb102  1  0.90069098  0.29380733  0.09413754  1
  Nb  Nb103  1  0.50318410  0.28959812  0.30042429  1
  Nb  Nb104  1  0.28848005  0.70458269  0.70665018  1
  Nb  Nb105  1  0.30691491  0.89173181  0.68930170  1
  Nb  Nb106  1  0.90042279  0.70113734  0.50134139  1
  Nb  Nb107  1  0.49660818  0.29864962  0.09969753  1
  Nb  Nb108  1  0.10534132  0.69868450  0.69986339  1
  Nb  Nb109  1  0.30184388  0.89724098  0.49843441  1
  Nb  Nb110  1  0.69873289  0.30561665  0.30254615  1
  Nb  Nb111  1  0.50280032  0.10226145  0.30492150  1
  Nb  Nb112  1  0.10055696  0.90402155  0.09810159  1
  Nb  Nb113  1  0.69702469  0.50630558  0.69702014  1
  Nb  Nb114  1  0.10224257  0.29553849  0.49320207  1
  Nb  Nb115  1  0.30102629  0.50438608  0.89866847  1
  Nb  Nb116  1  0.10144699  0.50014784  0.50373025  1
  Nb  Nb117  1  0.30439487  0.29581688  0.70515253  1
  Nb  Nb118  1  0.29538399  0.30207092  0.10184295  1
  Nb  Nb119  1  0.90265593  0.90190911  0.30040535  1
  Nb  Nb120  1  0.30469476  0.50159152  0.50026692  1
  Nb  Nb121  1  0.69854890  0.09956570  0.90491434  1
  Nb  Nb122  1  0.49735160  0.50153433  0.50157792  1
  Nb  Nb123  1  0.09482424  0.10388574  0.49546261  1
  Nb  Nb124  1  0.49121479  0.90347633  0.70251525  1
  Nb  Nb125  1  0.39817519  0.20303603  0.80453945  1
  Nb  Nb126  1  0.59887982  0.00681191  0.20957977  1
  Nb  Nb127  1  0.39534203  0.39733850  0.00395606  1
  Nb  Nb128  1  0.19983894  0.40533813  0.41097774  1
  Nb  Nb129  1  -0.00000166  0.79711409  0.60034275  1
  Nb  Nb130  1  0.20437237  0.20557344  0.00175247  1
  Nb  Nb131  1  0.79967695  0.00202106  -0.00431500  1
  Nb  Nb132  1  0.20195509  0.59857903  0.59923041  1
  Nb  Nb133  1  0.40432977  0.39002318  0.19966634  1
  Nb  Nb134  1  0.39195136  0.60274487  0.79746214  1
  Nb  Nb135  1  0.80573781  0.80011116  0.40340330  1
  Nb  Nb136  1  0.19918719  0.20226291  0.19465481  1
  Nb  Nb137  1  0.59848086  0.40512614  0.59417708  1
  Nb  Nb138  1  0.20047350  0.59953498  -0.00378018  1
  Nb  Nb139  1  -0.00118353  0.00221299  0.39816655  1
  Nb  Nb140  1  0.59339594  0.39052439  0.20487189  1
  Nb  Nb141  1  0.40310390  -0.00523508  0.40242858  1
  Nb  Nb142  1  -0.00125228  -0.00265686  0.20232958  1
  Nb  Nb143  1  0.20716262  0.79797424  0.40362329  1
  Nb  Nb144  1  0.20564850  0.59938450  0.40994593  1
  Nb  Nb145  1  0.39326186  0.20813250  -0.00211567  1
  Nb  Nb146  1  0.80638468  0.60963413  0.40328796  1
  Nb  Nb147  1  0.60015032  0.60569910  0.00072499  1
  Nb  Nb148  1  0.59686718  -0.00183915  0.39924479  1
  Nb  Nb149  1  0.59642544  0.39714445  0.39965877  1
  Pd  Pd150  1  0.59510112  0.59123462  0.19636036  1
  Pd  Pd151  1  0.00604626  0.39302296  0.60554329  1
  Pd  Pd152  1  0.19765592  0.19619142  0.80984194  1
  Pd  Pd153  1  0.39140810  0.18714133  0.60421918  1
  Pd  Pd154  1  0.19904404  0.79518622  0.20445262  1
  Pd  Pd155  1  -0.00389497  0.59687522  0.19692681  1
  Pd  Pd156  1  0.00964887  -0.01059386  0.79869887  1
  Pd  Pd157  1  0.19269057  0.78841785  0.58890628  1
  Pd  Pd158  1  0.39341710  0.00463181  0.59214868  1
  Pd  Pd159  1  0.80185152  0.20304593  0.60237118  1
  Pd  Pd160  1  0.01119690  0.19933894  -0.01152844  1
  Pd  Pd161  1  0.79446996  0.59692589  0.80470175  1
  Pd  Pd162  1  0.00030266  0.79582953  -0.00561334  1
  Pd  Pd163  1  0.40583026  0.59668036  0.20079934  1
  Pd  Pd164  1  -0.01233912  0.40444945  0.19266458  1
  Pd  Pd165  1  0.39816858  0.79636827  0.39853454  1
  Pd  Pd166  1  0.39311610  0.60229768  0.61243288  1
  Pd  Pd167  1  0.79024988  0.60046091  -0.01241472  1
  Pd  Pd168  1  0.39992617  0.39933119  0.39434487  1
  Pd  Pd169  1  0.20048518  0.40329909  -0.00434539  1
  Pd  Pd170  1  0.79541073  0.39202242  0.18634313  1
  Pd  Pd171  1  0.19858610  0.19640086  0.60161507  1
  Pd  Pd172  1  0.40636628  0.40499575  0.60536774  1
  Pd  Pd173  1  0.60935204  0.59466291  0.39966072  1
  Pd  Pd174  1  0.39340928  0.61092327  0.39860669  1
  Pd  Pd175  1  0.59879606  0.40484420  0.79345493  1
  Pd  Pd176  1  0.78986852  0.00396595  0.79887838  1
  Pd  Pd177  1  0.39178379  0.18780068  0.40527500  1
  Pd  Pd178  1  0.58936822  0.18835817  0.80665726  1
  Pd  Pd179  1  0.59833827  0.81045930  0.19730875  1
  Pd  Pd180  1  0.79067971  0.21206922  0.19253480  1
  Pd  Pd181  1  0.00285159  0.81259725  0.40825286  1
  Pd  Pd182  1  0.78992730  -0.00327707  0.61096949  1
  Pd  Pd183  1  0.19916633  -0.01215255  0.79954233  1
  Pd  Pd184  1  0.60043266  -0.00071524  0.79238770  1
  Pd  Pd185  1  0.80259740  0.40714057  0.79773634  1
  Pd  Pd186  1  0.40182823  0.79442934  0.79599486  1
  Pd  Pd187  1  0.60530970  0.20190638  0.40936467  1
  Pd  Pd188  1  0.01203635  0.19907871  0.80434430  1
  Pd  Pd189  1  0.19562256  0.40456733  0.60296293  1
  Pd  Pd190  1  0.79810158  0.40043009  0.60348430  1
  Pd  Pd191  1  0.60530444  -0.00914964  0.60010803  1
  Pd  Pd192  1  0.41063384  -0.00720696  0.20892941  1
  Pd  Pd193  1  0.80333802  0.40448848  0.00225290  1
  Pd  Pd194  1  0.60417366  0.19996878  0.19574681  1
  Pd  Pd195  1  0.79879746  -0.00258708  0.19107141  1
  Pd  Pd196  1  0.20643464  0.00162896  0.60280729  1
  Pd  Pd197  1  0.39299002  0.20003989  0.19775694  1
  Pd  Pd198  1  -0.00045557  0.79651995  0.79255706  1
  Pd  Pd199  1  0.00535879  0.21072959  0.60107415  1
  Rh  Rh200  1  0.80232724  0.79782259  0.20789353  1
  Rh  Rh201  1  0.80838543  0.60564267  0.20980811  1
  Rh  Rh202  1  0.20010565  -0.00797401  0.39497283  1
  Rh  Rh203  1  0.20749687  0.38784642  0.21819116  1
  Rh  Rh204  1  0.80597198  0.19193778  -0.00875018  1
  Rh  Rh205  1  -0.00882684  0.19568373  0.39994120  1
  Rh  Rh206  1  0.20437884  -0.00469483  -0.00365427  1
  Rh  Rh207  1  0.79655888  0.80603371  -0.00691043  1
  Rh  Rh208  1  0.80083952  0.19263966  0.80032084  1
  Rh  Rh209  1  0.59554415  0.41524424  0.01126190  1
  Rh  Rh210  1  0.19423690  0.40737330  0.79226393  1
  Rh  Rh211  1  0.60596662  -0.00116095  0.00938058  1
  Rh  Rh212  1  -0.00936343  -0.00526197  0.00333760  1
  Rh  Rh213  1  0.80576110  0.20787624  0.40309625  1
  Rh  Rh214  1  0.80411278  0.79929244  0.59575077  1
  Rh  Rh215  1  0.40245129  0.80556697  0.19757510  1
  Rh  Rh216  1  0.39717730  0.80836067  0.00265506  1
  Rh  Rh217  1  0.79803680  0.79752330  0.79888838  1
  Rh  Rh218  1  0.20147911  0.79781097  0.00051540  1
  Rh  Rh219  1  0.59627275  0.60223322  0.80901955  1
  Rh  Rh220  1  0.60482308  0.59701355  0.59707817  1
  Rh  Rh221  1  0.60030801  0.79459638  0.00122028  1
  Rh  Rh222  1  0.20217726  0.20846007  0.39853035  1
  Rh  Rh223  1  -0.00358775  0.39884645  0.79108685  1
  Rh  Rh224  1  0.39894218  0.59731845  -0.00980193  1
  Rh  Rh225  1  0.00896510  0.40732918  0.40343220  1
  Rh  Rh226  1  -0.01033564  0.60821359  0.79538545  1
  Rh  Rh227  1  -0.00781900  0.40210430  0.00599262  1
  Rh  Rh228  1  -0.00114710  0.59160623  0.39785758  1
  Rh  Rh229  1  0.39963910  -0.00002796  0.79484392  1
  Rh  Rh230  1  0.20913154  0.59572834  0.79863199  1
  Rh  Rh231  1  0.00733876  0.60558248  -0.00015485  1
  Rh  Rh232  1  0.19146646  0.00266331  0.20759868  1
  Rh  Rh233  1  0.80035819  -0.00860790  0.40246484  1
  Rh  Rh234  1  0.60624649  0.20942607  0.59588521  1
  Rh  Rh235  1  0.00369194  -0.00757829  0.59686319  1
  Rh  Rh236  1  0.00327552  0.60959529  0.60648417  1
  Rh  Rh237  1  0.40857623  0.40107402  0.80353429  1
  Rh  Rh238  1  0.59710409  0.80375893  0.60505654  1
  Rh  Rh239  1  0.59251449  0.80605463  0.79461242  1
  Rh  Rh240  1  0.40609299  0.79423850  0.60909426  1
  Rh  Rh241  1  0.58660010  0.18817711  -0.00582109  1
  Rh  Rh242  1  0.60870226  0.80465963  0.39984147  1
  Rh  Rh243  1  0.79706800  0.40549939  0.40267357  1
  Rh  Rh244  1  0.00592647  0.80703216  0.19593757  1
  Rh  Rh245  1  0.79835332  0.60340575  0.59550841  1
  Rh  Rh246  1  0.20439891  0.80826337  0.80064129  1
  Rh  Rh247  1  0.19748763  0.60902161  0.19316532  1
  Rh  Rh248  1  0.00446982  0.19540232  0.20194247  1
  Rh  Rh249  1  0.39604888  0.00014355  -0.00045507  1
