# generated using pymatgen
data_ZrScNbPdRh
_symmetry_space_group_name_H-M   'P 1'
_cell_length_a   16.55894786
_cell_length_b   16.55814704
_cell_length_c   16.56191813
_cell_angle_alpha   89.99497114
_cell_angle_beta   90.03361978
_cell_angle_gamma   90.01778285
_symmetry_Int_Tables_number   1
_chemical_formula_structural   ZrScNbPdRh
_chemical_formula_sum   'Zr50 Sc50 Nb50 Pd50 Rh50'
_cell_volume   4541.03667688
_cell_formula_units_Z   50
loop_
 _symmetry_equiv_pos_site_id
 _symmetry_equiv_pos_as_xyz
  1  'x, y, z'
loop_
 _atom_site_type_symbol
 _atom_site_label
 _atom_site_symmetry_multiplicity
 _atom_site_fract_x
 _atom_site_fract_y
 _atom_site_fract_z
 _atom_site_occupancy
  Zr  Zr0  1  0.29431087  0.68767752  0.10995620  1
  Zr  Zr1  1  0.30431756  0.69534173  0.69492916  1
  Zr  Zr2  1  0.89748098  0.11079804  0.09530389  1
  Zr  Zr3  1  0.90411004  0.90075223  0.09943036  1
  Zr  Zr4  1  0.30614203  0.50960829  0.29276067  1
  Zr  Zr5  1  0.50085177  0.69812483  0.89228769  1
  Zr  Zr6  1  0.90090035  0.30242951  0.91221623  1
  Zr  Zr7  1  0.08878734  0.90840867  0.69108288  1
  Zr  Zr8  1  0.29747190  0.50387183  0.49622442  1
  Zr  Zr9  1  0.29431849  0.10793326  0.69448180  1
  Zr  Zr10  1  0.70412583  0.09952577  0.50435726  1
  Zr  Zr11  1  0.11035023  0.89180624  0.91023404  1
  Zr  Zr12  1  0.10302004  0.89592447  0.49278266  1
  Zr  Zr13  1  0.31049632  0.29801131  0.90589572  1
  Zr  Zr14  1  0.50072295  0.10512816  0.89863385  1
  Zr  Zr15  1  0.30251780  0.70670100  0.89421615  1
  Zr  Zr16  1  0.10844989  0.70138949  0.29607548  1
  Zr  Zr17  1  0.51229491  0.89859518  0.70022923  1
  Zr  Zr18  1  0.69635177  0.10424407  0.10388612  1
  Zr  Zr19  1  0.69354013  0.69154766  0.90246393  1
  Zr  Zr20  1  0.49252237  0.90129896  0.29655919  1
  Zr  Zr21  1  0.89357300  0.68988580  0.69761075  1
  Zr  Zr22  1  0.10611812  0.50076731  0.31054985  1
  Zr  Zr23  1  0.69725088  0.49241079  0.29074252  1
  Zr  Zr24  1  0.50893417  0.30255875  0.88843102  1
  Zr  Zr25  1  0.70015873  0.30202111  0.50223681  1
  Zr  Zr26  1  0.49511780  0.90320357  0.10061787  1
  Zr  Zr27  1  0.30304096  0.10129302  0.49743368  1
  Zr  Zr28  1  0.10597146  0.08851487  0.51105434  1
  Zr  Zr29  1  0.89637422  0.69614756  0.89926485  1
  Zr  Zr30  1  0.49597458  0.49347923  0.10296899  1
  Zr  Zr31  1  0.69416512  0.89031968  0.89351735  1
  Zr  Zr32  1  0.69371507  0.70056425  0.50297653  1
  Zr  Zr33  1  0.09148161  0.48525507  0.70119749  1
  Zr  Zr34  1  0.69275135  0.68913269  0.29877707  1
  Zr  Zr35  1  0.10880382  0.51070747  0.08516009  1
  Zr  Zr36  1  0.09908349  0.30572982  0.89102273  1
  Zr  Zr37  1  0.69778439  0.89776215  0.09527644  1
  Zr  Zr38  1  0.70701190  0.90463786  0.69871101  1
  Zr  Zr39  1  0.70306861  0.10725520  0.30225966  1
  Zr  Zr40  1  0.89115773  0.49799676  0.09893668  1
  Zr  Zr41  1  0.89221194  0.90106446  0.90054384  1
  Zr  Zr42  1  0.49329974  0.10335885  0.29713346  1
  Zr  Zr43  1  0.09905739  0.89435727  0.29608807  1
  Zr  Zr44  1  0.70181068  0.90259519  0.50612000  1
  Zr  Zr45  1  0.49403551  0.29750667  0.08903634  1
  Zr  Zr46  1  0.50183159  0.50829631  0.89939049  1
  Zr  Zr47  1  0.50174561  0.31266357  0.29422533  1
  Zr  Zr48  1  0.09467552  0.69559031  0.91246484  1
  Zr  Zr49  1  0.90462432  0.08157982  0.70890034  1
  Sc  Sc50  1  0.89980052  0.30180963  0.49911997  1
  Sc  Sc51  1  0.70548269  0.70417955  0.70148036  1
  Sc  Sc52  1  0.89515127  0.29860215  0.30299262  1
  Sc  Sc53  1  0.49925522  0.89167934  0.89348341  1
  Sc  Sc54  1  0.90065405  0.10112296  0.90144820  1
  Sc  Sc55  1  0.49389934  0.49763554  0.70542757  1
  Sc  Sc56  1  0.50313584  0.88841412  0.50379188  1
  Sc  Sc57  1  0.69592316  0.90698624  0.30472281  1
  Sc  Sc58  1  0.89282806  0.50016826  0.29610996  1
  Sc  Sc59  1  0.71186317  0.29500489  0.10366208  1
  Sc  Sc60  1  0.89883667  0.69548353  0.09405507  1
  Sc  Sc61  1  0.50085274  0.30143786  0.50998765  1
  Sc  Sc62  1  0.30799007  0.49900058  0.09462625  1
  Sc  Sc63  1  0.90952339  0.69580332  0.30366984  1
  Sc  Sc64  1  0.29913451  0.50135115  0.69522412  1
  Sc  Sc65  1  0.09516107  0.29697540  0.09370410  1
  Sc  Sc66  1  0.29483793  0.09659745  0.10357163  1
  Sc  Sc67  1  0.89869223  0.09599551  0.49421159  1
  Sc  Sc68  1  0.09736677  0.29744304  0.30681477  1
  Sc  Sc69  1  0.90116945  0.49901506  0.89611724  1
  Sc  Sc70  1  0.10466043  0.09656794  0.10893968  1
  Sc  Sc71  1  0.10182388  0.09780462  0.30722883  1
  Sc  Sc72  1  0.69288065  0.31415694  0.70001373  1
  Sc  Sc73  1  0.90339418  0.31749618  0.70452252  1
  Sc  Sc74  1  0.09723675  0.69754679  0.49390455  1
  Sc  Sc75  1  0.90771755  0.69123349  0.50281258  1
  Sc  Sc76  1  0.29991895  0.89640263  0.29925855  1
  Sc  Sc77  1  0.30298088  0.10210668  0.89405287  1
  Sc  Sc78  1  0.09511303  0.69907228  0.69195074  1
  Sc  Sc79  1  0.50561763  0.10062257  0.70354071  1
  Sc  Sc80  1  0.29941747  0.50022998  0.90534048  1
  Sc  Sc81  1  0.70054174  0.10286864  0.89948724  1
  Sc  Sc82  1  0.50682529  0.51087752  0.29989841  1
  Sc  Sc83  1  0.29228492  0.29878310  0.30913749  1
  Sc  Sc84  1  0.09769312  0.50246183  0.50224157  1
  Sc  Sc85  1  0.90505278  0.90523294  0.50259048  1
  Sc  Sc86  1  0.90347247  0.10292973  0.30808150  1
  Sc  Sc87  1  0.49714734  0.69751815  0.08538171  1
  Sc  Sc88  1  0.70212861  0.69054647  0.09479916  1
  Sc  Sc89  1  0.30623123  0.29362632  0.50334250  1
  Sc  Sc90  1  0.29863802  0.09840493  0.30843048  1
  Sc  Sc91  1  0.69848661  0.49206388  0.49915329  1
  Sc  Sc92  1  0.90879681  0.90611469  0.30886954  1
  Sc  Sc93  1  0.09888263  0.31240589  0.50005661  1
  Sc  Sc94  1  0.49644264  0.69858512  0.49282571  1
  Sc  Sc95  1  0.30161999  0.88944264  0.69930160  1
  Sc  Sc96  1  0.29862064  0.30127643  0.70055236  1
  Sc  Sc97  1  0.90249556  0.49966905  0.50838288  1
  Sc  Sc98  1  0.29104361  0.90130269  0.10268001  1
  Sc  Sc99  1  0.49895533  0.10385032  0.10271957  1
  Nb  Nb100  1  0.89358655  0.50370897  0.69677002  1
  Nb  Nb101  1  0.70402765  0.30550698  0.89224099  1
  Nb  Nb102  1  0.29928920  0.89962668  0.50449617  1
  Nb  Nb103  1  0.30335179  0.30352769  0.09853400  1
  Nb  Nb104  1  0.10045547  0.10551573  0.70826294  1
  Nb  Nb105  1  0.49765702  0.30224366  0.70049586  1
  Nb  Nb106  1  0.71452199  0.50224670  0.70056416  1
  Nb  Nb107  1  0.90595035  0.30461145  0.09961608  1
  Nb  Nb108  1  0.09691375  0.70513475  0.10040955  1
  Nb  Nb109  1  0.69774843  0.49550169  0.89507183  1
  Nb  Nb110  1  0.49200977  0.10860819  0.49657544  1
  Nb  Nb111  1  0.49632228  0.69749297  0.69663320  1
  Nb  Nb112  1  0.70636182  0.09430579  0.69829894  1
  Nb  Nb113  1  0.50243997  0.50007009  0.49454703  1
  Nb  Nb114  1  0.49590862  0.70113512  0.30155606  1
  Nb  Nb115  1  0.30337647  0.70705536  0.50516222  1
  Nb  Nb116  1  0.70308007  0.50299707  0.09928815  1
  Nb  Nb117  1  0.10477660  0.10225282  0.89538217  1
  Nb  Nb118  1  0.69790862  0.29958308  0.30603047  1
  Nb  Nb119  1  0.10056019  0.50297913  0.89877073  1
  Nb  Nb120  1  0.09837766  0.29468162  0.70424007  1
  Nb  Nb121  1  0.29651379  0.90365455  0.89979669  1
  Nb  Nb122  1  0.31089092  0.69610896  0.30192113  1
  Nb  Nb123  1  0.09875709  0.89395901  0.10170413  1
  Nb  Nb124  1  0.89552242  0.89462738  0.70717011  1
  Nb  Nb125  1  0.39775232  -0.00243570  -0.00603344  1
  Nb  Nb126  1  0.40296665  0.40732830  0.40184745  1
  Nb  Nb127  1  0.19290019  0.59835679  0.80243395  1
  Nb  Nb128  1  0.59830603  0.20126840  0.40017413  1
  Nb  Nb129  1  0.79836035  0.79578845  0.39866204  1
  Nb  Nb130  1  0.00273992  0.40377161  0.19444440  1
  Nb  Nb131  1  0.79636045  0.80156100  0.20656401  1
  Nb  Nb132  1  0.79399306  0.60188692  0.39989865  1
  Nb  Nb133  1  0.59750250  0.59613921  0.60242877  1
  Nb  Nb134  1  0.80150245  -0.00027311  0.19857673  1
  Nb  Nb135  1  0.39478500  0.20799293  0.19977369  1
  Nb  Nb136  1  0.59738727  0.79624486  0.20238132  1
  Nb  Nb137  1  0.59241861  0.00942203  0.40551037  1
  Nb  Nb138  1  -0.00540359  0.80157289  0.79917518  1
  Nb  Nb139  1  0.59438556  -0.00124589  -0.00298285  1
  Nb  Nb140  1  0.19709518  -0.00049042  0.80005120  1
  Nb  Nb141  1  0.00158079  0.19769186  0.61113666  1
  Nb  Nb142  1  0.80440150  0.19760064  0.61234519  1
  Nb  Nb143  1  0.79858240  0.20456168  0.79422424  1
  Nb  Nb144  1  0.00828222  0.59532754  0.19517518  1
  Nb  Nb145  1  0.01181994  -0.00218653  0.00180152  1
  Nb  Nb146  1  0.19662803  0.40171059  0.19690839  1
  Nb  Nb147  1  0.60893098  0.40200388  -0.00436328  1
  Nb  Nb148  1  0.20092427  0.20062144  -0.00415545  1
  Nb  Nb149  1  0.40051302  0.00078107  0.59499596  1
  Pd  Pd150  1  0.40301495  0.80366265  0.79341320  1
  Pd  Pd151  1  0.79520990  0.00640039  0.00090105  1
  Pd  Pd152  1  0.01075897  0.19182104  -0.00087237  1
  Pd  Pd153  1  0.80859985  0.20033128  0.20583504  1
  Pd  Pd154  1  0.59123088  0.60662897  0.18861089  1
  Pd  Pd155  1  0.40076565  0.79269072  0.19318251  1
  Pd  Pd156  1  0.39416594  0.40526919  0.80260092  1
  Pd  Pd157  1  0.19115263  0.21058588  0.59401450  1
  Pd  Pd158  1  0.79360281  0.40088207  0.00050353  1
  Pd  Pd159  1  0.40186598  -0.00929405  0.40789963  1
  Pd  Pd160  1  0.00628536  0.19680291  0.41508811  1
  Pd  Pd161  1  -0.00860449  0.79218470  0.20025848  1
  Pd  Pd162  1  0.61076847  0.19893252  0.78844615  1
  Pd  Pd163  1  0.20897866  0.79491060  0.39870252  1
  Pd  Pd164  1  0.20936158  0.79240587  0.01035439  1
  Pd  Pd165  1  0.19116447  0.20099154  0.41019046  1
  Pd  Pd166  1  -0.00428954  0.00788912  0.19714502  1
  Pd  Pd167  1  0.20139570  -0.00333501  0.20893599  1
  Pd  Pd168  1  0.39124448  0.80514342  0.00320177  1
  Pd  Pd169  1  0.40014117  0.20205474  0.79131331  1
  Pd  Pd170  1  0.79753157  0.79314824  0.00483733  1
  Pd  Pd171  1  0.80362756  0.40569915  0.40138895  1
  Pd  Pd172  1  0.39845995  0.40149134  0.59495192  1
  Pd  Pd173  1  0.00042019  0.20594168  0.20403842  1
  Pd  Pd174  1  -0.00762178  0.79824982  0.60016969  1
  Pd  Pd175  1  0.00471128  0.60219174  0.79475407  1
  Pd  Pd176  1  0.60344574  -0.00290713  0.20083241  1
  Pd  Pd177  1  0.20193894  0.39503584  0.59838903  1
  Pd  Pd178  1  0.60893167  0.20446999  -0.00197203  1
  Pd  Pd179  1  0.19628880  0.79769517  0.60073150  1
  Pd  Pd180  1  0.40827681  0.59692820  0.59373965  1
  Pd  Pd181  1  0.19731145  0.39277406  0.00237409  1
  Pd  Pd182  1  0.59596735  0.41048451  0.60695905  1
  Pd  Pd183  1  0.39523823  0.80204560  0.40383497  1
  Pd  Pd184  1  0.20857329  -0.00555218  0.60839464  1
  Pd  Pd185  1  0.39373777  -0.00445693  0.79528776  1
  Pd  Pd186  1  0.20870686  0.40462972  0.79978553  1
  Pd  Pd187  1  0.58961682  0.00717474  0.59357633  1
  Pd  Pd188  1  0.19253775  0.59819075  0.60461268  1
  Pd  Pd189  1  0.80963820  0.79950908  0.59129037  1
  Pd  Pd190  1  0.60238516  0.19966336  0.60337290  1
  Pd  Pd191  1  -0.00815396  0.40574662  0.39379550  1
  Pd  Pd192  1  0.18821006  0.79811176  0.79024875  1
  Pd  Pd193  1  0.00933640  -0.01087694  0.81460023  1
  Pd  Pd194  1  0.60975269  0.39234235  0.18472452  1
  Pd  Pd195  1  0.60506828  0.59859557  0.78595587  1
  Pd  Pd196  1  -0.01236536  0.20537281  0.79809385  1
  Pd  Pd197  1  0.60172654  0.80719289  0.39396504  1
  Pd  Pd198  1  0.20691863  0.61023455  0.40378119  1
  Pd  Pd199  1  0.20250064  0.20850359  0.19550357  1
  Rh  Rh200  1  0.59168504  0.21002232  0.20543138  1
  Rh  Rh201  1  0.39129845  0.00996574  0.19534884  1
  Rh  Rh202  1  0.20031778  -0.00624145  0.39649026  1
  Rh  Rh203  1  0.80334583  0.39648127  0.60031370  1
  Rh  Rh204  1  0.60461056  0.59407992  0.40822731  1
  Rh  Rh205  1  0.79005201  0.59420579  0.58921662  1
  Rh  Rh206  1  0.80151416  0.79400987  0.80084439  1
  Rh  Rh207  1  0.59720238  0.80298407  0.00405863  1
  Rh  Rh208  1  0.38458002  0.39373783  0.21075530  1
  Rh  Rh209  1  0.40704764  0.19668786  0.61000067  1
  Rh  Rh210  1  -0.00443728  0.80558438  -0.00296542  1
  Rh  Rh211  1  0.79546154  0.20399070  -0.00787493  1
  Rh  Rh212  1  0.40399636  0.80291580  0.60025246  1
  Rh  Rh213  1  -0.00758420  0.59429777  0.00523383  1
  Rh  Rh214  1  0.00291969  0.40726924  0.00186389  1
  Rh  Rh215  1  -0.00545870  0.00517003  0.59627528  1
  Rh  Rh216  1  0.60144765  0.58879702  0.00456459  1
  Rh  Rh217  1  0.79850014  0.59304065  -0.00873091  1
  Rh  Rh218  1  0.40932533  0.21742804  0.39076097  1
  Rh  Rh219  1  0.41149347  0.60558209  0.19722483  1
  Rh  Rh220  1  0.38960908  0.59776694  0.79937220  1
  Rh  Rh221  1  -0.00414187  0.80049618  0.40331774  1
  Rh  Rh222  1  0.39700898  0.60095600  -0.00288425  1
  Rh  Rh223  1  0.79566724  -0.00711638  0.39529835  1
  Rh  Rh224  1  0.59616805  0.78760374  0.60753397  1
  Rh  Rh225  1  0.80353607  0.40069725  0.80012084  1
  Rh  Rh226  1  -0.00630865  0.59281510  0.39512552  1
  Rh  Rh227  1  0.20474029  0.20088501  0.80637421  1
  Rh  Rh228  1  0.20464350  0.79763231  0.19991017  1
  Rh  Rh229  1  0.20915204  0.40269127  0.39915485  1
  Rh  Rh230  1  -0.00468973  0.40335283  0.80434028  1
  Rh  Rh231  1  0.59951566  0.40789003  0.79628904  1
  Rh  Rh232  1  -0.00166597  0.39553409  0.60005967  1
  Rh  Rh233  1  0.79683112  0.59702230  0.80517340  1
  Rh  Rh234  1  0.60166002  0.79063354  0.79219428  1
  Rh  Rh235  1  0.39814621  0.59960009  0.40464366  1
  Rh  Rh236  1  0.00940560  0.00110930  0.40198489  1
  Rh  Rh237  1  0.81040221  0.00122608  0.60008916  1
  Rh  Rh238  1  0.38804419  0.18698832  0.00996498  1
  Rh  Rh239  1  0.80183753  0.39132918  0.19993471  1
  Rh  Rh240  1  0.80874167  0.60915701  0.20608349  1
  Rh  Rh241  1  0.41108400  0.40390295  -0.01024978  1
  Rh  Rh242  1  0.20981248  0.60795198  -0.00948721  1
  Rh  Rh243  1  0.59404259  0.39483882  0.40247897  1
  Rh  Rh244  1  0.19387225  0.59458518  0.20061347  1
  Rh  Rh245  1  0.79598602  0.20437999  0.40891477  1
  Rh  Rh246  1  0.00512510  0.59264184  0.60391302  1
  Rh  Rh247  1  0.79159387  0.00364284  0.80593611  1
  Rh  Rh248  1  0.20113897  0.00887952  -0.00722188  1
  Rh  Rh249  1  0.60557721  0.00249377  0.80710086  1
