# generated using pymatgen
data_ZrScNbPdRh
_symmetry_space_group_name_H-M   'P 1'
_cell_length_a   16.55545537
_cell_length_b   16.55614780
_cell_length_c   16.55244703
_cell_angle_alpha   90.00481986
_cell_angle_beta   89.97855651
_cell_angle_gamma   89.99705061
_symmetry_Int_Tables_number   1
_chemical_formula_structural   ZrScNbPdRh
_chemical_formula_sum   'Zr50 Sc50 Nb50 Pd50 Rh50'
_cell_volume   4536.93544714
_cell_formula_units_Z   50
loop_
 _symmetry_equiv_pos_site_id
 _symmetry_equiv_pos_as_xyz
  1  'x, y, z'
loop_
 _atom_site_type_symbol
 _atom_site_label
 _atom_site_symmetry_multiplicity
 _atom_site_fract_x
 _atom_site_fract_y
 _atom_site_fract_z
 _atom_site_occupancy
  Zr  Zr0  1  0.50359352  0.09358786  0.50021209  1
  Zr  Zr1  1  0.89323306  0.29373546  0.90264914  1
  Zr  Zr2  1  0.50185366  0.09959244  0.29622362  1
  Zr  Zr3  1  0.70722373  0.90134499  0.29821704  1
  Zr  Zr4  1  0.90140946  0.29594457  0.70036519  1
  Zr  Zr5  1  0.49538240  0.30374583  0.49888810  1
  Zr  Zr6  1  0.30253055  0.10163826  0.50978785  1
  Zr  Zr7  1  0.09986023  0.09879242  0.10064944  1
  Zr  Zr8  1  0.49665812  0.69631797  0.29759233  1
  Zr  Zr9  1  0.90903385  0.89195972  0.69196539  1
  Zr  Zr10  1  0.70647076  0.30014665  0.10702913  1
  Zr  Zr11  1  0.29893584  0.89088909  0.49558106  1
  Zr  Zr12  1  0.70690999  0.10192114  0.90626631  1
  Zr  Zr13  1  0.50121464  0.09812978  0.90655862  1
  Zr  Zr14  1  0.90420086  0.09569809  0.49929350  1
  Zr  Zr15  1  0.10321052  0.29981679  0.49222645  1
  Zr  Zr16  1  0.29329147  0.89654117  0.29737603  1
  Zr  Zr17  1  0.31086074  0.50541598  0.70110871  1
  Zr  Zr18  1  0.90619819  0.50806452  0.49793754  1
  Zr  Zr19  1  0.29951973  0.30421311  0.29647956  1
  Zr  Zr20  1  0.29353140  0.91072466  0.09573482  1
  Zr  Zr21  1  0.70254650  0.69695139  0.90825599  1
  Zr  Zr22  1  0.70050613  0.50876311  0.09755766  1
  Zr  Zr23  1  0.09792019  0.49826486  0.30348123  1
  Zr  Zr24  1  0.89732232  0.70234502  0.51056858  1
  Zr  Zr25  1  0.90991022  0.70129090  0.90657992  1
  Zr  Zr26  1  0.09649594  0.50568951  0.69850045  1
  Zr  Zr27  1  0.09087728  0.10112866  0.30001458  1
  Zr  Zr28  1  0.29389800  0.30290772  0.90733297  1
  Zr  Zr29  1  0.70194181  0.50986910  0.69763561  1
  Zr  Zr30  1  0.49874811  0.30335871  0.30240782  1
  Zr  Zr31  1  0.30287796  0.69950041  0.89414457  1
  Zr  Zr32  1  0.90713230  0.29550388  0.09498724  1
  Zr  Zr33  1  0.09945335  0.29013265  0.70543940  1
  Zr  Zr34  1  0.49310232  0.09898560  0.69565163  1
  Zr  Zr35  1  0.49309844  0.30368210  0.10904180  1
  Zr  Zr36  1  0.89871102  0.09767035  0.90000026  1
  Zr  Zr37  1  0.50112782  0.90258387  0.90415192  1
  Zr  Zr38  1  0.89884854  0.90428621  0.49604375  1
  Zr  Zr39  1  0.88759338  0.29752417  0.29955795  1
  Zr  Zr40  1  0.89539817  0.51322663  0.69687317  1
  Zr  Zr41  1  0.90892876  0.09034466  0.09332711  1
  Zr  Zr42  1  0.30310378  0.30460950  0.49447052  1
  Zr  Zr43  1  0.70410986  0.30313783  0.49391364  1
  Zr  Zr44  1  0.69900092  0.09498538  0.30001531  1
  Zr  Zr45  1  0.09848776  0.69179335  0.48865805  1
  Zr  Zr46  1  0.30110900  0.28847464  0.69836078  1
  Zr  Zr47  1  0.49878588  0.30088787  0.90276438  1
  Zr  Zr48  1  0.89834217  0.50325052  0.29834455  1
  Zr  Zr49  1  0.51540171  0.69680026  0.10377184  1
  Sc  Sc50  1  0.09106301  0.29841338  0.91094112  1
  Sc  Sc51  1  0.71139548  0.70009064  0.10011093  1
  Sc  Sc52  1  0.89555741  0.29139288  0.49744972  1
  Sc  Sc53  1  0.10394598  0.90612916  0.29885939  1
  Sc  Sc54  1  0.49576761  0.70679841  0.49839061  1
  Sc  Sc55  1  0.10037320  0.50351880  0.91161734  1
  Sc  Sc56  1  0.49961890  0.50130072  0.29921011  1
  Sc  Sc57  1  0.29605240  0.49024380  0.10429921  1
  Sc  Sc58  1  0.50241387  0.50356246  0.89607692  1
  Sc  Sc59  1  0.70591286  0.31167934  0.69971724  1
  Sc  Sc60  1  0.50600513  0.89643280  0.50906595  1
  Sc  Sc61  1  0.90081586  0.10029156  0.30127586  1
  Sc  Sc62  1  0.09239924  0.90570440  0.10305713  1
  Sc  Sc63  1  0.09791478  0.90427479  0.70484289  1
  Sc  Sc64  1  0.69632760  0.90038718  0.49397459  1
  Sc  Sc65  1  0.28993038  0.90221611  0.70016483  1
  Sc  Sc66  1  0.69639760  0.49811125  0.49968297  1
  Sc  Sc67  1  0.90961108  0.09718695  0.70218503  1
  Sc  Sc68  1  0.08278419  0.70996131  0.70996263  1
  Sc  Sc69  1  0.29061329  0.09413463  0.90360506  1
  Sc  Sc70  1  0.10165890  0.29681447  0.30327334  1
  Sc  Sc71  1  0.09838627  0.50269341  0.48881937  1
  Sc  Sc72  1  0.89774753  0.70109129  0.28097106  1
  Sc  Sc73  1  0.70754934  0.08986346  0.50046671  1
  Sc  Sc74  1  0.69402583  0.70763607  0.29718625  1
  Sc  Sc75  1  0.70300825  0.90382412  0.90093473  1
  Sc  Sc76  1  0.69302071  0.70619588  0.50207093  1
  Sc  Sc77  1  0.10325347  0.29992362  0.09906604  1
  Sc  Sc78  1  0.70555864  0.50002699  0.89646084  1
  Sc  Sc79  1  0.29605685  0.50573591  0.29881170  1
  Sc  Sc80  1  0.90188184  0.90425416  0.90809528  1
  Sc  Sc81  1  0.70205667  0.09668666  0.10131293  1
  Sc  Sc82  1  0.10285720  0.69639593  0.29433562  1
  Sc  Sc83  1  0.50922154  0.70044616  0.89951374  1
  Sc  Sc84  1  0.29383495  0.69291386  0.11078924  1
  Sc  Sc85  1  0.50329902  0.50680140  0.69613470  1
  Sc  Sc86  1  0.09939942  0.90693314  0.49735676  1
  Sc  Sc87  1  0.30144891  0.50249148  0.90722566  1
  Sc  Sc88  1  0.70453844  0.09060361  0.70224874  1
  Sc  Sc89  1  0.50609316  0.09713275  0.10109200  1
  Sc  Sc90  1  0.10339878  0.49759559  0.10034305  1
  Sc  Sc91  1  0.49742032  0.49450603  0.49529476  1
  Sc  Sc92  1  0.68817399  0.89814767  0.69672823  1
  Sc  Sc93  1  0.70493563  0.48932722  0.30008743  1
  Sc  Sc94  1  0.51782846  0.89821552  0.29989425  1
  Sc  Sc95  1  0.29503753  0.70073706  0.30912086  1
  Sc  Sc96  1  0.29326861  0.10863455  0.29741924  1
  Sc  Sc97  1  0.49605438  0.30303259  0.69751943  1
  Sc  Sc98  1  0.89205943  0.50661618  0.09969378  1
  Sc  Sc99  1  0.09776426  0.09923245  0.49633025  1
  Nb  Nb100  1  0.08988327  0.70392271  0.08641652  1
  Nb  Nb101  1  0.70267144  0.89672654  0.10503548  1
  Nb  Nb102  1  0.49942468  0.70881830  0.69704541  1
  Nb  Nb103  1  0.89624045  0.88945513  0.10153622  1
  Nb  Nb104  1  0.69862824  0.29691367  0.90375630  1
  Nb  Nb105  1  0.30909688  0.69971240  0.69810224  1
  Nb  Nb106  1  0.89359189  0.69947261  0.69913561  1
  Nb  Nb107  1  0.30004640  0.89782530  0.89857929  1
  Nb  Nb108  1  0.08799462  0.08728336  0.89066750  1
  Nb  Nb109  1  0.29843492  0.49986982  0.50264745  1
  Nb  Nb110  1  0.10605318  0.89460639  0.88868269  1
  Nb  Nb111  1  0.90408288  0.49258167  0.90240969  1
  Nb  Nb112  1  0.29743668  0.29614447  0.10207359  1
  Nb  Nb113  1  0.49832191  0.89851883  0.70188458  1
  Nb  Nb114  1  0.90155757  0.89894069  0.29537642  1
  Nb  Nb115  1  0.49770689  0.90073144  0.09943597  1
  Nb  Nb116  1  0.10183154  0.70603312  0.90230464  1
  Nb  Nb117  1  0.70380696  0.29743264  0.30415687  1
  Nb  Nb118  1  0.29665353  0.10165426  0.70275303  1
  Nb  Nb119  1  0.29922566  0.10109910  0.10036776  1
  Nb  Nb120  1  0.29859799  0.70163733  0.50171712  1
  Nb  Nb121  1  0.50156184  0.50417529  0.09994540  1
  Nb  Nb122  1  0.90455151  0.71425224  0.09294167  1
  Nb  Nb123  1  0.70157648  0.69677783  0.70111340  1
  Nb  Nb124  1  0.10494144  0.09701969  0.70956732  1
  Nb  Nb125  1  0.80140837  0.79173691  0.79465471  1
  Nb  Nb126  1  -0.00293228  0.40312362  0.79995635  1
  Nb  Nb127  1  0.00301076  0.39871430  0.60302609  1
  Nb  Nb128  1  0.39870100  -0.00324039  0.20005776  1
  Nb  Nb129  1  0.19980964  0.60456460  0.79651444  1
  Nb  Nb130  1  0.80140558  0.60403284  0.39951397  1
  Nb  Nb131  1  0.40254858  0.80436078  0.79786897  1
  Nb  Nb132  1  0.20173489  0.78851213  0.60050642  1
  Nb  Nb133  1  0.60224940  0.20010794  0.59978625  1
  Nb  Nb134  1  -0.00520987  0.39854723  0.20191263  1
  Nb  Nb135  1  -0.00661299  0.80232488  0.39439583  1
  Nb  Nb136  1  0.60120536  0.39868263  0.00329799  1
  Nb  Nb137  1  0.20508111  0.60419177  0.60272568  1
  Nb  Nb138  1  0.39400088  0.39822620  0.80121487  1
  Nb  Nb139  1  0.19923081  0.40435669  0.60218823  1
  Nb  Nb140  1  0.40598559  0.60425454  0.00839111  1
  Nb  Nb141  1  0.19851363  0.80005685  -0.00500830  1
  Nb  Nb142  1  0.60339908  0.20216395  0.80060045  1
  Nb  Nb143  1  0.39655414  -0.00311169  0.79938041  1
  Nb  Nb144  1  0.39290782  0.20016096  0.00872905  1
  Nb  Nb145  1  0.39707961  0.79991281  0.00295897  1
  Nb  Nb146  1  0.60405856  0.20237900  0.40187725  1
  Nb  Nb147  1  0.40296191  0.80488176  0.19394879  1
  Nb  Nb148  1  0.19784147  0.40425322  0.79736050  1
  Nb  Nb149  1  0.39948321  -0.00349973  0.39518295  1
  Pd  Pd150  1  0.19375014  0.19920161  0.81427889  1
  Pd  Pd151  1  0.59407944  0.60524778  0.59282137  1
  Pd  Pd152  1  0.80437239  0.40157882  0.80157930  1
  Pd  Pd153  1  0.78851421  0.80567252  0.60401718  1
  Pd  Pd154  1  0.19355468  0.20216723  0.20062392  1
  Pd  Pd155  1  0.60384603  0.40392454  0.19946028  1
  Pd  Pd156  1  0.19282677  0.59962107  0.19776709  1
  Pd  Pd157  1  -0.00899596  0.39040740  0.39899924  1
  Pd  Pd158  1  0.80657327  -0.01440513  0.79360313  1
  Pd  Pd159  1  0.00971188  0.80327583  0.20487570  1
  Pd  Pd160  1  0.80479058  0.60423496  0.81063685  1
  Pd  Pd161  1  0.80580727  0.18905878  0.19446202  1
  Pd  Pd162  1  0.60255583  0.20253612  0.20438669  1
  Pd  Pd163  1  0.19600222  0.79811293  0.19140465  1
  Pd  Pd164  1  0.00334006  0.59643178  0.18936294  1
  Pd  Pd165  1  0.40223584  0.19232277  0.39997799  1
  Pd  Pd166  1  0.20583761  0.00768386  0.39885337  1
  Pd  Pd167  1  0.79307921  0.19881559  0.79264087  1
  Pd  Pd168  1  0.19437787  -0.00399389  0.60238549  1
  Pd  Pd169  1  0.40913347  0.80723597  0.39060643  1
  Pd  Pd170  1  0.79537078  0.40134321  0.00245218  1
  Pd  Pd171  1  0.01275282  0.79892758  0.58985404  1
  Pd  Pd172  1  0.59549763  0.39668482  0.80162919  1
  Pd  Pd173  1  0.18832494  -0.00350619  -0.00622718  1
  Pd  Pd174  1  0.39577349  0.40980143  0.20520250  1
  Pd  Pd175  1  0.79262266  0.19475614  0.60492141  1
  Pd  Pd176  1  0.60890235  -0.00453074  0.00667371  1
  Pd  Pd177  1  0.60638251  0.59906567  0.39883322  1
  Pd  Pd178  1  0.59703635  0.20583176  0.00368533  1
  Pd  Pd179  1  0.59770218  0.60343029  0.79904516  1
  Pd  Pd180  1  0.39708213  0.59693748  0.40386896  1
  Pd  Pd181  1  0.19564208  0.19361846  -0.00397934  1
  Pd  Pd182  1  0.39477890  -0.01076500  0.60113569  1
  Pd  Pd183  1  0.60502331  0.80549548  0.00510266  1
  Pd  Pd184  1  0.59646151  0.00761191  0.79848981  1
  Pd  Pd185  1  0.40429985  0.40484777  -0.00105922  1
  Pd  Pd186  1  0.00315157  0.59724526  0.80728424  1
  Pd  Pd187  1  0.59824031  0.39755103  0.60233796  1
  Pd  Pd188  1  0.79933496  -0.00745091  0.60475888  1
  Pd  Pd189  1  0.40252573  0.19631140  0.81030264  1
  Pd  Pd190  1  -0.00355616  0.59337774  0.00614670  1
  Pd  Pd191  1  0.20711073  0.60520659  0.00001180  1
  Pd  Pd192  1  0.80742706  0.00188894  0.19695806  1
  Pd  Pd193  1  0.80434443  0.79212525  0.39582451  1
  Pd  Pd194  1  0.00665601  0.19715970  0.59745931  1
  Pd  Pd195  1  0.40625074  0.60236245  0.58960588  1
  Pd  Pd196  1  0.19447790  0.20026621  0.59382028  1
  Pd  Pd197  1  0.80896724  0.40551350  0.59378758  1
  Pd  Pd198  1  0.60861856  0.59393149  0.21109472  1
  Pd  Pd199  1  0.60361957  0.79762004  0.80009508  1
  Rh  Rh200  1  0.40021090  0.60485707  0.19463752  1
  Rh  Rh201  1  0.60072158  0.79734399  0.60277962  1
  Rh  Rh202  1  -0.01044102  0.80498995  0.80737173  1
  Rh  Rh203  1  0.81007804  0.60272862  -0.00349976  1
  Rh  Rh204  1  0.20567849  0.00374564  0.79888138  1
  Rh  Rh205  1  -0.00023636  0.20694043  0.20220011  1
  Rh  Rh206  1  0.79755805  0.79898863  0.19751452  1
  Rh  Rh207  1  0.20411270  0.79295799  0.79538493  1
  Rh  Rh208  1  0.60225356  0.80319744  0.19635790  1
  Rh  Rh209  1  0.80471672  0.40028753  0.19532107  1
  Rh  Rh210  1  0.19251325  0.39530229  0.20304449  1
  Rh  Rh211  1  0.78814100  0.60297380  0.58908919  1
  Rh  Rh212  1  0.40574376  0.60279331  0.80714679  1
  Rh  Rh213  1  0.00130192  0.20122690  0.80764028  1
  Rh  Rh214  1  0.20246486  0.19635617  0.40263813  1
  Rh  Rh215  1  0.00533161  0.19021436  -0.00468088  1
  Rh  Rh216  1  0.18695626  0.80011358  0.40630603  1
  Rh  Rh217  1  0.00874420  0.81234897  -0.00492793  1
  Rh  Rh218  1  0.39879595  0.19205050  0.19312836  1
  Rh  Rh219  1  0.59753175  0.58970565  -0.00483518  1
  Rh  Rh220  1  0.00795604  0.00750595  0.60503658  1
  Rh  Rh221  1  -0.01469164  0.61728053  0.39101481  1
  Rh  Rh222  1  0.60200901  0.00232636  0.60185859  1
  Rh  Rh223  1  0.39503133  0.80587023  0.60671700  1
  Rh  Rh224  1  0.19680164  0.39893739  0.00067129  1
  Rh  Rh225  1  -0.00456289  -0.00385318  0.20134544  1
  Rh  Rh226  1  0.20538649  0.40424811  0.39996074  1
  Rh  Rh227  1  0.00609899  0.60328086  0.60036496  1
  Rh  Rh228  1  0.60109549  0.39525860  0.39540587  1
  Rh  Rh229  1  0.20074716  0.00868641  0.20265579  1
  Rh  Rh230  1  0.39601587  0.39812558  0.60533038  1
  Rh  Rh231  1  0.80100594  0.19646748  0.00645805  1
  Rh  Rh232  1  0.39896481  0.00382058  0.00185821  1
  Rh  Rh233  1  0.80283760  0.40878001  0.40492783  1
  Rh  Rh234  1  -0.00372519  -0.00646915  0.39380492  1
  Rh  Rh235  1  0.79460650  0.19027216  0.40038046  1
  Rh  Rh236  1  0.59802024  0.00155150  0.40193331  1
  Rh  Rh237  1  0.00525027  -0.00724971  -0.00280167  1
  Rh  Rh238  1  0.59750540  0.80019732  0.40149286  1
  Rh  Rh239  1  0.59964589  -0.00729443  0.19325451  1
  Rh  Rh240  1  0.79419825  0.60389575  0.20479778  1
  Rh  Rh241  1  0.40405485  0.20164742  0.59661953  1
  Rh  Rh242  1  -0.00389484  0.20160708  0.39919723  1
  Rh  Rh243  1  0.79803924  0.80393394  -0.00441538  1
  Rh  Rh244  1  0.20793047  0.59701084  0.40317034  1
  Rh  Rh245  1  -0.00245547  0.40409660  0.00454086  1
  Rh  Rh246  1  0.39435386  0.40968656  0.39318918  1
  Rh  Rh247  1  0.80519213  -0.00037391  0.39541084  1
  Rh  Rh248  1  -0.00503491  -0.00744474  0.79811523  1
  Rh  Rh249  1  0.79924965  -0.00652207  0.00857248  1
