# generated using pymatgen
data_ZrScNbPdRh
_symmetry_space_group_name_H-M   'P 1'
_cell_length_a   16.55414870
_cell_length_b   16.55687672
_cell_length_c   16.55450110
_cell_angle_alpha   90.02562611
_cell_angle_beta   89.98196348
_cell_angle_gamma   89.98311697
_symmetry_Int_Tables_number   1
_chemical_formula_structural   ZrScNbPdRh
_chemical_formula_sum   'Zr50 Sc50 Nb50 Pd50 Rh50'
_cell_volume   4537.33954395
_cell_formula_units_Z   50
loop_
 _symmetry_equiv_pos_site_id
 _symmetry_equiv_pos_as_xyz
  1  'x, y, z'
loop_
 _atom_site_type_symbol
 _atom_site_label
 _atom_site_symmetry_multiplicity
 _atom_site_fract_x
 _atom_site_fract_y
 _atom_site_fract_z
 _atom_site_occupancy
  Zr  Zr0  1  0.69532247  0.30659686  0.10195140  1
  Zr  Zr1  1  0.49444059  0.50384537  0.89844149  1
  Zr  Zr2  1  0.09667307  0.70314603  0.70256001  1
  Zr  Zr3  1  0.30499686  0.69766764  0.10581857  1
  Zr  Zr4  1  0.90172848  0.89986659  0.30189406  1
  Zr  Zr5  1  0.91097621  0.09667973  0.30352315  1
  Zr  Zr6  1  0.70053496  0.90117977  0.50093639  1
  Zr  Zr7  1  0.09021527  0.49866498  0.69641258  1
  Zr  Zr8  1  0.09900885  0.50415473  0.29686839  1
  Zr  Zr9  1  0.50440737  0.09793362  0.49920054  1
  Zr  Zr10  1  0.90499346  0.90378702  0.10387868  1
  Zr  Zr11  1  0.90050152  0.50393729  0.89024146  1
  Zr  Zr12  1  0.70200586  0.50023766  0.70924178  1
  Zr  Zr13  1  0.69046328  0.89806707  0.90192660  1
  Zr  Zr14  1  0.49621283  0.30111723  0.09342041  1
  Zr  Zr15  1  0.90746410  0.50004314  0.09995115  1
  Zr  Zr16  1  0.50179051  0.09632420  0.70232086  1
  Zr  Zr17  1  0.10679593  0.69536813  0.10675886  1
  Zr  Zr18  1  0.70726751  0.89691188  0.30662744  1
  Zr  Zr19  1  0.30475012  0.50707807  0.49672023  1
  Zr  Zr20  1  0.90756372  0.50112023  0.50498645  1
  Zr  Zr21  1  0.29169816  0.29634491  0.69898441  1
  Zr  Zr22  1  0.49769364  0.50176551  0.10130573  1
  Zr  Zr23  1  0.70230090  0.89690307  0.09691972  1
  Zr  Zr24  1  0.49812793  0.08935987  0.90093452  1
  Zr  Zr25  1  0.29543271  0.09883678  0.29899603  1
  Zr  Zr26  1  0.29537625  0.09700073  0.49949326  1
  Zr  Zr27  1  0.29240259  0.69958131  0.30142577  1
  Zr  Zr28  1  0.29578766  0.30364916  0.10147988  1
  Zr  Zr29  1  0.90401111  0.29426047  0.50257710  1
  Zr  Zr30  1  0.10884602  0.10013274  0.89746705  1
  Zr  Zr31  1  0.90975934  0.70495814  0.89751418  1
  Zr  Zr32  1  0.70078396  0.09135166  0.89780574  1
  Zr  Zr33  1  0.90414808  0.68905302  0.70089780  1
  Zr  Zr34  1  0.90351030  0.30264199  0.09577711  1
  Zr  Zr35  1  0.09553169  0.30128530  0.49935554  1
  Zr  Zr36  1  0.90556258  0.30463197  0.90797414  1
  Zr  Zr37  1  0.50149266  0.49757855  0.49562173  1
  Zr  Zr38  1  0.29050456  0.29518106  0.29802620  1
  Zr  Zr39  1  0.89320541  0.89910122  0.49624118  1
  Zr  Zr40  1  0.30797599  0.89324463  0.69556308  1
  Zr  Zr41  1  0.09716610  0.50132780  0.49540850  1
  Zr  Zr42  1  0.30613719  0.89244818  0.29582592  1
  Zr  Zr43  1  0.49109215  0.09802368  0.09358112  1
  Zr  Zr44  1  0.89719304  0.90139583  0.90551698  1
  Zr  Zr45  1  0.69217350  0.50295994  0.50176228  1
  Zr  Zr46  1  0.09673705  0.89756034  0.90083194  1
  Zr  Zr47  1  0.69687484  0.89936915  0.69904859  1
  Zr  Zr48  1  0.69942660  0.29876510  0.29839692  1
  Zr  Zr49  1  0.69250895  0.69789895  0.09842094  1
  Sc  Sc50  1  0.10009388  0.30446357  0.09348905  1
  Sc  Sc51  1  0.89703127  0.69692640  0.50641257  1
  Sc  Sc52  1  0.50268189  0.10431796  0.30583506  1
  Sc  Sc53  1  0.29705283  0.30950543  0.90077660  1
  Sc  Sc54  1  0.49561417  0.70966262  0.70357442  1
  Sc  Sc55  1  0.10141743  0.89848426  0.10291637  1
  Sc  Sc56  1  0.89899580  0.70251958  0.29666245  1
  Sc  Sc57  1  0.09644625  0.30459206  0.89731353  1
  Sc  Sc58  1  0.30317503  0.90913291  0.10064512  1
  Sc  Sc59  1  0.70454128  0.10299843  0.69968132  1
  Sc  Sc60  1  0.69678818  0.69608327  0.69324773  1
  Sc  Sc61  1  0.09707461  0.10362207  0.50131932  1
  Sc  Sc62  1  0.49872380  0.30648615  0.90198418  1
  Sc  Sc63  1  0.70043341  0.29336297  0.50639720  1
  Sc  Sc64  1  0.50638938  0.49939894  0.70408377  1
  Sc  Sc65  1  0.30213947  0.49642828  0.29715245  1
  Sc  Sc66  1  0.90030065  0.70393116  0.09689663  1
  Sc  Sc67  1  0.28940334  0.29867026  0.49475992  1
  Sc  Sc68  1  0.30057584  0.50228629  0.09669259  1
  Sc  Sc69  1  0.69788983  0.29620803  0.70143473  1
  Sc  Sc70  1  0.50799323  0.29818102  0.49845364  1
  Sc  Sc71  1  0.28820034  0.09530890  0.70414184  1
  Sc  Sc72  1  0.70627319  0.10336878  0.50340124  1
  Sc  Sc73  1  0.69613672  0.10256420  0.08572778  1
  Sc  Sc74  1  0.10010983  0.29680976  0.69952005  1
  Sc  Sc75  1  0.10877350  0.89662300  0.50749247  1
  Sc  Sc76  1  0.49808361  0.69750573  0.29047088  1
  Sc  Sc77  1  0.09913305  0.90198014  0.69974972  1
  Sc  Sc78  1  0.69880135  0.29963453  0.89768180  1
  Sc  Sc79  1  0.90703612  0.30317678  0.30156531  1
  Sc  Sc80  1  0.90267205  0.10349252  0.50547212  1
  Sc  Sc81  1  0.91102830  0.49703717  0.29480465  1
  Sc  Sc82  1  0.50147607  0.30075113  0.30091248  1
  Sc  Sc83  1  0.88928852  0.11188795  0.90585807  1
  Sc  Sc84  1  0.69555882  0.70101763  0.50129489  1
  Sc  Sc85  1  0.89901027  0.89763530  0.69178175  1
  Sc  Sc86  1  0.29560794  0.08934510  0.90864683  1
  Sc  Sc87  1  0.10593617  0.09860721  0.30347595  1
  Sc  Sc88  1  0.09850513  0.90348034  0.29270046  1
  Sc  Sc89  1  0.90759950  0.30241683  0.70867596  1
  Sc  Sc90  1  0.49399307  0.69571215  0.50473174  1
  Sc  Sc91  1  0.49714935  0.50235411  0.30691859  1
  Sc  Sc92  1  0.51009506  0.30229117  0.70542049  1
  Sc  Sc93  1  0.49542210  0.89397114  0.10230972  1
  Sc  Sc94  1  0.49945056  0.69746517  0.09987686  1
  Sc  Sc95  1  0.10239150  0.10560828  0.69866809  1
  Sc  Sc96  1  0.30040599  0.68044543  0.89386784  1
  Sc  Sc97  1  0.10353098  0.49812872  0.10415025  1
  Sc  Sc98  1  0.29711553  0.50277474  0.71143953  1
  Sc  Sc99  1  0.68342309  0.49783528  0.29919467  1
  Nb  Nb100  1  0.49890675  0.89730945  0.50378585  1
  Nb  Nb101  1  0.69782693  0.69820322  0.30126625  1
  Nb  Nb102  1  0.50313888  0.90264839  0.30505673  1
  Nb  Nb103  1  0.10554598  0.10036550  0.09781682  1
  Nb  Nb104  1  0.29361311  0.70976385  0.50385122  1
  Nb  Nb105  1  0.30775122  0.88821418  0.50105194  1
  Nb  Nb106  1  0.70076217  0.69703073  0.90968057  1
  Nb  Nb107  1  0.89841606  0.10053429  0.69671344  1
  Nb  Nb108  1  0.11140229  0.51047313  0.89775980  1
  Nb  Nb109  1  0.70112464  0.50480137  0.09776909  1
  Nb  Nb110  1  0.10943281  0.69698398  0.49264058  1
  Nb  Nb111  1  0.29717147  0.50234275  0.90161590  1
  Nb  Nb112  1  0.90125520  0.10676461  0.09636332  1
  Nb  Nb113  1  0.29604078  0.89942055  0.89668601  1
  Nb  Nb114  1  0.10361689  0.69591845  0.30223784  1
  Nb  Nb115  1  0.29613358  0.10135990  0.10015414  1
  Nb  Nb116  1  0.10297348  0.29870322  0.29762374  1
  Nb  Nb117  1  0.70240657  0.51027017  0.90604307  1
  Nb  Nb118  1  0.29770737  0.70188585  0.69344431  1
  Nb  Nb119  1  0.89981809  0.50283150  0.69665182  1
  Nb  Nb120  1  0.49345597  0.89352003  0.88283607  1
  Nb  Nb121  1  0.10010223  0.70291476  0.89896803  1
  Nb  Nb122  1  0.50073802  0.70635322  0.90188724  1
  Nb  Nb123  1  0.70068420  0.09771774  0.29781380  1
  Nb  Nb124  1  0.50083603  0.89898007  0.70348605  1
  Nb  Nb125  1  0.79761615  0.79540661  0.80465897  1
  Nb  Nb126  1  0.59470388  -0.00730149  0.60094613  1
  Nb  Nb127  1  0.20496598  0.79608660  0.80262768  1
  Nb  Nb128  1  0.39982361  -0.01063677  0.40507819  1
  Nb  Nb129  1  0.79517210  0.41186463  0.00008971  1
  Nb  Nb130  1  0.79547068  0.59494945  0.39380113  1
  Nb  Nb131  1  0.39277465  0.19711463  0.19427624  1
  Nb  Nb132  1  0.39858871  0.39647318  0.60056088  1
  Nb  Nb133  1  0.00731531  0.79372489  0.40140534  1
  Nb  Nb134  1  0.00827074  0.60279017  -0.00610617  1
  Nb  Nb135  1  0.79236545  0.59701449  0.19994711  1
  Nb  Nb136  1  0.39586627  0.79962187  -0.01368251  1
  Nb  Nb137  1  0.80303333  0.19527983  0.19886967  1
  Nb  Nb138  1  0.00307939  0.19685437  0.19457064  1
  Nb  Nb139  1  0.00133851  0.00846428  -0.00019509  1
  Nb  Nb140  1  -0.00569774  0.00523595  0.80343008  1
  Nb  Nb141  1  0.20138214  0.60686241  0.59642037  1
  Nb  Nb142  1  0.80440757  0.40503972  0.60167714  1
  Nb  Nb143  1  0.79946131  0.40502782  0.40495651  1
  Nb  Nb144  1  0.79844678  0.00836201  0.19925650  1
  Nb  Nb145  1  0.39767528  0.19785103  0.79875769  1
  Nb  Nb146  1  0.60452134  -0.00047072  0.20516799  1
  Nb  Nb147  1  0.20615992  0.79556143  -0.00594032  1
  Nb  Nb148  1  0.59699653  0.80409559  0.39861410  1
  Nb  Nb149  1  0.39921859  0.20225201  0.60430826  1
  Pd  Pd150  1  0.19845691  0.40493053  0.00039682  1
  Pd  Pd151  1  0.80003701  0.40364172  0.20326747  1
  Pd  Pd152  1  0.79451925  0.61070568  0.80095632  1
  Pd  Pd153  1  0.19231571  0.81034824  0.39326070  1
  Pd  Pd154  1  0.59226379  0.60245244  0.60429129  1
  Pd  Pd155  1  0.20201738  0.20613767  -0.00480485  1
  Pd  Pd156  1  -0.00050358  0.00281987  0.60287134  1
  Pd  Pd157  1  0.60883464  0.78955030  0.79997558  1
  Pd  Pd158  1  0.80271098  0.01106618  0.40173739  1
  Pd  Pd159  1  0.80021829  0.79658216  -0.00198214  1
  Pd  Pd160  1  0.00444598  0.79361192  0.20546567  1
  Pd  Pd161  1  -0.00282349  0.19301784  0.80149964  1
  Pd  Pd162  1  0.00955491  -0.01037939  0.41090057  1
  Pd  Pd163  1  0.79928923  0.79569588  0.19846529  1
  Pd  Pd164  1  0.40449346  0.60305356  0.79428024  1
  Pd  Pd165  1  0.60149075  0.39665217  0.60253052  1
  Pd  Pd166  1  0.40168538  0.39512122  0.20314464  1
  Pd  Pd167  1  0.40902721  0.79394411  0.39812685  1
  Pd  Pd168  1  0.59027241  0.40435788  0.20171929  1
  Pd  Pd169  1  0.39909114  0.61061383  0.39591656  1
  Pd  Pd170  1  0.19942321  -0.00294874  0.19812454  1
  Pd  Pd171  1  0.39040962  0.20243038  -0.00646938  1
  Pd  Pd172  1  0.59084869  0.60015990  -0.00088673  1
  Pd  Pd173  1  0.39945292  0.38956189  0.40605600  1
  Pd  Pd174  1  0.60343417  0.40653763  -0.00677579  1
  Pd  Pd175  1  0.39969055  0.39435462  0.79530669  1
  Pd  Pd176  1  0.40808142  0.00681405  0.20820717  1
  Pd  Pd177  1  0.39762149  0.59449901  0.60879404  1
  Pd  Pd178  1  0.79742502  0.39617973  0.80149968  1
  Pd  Pd179  1  0.59584878  0.19133159  0.19556137  1
  Pd  Pd180  1  0.20342292  -0.01091594  0.40240516  1
  Pd  Pd181  1  0.20000688  -0.00293586  0.60178632  1
  Pd  Pd182  1  0.19851968  0.40482250  0.39572898  1
  Pd  Pd183  1  0.59698079  0.80444606  0.20517240  1
  Pd  Pd184  1  0.60657578  0.20137252  0.40207314  1
  Pd  Pd185  1  0.00143326  0.79645884  0.59195500  1
  Pd  Pd186  1  0.80282488  0.20613116  0.79887018  1
  Pd  Pd187  1  0.19379069  0.40052703  0.79967765  1
  Pd  Pd188  1  0.20596886  0.41055158  0.59961769  1
  Pd  Pd189  1  0.40151876  0.00377905  0.59751087  1
  Pd  Pd190  1  0.39045864  0.00520837  0.79982290  1
  Pd  Pd191  1  0.39846531  0.19862407  0.40103861  1
  Pd  Pd192  1  0.58807990  -0.01155583  0.00468786  1
  Pd  Pd193  1  0.80308970  0.20386111  0.39382746  1
  Pd  Pd194  1  -0.00956304  0.60813550  0.39757749  1
  Pd  Pd195  1  0.80629019  -0.00574318  0.79494451  1
  Pd  Pd196  1  0.59496396  0.19822457  0.80734494  1
  Pd  Pd197  1  0.80031237  0.79358750  0.60553161  1
  Pd  Pd198  1  0.59828479  0.60797641  0.80205137  1
  Pd  Pd199  1  0.60037170  0.20126511  -0.00788071  1
  Rh  Rh200  1  -0.00596169  0.39328809  0.60425867  1
  Rh  Rh201  1  0.19516603  -0.00832660  0.00673916  1
  Rh  Rh202  1  0.19669334  0.40307966  0.19951797  1
  Rh  Rh203  1  0.60031833  0.59661206  0.20069034  1
  Rh  Rh204  1  0.19472811  -0.00921422  0.79466802  1
  Rh  Rh205  1  0.20125597  0.19785300  0.59460414  1
  Rh  Rh206  1  0.40203601  -0.01356864  -0.00567900  1
  Rh  Rh207  1  0.79042469  0.21349487  0.00541774  1
  Rh  Rh208  1  0.01047542  0.60777589  0.59481765  1
  Rh  Rh209  1  0.19853836  0.60266374  0.00189952  1
  Rh  Rh210  1  0.80132486  0.78464693  0.40400851  1
  Rh  Rh211  1  0.79511487  0.00433393  0.60022115  1
  Rh  Rh212  1  0.39021900  0.79201858  0.80254181  1
  Rh  Rh213  1  0.20257584  0.80323180  0.19611122  1
  Rh  Rh214  1  0.20582955  0.59353884  0.20491358  1
  Rh  Rh215  1  0.60531069  0.39228178  0.39987833  1
  Rh  Rh216  1  0.00579297  0.40617766  0.80199818  1
  Rh  Rh217  1  0.59602351  0.19071619  0.60181446  1
  Rh  Rh218  1  0.60628922  0.40589527  0.80827954  1
  Rh  Rh219  1  0.79618549  0.59254483  0.59450807  1
  Rh  Rh220  1  0.80684022  0.00097005  0.00807277  1
  Rh  Rh221  1  0.01185673  0.79708080  0.01143867  1
  Rh  Rh222  1  -0.00387244  0.81135962  0.79279274  1
  Rh  Rh223  1  0.59868165  0.61234084  0.39869384  1
  Rh  Rh224  1  -0.00009403  0.39711278  0.39551403  1
  Rh  Rh225  1  0.00039160  0.19990364  0.60654914  1
  Rh  Rh226  1  0.81130595  0.59825121  0.00625533  1
  Rh  Rh227  1  0.00740856  0.20228344  0.39214677  1
  Rh  Rh228  1  0.00105303  0.41612252  -0.01021115  1
  Rh  Rh229  1  0.60281835  -0.00021572  0.79437420  1
  Rh  Rh230  1  0.59758773  -0.00437341  0.40277973  1
  Rh  Rh231  1  0.19197858  0.19860738  0.40378133  1
  Rh  Rh232  1  0.40081990  0.79916385  0.19573775  1
  Rh  Rh233  1  0.20639566  0.20297537  0.80775891  1
  Rh  Rh234  1  0.01203159  0.19355972  0.00219528  1
  Rh  Rh235  1  0.80740201  0.20792335  0.60969142  1
  Rh  Rh236  1  0.39929391  0.59645126  0.20224532  1
  Rh  Rh237  1  0.40141266  0.60239132  -0.00187646  1
  Rh  Rh238  1  -0.00072844  0.01122766  0.19046111  1
  Rh  Rh239  1  0.40687380  0.79689657  0.60033276  1
  Rh  Rh240  1  -0.00441420  0.60703124  0.19301413  1
  Rh  Rh241  1  0.39608674  0.40854464  -0.00248432  1
  Rh  Rh242  1  0.19549920  0.60388254  0.78998789  1
  Rh  Rh243  1  0.19664928  0.20018322  0.19537229  1
  Rh  Rh244  1  0.01058835  0.38969898  0.20229920  1
  Rh  Rh245  1  0.19753856  0.79736771  0.60643435  1
  Rh  Rh246  1  0.00689734  0.59396273  0.80375773  1
  Rh  Rh247  1  0.20700544  0.59672242  0.40116072  1
  Rh  Rh248  1  0.58830503  0.80378531  -0.00356481  1
  Rh  Rh249  1  0.59425700  0.80341682  0.59568567  1
