# generated using pymatgen
data_ZrScNbPdRh
_symmetry_space_group_name_H-M   'P 1'
_cell_length_a   16.55788423
_cell_length_b   16.55966142
_cell_length_c   16.56220021
_cell_angle_alpha   90.00756150
_cell_angle_beta   89.98316023
_cell_angle_gamma   90.01116555
_symmetry_Int_Tables_number   1
_chemical_formula_structural   ZrScNbPdRh
_chemical_formula_sum   'Zr50 Sc50 Nb50 Pd50 Rh50'
_cell_volume   4541.23832456
_cell_formula_units_Z   50
loop_
 _symmetry_equiv_pos_site_id
 _symmetry_equiv_pos_as_xyz
  1  'x, y, z'
loop_
 _atom_site_type_symbol
 _atom_site_label
 _atom_site_symmetry_multiplicity
 _atom_site_fract_x
 _atom_site_fract_y
 _atom_site_fract_z
 _atom_site_occupancy
  Zr  Zr0  1  0.09502021  0.29648354  0.30332377  1
  Zr  Zr1  1  0.30661514  0.09074305  0.69834323  1
  Zr  Zr2  1  0.30395309  0.49580089  0.29518533  1
  Zr  Zr3  1  0.50591952  0.49398587  0.49380720  1
  Zr  Zr4  1  0.89133308  0.30049884  0.11181510  1
  Zr  Zr5  1  0.69295092  0.10084386  0.49726042  1
  Zr  Zr6  1  0.29818085  0.90711432  0.50097660  1
  Zr  Zr7  1  0.69810280  0.70657659  0.70233193  1
  Zr  Zr8  1  0.50176527  0.70248500  0.90040101  1
  Zr  Zr9  1  0.11779019  0.88849961  0.69323296  1
  Zr  Zr10  1  0.70249588  0.89925819  0.49393357  1
  Zr  Zr11  1  0.50145823  0.70488197  0.09621544  1
  Zr  Zr12  1  0.70018540  0.49710931  0.50354403  1
  Zr  Zr13  1  0.10163954  0.49703996  0.49943256  1
  Zr  Zr14  1  0.10472326  0.69805003  0.89235298  1
  Zr  Zr15  1  0.09891903  0.70481991  0.49997989  1
  Zr  Zr16  1  0.49277270  0.50079801  0.10343720  1
  Zr  Zr17  1  0.09737398  0.29807986  0.10336022  1
  Zr  Zr18  1  0.70013648  0.89772425  0.89808488  1
  Zr  Zr19  1  0.89342977  0.69743163  0.69486597  1
  Zr  Zr20  1  0.90087793  0.08912858  0.49002820  1
  Zr  Zr21  1  0.09912957  0.49794398  0.89147525  1
  Zr  Zr22  1  0.29178298  0.48969743  0.89914667  1
  Zr  Zr23  1  0.90014313  0.49823656  0.90157015  1
  Zr  Zr24  1  0.90008518  0.09815191  0.89738129  1
  Zr  Zr25  1  0.30728953  0.10506449  0.50171210  1
  Zr  Zr26  1  0.09935603  0.49483249  0.10463498  1
  Zr  Zr27  1  0.30148470  0.30973908  0.09179132  1
  Zr  Zr28  1  0.49655075  0.29440302  0.11077823  1
  Zr  Zr29  1  0.50028248  0.29744625  0.69965029  1
  Zr  Zr30  1  0.49761473  0.09931429  0.89766048  1
  Zr  Zr31  1  0.30626750  0.10256261  0.89918469  1
  Zr  Zr32  1  0.29927432  0.09252723  0.30257549  1
  Zr  Zr33  1  0.69615953  0.89762747  0.10063739  1
  Zr  Zr34  1  0.49734810  0.50493809  0.89408986  1
  Zr  Zr35  1  0.70243526  0.69948282  0.30047089  1
  Zr  Zr36  1  0.69930612  0.69728085  0.50092538  1
  Zr  Zr37  1  0.69470548  0.50213683  0.30593345  1
  Zr  Zr38  1  0.69454881  0.10066950  0.69698806  1
  Zr  Zr39  1  0.70520074  0.10086785  0.30375382  1
  Zr  Zr40  1  0.10513028  0.69721446  0.10959082  1
  Zr  Zr41  1  0.10183972  0.09971152  0.29943826  1
  Zr  Zr42  1  0.89964398  0.49573256  0.10879829  1
  Zr  Zr43  1  0.90116189  0.50862068  0.50459499  1
  Zr  Zr44  1  0.30516688  0.29715399  0.29751293  1
  Zr  Zr45  1  0.90731428  0.10620008  0.70106283  1
  Zr  Zr46  1  0.31016727  0.70699288  0.89826950  1
  Zr  Zr47  1  0.69688949  0.70430947  0.09963384  1
  Zr  Zr48  1  0.49001726  0.29906025  0.89910205  1
  Zr  Zr49  1  0.50571762  0.89497025  0.49338075  1
  Sc  Sc50  1  0.90226503  0.90223981  0.31203661  1
  Sc  Sc51  1  0.90815915  0.70163923  0.31715503  1
  Sc  Sc52  1  0.10050753  0.09078482  0.10627577  1
  Sc  Sc53  1  0.30119904  0.70047779  0.11180979  1
  Sc  Sc54  1  0.49630559  0.10600821  0.29552332  1
  Sc  Sc55  1  0.88757390  0.70227674  0.89965552  1
  Sc  Sc56  1  0.09643682  0.90433188  0.90149495  1
  Sc  Sc57  1  0.49969094  0.29801267  0.30372649  1
  Sc  Sc58  1  0.69570950  0.29741278  0.28539501  1
  Sc  Sc59  1  0.50328555  0.50151476  0.70187896  1
  Sc  Sc60  1  0.89559179  0.70615728  0.09489322  1
  Sc  Sc61  1  0.10321058  0.10303339  0.49096066  1
  Sc  Sc62  1  0.91685413  0.31233371  0.51047538  1
  Sc  Sc63  1  0.69923912  0.50258777  0.69665388  1
  Sc  Sc64  1  0.30213680  0.91102140  0.09858405  1
  Sc  Sc65  1  0.29913814  0.10363143  0.09865042  1
  Sc  Sc66  1  0.90981511  0.09628233  0.29921614  1
  Sc  Sc67  1  0.69131568  0.50757933  0.10477080  1
  Sc  Sc68  1  0.49905468  0.09938832  0.69631949  1
  Sc  Sc69  1  0.30042382  0.29675001  0.68557196  1
  Sc  Sc70  1  0.69383485  0.70152443  0.90254754  1
  Sc  Sc71  1  0.89983243  0.89996154  0.90482159  1
  Sc  Sc72  1  0.69233173  0.50736005  0.89700043  1
  Sc  Sc73  1  0.89237505  0.09716477  0.09835130  1
  Sc  Sc74  1  0.89333143  0.88533563  0.69571030  1
  Sc  Sc75  1  0.29516484  0.49165999  0.49497685  1
  Sc  Sc76  1  0.10676857  0.91410089  0.29630230  1
  Sc  Sc77  1  0.49813894  0.69882276  0.71072700  1
  Sc  Sc78  1  0.30760548  0.30215886  0.49670500  1
  Sc  Sc79  1  0.09960726  0.09713676  0.70299352  1
  Sc  Sc80  1  0.09505643  0.29958978  0.69282150  1
  Sc  Sc81  1  0.89817646  0.30075853  0.88889145  1
  Sc  Sc82  1  0.49589346  0.89478318  0.90804538  1
  Sc  Sc83  1  0.90611227  0.49935317  0.30183854  1
  Sc  Sc84  1  0.29968482  0.69158484  0.29976928  1
  Sc  Sc85  1  0.69465769  0.89476957  0.30373891  1
  Sc  Sc86  1  0.69133771  0.89235851  0.69547924  1
  Sc  Sc87  1  0.69678724  0.29879744  0.89142754  1
  Sc  Sc88  1  0.89422005  0.49220983  0.69935892  1
  Sc  Sc89  1  0.30534469  0.90229956  0.89696910  1
  Sc  Sc90  1  0.50095259  0.49738952  0.29881670  1
  Sc  Sc91  1  0.10668385  0.31212827  0.90145575  1
  Sc  Sc92  1  0.70053525  0.10195485  0.10313233  1
  Sc  Sc93  1  0.09995917  0.50621047  0.30240609  1
  Sc  Sc94  1  0.70179228  0.09570239  0.90460969  1
  Sc  Sc95  1  0.89963438  0.89955168  0.09458317  1
  Sc  Sc96  1  0.70047054  0.30914854  0.69904346  1
  Sc  Sc97  1  0.28999120  0.70571468  0.70749574  1
  Sc  Sc98  1  0.49742484  0.69138275  0.30556478  1
  Sc  Sc99  1  0.09777161  0.09599602  0.89878895  1
  Nb  Nb100  1  0.29747028  0.50249178  0.70156892  1
  Nb  Nb101  1  0.89535451  0.29522064  0.69499448  1
  Nb  Nb102  1  0.49871217  0.89350026  0.69517027  1
  Nb  Nb103  1  0.50463794  0.29457199  0.49767164  1
  Nb  Nb104  1  0.49836879  0.09185766  0.10233781  1
  Nb  Nb105  1  0.10269497  0.69789381  0.70159746  1
  Nb  Nb106  1  0.90652521  0.88874609  0.49886745  1
  Nb  Nb107  1  0.49816357  0.90440917  0.10419326  1
  Nb  Nb108  1  0.69312709  0.29770010  0.49670897  1
  Nb  Nb109  1  0.90435707  0.70919428  0.50437833  1
  Nb  Nb110  1  0.30049230  0.50138511  0.10208596  1
  Nb  Nb111  1  0.30631716  0.89896765  0.69389387  1
  Nb  Nb112  1  0.30405406  0.70176939  0.49675675  1
  Nb  Nb113  1  0.30605269  0.90720715  0.30566739  1
  Nb  Nb114  1  0.11411503  0.51148499  0.70656925  1
  Nb  Nb115  1  0.29929721  0.29834504  0.89862355  1
  Nb  Nb116  1  0.50899363  0.12067119  0.49819467  1
  Nb  Nb117  1  0.89273493  0.30254579  0.29611431  1
  Nb  Nb118  1  0.70012740  0.29727254  0.10018436  1
  Nb  Nb119  1  0.49457984  0.69751819  0.50287313  1
  Nb  Nb120  1  0.10413857  0.70437747  0.30084922  1
  Nb  Nb121  1  0.09980583  0.89707373  0.10263535  1
  Nb  Nb122  1  0.10793663  0.30629488  0.49707975  1
  Nb  Nb123  1  0.09878161  0.89410782  0.49998478  1
  Nb  Nb124  1  0.49110170  0.90665036  0.29528430  1
  Nb  Nb125  1  0.39532707  0.60374716  0.59731608  1
  Nb  Nb126  1  0.20771865  0.20214823  0.80193555  1
  Nb  Nb127  1  0.20241363  0.80344408  0.39855096  1
  Nb  Nb128  1  0.79091402  0.39749511  0.00503754  1
  Nb  Nb129  1  0.39278816  0.59780720  0.00098901  1
  Nb  Nb130  1  -0.00065244  -0.01191989  0.59463308  1
  Nb  Nb131  1  0.80441631  0.00155180  0.59818747  1
  Nb  Nb132  1  0.00781914  0.60436925  0.60661208  1
  Nb  Nb133  1  0.79753847  -0.00520488  0.20288384  1
  Nb  Nb134  1  0.39154736  0.39744958  0.79743911  1
  Nb  Nb135  1  0.79956443  0.60419161  0.20429869  1
  Nb  Nb136  1  0.20160341  0.59965598  0.00221795  1
  Nb  Nb137  1  0.80304609  0.20242864  0.59428137  1
  Nb  Nb138  1  -0.00362651  0.20268570  0.00065009  1
  Nb  Nb139  1  0.59836959  0.39355781  0.00353090  1
  Nb  Nb140  1  0.39825617  0.79796830  0.59789683  1
  Nb  Nb141  1  0.79887904  0.39263286  0.40218338  1
  Nb  Nb142  1  0.80450834  0.21116354  0.40369666  1
  Nb  Nb143  1  0.00372714  0.79277194  0.79404872  1
  Nb  Nb144  1  0.19818316  0.79891439  0.00567292  1
  Nb  Nb145  1  0.40201872  0.81082548  0.20620871  1
  Nb  Nb146  1  0.59627175  0.20294185  0.00567076  1
  Nb  Nb147  1  0.00882344  0.80254518  0.20148756  1
  Nb  Nb148  1  0.80071313  0.00033419  0.79071448  1
  Nb  Nb149  1  0.00431093  0.59786678  -0.00030278  1
  Pd  Pd150  1  0.39535362  0.79921447  0.39587505  1
  Pd  Pd151  1  0.80255671  0.59259810  0.00868460  1
  Pd  Pd152  1  -0.01013403  0.61136005  0.19935587  1
  Pd  Pd153  1  0.59831525  0.39738855  0.60203432  1
  Pd  Pd154  1  0.79511158  0.59617770  0.79888273  1
  Pd  Pd155  1  0.00260079  0.19300226  0.58896713  1
  Pd  Pd156  1  -0.00094758  0.00669458  0.00635439  1
  Pd  Pd157  1  0.41611658  -0.00097243  0.59029130  1
  Pd  Pd158  1  0.59082025  0.00526506  0.39316586  1
  Pd  Pd159  1  0.39840217  0.58844177  0.40465005  1
  Pd  Pd160  1  0.19506414  0.19541461  0.60219005  1
  Pd  Pd161  1  -0.00639606  -0.01821233  0.78641214  1
  Pd  Pd162  1  -0.00997655  0.39567670  0.00154039  1
  Pd  Pd163  1  0.20444062  0.19826664  0.19805248  1
  Pd  Pd164  1  0.19848212  0.39946473  0.60296997  1
  Pd  Pd165  1  0.20067820  0.60310126  0.39804822  1
  Pd  Pd166  1  0.58889978  0.79752296  0.20901610  1
  Pd  Pd167  1  0.79328679  0.19638849  0.79395226  1
  Pd  Pd168  1  0.00198065  0.39710856  0.78859096  1
  Pd  Pd169  1  0.59924902  0.00388313  0.00016628  1
  Pd  Pd170  1  0.40431051  0.19451282  0.00815024  1
  Pd  Pd171  1  0.79436963  0.40378849  0.80475840  1
  Pd  Pd172  1  0.20500045  0.60384975  0.59655700  1
  Pd  Pd173  1  0.80502917  0.59740837  0.39875491  1
  Pd  Pd174  1  0.01311124  0.21092251  0.80885944  1
  Pd  Pd175  1  0.60174734  0.19790186  0.80364573  1
  Pd  Pd176  1  0.20653298  0.20440072  0.40283130  1
  Pd  Pd177  1  0.81489304  0.80134032  0.20802953  1
  Pd  Pd178  1  0.00575803  0.79197396  -0.00163654  1
  Pd  Pd179  1  0.59481159  0.79256898  0.39320305  1
  Pd  Pd180  1  0.20670906  0.81225290  0.20488682  1
  Pd  Pd181  1  0.79878515  0.20691415  -0.00584481  1
  Pd  Pd182  1  0.19206841  0.00922837  0.59469274  1
  Pd  Pd183  1  0.41293659  0.01144081  0.40883296  1
  Pd  Pd184  1  0.20116502  -0.00432567  -0.00291635  1
  Pd  Pd185  1  -0.01052864  0.60353239  0.79858833  1
  Pd  Pd186  1  0.20215473  0.00119326  0.80219171  1
  Pd  Pd187  1  0.19006990  0.19912040  -0.00604148  1
  Pd  Pd188  1  0.40293159  0.40872841  0.60207842  1
  Pd  Pd189  1  0.60565543  0.00317267  0.20653837  1
  Pd  Pd190  1  -0.00314480  0.40069249  0.39645608  1
  Pd  Pd191  1  0.59200765  0.60515644  0.60519664  1
  Pd  Pd192  1  0.19653546  0.39883417  0.20566914  1
  Pd  Pd193  1  0.00796697  0.41204926  0.61175163  1
  Pd  Pd194  1  0.59733744  -0.00236493  0.59728054  1
  Pd  Pd195  1  0.59908414  0.40133817  0.19797212  1
  Pd  Pd196  1  0.59796959  -0.00762665  0.79741421  1
  Pd  Pd197  1  -0.00619540  0.20762401  0.40623985  1
  Pd  Pd198  1  -0.00565441  0.19390354  0.19437045  1
  Pd  Pd199  1  0.40919900  -0.00865764  0.80065163  1
  Rh  Rh200  1  0.20215792  0.59131021  0.20335403  1
  Rh  Rh201  1  0.19923196  0.81017812  0.81062548  1
  Rh  Rh202  1  0.40074112  0.39757119  0.20444961  1
  Rh  Rh203  1  0.60701747  0.60497176  0.79524663  1
  Rh  Rh204  1  0.40415340  0.40754002  -0.00631066  1
  Rh  Rh205  1  0.00453360  0.60223975  0.40903657  1
  Rh  Rh206  1  0.60489153  0.20525146  0.38836931  1
  Rh  Rh207  1  0.39154564  0.79797092  0.01549892  1
  Rh  Rh208  1  0.39977482  0.19987484  0.40017964  1
  Rh  Rh209  1  0.19744306  -0.00191002  0.40542903  1
  Rh  Rh210  1  0.80246813  0.60257799  0.59832350  1
  Rh  Rh211  1  0.59195782  0.40203614  0.80378893  1
  Rh  Rh212  1  0.60385909  0.39247542  0.39581430  1
  Rh  Rh213  1  0.40357920  0.60610612  0.19662289  1
  Rh  Rh214  1  0.40554783  0.39815672  0.39967299  1
  Rh  Rh215  1  0.01019855  -0.00691441  0.40457516  1
  Rh  Rh216  1  0.79602204  -0.00438289  0.00169347  1
  Rh  Rh217  1  0.40565397  0.19849093  0.59875324  1
  Rh  Rh218  1  0.20549587  0.00079430  0.19785804  1
  Rh  Rh219  1  0.60159788  0.60658485  0.20316308  1
  Rh  Rh220  1  0.59618006  0.60260441  0.40355527  1
  Rh  Rh221  1  0.40151241  0.80665146  0.79007113  1
  Rh  Rh222  1  0.20026790  0.39384600  0.39399643  1
  Rh  Rh223  1  0.00527234  0.39717653  0.21009227  1
  Rh  Rh224  1  0.59643652  0.19205295  0.19560122  1
  Rh  Rh225  1  0.79963825  0.79767189  0.40454561  1
  Rh  Rh226  1  0.79742201  0.39247506  0.59301197  1
  Rh  Rh227  1  0.59391127  0.80313651  0.80291842  1
  Rh  Rh228  1  0.79021505  0.41231423  0.20327597  1
  Rh  Rh229  1  0.01326641  0.80740901  0.38849574  1
  Rh  Rh230  1  0.39569328  0.00192003  0.19635095  1
  Rh  Rh231  1  0.58851736  0.59433617  0.00005790  1
  Rh  Rh232  1  0.21119488  0.79399067  0.59109492  1
  Rh  Rh233  1  -0.01023379  -0.00945322  0.19644734  1
  Rh  Rh234  1  0.39439132  0.19595447  0.19869848  1
  Rh  Rh235  1  0.40181247  0.00260706  0.00088117  1
  Rh  Rh236  1  0.59995831  0.80684025  -0.00120370  1
  Rh  Rh237  1  0.79252276  0.80210647  0.59105438  1
  Rh  Rh238  1  0.59212710  0.79296623  0.59948753  1
  Rh  Rh239  1  0.80570438  0.18747408  0.20896294  1
  Rh  Rh240  1  0.60426874  0.20779340  0.60664315  1
  Rh  Rh241  1  0.79309530  0.80196292  -0.00278138  1
  Rh  Rh242  1  0.39013786  0.20507372  0.78730936  1
  Rh  Rh243  1  0.19783904  0.40315778  0.00596170  1
  Rh  Rh244  1  0.39186231  0.59283638  0.79800246  1
  Rh  Rh245  1  0.00268571  0.79731269  0.60960623  1
  Rh  Rh246  1  0.21091910  0.60281620  0.80630411  1
  Rh  Rh247  1  0.20656184  0.38782319  0.78280628  1
  Rh  Rh248  1  0.80358163  0.80674414  0.80652107  1
  Rh  Rh249  1  0.79938011  -0.00242738  0.39852211  1
