# generated using pymatgen
data_ZrScNbPdRh
_symmetry_space_group_name_H-M   'P 1'
_cell_length_a   16.55323810
_cell_length_b   16.55594465
_cell_length_c   16.55546810
_cell_angle_alpha   90.01856722
_cell_angle_beta   89.96141797
_cell_angle_gamma   89.98507288
_symmetry_Int_Tables_number   1
_chemical_formula_structural   ZrScNbPdRh
_chemical_formula_sum   'Zr50 Sc50 Nb50 Pd50 Rh50'
_cell_volume   4537.09900638
_cell_formula_units_Z   50
loop_
 _symmetry_equiv_pos_site_id
 _symmetry_equiv_pos_as_xyz
  1  'x, y, z'
loop_
 _atom_site_type_symbol
 _atom_site_label
 _atom_site_symmetry_multiplicity
 _atom_site_fract_x
 _atom_site_fract_y
 _atom_site_fract_z
 _atom_site_occupancy
  Zr  Zr0  1  0.69990417  0.70147387  0.29844577  1
  Zr  Zr1  1  0.70933642  0.89863588  0.50325037  1
  Zr  Zr2  1  0.49482556  0.49567418  0.70165039  1
  Zr  Zr3  1  0.09586141  0.10809527  0.09361411  1
  Zr  Zr4  1  0.08740289  0.90679720  0.49540885  1
  Zr  Zr5  1  0.29136795  0.09944219  0.70015301  1
  Zr  Zr6  1  0.29269086  0.70285892  0.70326297  1
  Zr  Zr7  1  0.29793339  0.50038466  0.09618417  1
  Zr  Zr8  1  0.69770260  0.30090876  0.10093838  1
  Zr  Zr9  1  0.70507982  0.29695071  0.70452262  1
  Zr  Zr10  1  0.71111867  0.70138033  0.70666098  1
  Zr  Zr11  1  0.10669715  0.50063078  0.90541950  1
  Zr  Zr12  1  0.50343934  0.49951534  0.09995921  1
  Zr  Zr13  1  0.09007414  0.29355408  0.69033033  1
  Zr  Zr14  1  0.70817673  0.09572873  0.49607161  1
  Zr  Zr15  1  0.10073217  0.89984110  0.30065636  1
  Zr  Zr16  1  0.49416192  0.29240617  0.49681163  1
  Zr  Zr17  1  0.89361966  0.09674189  0.90393628  1
  Zr  Zr18  1  0.10024003  0.31066428  0.29629255  1
  Zr  Zr19  1  0.09199473  0.69599179  0.10490209  1
  Zr  Zr20  1  0.89897219  0.89993837  0.90888641  1
  Zr  Zr21  1  0.30171493  0.29960859  0.69647275  1
  Zr  Zr22  1  0.50043306  0.89703826  0.50518157  1
  Zr  Zr23  1  0.69582954  0.49704310  0.29959828  1
  Zr  Zr24  1  0.70598103  0.50101248  0.50036608  1
  Zr  Zr25  1  0.30868393  0.70806090  0.09957111  1
  Zr  Zr26  1  0.30478909  0.50229443  0.89875137  1
  Zr  Zr27  1  0.70126126  0.50319011  0.09727863  1
  Zr  Zr28  1  0.50341088  0.10259210  0.08816057  1
  Zr  Zr29  1  0.70391680  0.90505308  0.89499347  1
  Zr  Zr30  1  0.29905668  0.10090008  0.49937095  1
  Zr  Zr31  1  0.50444894  0.70194344  0.29837911  1
  Zr  Zr32  1  0.69980350  0.70287259  0.50237534  1
  Zr  Zr33  1  0.70526389  0.29474032  0.90319013  1
  Zr  Zr34  1  0.90129532  0.70316324  0.09550187  1
  Zr  Zr35  1  0.10936356  0.09708667  0.90188459  1
  Zr  Zr36  1  0.89905112  0.49571921  0.50602871  1
  Zr  Zr37  1  0.51291252  0.70135725  0.10159197  1
  Zr  Zr38  1  0.91064353  0.30225638  0.50390169  1
  Zr  Zr39  1  0.70104914  0.90873565  0.29715832  1
  Zr  Zr40  1  0.49760532  0.70388477  0.49848441  1
  Zr  Zr41  1  0.09761132  0.89460242  0.69805231  1
  Zr  Zr42  1  0.09761203  0.69880355  0.89362079  1
  Zr  Zr43  1  0.30095045  0.29943571  0.29830910  1
  Zr  Zr44  1  0.89403865  0.30291668  0.89140168  1
  Zr  Zr45  1  0.49946719  0.89722974  0.09591554  1
  Zr  Zr46  1  0.10088921  0.50458087  0.11222113  1
  Zr  Zr47  1  0.89891776  0.69442561  0.89983229  1
  Zr  Zr48  1  0.70310571  0.09133206  0.70354658  1
  Zr  Zr49  1  0.90396176  0.09838864  0.09528512  1
  Sc  Sc50  1  0.90053189  0.89626075  0.09839124  1
  Sc  Sc51  1  0.89124837  0.10052065  0.30264650  1
  Sc  Sc52  1  0.50429654  0.71068231  0.70888645  1
  Sc  Sc53  1  0.10447651  0.09599191  0.29608627  1
  Sc  Sc54  1  0.49752917  0.29982109  0.68862698  1
  Sc  Sc55  1  0.90579412  0.70672614  0.29794914  1
  Sc  Sc56  1  0.90362917  0.30486208  0.70271955  1
  Sc  Sc57  1  0.89713429  0.29558264  0.29564638  1
  Sc  Sc58  1  0.70747236  0.30007248  0.29442727  1
  Sc  Sc59  1  0.29436978  0.90188104  0.70693086  1
  Sc  Sc60  1  0.29678043  0.90288328  0.48537165  1
  Sc  Sc61  1  0.29850836  0.49879898  0.70986499  1
  Sc  Sc62  1  0.89389271  0.70773067  0.49325488  1
  Sc  Sc63  1  0.49703484  0.70441100  0.90275724  1
  Sc  Sc64  1  0.30143127  0.29774073  0.49805907  1
  Sc  Sc65  1  0.89829445  0.09354520  0.49956901  1
  Sc  Sc66  1  0.50549245  0.30580790  0.29077561  1
  Sc  Sc67  1  0.50005673  0.30214989  0.10088520  1
  Sc  Sc68  1  0.70123610  0.09492009  0.10117308  1
  Sc  Sc69  1  0.89762556  0.10585067  0.69895447  1
  Sc  Sc70  1  0.49348747  0.90684156  0.29449667  1
  Sc  Sc71  1  0.70537982  0.30038491  0.49919234  1
  Sc  Sc72  1  0.49870904  0.09952345  0.69119139  1
  Sc  Sc73  1  0.30031936  0.89604559  0.90944970  1
  Sc  Sc74  1  0.29543031  0.30110717  0.90726872  1
  Sc  Sc75  1  0.29054330  0.49717341  0.49490536  1
  Sc  Sc76  1  0.28435195  0.48995800  0.28711572  1
  Sc  Sc77  1  0.90465187  0.89844866  0.30544493  1
  Sc  Sc78  1  0.70013373  0.09331984  0.90588205  1
  Sc  Sc79  1  0.89791683  0.29237196  0.10644559  1
  Sc  Sc80  1  0.50028086  0.29466901  0.91667118  1
  Sc  Sc81  1  0.50808143  0.49383294  0.49858284  1
  Sc  Sc82  1  0.70371390  0.70131786  0.90578860  1
  Sc  Sc83  1  0.69997331  0.89252871  0.70710394  1
  Sc  Sc84  1  0.89589561  0.89915545  0.69853969  1
  Sc  Sc85  1  0.10248024  0.89855209  0.90482936  1
  Sc  Sc86  1  0.10506661  0.10016518  0.69432411  1
  Sc  Sc87  1  0.08672633  0.48843512  0.48802463  1
  Sc  Sc88  1  0.29774246  0.30020302  0.09948347  1
  Sc  Sc89  1  0.09661027  0.49681948  0.71055397  1
  Sc  Sc90  1  0.50727949  0.89926137  0.89865547  1
  Sc  Sc91  1  0.09712938  0.29982612  0.89507040  1
  Sc  Sc92  1  0.30325914  0.69974050  0.89744237  1
  Sc  Sc93  1  0.29787351  0.70961126  0.49388939  1
  Sc  Sc94  1  0.29467223  0.09989159  0.09222796  1
  Sc  Sc95  1  0.90377635  0.49626293  0.30008042  1
  Sc  Sc96  1  0.10217048  0.89517815  0.09644592  1
  Sc  Sc97  1  0.30188695  0.72379033  0.30134985  1
  Sc  Sc98  1  0.71346503  0.49868208  0.90653761  1
  Sc  Sc99  1  0.48996843  0.09904584  0.49846905  1
  Nb  Nb100  1  0.09917943  0.50491061  0.29906551  1
  Nb  Nb101  1  0.09902602  0.29887537  0.49926274  1
  Nb  Nb102  1  0.09642307  0.70106099  0.50262788  1
  Nb  Nb103  1  0.50347699  0.50350894  0.89935468  1
  Nb  Nb104  1  0.69925953  0.70143213  0.10473782  1
  Nb  Nb105  1  0.50434123  0.89906529  0.70603478  1
  Nb  Nb106  1  0.70052069  0.50058460  0.70091646  1
  Nb  Nb107  1  0.69563486  0.09832477  0.30477428  1
  Nb  Nb108  1  0.90131600  0.50884943  0.09482288  1
  Nb  Nb109  1  0.09234577  0.29382371  0.10258769  1
  Nb  Nb110  1  0.90575796  0.69486209  0.70799032  1
  Nb  Nb111  1  0.50011830  0.09767354  0.90217146  1
  Nb  Nb112  1  0.89229407  0.50335116  0.70885566  1
  Nb  Nb113  1  0.49938048  0.50097307  0.29565992  1
  Nb  Nb114  1  0.10052745  0.10365814  0.50004315  1
  Nb  Nb115  1  0.89935920  0.90542022  0.49367238  1
  Nb  Nb116  1  0.09072481  0.69670891  0.30191162  1
  Nb  Nb117  1  0.90406080  0.49920239  0.90372643  1
  Nb  Nb118  1  0.30431850  0.89270432  0.11479169  1
  Nb  Nb119  1  0.09754318  0.70281870  0.69583785  1
  Nb  Nb120  1  0.49974595  0.10242456  0.29861040  1
  Nb  Nb121  1  0.29550314  0.91141260  0.28944876  1
  Nb  Nb122  1  0.69960023  0.89034109  0.09798352  1
  Nb  Nb123  1  0.30486354  0.09486648  0.30360135  1
  Nb  Nb124  1  0.30142393  0.10100618  0.89967273  1
  Nb  Nb125  1  0.19196105  0.39987979  0.59780796  1
  Nb  Nb126  1  0.39509464  0.59426182  0.39352580  1
  Nb  Nb127  1  0.60072802  0.19358960  0.39350460  1
  Nb  Nb128  1  0.40209592  0.19364568  0.80667286  1
  Nb  Nb129  1  0.40097918  0.00625920  0.80509941  1
  Nb  Nb130  1  0.40046013  0.19179057  0.20388796  1
  Nb  Nb131  1  0.40153371  0.59900175  0.20486776  1
  Nb  Nb132  1  0.00102768  0.00188856  0.19645551  1
  Nb  Nb133  1  0.19792775  0.19823241  0.39942549  1
  Nb  Nb134  1  0.79976104  0.60164884  0.19423079  1
  Nb  Nb135  1  -0.00282277  0.40388716  0.00453591  1
  Nb  Nb136  1  0.60308393  0.80434734  0.39917556  1
  Nb  Nb137  1  0.60278897  0.59171490  0.79981774  1
  Nb  Nb138  1  0.60179752  -0.00572043  0.60061541  1
  Nb  Nb139  1  0.59457474  0.19869894  0.80225930  1
  Nb  Nb140  1  0.19134652  0.60135152  0.59532909  1
  Nb  Nb141  1  -0.00072229  0.60520177  0.60595025  1
  Nb  Nb142  1  0.00286008  0.00046147  0.80313485  1
  Nb  Nb143  1  0.40142440  0.40655141  0.39186353  1
  Nb  Nb144  1  0.39854279  0.80079552  0.60518563  1
  Nb  Nb145  1  0.00796144  0.19978232  0.40252634  1
  Nb  Nb146  1  0.60053272  0.59966182  0.60731634  1
  Nb  Nb147  1  0.60024350  0.40027471  0.80322605  1
  Nb  Nb148  1  0.39797308  0.60456984  0.59599572  1
  Nb  Nb149  1  0.19168294  0.60378335  0.39610999  1
  Pd  Pd150  1  0.20410790  0.19765509  0.20246057  1
  Pd  Pd151  1  0.80430956  0.79879380  0.20229952  1
  Pd  Pd152  1  0.19672715  0.39268751  0.79426646  1
  Pd  Pd153  1  0.59784098  0.38897269  0.39814356  1
  Pd  Pd154  1  0.19490478  0.00381144  0.19006295  1
  Pd  Pd155  1  0.80433097  0.60403610  0.60154407  1
  Pd  Pd156  1  0.40046844  0.00834271  0.18963063  1
  Pd  Pd157  1  0.40185776  -0.00449020  0.39832554  1
  Pd  Pd158  1  0.80510372  0.39456145  0.39598939  1
  Pd  Pd159  1  0.20270081  0.20714861  0.80147587  1
  Pd  Pd160  1  0.60489686  0.40032433  0.60292576  1
  Pd  Pd161  1  0.19930084  -0.00977364  0.59304704  1
  Pd  Pd162  1  -0.00438571  0.00588037  0.60792724  1
  Pd  Pd163  1  0.20189834  0.60993765  -0.00044668  1
  Pd  Pd164  1  0.19053971  0.79941499  0.39993767  1
  Pd  Pd165  1  0.79583539  0.19168505  0.19852665  1
  Pd  Pd166  1  0.80530772  0.20227927  0.59777806  1
  Pd  Pd167  1  0.20053771  0.80420250  0.80666343  1
  Pd  Pd168  1  -0.00403737  0.60196804  0.40610367  1
  Pd  Pd169  1  -0.00736552  0.40178966  0.19493100  1
  Pd  Pd170  1  0.21148629  0.61569945  0.20979690  1
  Pd  Pd171  1  -0.00406177  0.20987421  -0.01049234  1
  Pd  Pd172  1  -0.00454971  0.80842018  0.80374039  1
  Pd  Pd173  1  0.81048993  0.39409431  0.00900628  1
  Pd  Pd174  1  0.39941768  -0.00877805  0.60888252  1
  Pd  Pd175  1  0.80737327  -0.00158147  0.19776612  1
  Pd  Pd176  1  0.39001794  0.40928413  0.58801166  1
  Pd  Pd177  1  0.20514983  -0.00650072  0.00690098  1
  Pd  Pd178  1  0.80187462  0.39571705  0.60604599  1
  Pd  Pd179  1  0.80862985  0.60057822  0.38954209  1
  Pd  Pd180  1  -0.01147460  0.79661387  0.59523195  1
  Pd  Pd181  1  0.39527587  -0.00633719  -0.00070137  1
  Pd  Pd182  1  0.19975977  0.79327913  0.00173733  1
  Pd  Pd183  1  0.59630414  0.60173919  0.40648268  1
  Pd  Pd184  1  0.19147794  0.79466576  0.20149602  1
  Pd  Pd185  1  0.60245416  0.19080253  0.59551866  1
  Pd  Pd186  1  0.40940479  0.38439269  0.81152173  1
  Pd  Pd187  1  0.20396965  0.80440852  0.59288141  1
  Pd  Pd188  1  0.40030948  0.39925071  -0.00109059  1
  Pd  Pd189  1  -0.00067501  0.18940218  0.80300344  1
  Pd  Pd190  1  0.60415164  0.80112198  -0.00754808  1
  Pd  Pd191  1  0.59843764  0.19941477  0.20108329  1
  Pd  Pd192  1  0.59288291  -0.00003521  0.40770750  1
  Pd  Pd193  1  0.40508277  0.60430597  0.00525775  1
  Pd  Pd194  1  0.18913482  0.39260421  0.00741220  1
  Pd  Pd195  1  0.60134015  0.40356904  -0.00498548  1
  Pd  Pd196  1  0.59774535  -0.00093873  0.19219417  1
  Pd  Pd197  1  0.81020694  0.79950180  0.60362624  1
  Pd  Pd198  1  0.00295769  0.59359596  0.79933452  1
  Pd  Pd199  1  0.40589370  0.60694736  0.79484757  1
  Rh  Rh200  1  0.40227768  0.20647788  0.38875043  1
  Rh  Rh201  1  -0.00158748  0.00927628  0.39236496  1
  Rh  Rh202  1  0.19866161  -0.00542184  0.80512406  1
  Rh  Rh203  1  0.79751625  0.59573366  0.80644203  1
  Rh  Rh204  1  0.59542019  0.80097589  0.60028536  1
  Rh  Rh205  1  0.40729905  0.80016024  0.20357702  1
  Rh  Rh206  1  0.60571800  -0.00620938  0.00389572  1
  Rh  Rh207  1  0.00354567  0.79642331  -0.00272862  1
  Rh  Rh208  1  0.19884225  0.20524447  -0.00152054  1
  Rh  Rh209  1  -0.00545231  0.39248082  0.39086151  1
  Rh  Rh210  1  0.79876994  0.60648637  0.00445979  1
  Rh  Rh211  1  0.00121351  0.80012750  0.40363056  1
  Rh  Rh212  1  0.80257267  0.40992710  0.19566321  1
  Rh  Rh213  1  0.60746148  0.19705955  -0.00265281  1
  Rh  Rh214  1  0.79642959  0.80716924  0.39347157  1
  Rh  Rh215  1  0.60217392  0.60157188  -0.00716563  1
  Rh  Rh216  1  0.79591297  0.79971693  -0.00032181  1
  Rh  Rh217  1  0.39352382  0.19496358  0.60744346  1
  Rh  Rh218  1  0.00375277  0.41364065  0.60991994  1
  Rh  Rh219  1  0.60360753  0.59422472  0.19790327  1
  Rh  Rh220  1  0.80562688  -0.00242418  0.39489722  1
  Rh  Rh221  1  0.79864145  -0.00528851  0.60433765  1
  Rh  Rh222  1  0.40240947  0.80290451  0.00014365  1
  Rh  Rh223  1  -0.00265700  0.40445527  0.80578863  1
  Rh  Rh224  1  0.79849585  0.20126771  0.40190970  1
  Rh  Rh225  1  0.60074632  0.81127036  0.20563713  1
  Rh  Rh226  1  -0.00036431  0.19010532  0.21059079  1
  Rh  Rh227  1  0.19850361  0.60195735  0.79658820  1
  Rh  Rh228  1  0.80777149  0.79966376  0.80520444  1
  Rh  Rh229  1  0.79697249  0.40674430  0.79830087  1
  Rh  Rh230  1  0.00475958  -0.00314733  0.00119128  1
  Rh  Rh231  1  0.79912055  0.19902670  0.00502990  1
  Rh  Rh232  1  0.40536476  0.80866149  0.39694209  1
  Rh  Rh233  1  -0.01077917  0.59944305  0.20423904  1
  Rh  Rh234  1  0.39851969  0.81076126  0.79914107  1
  Rh  Rh235  1  0.60415333  0.40090602  0.19849321  1
  Rh  Rh236  1  0.20173713  0.39900669  0.40272924  1
  Rh  Rh237  1  0.00346800  0.80821053  0.19982332  1
  Rh  Rh238  1  0.79334381  -0.00691988  0.00982984  1
  Rh  Rh239  1  0.60551247  0.79306357  0.80620264  1
  Rh  Rh240  1  0.19832854  0.00587185  0.40068298  1
  Rh  Rh241  1  0.79308881  0.19301510  0.80164361  1
  Rh  Rh242  1  0.19447982  0.39330334  0.18951905  1
  Rh  Rh243  1  0.59128205  0.00886920  0.79222835  1
  Rh  Rh244  1  0.81108927  -0.00127677  0.79821122  1
  Rh  Rh245  1  0.00502555  0.59568973  -0.00282420  1
  Rh  Rh246  1  0.39950405  0.40060847  0.19961777  1
  Rh  Rh247  1  -0.00548490  0.19218424  0.59348447  1
  Rh  Rh248  1  0.20342324  0.20783883  0.59215655  1
  Rh  Rh249  1  0.39511778  0.20017530  0.00414947  1
