# generated using pymatgen
data_ZrScNbPdRh
_symmetry_space_group_name_H-M   'P 1'
_cell_length_a   16.55049594
_cell_length_b   16.55164077
_cell_length_c   16.55046647
_cell_angle_alpha   90.00903083
_cell_angle_beta   90.00244955
_cell_angle_gamma   89.98336905
_symmetry_Int_Tables_number   1
_chemical_formula_structural   ZrScNbPdRh
_chemical_formula_sum   'Zr50 Sc50 Nb50 Pd50 Rh50'
_cell_volume   4533.79917248
_cell_formula_units_Z   50
loop_
 _symmetry_equiv_pos_site_id
 _symmetry_equiv_pos_as_xyz
  1  'x, y, z'
loop_
 _atom_site_type_symbol
 _atom_site_label
 _atom_site_symmetry_multiplicity
 _atom_site_fract_x
 _atom_site_fract_y
 _atom_site_fract_z
 _atom_site_occupancy
  Zr  Zr0  1  0.09709145  0.49832460  0.09331534  1
  Zr  Zr1  1  0.29325606  0.89695495  0.89595866  1
  Zr  Zr2  1  0.90582374  0.68702527  0.30026200  1
  Zr  Zr3  1  0.30110920  0.70288320  0.49896271  1
  Zr  Zr4  1  0.89815021  0.70268742  0.89652543  1
  Zr  Zr5  1  0.51371534  0.30384184  0.50124719  1
  Zr  Zr6  1  0.90352117  0.49948844  0.70234861  1
  Zr  Zr7  1  0.49865796  0.10057857  0.69980951  1
  Zr  Zr8  1  0.30942331  0.49628943  0.10303157  1
  Zr  Zr9  1  0.09511266  0.29070938  0.90596460  1
  Zr  Zr10  1  0.29758391  0.69949307  0.89245542  1
  Zr  Zr11  1  0.10149018  0.90040425  0.50447321  1
  Zr  Zr12  1  0.09873105  0.49661562  0.89087213  1
  Zr  Zr13  1  0.69751184  0.49204221  0.50353933  1
  Zr  Zr14  1  0.09992730  0.10381490  0.51701857  1
  Zr  Zr15  1  0.89892346  0.70491110  0.69770975  1
  Zr  Zr16  1  0.50838186  0.49336040  0.91161208  1
  Zr  Zr17  1  0.70180857  0.89939672  0.29997511  1
  Zr  Zr18  1  0.29515798  0.69278630  0.30541919  1
  Zr  Zr19  1  0.09405294  0.49432352  0.49817771  1
  Zr  Zr20  1  0.09271372  0.51011363  0.30403770  1
  Zr  Zr21  1  0.70053465  0.69929716  0.50235771  1
  Zr  Zr22  1  0.30693071  0.49232148  0.89777785  1
  Zr  Zr23  1  0.89956432  0.91050636  0.49635601  1
  Zr  Zr24  1  0.09893677  0.90496182  0.89215013  1
  Zr  Zr25  1  0.10843971  0.29996489  0.30348012  1
  Zr  Zr26  1  0.49665147  0.70718572  0.70501173  1
  Zr  Zr27  1  0.09343995  0.29978243  0.09760239  1
  Zr  Zr28  1  0.29950134  0.10679884  0.30055336  1
  Zr  Zr29  1  0.49758036  0.89955648  0.10412076  1
  Zr  Zr30  1  0.29526638  0.69820191  0.09709660  1
  Zr  Zr31  1  0.89587352  0.50368056  0.49315797  1
  Zr  Zr32  1  0.09094084  0.29488397  0.69450247  1
  Zr  Zr33  1  0.90251119  0.90679401  0.90078885  1
  Zr  Zr34  1  0.09839550  0.90505034  0.30332126  1
  Zr  Zr35  1  0.70023612  0.90566754  0.70208770  1
  Zr  Zr36  1  0.09985250  0.69320316  0.69651002  1
  Zr  Zr37  1  0.09514716  0.09405043  0.89811514  1
  Zr  Zr38  1  0.69899874  0.10752095  0.09277957  1
  Zr  Zr39  1  0.50462716  0.49795690  0.48881563  1
  Zr  Zr40  1  0.49855488  0.29317440  0.69740949  1
  Zr  Zr41  1  0.50537116  0.10051026  0.89979081  1
  Zr  Zr42  1  0.50312817  0.30026036  0.30597234  1
  Zr  Zr43  1  0.89730916  0.30173493  0.51067736  1
  Zr  Zr44  1  0.89113870  0.10251553  0.89995399  1
  Zr  Zr45  1  0.69844108  0.49994990  0.89910603  1
  Zr  Zr46  1  0.69495795  0.11352555  0.29727520  1
  Zr  Zr47  1  0.89517881  0.50140317  0.90377303  1
  Zr  Zr48  1  0.70182026  0.69614731  0.90591878  1
  Zr  Zr49  1  0.90048758  0.70906337  0.50828004  1
  Sc  Sc50  1  0.70138868  0.09735192  0.50486876  1
  Sc  Sc51  1  0.51134832  0.69998591  0.10984263  1
  Sc  Sc52  1  0.29332681  0.09132517  0.90210560  1
  Sc  Sc53  1  0.49968670  0.30502080  0.09056059  1
  Sc  Sc54  1  0.49877300  0.30014324  0.89342598  1
  Sc  Sc55  1  0.89253827  0.10376340  0.69316081  1
  Sc  Sc56  1  0.29189426  0.29382594  0.48654188  1
  Sc  Sc57  1  0.09531878  0.90566745  0.09188644  1
  Sc  Sc58  1  0.88920696  0.09996513  0.09706225  1
  Sc  Sc59  1  0.30922000  0.29908187  0.71008628  1
  Sc  Sc60  1  0.70341574  0.70875767  0.71115784  1
  Sc  Sc61  1  0.29797523  0.09090989  0.10209640  1
  Sc  Sc62  1  0.89604786  0.89511094  0.69564002  1
  Sc  Sc63  1  0.30271339  0.89660004  0.51095615  1
  Sc  Sc64  1  0.50239165  0.69554495  0.49006395  1
  Sc  Sc65  1  0.50628203  0.49356639  0.71399899  1
  Sc  Sc66  1  0.10495864  0.10801933  0.09636236  1
  Sc  Sc67  1  0.11145368  0.69731767  0.49739019  1
  Sc  Sc68  1  0.51171576  0.70244966  0.89450851  1
  Sc  Sc69  1  0.69465653  0.70138204  0.30073509  1
  Sc  Sc70  1  0.89041298  0.29855860  0.70434558  1
  Sc  Sc71  1  0.88324634  0.31558897  0.28880216  1
  Sc  Sc72  1  0.89990147  0.68975056  0.09621506  1
  Sc  Sc73  1  0.09965929  0.70516063  0.89944272  1
  Sc  Sc74  1  0.90878022  0.50086325  0.10621321  1
  Sc  Sc75  1  0.70354218  0.30013586  0.68900657  1
  Sc  Sc76  1  0.30726263  0.90789271  0.29006009  1
  Sc  Sc77  1  0.89546520  0.90635124  0.29992832  1
  Sc  Sc78  1  0.29545575  0.50391513  0.71285987  1
  Sc  Sc79  1  0.49889911  0.09754360  0.30972214  1
  Sc  Sc80  1  0.09954199  0.09735364  0.29508592  1
  Sc  Sc81  1  0.29998666  0.70477574  0.70320267  1
  Sc  Sc82  1  0.70227282  0.09869099  0.70322501  1
  Sc  Sc83  1  0.90137985  0.29458894  0.90036720  1
  Sc  Sc84  1  0.49514159  0.09781536  0.50338980  1
  Sc  Sc85  1  0.69999230  0.09644809  0.89851554  1
  Sc  Sc86  1  0.69895486  0.70225015  0.10517457  1
  Sc  Sc87  1  0.70351289  0.49122401  0.70549913  1
  Sc  Sc88  1  0.09712989  0.69138412  0.09265045  1
  Sc  Sc89  1  0.70649969  0.90351991  0.49725638  1
  Sc  Sc90  1  0.29517972  0.29465260  0.09846701  1
  Sc  Sc91  1  0.69460207  0.90245024  0.89494339  1
  Sc  Sc92  1  0.30398794  0.09876468  0.69068734  1
  Sc  Sc93  1  0.70066447  0.29146250  0.90225614  1
  Sc  Sc94  1  0.69215010  0.51176083  0.09110119  1
  Sc  Sc95  1  0.90122834  0.08978315  0.30391427  1
  Sc  Sc96  1  0.49822389  0.09356881  0.09495588  1
  Sc  Sc97  1  0.70760780  0.49956619  0.30881905  1
  Sc  Sc98  1  0.10516753  0.90646405  0.69966539  1
  Sc  Sc99  1  0.29940870  0.50710891  0.48612863  1
  Nb  Nb100  1  0.31030774  0.89504729  0.70250136  1
  Nb  Nb101  1  0.49816699  0.90282487  0.89937328  1
  Nb  Nb102  1  0.10257275  0.49711552  0.69828167  1
  Nb  Nb103  1  0.49894833  0.49661561  0.10197135  1
  Nb  Nb104  1  0.10790876  0.09991475  0.70080557  1
  Nb  Nb105  1  0.49817751  0.89945484  0.50234542  1
  Nb  Nb106  1  0.89677444  0.30077528  0.09955678  1
  Nb  Nb107  1  0.90426669  0.50645198  0.30360809  1
  Nb  Nb108  1  0.29785659  0.09444323  0.50045073  1
  Nb  Nb109  1  0.30859402  0.49656746  0.29465780  1
  Nb  Nb110  1  0.31000349  0.89807904  0.09869690  1
  Nb  Nb111  1  0.89876715  0.10230139  0.49580971  1
  Nb  Nb112  1  0.71050433  0.29213639  0.11671875  1
  Nb  Nb113  1  0.49422944  0.89758481  0.69787433  1
  Nb  Nb114  1  0.09585781  0.29998545  0.50084549  1
  Nb  Nb115  1  0.10260614  0.70767852  0.30231781  1
  Nb  Nb116  1  0.69653383  0.30016658  0.29920788  1
  Nb  Nb117  1  0.30159681  0.29615889  0.89900079  1
  Nb  Nb118  1  0.70113407  0.30678325  0.49055709  1
  Nb  Nb119  1  0.70471603  0.90036715  0.10559690  1
  Nb  Nb120  1  0.30160869  0.30124316  0.29305936  1
  Nb  Nb121  1  0.50257301  0.89781687  0.29896505  1
  Nb  Nb122  1  0.89150196  0.89984634  0.10263443  1
  Nb  Nb123  1  0.50324492  0.70128168  0.30296643  1
  Nb  Nb124  1  0.48858211  0.50222774  0.29468765  1
  Nb  Nb125  1  0.19650694  0.80121952  0.19825498  1
  Nb  Nb126  1  0.39848316  0.20286959  0.19938652  1
  Nb  Nb127  1  0.00339198  0.80098578  0.39718239  1
  Nb  Nb128  1  0.40600661  0.59539217  0.60060930  1
  Nb  Nb129  1  0.00198995  0.79957609  0.20194596  1
  Nb  Nb130  1  0.80065091  0.20602813  0.40158110  1
  Nb  Nb131  1  -0.00676227  0.20559954  0.20307259  1
  Nb  Nb132  1  0.40679744  0.80371717  0.39389929  1
  Nb  Nb133  1  0.39603648  0.40539073  0.59763226  1
  Nb  Nb134  1  0.59898989  0.40157273  0.20097340  1
  Nb  Nb135  1  0.80053114  0.80773266  0.00465952  1
  Nb  Nb136  1  0.40115937  0.80020149  0.00033276  1
  Nb  Nb137  1  0.60141155  -0.00470010  0.20081912  1
  Nb  Nb138  1  0.20092050  0.39707951  -0.00133504  1
  Nb  Nb139  1  -0.00454978  0.20382930  0.40213174  1
  Nb  Nb140  1  0.59484591  0.80234238  0.59862455  1
  Nb  Nb141  1  0.59723190  0.60208690  0.60464710  1
  Nb  Nb142  1  0.19617417  0.19541441  0.79868887  1
  Nb  Nb143  1  0.80006235  0.39507100  0.00937427  1
  Nb  Nb144  1  0.20392045  0.00345243  0.40753933  1
  Nb  Nb145  1  0.40613170  0.60163222  0.00262870  1
  Nb  Nb146  1  0.40261124  -0.00684699  0.79838851  1
  Nb  Nb147  1  0.39610823  0.19781837  -0.00217460  1
  Nb  Nb148  1  0.19837139  0.39984476  0.60049986  1
  Nb  Nb149  1  0.20430082  0.40458662  0.20226885  1
  Pd  Pd150  1  0.39405522  -0.00799536  0.40331972  1
  Pd  Pd151  1  0.58499490  0.20092670  0.19131891  1
  Pd  Pd152  1  -0.00540235  0.39464742  0.80205484  1
  Pd  Pd153  1  0.40465122  0.61052070  0.19652042  1
  Pd  Pd154  1  0.60756317  0.19653461  0.59593712  1
  Pd  Pd155  1  0.60630602  -0.00522007  0.00541586  1
  Pd  Pd156  1  0.40274853  0.20291536  0.40266413  1
  Pd  Pd157  1  -0.00638455  0.00179183  0.60701217  1
  Pd  Pd158  1  -0.00260209  0.40231117  0.60335664  1
  Pd  Pd159  1  0.40865353  0.59659808  0.80258600  1
  Pd  Pd160  1  0.00074302  0.60036986  0.59476813  1
  Pd  Pd161  1  0.61510631  0.38767713  0.01074696  1
  Pd  Pd162  1  0.79279369  0.01007380  0.20197997  1
  Pd  Pd163  1  0.80825058  0.79674050  0.39487950  1
  Pd  Pd164  1  -0.00186445  0.19132191  0.79264958  1
  Pd  Pd165  1  0.19430897  0.59842895  0.20308372  1
  Pd  Pd166  1  0.19673398  0.38692312  0.79746507  1
  Pd  Pd167  1  0.79090334  0.59678472  0.60982421  1
  Pd  Pd168  1  0.79685998  0.59958819  0.79355678  1
  Pd  Pd169  1  0.00404678  0.80378132  0.79150651  1
  Pd  Pd170  1  0.39506824  0.39456517  0.40558534  1
  Pd  Pd171  1  0.20454562  0.59059723  -0.01030233  1
  Pd  Pd172  1  0.21149559  0.21165535  0.60663456  1
  Pd  Pd173  1  0.80885202  0.78954482  0.19892631  1
  Pd  Pd174  1  0.20032592  -0.00484106  0.00566144  1
  Pd  Pd175  1  0.59841845  0.80450837  0.40583011  1
  Pd  Pd176  1  -0.00192207  0.00376776  0.18943014  1
  Pd  Pd177  1  0.60706082  0.38700988  0.79766829  1
  Pd  Pd178  1  0.20003762  0.80137903  0.60939153  1
  Pd  Pd179  1  0.60315394  0.59014454  0.20984212  1
  Pd  Pd180  1  0.21030269  0.58992522  0.60117471  1
  Pd  Pd181  1  0.00465467  0.39727594  0.20812950  1
  Pd  Pd182  1  0.19913228  -0.00505419  0.19786294  1
  Pd  Pd183  1  0.19947229  0.80577166  0.00504419  1
  Pd  Pd184  1  -0.00679381  0.79892460  0.00809521  1
  Pd  Pd185  1  0.79059942  0.41756076  0.19196732  1
  Pd  Pd186  1  0.39560472  0.79062671  0.20210847  1
  Pd  Pd187  1  0.60279723  0.00141106  0.39882168  1
  Pd  Pd188  1  0.60209253  0.80188978  0.00297770  1
  Pd  Pd189  1  -0.01042971  0.39102827  0.39202338  1
  Pd  Pd190  1  0.19019681  0.18954817  0.40176640  1
  Pd  Pd191  1  0.39266091  0.21048042  0.58800783  1
  Pd  Pd192  1  0.79593827  0.60548838  0.40140546  1
  Pd  Pd193  1  -0.00507902  0.00806862  0.00831205  1
  Pd  Pd194  1  -0.00913529  0.00455232  0.78735468  1
  Pd  Pd195  1  0.20420386  0.40677876  0.39784142  1
  Pd  Pd196  1  0.60791237  0.20229492  0.79650936  1
  Pd  Pd197  1  0.59840695  -0.00343744  0.60072480  1
  Pd  Pd198  1  0.79556944  0.59522984  0.19737295  1
  Pd  Pd199  1  0.00211664  0.60324298  0.80201299  1
  Rh  Rh200  1  0.40236687  0.80477932  0.81196942  1
  Rh  Rh201  1  -0.01014543  0.19196444  0.01009080  1
  Rh  Rh202  1  0.20772106  0.20053225  -0.00881306  1
  Rh  Rh203  1  0.79390876  -0.00723619  -0.00334225  1
  Rh  Rh204  1  0.80121865  0.80654831  0.81089310  1
  Rh  Rh205  1  0.79592922  0.19899964  0.79947916  1
  Rh  Rh206  1  0.00326046  0.61079640  0.41092566  1
  Rh  Rh207  1  0.01261723  0.00529669  0.40952019  1
  Rh  Rh208  1  0.80451062  0.39817053  0.40041417  1
  Rh  Rh209  1  0.21149371  0.00431312  0.78753357  1
  Rh  Rh210  1  0.39069028  0.18374470  0.81219853  1
  Rh  Rh211  1  0.40292271  0.60582392  0.39714452  1
  Rh  Rh212  1  0.59300572  0.40528181  0.60694873  1
  Rh  Rh213  1  0.40604797  0.39882981  0.79770757  1
  Rh  Rh214  1  0.40447941  0.38909179  0.19963558  1
  Rh  Rh215  1  0.60108843  0.59442485  0.39598548  1
  Rh  Rh216  1  0.80273167  0.00035931  0.79960107  1
  Rh  Rh217  1  0.41022397  0.01191991  0.20295102  1
  Rh  Rh218  1  0.19268064  0.79869342  0.79261866  1
  Rh  Rh219  1  0.39684088  -0.00318072  -0.00873784  1
  Rh  Rh220  1  0.20918185  -0.00451672  0.60121659  1
  Rh  Rh221  1  0.59157029  0.60744205  0.00150462  1
  Rh  Rh222  1  0.39928025  -0.00118457  0.60361427  1
  Rh  Rh223  1  0.60673441  0.19638360  0.41109673  1
  Rh  Rh224  1  0.39458659  0.39471247  -0.00251128  1
  Rh  Rh225  1  0.79012657  0.01192351  0.39694026  1
  Rh  Rh226  1  -0.00061065  0.59906857  -0.00891476  1
  Rh  Rh227  1  0.19837881  0.59291282  0.39627355  1
  Rh  Rh228  1  0.60299912  0.80613682  0.20411329  1
  Rh  Rh229  1  0.78888145  0.80673915  0.59965582  1
  Rh  Rh230  1  0.80318651  0.00060503  0.59902387  1
  Rh  Rh231  1  0.40811795  0.79002016  0.58905250  1
  Rh  Rh232  1  0.79414754  0.20038362  0.59273326  1
  Rh  Rh233  1  0.60566161  0.60002714  0.79730657  1
  Rh  Rh234  1  0.60100646  0.80792008  0.79501006  1
  Rh  Rh235  1  0.00651738  0.80075929  0.59562010  1
  Rh  Rh236  1  0.20934733  0.81589791  0.38750744  1
  Rh  Rh237  1  0.80298634  0.40509392  0.60062771  1
  Rh  Rh238  1  0.59134080  -0.00190175  0.79549573  1
  Rh  Rh239  1  0.59496367  0.20301555  0.00247416  1
  Rh  Rh240  1  0.79975278  0.39491547  0.81168490  1
  Rh  Rh241  1  0.81068634  0.19325551  0.21044915  1
  Rh  Rh242  1  0.79874879  0.20723299  -0.00182226  1
  Rh  Rh243  1  0.19329237  0.60343831  0.80111486  1
  Rh  Rh244  1  0.80163166  0.59878974  0.00461607  1
  Rh  Rh245  1  -0.00495929  0.40120370  -0.00642271  1
  Rh  Rh246  1  0.00580903  0.60488378  0.19827064  1
  Rh  Rh247  1  0.60084710  0.40718585  0.38512418  1
  Rh  Rh248  1  0.19971372  0.20503847  0.19871575  1
  Rh  Rh249  1  -0.00713112  0.19714440  0.60094655  1
