# generated using pymatgen
data_ZrScNbPdRh
_symmetry_space_group_name_H-M   'P 1'
_cell_length_a   16.55814192
_cell_length_b   16.55933603
_cell_length_c   16.56225362
_cell_angle_alpha   89.97181504
_cell_angle_beta   90.01603187
_cell_angle_gamma   89.99479865
_symmetry_Int_Tables_number   1
_chemical_formula_structural   ZrScNbPdRh
_chemical_formula_sum   'Zr50 Sc50 Nb50 Pd50 Rh50'
_cell_volume   4541.23398447
_cell_formula_units_Z   50
loop_
 _symmetry_equiv_pos_site_id
 _symmetry_equiv_pos_as_xyz
  1  'x, y, z'
loop_
 _atom_site_type_symbol
 _atom_site_label
 _atom_site_symmetry_multiplicity
 _atom_site_fract_x
 _atom_site_fract_y
 _atom_site_fract_z
 _atom_site_occupancy
  Zr  Zr0  1  0.89869342  0.09394696  0.89773330  1
  Zr  Zr1  1  0.30026155  0.30203452  0.29929743  1
  Zr  Zr2  1  0.49778004  0.09965848  0.69705774  1
  Zr  Zr3  1  0.70417925  0.90574186  0.50449513  1
  Zr  Zr4  1  0.88799512  0.49179426  0.90136289  1
  Zr  Zr5  1  0.70705416  0.29766584  0.49832625  1
  Zr  Zr6  1  0.91153468  0.29217535  0.89668617  1
  Zr  Zr7  1  0.89976783  0.50623345  0.49714719  1
  Zr  Zr8  1  0.70703440  0.70498413  0.50654640  1
  Zr  Zr9  1  0.50215715  0.88913105  0.09561303  1
  Zr  Zr10  1  0.69783016  0.10526940  0.10492317  1
  Zr  Zr11  1  0.50567600  0.10036987  0.09655359  1
  Zr  Zr12  1  0.30050379  0.30127398  0.11702472  1
  Zr  Zr13  1  0.68885580  0.50331123  0.49943966  1
  Zr  Zr14  1  0.09818990  0.89536049  0.69006793  1
  Zr  Zr15  1  0.89856468  0.30018268  0.69781217  1
  Zr  Zr16  1  0.10967624  0.49578237  0.49844325  1
  Zr  Zr17  1  0.89620248  0.50656416  0.29916494  1
  Zr  Zr18  1  0.08940837  0.71008962  0.50132587  1
  Zr  Zr19  1  0.50393353  0.29935583  0.10379299  1
  Zr  Zr20  1  0.51077166  0.30664533  0.49928107  1
  Zr  Zr21  1  0.30290514  0.10738265  0.29768967  1
  Zr  Zr22  1  0.90604834  0.29780098  0.50190066  1
  Zr  Zr23  1  0.49959470  0.89133571  0.90043486  1
  Zr  Zr24  1  0.30185143  0.69928885  0.70578204  1
  Zr  Zr25  1  0.69841723  0.50392549  0.28741043  1
  Zr  Zr26  1  0.69631926  0.31203957  0.69810820  1
  Zr  Zr27  1  0.49742725  0.69823103  0.49006442  1
  Zr  Zr28  1  0.30129067  0.50335066  0.10226442  1
  Zr  Zr29  1  0.30286768  0.69861845  0.30440391  1
  Zr  Zr30  1  0.69939076  0.09660959  0.48736936  1
  Zr  Zr31  1  0.90065911  0.89676481  0.29659919  1
  Zr  Zr32  1  0.90483872  0.50217457  0.70748908  1
  Zr  Zr33  1  0.10641185  0.70593761  0.30536775  1
  Zr  Zr34  1  0.29371109  0.91228795  0.09800474  1
  Zr  Zr35  1  0.90302448  0.88608959  0.50266750  1
  Zr  Zr36  1  0.29969305  0.09872791  0.49696659  1
  Zr  Zr37  1  0.08625877  0.11092138  0.89965453  1
  Zr  Zr38  1  0.69358410  0.69347980  0.09771692  1
  Zr  Zr39  1  0.89288801  0.10370453  0.50461984  1
  Zr  Zr40  1  0.09371406  0.50295229  0.89523714  1
  Zr  Zr41  1  0.70981766  0.31173155  0.90314346  1
  Zr  Zr42  1  0.70307184  0.88466978  0.69529355  1
  Zr  Zr43  1  0.51126521  0.09503879  0.30402848  1
  Zr  Zr44  1  0.29125005  0.50805614  0.89867256  1
  Zr  Zr45  1  0.10988871  0.30678499  0.30440321  1
  Zr  Zr46  1  0.09924148  0.50497507  0.30092411  1
  Zr  Zr47  1  0.49710575  0.29782521  0.69968314  1
  Zr  Zr48  1  0.89692990  0.71320666  0.09662310  1
  Zr  Zr49  1  0.09972851  0.69688534  0.90113317  1
  Sc  Sc50  1  0.90400899  0.69093857  0.90251903  1
  Sc  Sc51  1  0.09614338  0.08507969  0.70174185  1
  Sc  Sc52  1  0.09710660  0.89779468  0.11069492  1
  Sc  Sc53  1  0.10565084  0.09272809  0.10785869  1
  Sc  Sc54  1  0.50308228  0.29140554  0.90062382  1
  Sc  Sc55  1  0.89857541  0.69894712  0.30429970  1
  Sc  Sc56  1  0.70279537  0.89103511  0.08951786  1
  Sc  Sc57  1  0.10529391  0.10084718  0.29829228  1
  Sc  Sc58  1  0.30159744  0.69667703  0.10001802  1
  Sc  Sc59  1  0.70874314  0.08381947  0.68195715  1
  Sc  Sc60  1  0.69789956  0.29550496  0.29550144  1
  Sc  Sc61  1  0.49823900  0.90074189  0.50280171  1
  Sc  Sc62  1  0.29442011  0.70316246  0.90090710  1
  Sc  Sc63  1  0.29421303  0.29607118  0.88683884  1
  Sc  Sc64  1  0.51038358  0.89728009  0.69830116  1
  Sc  Sc65  1  0.50779600  0.09508005  0.90710619  1
  Sc  Sc66  1  0.30343499  0.89522978  0.50575654  1
  Sc  Sc67  1  0.88777352  0.89653461  0.90494124  1
  Sc  Sc68  1  0.49666053  0.70216859  0.28838146  1
  Sc  Sc69  1  0.29652579  0.89334045  0.89886857  1
  Sc  Sc70  1  0.89761142  0.30690323  0.30265307  1
  Sc  Sc71  1  0.69886945  0.89516846  0.89838372  1
  Sc  Sc72  1  0.50216263  0.29966770  0.29588396  1
  Sc  Sc73  1  0.70120012  0.69308765  0.89890672  1
  Sc  Sc74  1  0.09839463  0.50665223  0.10460077  1
  Sc  Sc75  1  0.89857648  0.50605232  0.10294665  1
  Sc  Sc76  1  0.49982019  0.51376295  0.10653662  1
  Sc  Sc77  1  0.90393697  0.09480042  0.70200426  1
  Sc  Sc78  1  0.10899059  0.50012866  0.70367803  1
  Sc  Sc79  1  0.09586645  0.30769932  0.70616585  1
  Sc  Sc80  1  0.29848968  0.09844063  0.69789217  1
  Sc  Sc81  1  0.09132488  0.70119469  0.09035974  1
  Sc  Sc82  1  0.10036692  0.69626164  0.70109134  1
  Sc  Sc83  1  0.29226822  0.30344532  0.49083344  1
  Sc  Sc84  1  0.29922371  0.89013161  0.29949330  1
  Sc  Sc85  1  0.89928074  0.10368941  0.10211463  1
  Sc  Sc86  1  0.69670927  0.30061569  0.10672617  1
  Sc  Sc87  1  0.89565515  0.69459217  0.69477631  1
  Sc  Sc88  1  0.69518962  0.08711444  0.91129283  1
  Sc  Sc89  1  0.89328765  0.30171383  0.10282057  1
  Sc  Sc90  1  0.70739718  0.69760752  0.29490100  1
  Sc  Sc91  1  0.29192207  0.09426875  0.89778197  1
  Sc  Sc92  1  0.29738433  0.29665395  0.69962967  1
  Sc  Sc93  1  0.49532481  0.09717114  0.49793764  1
  Sc  Sc94  1  0.30549289  0.69504824  0.49998071  1
  Sc  Sc95  1  0.89661360  0.10401300  0.30145389  1
  Sc  Sc96  1  0.10168043  0.89977761  0.90049539  1
  Sc  Sc97  1  0.50731386  0.70727095  0.70056094  1
  Sc  Sc98  1  0.29536989  0.89311461  0.70378600  1
  Sc  Sc99  1  0.29297789  0.50690555  0.29850404  1
  Nb  Nb100  1  0.89756894  0.69747775  0.49771974  1
  Nb  Nb101  1  0.69747245  0.50097073  0.09304434  1
  Nb  Nb102  1  0.89925229  0.90133145  0.09686521  1
  Nb  Nb103  1  0.69471696  0.50576731  0.70913217  1
  Nb  Nb104  1  0.50289974  0.89798596  0.29808829  1
  Nb  Nb105  1  0.50897709  0.49730881  0.69912106  1
  Nb  Nb106  1  0.50438563  0.50841084  0.30558706  1
  Nb  Nb107  1  0.09812134  0.09731825  0.50047596  1
  Nb  Nb108  1  0.70076360  0.09164888  0.30016417  1
  Nb  Nb109  1  0.30080571  0.10163619  0.10604290  1
  Nb  Nb110  1  0.10004466  0.29948844  0.90295263  1
  Nb  Nb111  1  0.49962187  0.50456481  0.49646105  1
  Nb  Nb112  1  0.49886607  0.50530665  0.90201876  1
  Nb  Nb113  1  0.70108957  0.69474802  0.69807323  1
  Nb  Nb114  1  0.30407172  0.50285345  0.69743997  1
  Nb  Nb115  1  0.90241734  0.89934337  0.70699857  1
  Nb  Nb116  1  0.30619789  0.50560277  0.50355826  1
  Nb  Nb117  1  0.69655855  0.91249985  0.30760742  1
  Nb  Nb118  1  0.10027718  0.90144735  0.30623458  1
  Nb  Nb119  1  0.50087875  0.69877984  0.09075542  1
  Nb  Nb120  1  0.49231029  0.69714017  0.91001347  1
  Nb  Nb121  1  0.69865002  0.49964715  0.89869580  1
  Nb  Nb122  1  0.09946806  0.29888962  0.10148051  1
  Nb  Nb123  1  0.09919739  0.90179683  0.50122559  1
  Nb  Nb124  1  0.10109499  0.29640110  0.49704385  1
  Nb  Nb125  1  0.40239003  0.41107417  0.79803407  1
  Nb  Nb126  1  0.79234040  0.19728515  0.79999294  1
  Nb  Nb127  1  0.40469812  -0.00470091  0.80205289  1
  Nb  Nb128  1  0.59775489  0.41107236  -0.00148991  1
  Nb  Nb129  1  0.80037761  0.20049246  -0.00558923  1
  Nb  Nb130  1  0.00525720  0.39467493  0.00048788  1
  Nb  Nb131  1  0.40243960  0.41111969  0.59876495  1
  Nb  Nb132  1  0.19926714  0.20372266  0.00716357  1
  Nb  Nb133  1  0.60258500  0.80666116  0.39411135  1
  Nb  Nb134  1  0.00504195  0.20674053  0.19955254  1
  Nb  Nb135  1  -0.00371132  0.80223529  0.79793860  1
  Nb  Nb136  1  0.40389997  0.41269712  0.40359047  1
  Nb  Nb137  1  0.00485550  -0.00389554  0.40344711  1
  Nb  Nb138  1  0.61122512  0.19589948  0.79445569  1
  Nb  Nb139  1  0.19835136  0.39362962  0.00092468  1
  Nb  Nb140  1  0.79547836  -0.00384211  0.20184599  1
  Nb  Nb141  1  -0.00515143  -0.00227004  0.00443803  1
  Nb  Nb142  1  0.38860319  0.20185273  0.00653202  1
  Nb  Nb143  1  0.19437915  -0.00446755  0.40430310  1
  Nb  Nb144  1  0.60299691  0.19968688  0.60085872  1
  Nb  Nb145  1  0.79829927  0.40876538  0.60012411  1
  Nb  Nb146  1  0.40542659  -0.00164315  0.19910639  1
  Nb  Nb147  1  0.39913549  0.39978828  -0.00450439  1
  Nb  Nb148  1  0.40722840  0.59668312  0.79911000  1
  Nb  Nb149  1  0.18986861  0.19855033  0.59198106  1
  Pd  Pd150  1  0.79736445  0.59316066  0.60383178  1
  Pd  Pd151  1  0.18982793  0.19538397  0.79023957  1
  Pd  Pd152  1  -0.00810740  -0.00075093  0.59474604  1
  Pd  Pd153  1  0.00345457  0.60322786  0.40144410  1
  Pd  Pd154  1  0.39590259  -0.00884903  0.61037414  1
  Pd  Pd155  1  0.79918453  0.20244530  0.39038681  1
  Pd  Pd156  1  0.39482315  0.80252391  0.19301874  1
  Pd  Pd157  1  0.19547178  0.60923427  0.19495065  1
  Pd  Pd158  1  0.40377825  0.80049734  0.60337805  1
  Pd  Pd159  1  0.20559419  0.80265012  0.41041268  1
  Pd  Pd160  1  0.60015587  0.39993273  0.38837733  1
  Pd  Pd161  1  0.40529423  0.18852613  0.81268285  1
  Pd  Pd162  1  0.60686659  0.61350107  0.39300611  1
  Pd  Pd163  1  -0.00272706  0.61293981  0.19977426  1
  Pd  Pd164  1  0.79496504  0.40589776  0.40148430  1
  Pd  Pd165  1  0.79154243  0.80669576  0.20066972  1
  Pd  Pd166  1  0.20490848  0.79174415  0.59587239  1
  Pd  Pd167  1  -0.00015921  0.40629191  0.59825466  1
  Pd  Pd168  1  0.40927643  0.41359786  0.20770780  1
  Pd  Pd169  1  0.39351311  -0.01021451  0.39178654  1
  Pd  Pd170  1  0.79221556  0.00065871  0.79710987  1
  Pd  Pd171  1  0.40655028  0.21146964  0.40304573  1
  Pd  Pd172  1  0.59563101  0.60692486  0.60123057  1
  Pd  Pd173  1  0.20214654  -0.00480408  0.79904415  1
  Pd  Pd174  1  0.00849902  0.19656427  0.60729662  1
  Pd  Pd175  1  0.60110440  0.79012638  0.80666889  1
  Pd  Pd176  1  0.41160104  0.60175931  0.60844744  1
  Pd  Pd177  1  -0.00079883  0.39745566  0.19630815  1
  Pd  Pd178  1  0.60221200  -0.00863772  0.18913659  1
  Pd  Pd179  1  0.80268505  0.60173463  0.00163472  1
  Pd  Pd180  1  -0.00679483  0.00724969  0.20251629  1
  Pd  Pd181  1  0.19946166  0.79630204  0.19405060  1
  Pd  Pd182  1  0.19844872  0.80024753  0.00649503  1
  Pd  Pd183  1  0.59241982  0.39567622  0.81032522  1
  Pd  Pd184  1  0.60142436  0.00177072  0.79562816  1
  Pd  Pd185  1  0.59533673  0.60841864  0.80540121  1
  Pd  Pd186  1  0.60800688  0.79779336  0.20458402  1
  Pd  Pd187  1  0.79773480  0.40141056  0.19601054  1
  Pd  Pd188  1  0.80606373  0.78875482  0.80288686  1
  Pd  Pd189  1  -0.00027146  0.40267105  0.40045669  1
  Pd  Pd190  1  0.00381825  0.79443295  0.20302187  1
  Pd  Pd191  1  0.38852915  0.79781468  0.00284089  1
  Pd  Pd192  1  0.39335516  0.21085006  0.58904574  1
  Pd  Pd193  1  0.19629481  0.60634715  0.59613011  1
  Pd  Pd194  1  0.39887269  0.00571704  -0.00324886  1
  Pd  Pd195  1  0.79403981  0.79983658  0.39577327  1
  Pd  Pd196  1  0.00712577  0.59739699  0.60070840  1
  Pd  Pd197  1  0.00398239  0.19497311  0.39131314  1
  Pd  Pd198  1  0.18890334  0.00685007  -0.00336784  1
  Pd  Pd199  1  0.20660412  0.39281106  0.60162958  1
  Rh  Rh200  1  0.59911295  0.79500601  0.59003646  1
  Rh  Rh201  1  0.60181546  0.19913617  0.40123705  1
  Rh  Rh202  1  0.80225291  0.40240668  0.79001284  1
  Rh  Rh203  1  0.60270204  0.79082600  -0.00785414  1
  Rh  Rh204  1  0.81161471  -0.01131189  0.60043105  1
  Rh  Rh205  1  -0.00463106  0.58887626  -0.00030799  1
  Rh  Rh206  1  0.19952034  0.60349112  0.40779699  1
  Rh  Rh207  1  0.39805085  0.59616870  0.39116246  1
  Rh  Rh208  1  0.81430303  -0.00159355  0.39527057  1
  Rh  Rh209  1  0.59544978  0.00616236  0.59386006  1
  Rh  Rh210  1  0.20565575  0.00529955  0.59471752  1
  Rh  Rh211  1  0.79510223  0.59916369  0.39999565  1
  Rh  Rh212  1  0.79283825  0.20792516  0.60891206  1
  Rh  Rh213  1  0.41356007  0.18773744  0.19903647  1
  Rh  Rh214  1  -0.00069915  0.19950865  0.78723373  1
  Rh  Rh215  1  0.40441540  0.79884797  0.80009768  1
  Rh  Rh216  1  0.19406353  0.40842756  0.19858455  1
  Rh  Rh217  1  0.60175973  0.40336160  0.59815600  1
  Rh  Rh218  1  0.40695272  0.80191760  0.39889052  1
  Rh  Rh219  1  0.20551394  0.40109290  0.80155007  1
  Rh  Rh220  1  0.20873703  0.40963119  0.40013055  1
  Rh  Rh221  1  0.79813520  0.79285296  -0.00490532  1
  Rh  Rh222  1  0.80402576  0.60286091  0.19219511  1
  Rh  Rh223  1  0.60217292  -0.01382418  0.00428149  1
  Rh  Rh224  1  -0.00153625  0.81122456  -0.00916215  1
  Rh  Rh225  1  0.19627713  0.59789102  0.00464720  1
  Rh  Rh226  1  0.21162986  -0.00382979  0.21382080  1
  Rh  Rh227  1  0.80391426  0.19420231  0.19969368  1
  Rh  Rh228  1  0.00141007  0.40157756  0.80455728  1
  Rh  Rh229  1  0.59302287  -0.00680081  0.40883037  1
  Rh  Rh230  1  0.40193644  0.60310146  0.20216214  1
  Rh  Rh231  1  0.39552918  0.59947361  -0.00255451  1
  Rh  Rh232  1  0.00085508  0.19832614  0.01315726  1
  Rh  Rh233  1  0.19155236  0.19930702  0.19853237  1
  Rh  Rh234  1  0.59959374  0.19810939  0.20879903  1
  Rh  Rh235  1  0.60959152  0.21314093  -0.00864849  1
  Rh  Rh236  1  0.79986158  0.39893863  0.01053405  1
  Rh  Rh237  1  -0.00780760  0.79404663  0.60921900  1
  Rh  Rh238  1  0.18803938  0.79812506  0.79919195  1
  Rh  Rh239  1  0.79616959  0.60002541  0.79776082  1
  Rh  Rh240  1  0.19476326  0.19153559  0.40413823  1
  Rh  Rh241  1  -0.00184838  0.80156008  0.39552391  1
  Rh  Rh242  1  0.59731869  0.60416056  0.19970654  1
  Rh  Rh243  1  -0.00103160  0.60689866  0.79833595  1
  Rh  Rh244  1  0.80712994  0.79722167  0.60524545  1
  Rh  Rh245  1  0.20406494  0.60444812  0.79605299  1
  Rh  Rh246  1  0.59971220  0.59798680  -0.00393607  1
  Rh  Rh247  1  0.59751724  0.40783103  0.19597687  1
  Rh  Rh248  1  0.80281377  0.00652297  0.01222996  1
  Rh  Rh249  1  -0.00209098  -0.01389330  0.81023914  1
