# generated using pymatgen
data_ZrScNbPdRh
_symmetry_space_group_name_H-M   'P 1'
_cell_length_a   16.55418827
_cell_length_b   16.55554184
_cell_length_c   16.55306097
_cell_angle_alpha   90.03904211
_cell_angle_beta   90.00159149
_cell_angle_gamma   90.00046705
_symmetry_Int_Tables_number   1
_chemical_formula_structural   ZrScNbPdRh
_chemical_formula_sum   'Zr50 Sc50 Nb50 Pd50 Rh50'
_cell_volume   4536.58970642
_cell_formula_units_Z   50
loop_
 _symmetry_equiv_pos_site_id
 _symmetry_equiv_pos_as_xyz
  1  'x, y, z'
loop_
 _atom_site_type_symbol
 _atom_site_label
 _atom_site_symmetry_multiplicity
 _atom_site_fract_x
 _atom_site_fract_y
 _atom_site_fract_z
 _atom_site_occupancy
  Zr  Zr0  1  0.30619556  0.91447275  0.30578477  1
  Zr  Zr1  1  0.90140317  0.30393519  0.69358905  1
  Zr  Zr2  1  0.89934542  0.69791177  0.89257513  1
  Zr  Zr3  1  0.30234609  0.50701938  0.90124329  1
  Zr  Zr4  1  0.89308852  0.10087531  0.90027963  1
  Zr  Zr5  1  0.49498988  0.09370529  0.30057460  1
  Zr  Zr6  1  0.10595486  0.30233740  0.09784963  1
  Zr  Zr7  1  0.70313270  0.50398947  0.49686477  1
  Zr  Zr8  1  0.89684048  0.49328882  0.31045130  1
  Zr  Zr9  1  0.69890658  0.10221703  0.49599972  1
  Zr  Zr10  1  0.30960977  0.10625527  0.70378566  1
  Zr  Zr11  1  0.50102430  0.89597382  0.09272032  1
  Zr  Zr12  1  0.09539308  0.30566872  0.89158280  1
  Zr  Zr13  1  0.89374549  0.30214551  0.89517833  1
  Zr  Zr14  1  0.69747540  0.29490277  0.09578574  1
  Zr  Zr15  1  0.29409935  0.68965770  0.49792644  1
  Zr  Zr16  1  0.09362029  0.90419596  0.69820993  1
  Zr  Zr17  1  0.30594007  0.10796997  0.30011342  1
  Zr  Zr18  1  0.69739391  0.09921345  0.30432072  1
  Zr  Zr19  1  0.09727515  0.69384024  0.50421581  1
  Zr  Zr20  1  0.69851278  0.91105208  0.90391978  1
  Zr  Zr21  1  0.29369877  0.09981164  0.90583271  1
  Zr  Zr22  1  0.30366911  0.30441559  0.10523844  1
  Zr  Zr23  1  0.69618149  0.50259458  0.10026518  1
  Zr  Zr24  1  0.29455437  0.69478030  0.70747879  1
  Zr  Zr25  1  0.51036059  0.69670697  0.49486115  1
  Zr  Zr26  1  0.88701362  0.09632690  0.49610797  1
  Zr  Zr27  1  0.88946296  0.71014655  0.30671440  1
  Zr  Zr28  1  0.90168824  0.88765474  0.49114563  1
  Zr  Zr29  1  0.30099635  0.90544136  0.09316025  1
  Zr  Zr30  1  0.10004044  0.49275654  0.69488177  1
  Zr  Zr31  1  0.29796131  0.10491231  0.09396759  1
  Zr  Zr32  1  0.10135865  0.90632597  0.89896198  1
  Zr  Zr33  1  0.50191837  0.10068953  0.49676034  1
  Zr  Zr34  1  0.10286016  0.69759494  0.10130359  1
  Zr  Zr35  1  0.70101952  0.29881676  0.50212824  1
  Zr  Zr36  1  0.70733538  0.29834894  0.29889372  1
  Zr  Zr37  1  0.89553908  0.09663976  0.09857046  1
  Zr  Zr38  1  0.30758516  0.30264601  0.69784666  1
  Zr  Zr39  1  0.68705499  0.69176705  0.30692726  1
  Zr  Zr40  1  0.89957363  0.29380343  0.10139407  1
  Zr  Zr41  1  0.49948782  0.69956185  0.11308446  1
  Zr  Zr42  1  0.09763914  0.89835862  0.49868070  1
  Zr  Zr43  1  0.49761853  0.49266970  0.90358263  1
  Zr  Zr44  1  0.69502609  0.90323370  0.10279079  1
  Zr  Zr45  1  0.30447500  0.09780824  0.48838767  1
  Zr  Zr46  1  0.50051277  0.48966727  0.70113988  1
  Zr  Zr47  1  0.49782204  0.90084019  0.70866014  1
  Zr  Zr48  1  0.70638592  0.69651742  0.89845184  1
  Zr  Zr49  1  0.70841360  0.91178527  0.49989953  1
  Sc  Sc50  1  0.70335934  0.10071639  0.70276768  1
  Sc  Sc51  1  0.49201929  0.69364625  0.90935575  1
  Sc  Sc52  1  0.69389776  0.69943542  0.10500158  1
  Sc  Sc53  1  0.51532996  0.89806649  0.50525164  1
  Sc  Sc54  1  0.49274968  0.50442992  0.09535702  1
  Sc  Sc55  1  0.10458277  0.49675388  0.30583297  1
  Sc  Sc56  1  0.30087166  0.69318517  0.10374797  1
  Sc  Sc57  1  0.48655432  0.30323046  0.29456182  1
  Sc  Sc58  1  0.69897637  0.30744043  0.70417558  1
  Sc  Sc59  1  0.90277343  0.90876273  0.90875833  1
  Sc  Sc60  1  0.29850944  0.49444389  0.70719682  1
  Sc  Sc61  1  0.90000025  0.50079486  0.89619213  1
  Sc  Sc62  1  0.29961331  0.49498184  0.30676252  1
  Sc  Sc63  1  0.30326496  0.30073754  0.90403496  1
  Sc  Sc64  1  0.30897881  0.90247715  0.89934290  1
  Sc  Sc65  1  0.70202447  0.69853456  0.49830373  1
  Sc  Sc66  1  0.10905426  0.10338611  0.30045289  1
  Sc  Sc67  1  0.49605167  0.30041365  0.70670986  1
  Sc  Sc68  1  0.70240257  0.90248131  0.69656804  1
  Sc  Sc69  1  0.89951446  0.29934833  0.30205217  1
  Sc  Sc70  1  0.69611215  0.49761144  0.89608360  1
  Sc  Sc71  1  0.09648003  0.68610585  0.70010830  1
  Sc  Sc72  1  0.49388309  0.50481875  0.29753135  1
  Sc  Sc73  1  0.89651940  0.30336245  0.50246470  1
  Sc  Sc74  1  0.50194316  0.10188042  0.10612978  1
  Sc  Sc75  1  0.50181666  0.49503775  0.50422546  1
  Sc  Sc76  1  0.90541578  0.70619815  0.11009997  1
  Sc  Sc77  1  0.49708697  0.10914098  0.70563851  1
  Sc  Sc78  1  0.30233578  0.89722465  0.71396308  1
  Sc  Sc79  1  0.10607133  0.10270162  0.09371931  1
  Sc  Sc80  1  0.89676105  0.49583780  0.50580341  1
  Sc  Sc81  1  0.70022570  0.10158394  0.10036447  1
  Sc  Sc82  1  0.10297536  0.49692270  0.49980847  1
  Sc  Sc83  1  0.08684573  0.89523043  0.10469525  1
  Sc  Sc84  1  0.10710061  0.30593831  0.30417380  1
  Sc  Sc85  1  0.89769240  0.50312937  0.69586221  1
  Sc  Sc86  1  0.10495598  0.69745326  0.29047897  1
  Sc  Sc87  1  0.70970603  0.89466609  0.29506015  1
  Sc  Sc88  1  0.90310019  0.50324233  0.10044908  1
  Sc  Sc89  1  0.50194650  0.10299532  0.89232750  1
  Sc  Sc90  1  0.69319005  0.29619860  0.89693322  1
  Sc  Sc91  1  0.50762579  0.69828777  0.70082160  1
  Sc  Sc92  1  0.89265980  0.10122104  0.29175973  1
  Sc  Sc93  1  0.10323100  0.09786032  0.49710654  1
  Sc  Sc94  1  0.50297558  0.89981296  0.28451083  1
  Sc  Sc95  1  0.90138352  0.10415746  0.69621718  1
  Sc  Sc96  1  0.10994824  0.50087899  0.10166826  1
  Sc  Sc97  1  0.69834888  0.49900503  0.69716160  1
  Sc  Sc98  1  0.89771390  0.89731374  0.68494860  1
  Sc  Sc99  1  0.10466582  0.50083043  0.89506960  1
  Nb  Nb100  1  0.30005244  0.49411239  0.09579224  1
  Nb  Nb101  1  0.10068335  0.29764240  0.69431835  1
  Nb  Nb102  1  0.50437303  0.89569537  0.89913966  1
  Nb  Nb103  1  0.71165040  0.70190701  0.70724361  1
  Nb  Nb104  1  0.28668896  0.69489634  0.89963593  1
  Nb  Nb105  1  0.49522919  0.69947170  0.29908248  1
  Nb  Nb106  1  0.89884477  0.69779889  0.69537571  1
  Nb  Nb107  1  0.90407210  0.89854482  0.28845591  1
  Nb  Nb108  1  0.10016587  0.69820616  0.89807989  1
  Nb  Nb109  1  0.10281534  0.90108541  0.29804409  1
  Nb  Nb110  1  0.50254174  0.31092509  0.09188900  1
  Nb  Nb111  1  0.09589768  0.30463244  0.50394857  1
  Nb  Nb112  1  0.89178632  0.89899421  0.11218399  1
  Nb  Nb113  1  0.90146737  0.69691181  0.50523985  1
  Nb  Nb114  1  0.70017040  0.49661681  0.30336758  1
  Nb  Nb115  1  0.30415928  0.70166698  0.30589006  1
  Nb  Nb116  1  0.29923549  0.30787596  0.30276740  1
  Nb  Nb117  1  0.10280534  0.10174244  0.70002660  1
  Nb  Nb118  1  0.30715068  0.30514730  0.49603858  1
  Nb  Nb119  1  0.29821935  0.49990319  0.49856943  1
  Nb  Nb120  1  0.50512838  0.30368091  0.90195275  1
  Nb  Nb121  1  0.09721474  0.09910077  0.89601278  1
  Nb  Nb122  1  0.29981559  0.90056858  0.49938793  1
  Nb  Nb123  1  0.70538867  0.10248284  0.90093569  1
  Nb  Nb124  1  0.49537691  0.30647988  0.51042517  1
  Nb  Nb125  1  0.59654147  0.20437022  0.59665072  1
  Nb  Nb126  1  0.59990416  0.39759878  0.39588352  1
  Nb  Nb127  1  0.60478407  0.80062830  0.80682512  1
  Nb  Nb128  1  0.39707605  -0.00543924  0.59860114  1
  Nb  Nb129  1  0.20328979  0.80349415  0.59881095  1
  Nb  Nb130  1  0.20645900  0.00193417  0.60256053  1
  Nb  Nb131  1  -0.00247116  -0.00290574  0.39146011  1
  Nb  Nb132  1  0.00133717  0.19831883  0.40327178  1
  Nb  Nb133  1  -0.00202496  0.79587953  0.79927926  1
  Nb  Nb134  1  0.00520395  0.60616294  -0.00260675  1
  Nb  Nb135  1  0.00055432  0.20047884  -0.00772290  1
  Nb  Nb136  1  0.20316459  -0.00138227  0.20024313  1
  Nb  Nb137  1  0.19301705  0.20017824  0.79428632  1
  Nb  Nb138  1  0.39518511  0.79775162  0.59541520  1
  Nb  Nb139  1  0.39744747  0.60048467  0.59941934  1
  Nb  Nb140  1  0.40083512  0.79631681  0.40061430  1
  Nb  Nb141  1  0.00125694  0.39861546  0.19940901  1
  Nb  Nb142  1  0.79635851  0.59638175  0.20931789  1
  Nb  Nb143  1  0.80109208  0.80387061  0.00461062  1
  Nb  Nb144  1  -0.00532819  0.60396573  0.40215662  1
  Nb  Nb145  1  0.19736248  0.79489271  -0.00537791  1
  Nb  Nb146  1  0.19996376  0.20276268  0.59986219  1
  Nb  Nb147  1  0.59985717  0.40026027  0.20006854  1
  Nb  Nb148  1  0.79835137  0.39796059  0.00185410  1
  Nb  Nb149  1  0.20550658  0.80045134  0.39819383  1
  Pd  Pd150  1  0.60557045  0.79198662  -0.00457201  1
  Pd  Pd151  1  0.59798982  0.60321567  0.80050196  1
  Pd  Pd152  1  0.41034500  0.20186686  -0.00107564  1
  Pd  Pd153  1  0.00984970  0.79538118  0.38899775  1
  Pd  Pd154  1  0.80783273  -0.00522403  0.79280695  1
  Pd  Pd155  1  0.39016391  0.79079844  -0.00342539  1
  Pd  Pd156  1  0.20381426  0.39992526  -0.00676946  1
  Pd  Pd157  1  0.79321546  0.79483519  0.59418596  1
  Pd  Pd158  1  0.79515359  0.20340273  0.79294089  1
  Pd  Pd159  1  0.80277763  0.40491072  0.19269947  1
  Pd  Pd160  1  0.59412859  0.01201347  0.00048043  1
  Pd  Pd161  1  0.60597906  0.79616942  0.61025367  1
  Pd  Pd162  1  0.79960919  0.58872812  0.79401291  1
  Pd  Pd163  1  0.20526312  0.00489143  0.79618138  1
  Pd  Pd164  1  0.60189699  0.60032984  0.60490433  1
  Pd  Pd165  1  0.20568098  0.39684234  0.59547350  1
  Pd  Pd166  1  0.59928529  -0.01105135  0.39059535  1
  Pd  Pd167  1  -0.00500720  0.40700415  0.79249955  1
  Pd  Pd168  1  0.40666871  0.78919823  0.80393270  1
  Pd  Pd169  1  0.00241774  0.19473743  0.59097201  1
  Pd  Pd170  1  0.40656608  0.21060095  0.40122260  1
  Pd  Pd171  1  -0.00339339  0.79664205  -0.00350986  1
  Pd  Pd172  1  0.80382064  0.81353549  0.80630747  1
  Pd  Pd173  1  0.59589492  0.19268860  -0.00476571  1
  Pd  Pd174  1  0.59610274  0.60204864  -0.00035054  1
  Pd  Pd175  1  0.60087536  0.00165678  0.79740005  1
  Pd  Pd176  1  -0.00445723  0.40528193  0.00559366  1
  Pd  Pd177  1  0.40279514  0.20426484  0.19496044  1
  Pd  Pd178  1  0.59310201  0.20655301  0.20341284  1
  Pd  Pd179  1  0.00033460  0.19725587  0.79974780  1
  Pd  Pd180  1  0.21046858  0.59158920  0.20595967  1
  Pd  Pd181  1  0.40562564  0.59686980  0.40581941  1
  Pd  Pd182  1  0.19067797  0.80096617  0.79877668  1
  Pd  Pd183  1  0.40688556  0.60204254  0.79499059  1
  Pd  Pd184  1  0.00243111  0.00543855  0.00720534  1
  Pd  Pd185  1  0.20137415  0.20039566  0.20217586  1
  Pd  Pd186  1  0.20811485  0.80816909  0.19851298  1
  Pd  Pd187  1  0.00877100  0.00778719  0.20316868  1
  Pd  Pd188  1  0.59459256  0.01173454  0.61095645  1
  Pd  Pd189  1  0.00722087  0.20380335  0.20443615  1
  Pd  Pd190  1  -0.00712066  0.59335172  0.20599828  1
  Pd  Pd191  1  0.58755136  0.21252544  0.40018209  1
  Pd  Pd192  1  0.39003735  0.59125689  0.19980317  1
  Pd  Pd193  1  0.80991016  0.60378135  0.01076082  1
  Pd  Pd194  1  0.41247957  0.00624182  -0.00369014  1
  Pd  Pd195  1  -0.01138965  -0.00333194  0.79440933  1
  Pd  Pd196  1  0.59926989  0.81012007  0.39224602  1
  Pd  Pd197  1  0.39265767  0.80342334  0.20296465  1
  Pd  Pd198  1  0.19573528  0.21094225  0.40720405  1
  Pd  Pd199  1  -0.00076086  0.00819454  0.59019556  1
  Rh  Rh200  1  0.79786472  -0.00310068  0.00683329  1
  Rh  Rh201  1  0.79226743  0.80004880  0.40520796  1
  Rh  Rh202  1  0.40076638  0.39596611  0.80886863  1
  Rh  Rh203  1  0.81022149  0.20364208  0.39799455  1
  Rh  Rh204  1  0.00176103  0.79761101  0.20498684  1
  Rh  Rh205  1  0.39516807  0.00445298  0.18926816  1
  Rh  Rh206  1  0.79046330  0.20247163  0.60425176  1
  Rh  Rh207  1  0.40042372  0.40513593  0.19614666  1
  Rh  Rh208  1  0.18828727  0.20621944  -0.01385919  1
  Rh  Rh209  1  0.79429081  0.00333559  0.20144180  1
  Rh  Rh210  1  0.39618982  0.20645160  0.81321504  1
  Rh  Rh211  1  0.39297506  0.60261735  0.00504205  1
  Rh  Rh212  1  0.19748197  0.60176879  0.00247308  1
  Rh  Rh213  1  0.60056117  0.79857945  0.20375509  1
  Rh  Rh214  1  0.79564120  0.19458158  0.20071008  1
  Rh  Rh215  1  0.80795468  0.60214168  0.40049688  1
  Rh  Rh216  1  0.79221540  0.79063672  0.19471136  1
  Rh  Rh217  1  0.60267084  0.39347704  0.59678419  1
  Rh  Rh218  1  0.20747055  0.59336730  0.60610304  1
  Rh  Rh219  1  0.19098756  0.60162548  0.39456715  1
  Rh  Rh220  1  0.80175996  0.20353521  -0.00326538  1
  Rh  Rh221  1  0.19052635  -0.01015257  0.00679683  1
  Rh  Rh222  1  0.59991431  0.59228721  0.20525504  1
  Rh  Rh223  1  0.19049306  -0.00500169  0.39663161  1
  Rh  Rh224  1  0.00296510  0.39742315  0.39897551  1
  Rh  Rh225  1  -0.00515510  0.59409034  0.59325004  1
  Rh  Rh226  1  0.79489079  0.39489026  0.40697505  1
  Rh  Rh227  1  -0.00056085  0.60087840  0.80130510  1
  Rh  Rh228  1  0.19427037  0.59098032  0.79635838  1
  Rh  Rh229  1  -0.00250816  0.40213256  0.59886576  1
  Rh  Rh230  1  0.60341497  0.00137613  0.20109914  1
  Rh  Rh231  1  0.80926191  -0.00868264  0.38856975  1
  Rh  Rh232  1  0.40230235  0.00153207  0.80374112  1
  Rh  Rh233  1  0.60576095  0.40239612  0.00384996  1
  Rh  Rh234  1  0.59132610  0.58754393  0.39749284  1
  Rh  Rh235  1  0.79764573  0.40361485  0.80478274  1
  Rh  Rh236  1  0.39343266  0.41133725  0.59728241  1
  Rh  Rh237  1  0.80186321  0.00279032  0.60356002  1
  Rh  Rh238  1  0.59792973  0.39869125  0.80162416  1
  Rh  Rh239  1  0.41997090  -0.01581660  0.40925219  1
  Rh  Rh240  1  0.60272621  0.20120639  0.79589242  1
  Rh  Rh241  1  0.79866037  0.40177153  0.60330885  1
  Rh  Rh242  1  0.20318200  0.39353919  0.80056575  1
  Rh  Rh243  1  0.40226663  0.19432400  0.59017443  1
  Rh  Rh244  1  0.39724489  0.39855750  -0.00085366  1
  Rh  Rh245  1  0.79762544  0.60435456  0.60244814  1
  Rh  Rh246  1  0.20403474  0.39730823  0.40695111  1
  Rh  Rh247  1  0.20127154  0.40292323  0.20275847  1
  Rh  Rh248  1  0.00498255  0.79009564  0.61191954  1
  Rh  Rh249  1  0.40358206  0.40096741  0.40315409  1
