# generated using pymatgen
data_ZrScNbPdRh
_symmetry_space_group_name_H-M   'P 1'
_cell_length_a   16.55240394
_cell_length_b   16.55821073
_cell_length_c   16.55644838
_cell_angle_alpha   90.01240909
_cell_angle_beta   89.99928155
_cell_angle_gamma   90.04521868
_symmetry_Int_Tables_number   1
_chemical_formula_structural   ZrScNbPdRh
_chemical_formula_sum   'Zr50 Sc50 Nb50 Pd50 Rh50'
_cell_volume   4537.75992702
_cell_formula_units_Z   50
loop_
 _symmetry_equiv_pos_site_id
 _symmetry_equiv_pos_as_xyz
  1  'x, y, z'
loop_
 _atom_site_type_symbol
 _atom_site_label
 _atom_site_symmetry_multiplicity
 _atom_site_fract_x
 _atom_site_fract_y
 _atom_site_fract_z
 _atom_site_occupancy
  Zr  Zr0  1  0.90411085  0.89570775  0.49538504  1
  Zr  Zr1  1  0.51124570  0.09178969  0.89983959  1
  Zr  Zr2  1  0.89732174  0.89888983  0.09352596  1
  Zr  Zr3  1  0.29999630  0.70231560  0.50759623  1
  Zr  Zr4  1  0.70742718  0.89618485  0.30241925  1
  Zr  Zr5  1  0.09962132  0.09460684  0.49102829  1
  Zr  Zr6  1  0.70911537  0.90086260  0.70798566  1
  Zr  Zr7  1  0.70405800  0.10037511  0.89492961  1
  Zr  Zr8  1  0.50263828  0.29681121  0.10786259  1
  Zr  Zr9  1  0.50238422  0.69817452  0.30578071  1
  Zr  Zr10  1  0.68933820  0.29987439  0.29339144  1
  Zr  Zr11  1  0.51223235  0.49411786  0.70492052  1
  Zr  Zr12  1  0.69236819  0.70367466  0.30325828  1
  Zr  Zr13  1  0.10424403  0.51819446  0.89579234  1
  Zr  Zr14  1  0.29373984  0.69543723  0.89511902  1
  Zr  Zr15  1  0.90227715  0.69131064  0.50203907  1
  Zr  Zr16  1  0.69533342  0.49954071  0.30604961  1
  Zr  Zr17  1  0.50180430  0.09920609  0.69435263  1
  Zr  Zr18  1  0.50888082  0.88751090  0.29810619  1
  Zr  Zr19  1  0.29388738  0.90157694  0.28988784  1
  Zr  Zr20  1  0.29943208  0.50433514  0.29810797  1
  Zr  Zr21  1  0.89775704  0.29712994  0.09248455  1
  Zr  Zr22  1  0.90712562  0.30449301  0.70006509  1
  Zr  Zr23  1  0.10243302  0.90244510  0.30627536  1
  Zr  Zr24  1  0.69694515  0.29306468  0.69734473  1
  Zr  Zr25  1  0.69633539  0.10206292  0.51434836  1
  Zr  Zr26  1  0.90006417  0.10441773  0.90456107  1
  Zr  Zr27  1  0.70763163  0.29899221  0.49895485  1
  Zr  Zr28  1  0.50366002  0.88996080  0.09031014  1
  Zr  Zr29  1  0.90198168  0.50569192  0.68860080  1
  Zr  Zr30  1  0.90584119  0.29493392  0.89743312  1
  Zr  Zr31  1  0.69622681  0.10047637  0.70628752  1
  Zr  Zr32  1  0.70086320  0.49285160  0.50475757  1
  Zr  Zr33  1  0.90289600  0.70313774  0.09900557  1
  Zr  Zr34  1  0.90046678  0.49426160  0.50309462  1
  Zr  Zr35  1  0.29621672  0.89933338  0.49234616  1
  Zr  Zr36  1  0.90726566  0.10282716  0.09869646  1
  Zr  Zr37  1  0.09644259  0.90485934  0.50149826  1
  Zr  Zr38  1  0.10060048  0.08675092  0.70292119  1
  Zr  Zr39  1  0.49769740  0.69088953  0.69969277  1
  Zr  Zr40  1  0.89979885  0.10611557  0.49938413  1
  Zr  Zr41  1  0.49577945  0.10071353  0.50891925  1
  Zr  Zr42  1  0.29457055  0.30016704  0.89290717  1
  Zr  Zr43  1  0.69674239  0.51129465  0.71002383  1
  Zr  Zr44  1  0.30375299  0.70376417  0.69969364  1
  Zr  Zr45  1  0.90418201  0.69871827  0.29760090  1
  Zr  Zr46  1  0.10412993  0.29458770  0.89197366  1
  Zr  Zr47  1  0.91316460  0.70470094  0.90806529  1
  Zr  Zr48  1  0.09420163  0.50669634  0.50264269  1
  Zr  Zr49  1  0.09710116  0.49295131  0.69503437  1
  Sc  Sc50  1  0.29857975  0.91106782  0.70173666  1
  Sc  Sc51  1  0.09735281  0.89163081  0.10722357  1
  Sc  Sc52  1  0.10280820  0.10730222  0.29908946  1
  Sc  Sc53  1  0.49487826  0.90030734  0.51020258  1
  Sc  Sc54  1  0.09685715  0.10192402  0.90180388  1
  Sc  Sc55  1  0.49608323  0.10461322  0.10158093  1
  Sc  Sc56  1  0.30297785  0.28871662  0.08757684  1
  Sc  Sc57  1  0.70790699  0.09691391  0.09546339  1
  Sc  Sc58  1  0.30858411  0.89038873  0.88763319  1
  Sc  Sc59  1  0.49299942  0.29734212  0.69906354  1
  Sc  Sc60  1  0.49743814  0.30493678  0.30593685  1
  Sc  Sc61  1  0.49115629  0.70861289  0.90799872  1
  Sc  Sc62  1  0.49808379  0.10984323  0.28715433  1
  Sc  Sc63  1  0.70212710  0.70291093  0.50020720  1
  Sc  Sc64  1  0.08969552  0.69353008  0.09708486  1
  Sc  Sc65  1  0.70328983  0.68721597  0.90188423  1
  Sc  Sc66  1  0.10887507  0.29706962  0.49241899  1
  Sc  Sc67  1  0.30510030  0.30149536  0.49571441  1
  Sc  Sc68  1  0.90135143  0.29209011  0.29279907  1
  Sc  Sc69  1  0.29524340  0.10974890  0.90132747  1
  Sc  Sc70  1  0.69632046  0.91291606  0.90829869  1
  Sc  Sc71  1  0.09923044  0.69711815  0.29726423  1
  Sc  Sc72  1  0.49482793  0.30223520  0.50324563  1
  Sc  Sc73  1  0.90106225  0.09856557  0.29997513  1
  Sc  Sc74  1  0.70246168  0.89669323  0.49653209  1
  Sc  Sc75  1  0.50268771  0.49792424  0.30788894  1
  Sc  Sc76  1  0.50153316  0.49166059  0.50602756  1
  Sc  Sc77  1  0.48400787  0.30511953  0.90303161  1
  Sc  Sc78  1  0.10780807  0.49915646  0.29079511  1
  Sc  Sc79  1  0.71669146  0.30368913  0.89899158  1
  Sc  Sc80  1  0.09740035  0.69926634  0.49547975  1
  Sc  Sc81  1  0.29549139  0.70239269  0.29881351  1
  Sc  Sc82  1  0.71036087  0.09706849  0.29394183  1
  Sc  Sc83  1  0.90815047  0.50109079  0.29462089  1
  Sc  Sc84  1  0.09967713  0.29282355  0.10698167  1
  Sc  Sc85  1  0.10235800  0.69166393  0.71009572  1
  Sc  Sc86  1  0.48957106  0.90875307  0.70390190  1
  Sc  Sc87  1  0.29374943  0.49612985  0.50071177  1
  Sc  Sc88  1  0.30834482  0.70095829  0.10390798  1
  Sc  Sc89  1  0.29935917  0.51249036  0.10338338  1
  Sc  Sc90  1  0.50467656  0.69724536  0.10470122  1
  Sc  Sc91  1  0.30040793  0.10123967  0.10508336  1
  Sc  Sc92  1  0.89382959  0.49856667  0.89268911  1
  Sc  Sc93  1  0.88825249  0.70614024  0.69938555  1
  Sc  Sc94  1  0.90395549  0.50998831  0.10091349  1
  Sc  Sc95  1  0.09648564  0.90190189  0.88509665  1
  Sc  Sc96  1  0.89700126  0.89944837  0.89673817  1
  Sc  Sc97  1  0.30164722  0.10442503  0.49652571  1
  Sc  Sc98  1  0.29406763  0.10101268  0.29585229  1
  Sc  Sc99  1  0.28913927  0.49649147  0.69570342  1
  Nb  Nb100  1  0.10583121  0.30444882  0.30114293  1
  Nb  Nb101  1  0.89853524  0.10075902  0.70202400  1
  Nb  Nb102  1  0.10252800  0.09748550  0.09908592  1
  Nb  Nb103  1  0.50192568  0.89940937  0.90149552  1
  Nb  Nb104  1  0.29822052  0.90189275  0.09900308  1
  Nb  Nb105  1  0.49489917  0.50010975  0.09910573  1
  Nb  Nb106  1  0.28794086  0.29281022  0.70732010  1
  Nb  Nb107  1  0.70074965  0.90011608  0.10075319  1
  Nb  Nb108  1  0.10019524  0.49678311  0.09777919  1
  Nb  Nb109  1  0.90113886  0.30135042  0.50325525  1
  Nb  Nb110  1  0.49176302  0.70632466  0.50765148  1
  Nb  Nb111  1  0.49842940  0.49850937  0.90077231  1
  Nb  Nb112  1  0.28875973  0.31282916  0.31005757  1
  Nb  Nb113  1  0.70498868  0.69482873  0.10337861  1
  Nb  Nb114  1  0.69800010  0.30509638  0.09822820  1
  Nb  Nb115  1  0.89819628  0.90085868  0.29638562  1
  Nb  Nb116  1  0.30220201  0.49773231  0.90246841  1
  Nb  Nb117  1  0.30281186  0.10467045  0.69915606  1
  Nb  Nb118  1  0.10257944  0.29765835  0.70342123  1
  Nb  Nb119  1  0.90748075  0.90569846  0.69520855  1
  Nb  Nb120  1  0.68978803  0.49945385  0.89994353  1
  Nb  Nb121  1  0.69648233  0.50772968  0.09489686  1
  Nb  Nb122  1  0.10238022  0.70348546  0.90294119  1
  Nb  Nb123  1  0.09612408  0.90476701  0.69226988  1
  Nb  Nb124  1  0.69324738  0.70018504  0.70444668  1
  Nb  Nb125  1  0.00870224  0.40374776  -0.00121763  1
  Nb  Nb126  1  0.39787549  -0.00676640  -0.00080640  1
  Nb  Nb127  1  0.60378777  -0.00823995  0.19940346  1
  Nb  Nb128  1  0.40276709  0.60546811  0.40830902  1
  Nb  Nb129  1  0.19953186  0.80075708  -0.00388331  1
  Nb  Nb130  1  0.80068322  0.59638358  0.39985386  1
  Nb  Nb131  1  0.60142358  0.40639144  0.00169929  1
  Nb  Nb132  1  0.79074071  0.40387498  0.19092888  1
  Nb  Nb133  1  0.40639889  -0.00171726  0.39153296  1
  Nb  Nb134  1  0.19756087  0.40590055  -0.00221628  1
  Nb  Nb135  1  0.40045388  0.58989956  0.80510661  1
  Nb  Nb136  1  0.59939751  0.79990581  0.79994029  1
  Nb  Nb137  1  0.20442872  -0.00840465  0.00203601  1
  Nb  Nb138  1  0.59918701  0.79650215  0.61045656  1
  Nb  Nb139  1  0.79753071  0.79800151  0.19515054  1
  Nb  Nb140  1  0.60122392  0.19302074  0.40240564  1
  Nb  Nb141  1  -0.00037555  -0.00156103  0.20016644  1
  Nb  Nb142  1  0.80716369  -0.00020897  0.60533446  1
  Nb  Nb143  1  0.19344206  0.80700676  0.60411810  1
  Nb  Nb144  1  0.00236912  0.39385977  0.39852593  1
  Nb  Nb145  1  0.59531488  0.00380256  0.39669329  1
  Nb  Nb146  1  0.19758912  0.19832256  0.60761274  1
  Nb  Nb147  1  0.60419258  0.21007680  0.00228215  1
  Nb  Nb148  1  0.39730832  0.40168002  0.19832730  1
  Nb  Nb149  1  0.00485799  0.20120095  0.60219420  1
  Pd  Pd150  1  0.01028929  -0.00866426  0.00240162  1
  Pd  Pd151  1  0.79752925  0.00479151  0.40873384  1
  Pd  Pd152  1  0.38546198  0.21550297  0.21246355  1
  Pd  Pd153  1  0.39693654  0.80113828  0.39625295  1
  Pd  Pd154  1  -0.00557935  0.39616614  0.19732924  1
  Pd  Pd155  1  0.81085060  0.39987400  0.38439729  1
  Pd  Pd156  1  0.79388805  0.40023351  0.61125100  1
  Pd  Pd157  1  0.19560322  0.78993497  0.19123681  1
  Pd  Pd158  1  0.20176883  0.60512559  0.00856058  1
  Pd  Pd159  1  0.40573384  0.19421541  0.80260190  1
  Pd  Pd160  1  0.79862797  0.40267889  0.79162529  1
  Pd  Pd161  1  0.80676871  0.59455945  -0.00478092  1
  Pd  Pd162  1  -0.00655512  0.00211461  0.80503089  1
  Pd  Pd163  1  0.00113314  0.20755970  0.39999842  1
  Pd  Pd164  1  0.20425938  0.60170862  0.40051038  1
  Pd  Pd165  1  0.80329581  0.41126767  0.00416280  1
  Pd  Pd166  1  0.59156725  0.60150358  -0.00305734  1
  Pd  Pd167  1  0.39162312  0.40523255  0.78974542  1
  Pd  Pd168  1  0.19848717  0.38938051  0.59410720  1
  Pd  Pd169  1  0.20830977  0.00354820  0.59691979  1
  Pd  Pd170  1  -0.00018069  0.79820316  0.79160200  1
  Pd  Pd171  1  0.39453260  0.01047858  0.80889548  1
  Pd  Pd172  1  0.59508635  0.59525127  0.20058288  1
  Pd  Pd173  1  0.60338325  0.60451434  0.59108964  1
  Pd  Pd174  1  0.59596106  0.41186811  0.19530532  1
  Pd  Pd175  1  0.00511449  0.40643733  0.80774949  1
  Pd  Pd176  1  0.39907598  0.58389774  0.60091047  1
  Pd  Pd177  1  0.39317340  0.39697928  0.60843335  1
  Pd  Pd178  1  0.00666062  0.78989788  0.60818312  1
  Pd  Pd179  1  0.60107946  0.38678780  0.81057869  1
  Pd  Pd180  1  0.20335516  0.20523906  0.20108361  1
  Pd  Pd181  1  0.40144658  0.19587761  0.39307540  1
  Pd  Pd182  1  0.79746446  0.20408407  0.19564767  1
  Pd  Pd183  1  0.59753470  0.60185908  0.41480978  1
  Pd  Pd184  1  0.61132142  0.79079440  -0.00632192  1
  Pd  Pd185  1  0.79481984  0.79764579  0.81305639  1
  Pd  Pd186  1  0.79028372  0.79847098  -0.00317443  1
  Pd  Pd187  1  -0.00857435  0.60421975  0.79542034  1
  Pd  Pd188  1  0.79598512  0.80380866  0.59929253  1
  Pd  Pd189  1  0.79759141  0.59897222  0.20657258  1
  Pd  Pd190  1  0.40092303  0.60343199  -0.00229067  1
  Pd  Pd191  1  0.00207952  0.79793607  0.39632616  1
  Pd  Pd192  1  0.80685889  0.60516906  0.80357667  1
  Pd  Pd193  1  0.19493576  0.80652993  0.79488346  1
  Pd  Pd194  1  0.39488983  0.40193138  0.00940885  1
  Pd  Pd195  1  0.40980110  -0.00498039  0.19760407  1
  Pd  Pd196  1  0.79545330  0.20130874  0.39380739  1
  Pd  Pd197  1  0.21118829  0.39328514  0.18511768  1
  Pd  Pd198  1  0.40052683  0.79738004  0.19930800  1
  Pd  Pd199  1  0.59370458  0.21243744  0.81303424  1
  Rh  Rh200  1  -0.00308398  0.59384113  -0.00258740  1
  Rh  Rh201  1  -0.00467315  -0.00025041  0.39015660  1
  Rh  Rh202  1  0.19395705  0.19685331  0.00251228  1
  Rh  Rh203  1  0.20816920  0.59444228  0.79381890  1
  Rh  Rh204  1  0.80470036  -0.00829207  0.19395806  1
  Rh  Rh205  1  0.18925976  0.00189436  0.19427561  1
  Rh  Rh206  1  0.20863629  0.00390942  0.39417772  1
  Rh  Rh207  1  0.80329098  0.00310871  -0.00172518  1
  Rh  Rh208  1  0.39608280  0.80962631  0.60926010  1
  Rh  Rh209  1  0.61199601  0.18654270  0.19674772  1
  Rh  Rh210  1  0.40997691  0.79374288  0.79426042  1
  Rh  Rh211  1  0.01181503  0.80814825  -0.00663727  1
  Rh  Rh212  1  0.00567582  0.19328862  0.20067332  1
  Rh  Rh213  1  -0.00651810  0.80539522  0.20330702  1
  Rh  Rh214  1  0.39030199  0.00142346  0.59146974  1
  Rh  Rh215  1  0.59246368  0.20948480  0.59480973  1
  Rh  Rh216  1  0.58774679  0.60987626  0.81455360  1
  Rh  Rh217  1  0.80875676  0.78922908  0.39394290  1
  Rh  Rh218  1  0.19509846  0.18650428  0.79480835  1
  Rh  Rh219  1  0.60339787  0.39408899  0.60283138  1
  Rh  Rh220  1  0.61173209  -0.01487249  0.60163678  1
  Rh  Rh221  1  0.79161653  0.60152745  0.59696276  1
  Rh  Rh222  1  0.59816954  -0.00977129  0.79304930  1
  Rh  Rh223  1  0.80803385  0.00181271  0.79977251  1
  Rh  Rh224  1  0.00861218  0.20799298  0.00215633  1
  Rh  Rh225  1  0.19509862  0.79681357  0.40510686  1
  Rh  Rh226  1  0.00145450  0.19389674  0.79267301  1
  Rh  Rh227  1  0.19529253  0.60645334  0.19419129  1
  Rh  Rh228  1  0.79394372  0.19722711  -0.00063759  1
  Rh  Rh229  1  0.80529786  0.20152398  0.79604725  1
  Rh  Rh230  1  -0.00237444  0.59003024  0.39554121  1
  Rh  Rh231  1  0.59260538  0.80509904  0.41952264  1
  Rh  Rh232  1  0.01010376  0.38812113  0.58896261  1
  Rh  Rh233  1  0.60891577  0.79877283  0.18909735  1
  Rh  Rh234  1  0.40865895  0.59549144  0.21225670  1
  Rh  Rh235  1  0.00276638  0.60923062  0.60753952  1
  Rh  Rh236  1  0.38859847  0.80474574  0.00136844  1
  Rh  Rh237  1  0.81024504  0.19810008  0.60821651  1
  Rh  Rh238  1  0.41030043  0.18617799  -0.00862725  1
  Rh  Rh239  1  0.19849080  0.40903078  0.80600669  1
  Rh  Rh240  1  0.38917236  0.20702804  0.60632858  1
  Rh  Rh241  1  0.20617679  0.20083196  0.40110669  1
  Rh  Rh242  1  0.20479451  0.00279576  0.80745622  1
  Rh  Rh243  1  0.19509800  0.60923362  0.60057690  1
  Rh  Rh244  1  0.00849100  0.59682817  0.19965609  1
  Rh  Rh245  1  -0.00802614  0.00775234  0.59544173  1
  Rh  Rh246  1  0.59373576  0.00776361  0.01322559  1
  Rh  Rh247  1  0.59781420  0.38736039  0.40943194  1
  Rh  Rh248  1  0.19178231  0.40786750  0.40454407  1
  Rh  Rh249  1  0.39684390  0.41016921  0.39479238  1
