# generated using pymatgen
data_ZrScNbPdRh
_symmetry_space_group_name_H-M   'P 1'
_cell_length_a   16.55810773
_cell_length_b   16.55755253
_cell_length_c   16.55835217
_cell_angle_alpha   90.00713061
_cell_angle_beta   89.98721798
_cell_angle_gamma   89.97845625
_symmetry_Int_Tables_number   1
_chemical_formula_structural   ZrScNbPdRh
_chemical_formula_sum   'Zr50 Sc50 Nb50 Pd50 Rh50'
_cell_volume   4539.66614982
_cell_formula_units_Z   50
loop_
 _symmetry_equiv_pos_site_id
 _symmetry_equiv_pos_as_xyz
  1  'x, y, z'
loop_
 _atom_site_type_symbol
 _atom_site_label
 _atom_site_symmetry_multiplicity
 _atom_site_fract_x
 _atom_site_fract_y
 _atom_site_fract_z
 _atom_site_occupancy
  Zr  Zr0  1  0.29372018  0.50338547  0.69980446  1
  Zr  Zr1  1  0.50107147  0.69916516  0.89859217  1
  Zr  Zr2  1  0.50703048  0.70518138  0.09775419  1
  Zr  Zr3  1  0.30054406  0.29037183  0.90143760  1
  Zr  Zr4  1  0.70966981  0.90410040  0.89687170  1
  Zr  Zr5  1  0.08970924  0.09685417  0.89987108  1
  Zr  Zr6  1  0.89617220  0.89672190  0.09380372  1
  Zr  Zr7  1  0.89724761  0.90777551  0.29860111  1
  Zr  Zr8  1  0.70282170  0.30277789  0.89662198  1
  Zr  Zr9  1  0.49985170  0.30171502  0.10545752  1
  Zr  Zr10  1  0.09307515  0.30107058  0.30039196  1
  Zr  Zr11  1  0.29669331  0.29646515  0.69215774  1
  Zr  Zr12  1  0.49707017  0.09707756  0.89365595  1
  Zr  Zr13  1  0.09605114  0.29314342  0.10403957  1
  Zr  Zr14  1  0.30391170  0.09718314  0.10124789  1
  Zr  Zr15  1  0.10142339  0.69961580  0.69965975  1
  Zr  Zr16  1  0.69786823  0.10532016  0.90248693  1
  Zr  Zr17  1  0.89604512  0.29637521  0.90034457  1
  Zr  Zr18  1  0.29794310  0.49084119  0.49705610  1
  Zr  Zr19  1  0.29369334  0.50576155  0.90868051  1
  Zr  Zr20  1  0.49674413  0.69936190  0.30788257  1
  Zr  Zr21  1  0.09737009  0.89608235  0.90359904  1
  Zr  Zr22  1  0.10789443  0.50592759  0.09800855  1
  Zr  Zr23  1  0.30032374  0.09593379  0.90615582  1
  Zr  Zr24  1  0.29946246  0.49784545  0.10826986  1
  Zr  Zr25  1  0.49791881  0.90019024  0.50153333  1
  Zr  Zr26  1  0.29156766  0.90504695  0.10306504  1
  Zr  Zr27  1  0.09080012  0.69948320  0.10050892  1
  Zr  Zr28  1  0.50451838  0.30048605  0.50257362  1
  Zr  Zr29  1  0.90212970  0.29513775  0.29582729  1
  Zr  Zr30  1  0.89926972  0.29746878  0.69496440  1
  Zr  Zr31  1  0.70148678  0.91061358  0.30692246  1
  Zr  Zr32  1  0.70147032  0.10081207  0.49783680  1
  Zr  Zr33  1  0.89449847  0.30127413  0.49570222  1
  Zr  Zr34  1  0.09795281  0.09889462  0.29645516  1
  Zr  Zr35  1  0.90248364  0.49225431  0.30607040  1
  Zr  Zr36  1  0.69534648  0.89823198  0.69888565  1
  Zr  Zr37  1  0.10562914  0.89652579  0.29141129  1
  Zr  Zr38  1  0.09637211  0.50516451  0.50299116  1
  Zr  Zr39  1  0.50131208  0.30358848  0.30284681  1
  Zr  Zr40  1  0.69204765  0.89986899  0.50379160  1
  Zr  Zr41  1  0.10768654  0.70082825  0.30118057  1
  Zr  Zr42  1  0.49703050  0.90158335  0.09840465  1
  Zr  Zr43  1  0.70804306  0.70289408  0.09503455  1
  Zr  Zr44  1  0.70136598  0.70120734  0.30183288  1
  Zr  Zr45  1  0.69808185  0.49643084  0.89210870  1
  Zr  Zr46  1  0.50071720  0.10258491  0.10184397  1
  Zr  Zr47  1  0.69108190  0.29557793  0.69673577  1
  Zr  Zr48  1  0.09473050  0.29288679  0.90316655  1
  Zr  Zr49  1  0.50658616  0.10057853  0.29725550  1
  Sc  Sc50  1  0.70374685  0.29632307  0.08338874  1
  Sc  Sc51  1  0.90281377  0.09434173  0.70564328  1
  Sc  Sc52  1  0.89832850  0.68609036  0.50743125  1
  Sc  Sc53  1  0.70622505  0.29147546  0.31095443  1
  Sc  Sc54  1  0.09776070  0.89741728  0.70308745  1
  Sc  Sc55  1  0.89246017  0.90284744  0.70586557  1
  Sc  Sc56  1  0.50684887  0.50547612  0.89606288  1
  Sc  Sc57  1  0.89740920  0.09379925  0.90041158  1
  Sc  Sc58  1  0.49259832  0.89882003  0.89740840  1
  Sc  Sc59  1  0.70700250  0.50294408  0.49631118  1
  Sc  Sc60  1  0.29840539  0.29872837  0.10148041  1
  Sc  Sc61  1  0.90347406  0.49420062  0.50079204  1
  Sc  Sc62  1  0.70357405  0.10427343  0.10338395  1
  Sc  Sc63  1  0.11405246  0.30535391  0.50326295  1
  Sc  Sc64  1  0.70295971  0.69618146  0.68745887  1
  Sc  Sc65  1  0.29836801  0.71579827  0.49719931  1
  Sc  Sc66  1  0.90450246  0.50262811  0.69293252  1
  Sc  Sc67  1  0.88807799  0.10140004  0.29475605  1
  Sc  Sc68  1  0.10193264  0.50476506  0.30309295  1
  Sc  Sc69  1  0.29442228  0.70287678  0.70366279  1
  Sc  Sc70  1  0.90278947  0.69273607  0.70422330  1
  Sc  Sc71  1  0.50304868  0.10056084  0.69921834  1
  Sc  Sc72  1  0.89971430  0.90233991  0.89926276  1
  Sc  Sc73  1  0.09762688  0.89900994  0.09806770  1
  Sc  Sc74  1  0.89523727  0.10245481  0.10151669  1
  Sc  Sc75  1  0.29270615  0.68916875  0.09783460  1
  Sc  Sc76  1  0.31375349  0.10580793  0.69386882  1
  Sc  Sc77  1  0.09550998  0.50265466  0.69644805  1
  Sc  Sc78  1  0.49515982  0.50213096  0.10223574  1
  Sc  Sc79  1  0.50333795  0.50067988  0.49217841  1
  Sc  Sc80  1  0.50755625  0.90080692  0.30477178  1
  Sc  Sc81  1  0.50159832  0.90621942  0.69395734  1
  Sc  Sc82  1  0.50789792  0.70648627  0.49864706  1
  Sc  Sc83  1  0.70822615  0.50095246  0.08466672  1
  Sc  Sc84  1  0.70376685  0.29602609  0.50486556  1
  Sc  Sc85  1  0.51307331  0.50315691  0.70697844  1
  Sc  Sc86  1  0.88865716  0.91239785  0.50795312  1
  Sc  Sc87  1  0.70482768  0.89512673  0.10181729  1
  Sc  Sc88  1  0.30252691  0.31470826  0.30513334  1
  Sc  Sc89  1  0.10069757  0.09217209  0.09464698  1
  Sc  Sc90  1  0.51116254  0.29510939  0.89753320  1
  Sc  Sc91  1  0.89685127  0.50342452  0.89098143  1
  Sc  Sc92  1  0.29983606  0.89149229  0.69622593  1
  Sc  Sc93  1  0.29917129  0.89721245  0.90282164  1
  Sc  Sc94  1  0.48879063  0.49771042  0.30422810  1
  Sc  Sc95  1  0.70185833  0.50258692  0.69979682  1
  Sc  Sc96  1  0.69408816  0.09828244  0.70378947  1
  Sc  Sc97  1  0.90345362  0.69041942  0.28863397  1
  Sc  Sc98  1  0.09357420  0.30405163  0.69764378  1
  Sc  Sc99  1  0.29646033  0.70262502  0.89579929  1
  Nb  Nb100  1  0.90062522  0.10188726  0.50353054  1
  Nb  Nb101  1  0.29714719  0.10635020  0.50282678  1
  Nb  Nb102  1  0.90325700  0.50513695  0.10079759  1
  Nb  Nb103  1  0.69968972  0.70021736  0.90148498  1
  Nb  Nb104  1  0.30214143  0.29553111  0.50488876  1
  Nb  Nb105  1  0.90132812  0.69223979  0.09218281  1
  Nb  Nb106  1  0.09108810  0.69936451  0.89610104  1
  Nb  Nb107  1  0.09776409  0.09937102  0.70010515  1
  Nb  Nb108  1  0.70459121  0.50014113  0.29669644  1
  Nb  Nb109  1  0.09859220  0.70701785  0.50050143  1
  Nb  Nb110  1  0.29941128  0.09552832  0.30080735  1
  Nb  Nb111  1  0.30324654  0.51165662  0.29819761  1
  Nb  Nb112  1  0.10470862  0.89814996  0.49886593  1
  Nb  Nb113  1  0.49285114  0.09591319  0.50600765  1
  Nb  Nb114  1  0.29889549  0.90347854  0.50045113  1
  Nb  Nb115  1  0.70125188  0.70565786  0.49791473  1
  Nb  Nb116  1  0.90569238  0.70420036  0.90388958  1
  Nb  Nb117  1  0.89857297  0.30491385  0.10291353  1
  Nb  Nb118  1  0.49607095  0.29817350  0.70107200  1
  Nb  Nb119  1  0.50369201  0.69652261  0.70256154  1
  Nb  Nb120  1  0.70227919  0.09805856  0.30089247  1
  Nb  Nb121  1  0.29656625  0.89488031  0.30393581  1
  Nb  Nb122  1  0.09989360  0.49569876  0.90161278  1
  Nb  Nb123  1  0.29982083  0.70623450  0.29878416  1
  Nb  Nb124  1  0.10338595  0.09952562  0.50111482  1
  Nb  Nb125  1  0.60139793  0.79332581  0.79869220  1
  Nb  Nb126  1  0.00163092  0.19304798  0.40711152  1
  Nb  Nb127  1  0.39431681  0.79881204  0.20472994  1
  Nb  Nb128  1  0.00438589  0.00065545  0.40769509  1
  Nb  Nb129  1  0.80056174  0.40133387  0.19596293  1
  Nb  Nb130  1  0.40288380  0.59925720  0.60276290  1
  Nb  Nb131  1  0.39532066  0.19512111  0.40523808  1
  Nb  Nb132  1  0.61094471  0.40543940  0.20228313  1
  Nb  Nb133  1  0.60609785  0.59651170  0.20265833  1
  Nb  Nb134  1  0.00146695  0.80236875  0.59145672  1
  Nb  Nb135  1  0.39649498  0.39842350  0.79973631  1
  Nb  Nb136  1  0.20045766  0.39644460  0.80578574  1
  Nb  Nb137  1  0.59888315  0.00143520  -0.00161559  1
  Nb  Nb138  1  0.19805749  0.00644166  0.79424038  1
  Nb  Nb139  1  0.80309070  0.79784669  0.40422225  1
  Nb  Nb140  1  -0.00295747  0.80453760  0.40585312  1
  Nb  Nb141  1  0.20275065  0.19551864  0.20567879  1
  Nb  Nb142  1  0.19629885  0.19633799  0.79826708  1
  Nb  Nb143  1  -0.00312598  0.40366944  0.00402212  1
  Nb  Nb144  1  0.19977243  0.00329078  0.59722598  1
  Nb  Nb145  1  0.39231164  0.00341476  0.40387546  1
  Nb  Nb146  1  0.00252781  0.19304450  0.59375812  1
  Nb  Nb147  1  0.39807712  0.40031353  -0.00624777  1
  Nb  Nb148  1  0.20266815  0.00038738  0.40347810  1
  Nb  Nb149  1  0.40254468  0.40191928  0.60467697  1
  Pd  Pd150  1  0.81022462  0.79565378  0.59591553  1
  Pd  Pd151  1  0.79639047  0.78973019  0.79948973  1
  Pd  Pd152  1  0.39155015  0.60611493  0.41283401  1
  Pd  Pd153  1  0.79958239  0.19409534  0.79495042  1
  Pd  Pd154  1  0.61247650  0.21131892  0.19876879  1
  Pd  Pd155  1  0.40803481  0.20507486  0.00043335  1
  Pd  Pd156  1  0.59848518  0.40641388  0.59992136  1
  Pd  Pd157  1  0.40501356  0.80137340  0.79322958  1
  Pd  Pd158  1  -0.00743960  0.79839480  0.20134203  1
  Pd  Pd159  1  0.40014194  0.59524569  0.79600574  1
  Pd  Pd160  1  0.79865127  0.60574245  0.79884181  1
  Pd  Pd161  1  0.19127740  0.59735594  0.80545487  1
  Pd  Pd162  1  0.39063460  0.79607751  0.00791869  1
  Pd  Pd163  1  0.59598325  0.19506514  0.40565342  1
  Pd  Pd164  1  -0.00917679  0.19891571  0.00681732  1
  Pd  Pd165  1  0.40611483  0.60806891  0.19833255  1
  Pd  Pd166  1  0.00003408  0.59318899  -0.00858071  1
  Pd  Pd167  1  -0.00017084  0.40955946  0.19484378  1
  Pd  Pd168  1  0.80355551  0.60001434  -0.01190369  1
  Pd  Pd169  1  -0.00312623  0.60724293  0.39920858  1
  Pd  Pd170  1  0.00156004  0.40241477  0.80319871  1
  Pd  Pd171  1  0.19760290  0.40433431  0.39507657  1
  Pd  Pd172  1  0.19889902  0.39328265  -0.00028398  1
  Pd  Pd173  1  0.59642415  0.79842945  0.20649445  1
  Pd  Pd174  1  0.80700943  0.79857524  0.20601835  1
  Pd  Pd175  1  0.20782149  0.60894709  0.59022495  1
  Pd  Pd176  1  0.59184805  0.40513695  0.00524936  1
  Pd  Pd177  1  0.79253021  0.00795294  0.60800613  1
  Pd  Pd178  1  0.20114100  0.20045521  0.39364349  1
  Pd  Pd179  1  0.40441501  0.79260764  0.60344727  1
  Pd  Pd180  1  -0.00474641  0.80282156  0.79201489  1
  Pd  Pd181  1  0.39049570  0.20795344  0.21102632  1
  Pd  Pd182  1  0.00381887  -0.00383332  0.60118510  1
  Pd  Pd183  1  0.19952085  0.79339657  0.00169087  1
  Pd  Pd184  1  0.20815633  0.60458174  0.40603538  1
  Pd  Pd185  1  0.79709368  0.59393130  0.19602272  1
  Pd  Pd186  1  -0.00545313  0.00354397  0.19628437  1
  Pd  Pd187  1  0.40257345  0.59856745  0.00013890  1
  Pd  Pd188  1  0.60878589  0.40253597  0.39602013  1
  Pd  Pd189  1  0.60445072  0.81097423  -0.01080244  1
  Pd  Pd190  1  0.80489866  0.60251988  0.40263639  1
  Pd  Pd191  1  0.39109235  -0.00522509  0.79162367  1
  Pd  Pd192  1  0.60226099  0.59575169  0.39656723  1
  Pd  Pd193  1  0.79606139  0.40480937  0.60161590  1
  Pd  Pd194  1  0.60771333  -0.00248908  0.19161386  1
  Pd  Pd195  1  0.59818093  0.59853558  0.59218816  1
  Pd  Pd196  1  0.60018331  0.59524250  0.00425929  1
  Pd  Pd197  1  0.80195911  0.39986575  0.78903870  1
  Pd  Pd198  1  0.19981320  0.39772470  0.20666171  1
  Pd  Pd199  1  0.40076345  -0.00994155  0.20933519  1
  Rh  Rh200  1  0.60767366  0.80136830  0.39928331  1
  Rh  Rh201  1  0.18964908  0.61195532  -0.00741172  1
  Rh  Rh202  1  0.59895070  -0.01011570  0.80708507  1
  Rh  Rh203  1  0.59824505  0.39478675  0.79638605  1
  Rh  Rh204  1  0.59633586  0.19223945  -0.00061602  1
  Rh  Rh205  1  0.79345954  0.00256972  0.00299769  1
  Rh  Rh206  1  0.59629787  0.19425568  0.60002229  1
  Rh  Rh207  1  0.19624341  0.80215035  0.39956309  1
  Rh  Rh208  1  0.19886308  0.60204397  0.20514009  1
  Rh  Rh209  1  0.00242358  0.59861377  0.80255717  1
  Rh  Rh210  1  0.40008135  0.20220764  0.79960496  1
  Rh  Rh211  1  0.61069211  0.60983799  0.80023397  1
  Rh  Rh212  1  0.59383806  0.00820225  0.40593467  1
  Rh  Rh213  1  0.39835965  0.39470057  0.40818735  1
  Rh  Rh214  1  0.40298723  0.40192850  0.19704597  1
  Rh  Rh215  1  0.60075198  0.00557686  0.59694198  1
  Rh  Rh216  1  0.00245869  0.60533691  0.60142730  1
  Rh  Rh217  1  0.19669173  0.80643690  0.80351651  1
  Rh  Rh218  1  -0.00459974  0.79961931  0.00079024  1
  Rh  Rh219  1  -0.00567876  -0.00439511  0.00294799  1
  Rh  Rh220  1  0.20069583  0.40287877  0.60501918  1
  Rh  Rh221  1  0.80693139  0.79538973  -0.00391973  1
  Rh  Rh222  1  0.20080909  0.00404271  0.20220053  1
  Rh  Rh223  1  0.19827070  0.19184504  0.00639387  1
  Rh  Rh224  1  0.39381805  -0.00186998  0.59894526  1
  Rh  Rh225  1  0.00195476  0.39291722  0.59384951  1
  Rh  Rh226  1  0.59555006  0.79657793  0.60768721  1
  Rh  Rh227  1  0.40963856  0.20579185  0.59488600  1
  Rh  Rh228  1  0.80423966  0.19465320  0.60563539  1
  Rh  Rh229  1  0.79409238  0.20867200  0.19799304  1
  Rh  Rh230  1  0.80544191  0.19903069  -0.00044671  1
  Rh  Rh231  1  0.59859852  0.20242738  0.79703839  1
  Rh  Rh232  1  0.19650445  -0.00137350  -0.00722254  1
  Rh  Rh233  1  0.19408621  0.80431808  0.60485891  1
  Rh  Rh234  1  0.00179891  0.19326988  0.19930263  1
  Rh  Rh235  1  0.79772280  0.00569295  0.79827247  1
  Rh  Rh236  1  0.80536725  0.19308054  0.40040528  1
  Rh  Rh237  1  0.80395606  0.00183973  0.40196621  1
  Rh  Rh238  1  0.00297476  -0.00750357  0.80237958  1
  Rh  Rh239  1  0.79718261  0.39929381  0.39503712  1
  Rh  Rh240  1  0.40524520  -0.00144330  0.00053917  1
  Rh  Rh241  1  0.20602546  0.79338949  0.19176053  1
  Rh  Rh242  1  0.79844349  0.59597240  0.59740446  1
  Rh  Rh243  1  0.19161630  0.19525372  0.60934291  1
  Rh  Rh244  1  0.00705080  0.39269667  0.40852285  1
  Rh  Rh245  1  0.79373031  0.00163126  0.19457647  1
  Rh  Rh246  1  0.81223394  0.40427830  0.00215457  1
  Rh  Rh247  1  0.00452761  0.59696140  0.20210710  1
  Rh  Rh248  1  0.40190486  0.80792549  0.39546370  1
  Rh  Rh249  1  -0.00012662  0.20032293  0.78908159  1
