# generated using pymatgen
data_ZrScNbPdRh
_symmetry_space_group_name_H-M   'P 1'
_cell_length_a   16.54931129
_cell_length_b   16.55126360
_cell_length_c   16.55043511
_cell_angle_alpha   90.03056277
_cell_angle_beta   89.98743917
_cell_angle_gamma   90.02508605
_symmetry_Int_Tables_number   1
_chemical_formula_structural   ZrScNbPdRh
_chemical_formula_sum   'Zr50 Sc50 Nb50 Pd50 Rh50'
_cell_volume   4533.36181764
_cell_formula_units_Z   50
loop_
 _symmetry_equiv_pos_site_id
 _symmetry_equiv_pos_as_xyz
  1  'x, y, z'
loop_
 _atom_site_type_symbol
 _atom_site_label
 _atom_site_symmetry_multiplicity
 _atom_site_fract_x
 _atom_site_fract_y
 _atom_site_fract_z
 _atom_site_occupancy
  Zr  Zr0  1  0.89717283  0.11381144  0.49965271  1
  Zr  Zr1  1  0.69838905  0.89579611  0.89506777  1
  Zr  Zr2  1  0.29040289  0.30078832  0.08970990  1
  Zr  Zr3  1  0.30261341  0.70045235  0.50137342  1
  Zr  Zr4  1  0.70820289  0.49328303  0.29218292  1
  Zr  Zr5  1  0.09537955  0.49351820  0.50052746  1
  Zr  Zr6  1  0.90193687  0.09782596  0.10001397  1
  Zr  Zr7  1  0.69820581  0.30210470  0.69361649  1
  Zr  Zr8  1  0.90149940  0.68704432  0.89524574  1
  Zr  Zr9  1  0.10069710  0.49472352  0.70629774  1
  Zr  Zr10  1  0.08707505  0.70079673  0.49232820  1
  Zr  Zr11  1  0.29232305  0.69711689  0.90763630  1
  Zr  Zr12  1  0.09362662  0.90679799  0.69962769  1
  Zr  Zr13  1  0.28793960  0.29229015  0.50907173  1
  Zr  Zr14  1  0.29506498  0.90327930  0.90702985  1
  Zr  Zr15  1  0.49981052  0.70091123  0.69684092  1
  Zr  Zr16  1  0.49733422  0.09991544  0.69662672  1
  Zr  Zr17  1  0.50029643  0.50240932  0.29919047  1
  Zr  Zr18  1  0.69746677  0.88868612  0.29836230  1
  Zr  Zr19  1  0.89933407  0.49053067  0.89971467  1
  Zr  Zr20  1  0.50858360  0.70468737  0.90751541  1
  Zr  Zr21  1  0.29477292  0.49521085  0.69901551  1
  Zr  Zr22  1  0.30003674  0.09402054  0.50532778  1
  Zr  Zr23  1  0.09451771  0.09754065  0.29644969  1
  Zr  Zr24  1  0.10391748  0.89951826  0.29917920  1
  Zr  Zr25  1  0.29275886  0.50110415  0.29562298  1
  Zr  Zr26  1  0.50008224  0.69869575  0.49879134  1
  Zr  Zr27  1  0.90730796  0.89800861  0.28653027  1
  Zr  Zr28  1  0.08428886  0.70034107  0.69720838  1
  Zr  Zr29  1  0.30243926  0.70041232  0.69649215  1
  Zr  Zr30  1  0.49995582  0.50246499  0.50431074  1
  Zr  Zr31  1  0.09972611  0.90336168  0.89526941  1
  Zr  Zr32  1  0.29342537  0.69779680  0.30341095  1
  Zr  Zr33  1  0.70469446  0.49814365  0.70462384  1
  Zr  Zr34  1  0.71439455  0.28994998  0.49022147  1
  Zr  Zr35  1  0.70195740  0.49737264  0.09586777  1
  Zr  Zr36  1  0.49768366  0.29510170  0.70521817  1
  Zr  Zr37  1  0.70560264  0.09662114  0.50103181  1
  Zr  Zr38  1  0.49127444  0.89424875  0.10650053  1
  Zr  Zr39  1  0.50579140  0.10145572  0.88698696  1
  Zr  Zr40  1  0.51315583  0.70947999  0.29843764  1
  Zr  Zr41  1  0.29545550  0.30801551  0.29279366  1
  Zr  Zr42  1  0.50794980  0.30080965  0.50657581  1
  Zr  Zr43  1  0.70062024  0.69326238  0.09614833  1
  Zr  Zr44  1  0.70446804  0.89314389  0.69692670  1
  Zr  Zr45  1  0.70823589  0.51018494  0.90246431  1
  Zr  Zr46  1  0.71644457  0.90570160  0.09877740  1
  Zr  Zr47  1  0.49791039  0.69734875  0.09916258  1
  Zr  Zr48  1  0.90452943  0.30103165  0.70855367  1
  Zr  Zr49  1  0.91036335  0.69555168  0.30687159  1
  Sc  Sc50  1  0.10175374  0.11033154  0.49473992  1
  Sc  Sc51  1  0.70074677  0.49447445  0.49895189  1
  Sc  Sc52  1  0.90234139  0.49354316  0.10090941  1
  Sc  Sc53  1  0.70181407  0.69868322  0.49988741  1
  Sc  Sc54  1  0.69627630  0.09671095  0.70414757  1
  Sc  Sc55  1  0.29050340  0.29898089  0.70930846  1
  Sc  Sc56  1  0.70855425  0.10204034  0.09753625  1
  Sc  Sc57  1  0.10218157  0.90190410  0.10741128  1
  Sc  Sc58  1  0.90219943  0.49647280  0.29905912  1
  Sc  Sc59  1  0.90218908  0.10621820  0.70538843  1
  Sc  Sc60  1  0.90601168  0.09837434  0.30152464  1
  Sc  Sc61  1  0.70711231  0.09752077  0.89756151  1
  Sc  Sc62  1  0.89850220  0.90890601  0.88830303  1
  Sc  Sc63  1  0.29042984  0.49366589  0.90484418  1
  Sc  Sc64  1  0.89725483  0.11014460  0.89867951  1
  Sc  Sc65  1  0.10387168  0.10567691  0.70702257  1
  Sc  Sc66  1  0.29739125  0.10770958  0.69260075  1
  Sc  Sc67  1  0.29016348  0.10891464  0.90469541  1
  Sc  Sc68  1  0.10393658  0.30195171  0.70176068  1
  Sc  Sc69  1  0.29969349  0.69530356  0.10225710  1
  Sc  Sc70  1  0.69918480  0.11352586  0.30307754  1
  Sc  Sc71  1  0.09318515  0.49418042  0.10126272  1
  Sc  Sc72  1  0.90034740  0.89058874  0.69574520  1
  Sc  Sc73  1  0.29700338  0.50627199  0.49360319  1
  Sc  Sc74  1  0.48792861  0.29897933  0.90240241  1
  Sc  Sc75  1  0.10125068  0.90472252  0.49546545  1
  Sc  Sc76  1  0.49490995  0.09599641  0.50145960  1
  Sc  Sc77  1  0.30133648  0.91319349  0.69254415  1
  Sc  Sc78  1  0.50369504  0.90118998  0.50690047  1
  Sc  Sc79  1  0.49948395  0.49561486  0.70148800  1
  Sc  Sc80  1  0.30065915  0.09074962  0.29893114  1
  Sc  Sc81  1  0.70235616  0.89951193  0.50379426  1
  Sc  Sc82  1  0.50617162  0.90921242  0.70215574  1
  Sc  Sc83  1  0.10140509  0.29901995  0.90192451  1
  Sc  Sc84  1  0.29736448  0.89995158  0.11155001  1
  Sc  Sc85  1  0.49833312  0.49812462  0.90758747  1
  Sc  Sc86  1  0.90781849  0.69573366  0.10977122  1
  Sc  Sc87  1  0.70955355  0.30166360  0.89905772  1
  Sc  Sc88  1  0.49377584  0.10199182  0.29570194  1
  Sc  Sc89  1  0.50034977  0.49897257  0.09795016  1
  Sc  Sc90  1  0.09486989  0.30081428  0.30198812  1
  Sc  Sc91  1  0.49307819  0.30168951  0.10089391  1
  Sc  Sc92  1  0.29639806  0.10520708  0.10073995  1
  Sc  Sc93  1  0.10142629  0.10847173  0.10408274  1
  Sc  Sc94  1  0.49360174  0.11035012  0.10562309  1
  Sc  Sc95  1  0.68999414  0.30688954  0.10819537  1
  Sc  Sc96  1  0.89483038  0.89911374  0.50054712  1
  Sc  Sc97  1  0.09611494  0.69918283  0.29902603  1
  Sc  Sc98  1  0.10012785  0.69596356  0.10105867  1
  Sc  Sc99  1  0.90472792  0.50470337  0.70568106  1
  Nb  Nb100  1  0.30837973  0.90230463  0.30181510  1
  Nb  Nb101  1  0.29995224  0.90410785  0.49488823  1
  Nb  Nb102  1  0.09118272  0.51141629  0.89480010  1
  Nb  Nb103  1  0.29641370  0.30065854  0.90689545  1
  Nb  Nb104  1  0.09194469  0.30017605  0.49987031  1
  Nb  Nb105  1  0.70296131  0.69785133  0.89855078  1
  Nb  Nb106  1  0.91736850  0.29991338  0.10102488  1
  Nb  Nb107  1  0.89624588  0.69991558  0.68236018  1
  Nb  Nb108  1  0.90869066  0.30457416  0.49385056  1
  Nb  Nb109  1  0.29937727  0.48969092  0.10618312  1
  Nb  Nb110  1  0.70280499  0.69910983  0.30053343  1
  Nb  Nb111  1  0.09976826  0.69655768  0.89948787  1
  Nb  Nb112  1  0.10169881  0.49952530  0.30220778  1
  Nb  Nb113  1  0.90134669  0.49907510  0.49645558  1
  Nb  Nb114  1  0.90320733  0.90152765  0.09470190  1
  Nb  Nb115  1  0.09737397  0.09551830  0.89573628  1
  Nb  Nb116  1  0.09128531  0.30080211  0.10340131  1
  Nb  Nb117  1  0.90528368  0.30272222  0.90289813  1
  Nb  Nb118  1  0.70531903  0.69664176  0.70881100  1
  Nb  Nb119  1  0.51051877  0.29467853  0.29581660  1
  Nb  Nb120  1  0.90414856  0.69554009  0.50526088  1
  Nb  Nb121  1  0.49597578  0.90260110  0.29788418  1
  Nb  Nb122  1  0.70029606  0.30190628  0.29696310  1
  Nb  Nb123  1  0.49860065  0.90231410  0.90348383  1
  Nb  Nb124  1  0.89496280  0.30809481  0.30171365  1
  Nb  Nb125  1  0.39761234  0.80145343  0.80630024  1
  Nb  Nb126  1  0.60435132  0.60095072  0.60774094  1
  Nb  Nb127  1  0.59923523  -0.00187146  0.19979709  1
  Nb  Nb128  1  0.39752795  0.60605644  0.80424760  1
  Nb  Nb129  1  0.60269163  0.39940794  0.80206089  1
  Nb  Nb130  1  0.60287407  0.19839426  0.59939189  1
  Nb  Nb131  1  0.59732494  -0.00464153  0.39149208  1
  Nb  Nb132  1  0.00093342  -0.00023759  -0.00235287  1
  Nb  Nb133  1  0.59461833  -0.00058276  0.00269855  1
  Nb  Nb134  1  0.39588240  0.39572668  0.59644298  1
  Nb  Nb135  1  0.80822266  0.21241585  0.20052706  1
  Nb  Nb136  1  0.80292112  0.79118208  0.39438405  1
  Nb  Nb137  1  0.19957662  0.79824416  0.79660250  1
  Nb  Nb138  1  0.60045938  0.39319960  0.39329899  1
  Nb  Nb139  1  0.80703171  0.79599057  -0.00406174  1
  Nb  Nb140  1  0.40547341  0.00081426  -0.00288832  1
  Nb  Nb141  1  0.39918120  0.20986022  0.39942519  1
  Nb  Nb142  1  0.19818270  0.80005780  0.59960525  1
  Nb  Nb143  1  0.81141960  0.39731455  0.59414271  1
  Nb  Nb144  1  -0.00021430  0.00627549  0.59929076  1
  Nb  Nb145  1  0.40410167  0.39233668  0.40016903  1
  Nb  Nb146  1  0.19255185  0.60501579  0.59869596  1
  Nb  Nb147  1  0.59902873  0.19592800  -0.00314648  1
  Nb  Nb148  1  0.40004822  0.80790676  0.39729854  1
  Nb  Nb149  1  -0.00231550  0.80284535  -0.00448231  1
  Pd  Pd150  1  0.00466325  0.19753479  0.60486065  1
  Pd  Pd151  1  0.39350398  0.80353262  0.00068872  1
  Pd  Pd152  1  0.20121565  0.39869836  0.40442629  1
  Pd  Pd153  1  0.19767441  0.58852557  0.01062395  1
  Pd  Pd154  1  0.60509932  0.80328092  0.18841478  1
  Pd  Pd155  1  0.80651166  0.59956376  0.19880420  1
  Pd  Pd156  1  -0.00462339  0.40082536  0.60569841  1
  Pd  Pd157  1  0.39504647  0.59181539  -0.00240387  1
  Pd  Pd158  1  0.79899495  0.60063672  0.40081692  1
  Pd  Pd159  1  0.80153523  0.00174394  0.79317645  1
  Pd  Pd160  1  0.79468873  0.01272302  0.21218839  1
  Pd  Pd161  1  0.60202911  0.59490096  0.19681933  1
  Pd  Pd162  1  0.20080630  0.79731621  0.20044061  1
  Pd  Pd163  1  0.80970746  0.00270028  0.60829615  1
  Pd  Pd164  1  0.38655390  0.19783282  0.80462516  1
  Pd  Pd165  1  0.79719021  0.20263954  0.79821677  1
  Pd  Pd166  1  0.80896690  0.79321746  0.80220940  1
  Pd  Pd167  1  0.60791022  0.79367643  0.59958739  1
  Pd  Pd168  1  0.00612577  0.19308103  -0.00699092  1
  Pd  Pd169  1  0.40128085  0.60342529  0.39236361  1
  Pd  Pd170  1  -0.00458776  -0.00222300  0.40831967  1
  Pd  Pd171  1  0.39029155  0.00077541  0.80438964  1
  Pd  Pd172  1  0.59844266  0.39058631  -0.00859259  1
  Pd  Pd173  1  0.20289561  0.80144584  0.40278587  1
  Pd  Pd174  1  0.40538404  0.39812508  0.20046027  1
  Pd  Pd175  1  0.19879950  0.00441149  0.39776034  1
  Pd  Pd176  1  0.60974215  0.80649802  0.00850971  1
  Pd  Pd177  1  0.39119025  0.20215490  0.20476755  1
  Pd  Pd178  1  0.20809896  0.00254000  0.79479598  1
  Pd  Pd179  1  -0.00284206  0.59994160  0.00599942  1
  Pd  Pd180  1  0.19920308  0.20163464  0.20357696  1
  Pd  Pd181  1  0.39996909  0.40578480  0.80039030  1
  Pd  Pd182  1  0.20426517  0.19684473  0.39308191  1
  Pd  Pd183  1  0.61040117  0.59352723  0.40268962  1
  Pd  Pd184  1  0.80658231  0.78978864  0.19838217  1
  Pd  Pd185  1  0.40063440  0.60359585  0.20314111  1
  Pd  Pd186  1  0.59440215  0.80291871  0.79583832  1
  Pd  Pd187  1  0.20154519  0.60389770  0.79506831  1
  Pd  Pd188  1  0.19281325  0.59560249  0.19414326  1
  Pd  Pd189  1  -0.00372276  0.79587012  0.80457634  1
  Pd  Pd190  1  0.80351924  0.39038390  0.00846298  1
  Pd  Pd191  1  0.18743573  0.40558061  -0.00146666  1
  Pd  Pd192  1  0.18974415  0.79957619  0.00232268  1
  Pd  Pd193  1  0.19682366  0.00595711  0.01032034  1
  Pd  Pd194  1  0.59187232  0.19318683  0.40521831  1
  Pd  Pd195  1  0.59277555  0.59305902  0.80077828  1
  Pd  Pd196  1  0.79615420  0.59336008  0.59829893  1
  Pd  Pd197  1  0.79511086  -0.00812428  0.39117781  1
  Pd  Pd198  1  0.39702499  0.81402368  0.60025052  1
  Pd  Pd199  1  0.79584603  0.21297178  0.01067756  1
  Rh  Rh200  1  0.79852478  0.40251593  0.40438090  1
  Rh  Rh201  1  -0.01058218  0.80828044  0.40276760  1
  Rh  Rh202  1  0.60963010  0.19239468  0.19015131  1
  Rh  Rh203  1  0.00598455  0.79920307  0.19318563  1
  Rh  Rh204  1  0.40646254  -0.00164191  0.40495617  1
  Rh  Rh205  1  0.79670853  0.79251359  0.59279659  1
  Rh  Rh206  1  0.19066146  0.20108303  -0.00025182  1
  Rh  Rh207  1  0.18951141  0.59861096  0.40444310  1
  Rh  Rh208  1  0.39955617  0.58640882  0.61001263  1
  Rh  Rh209  1  0.39363210  0.40120332  0.00471272  1
  Rh  Rh210  1  0.00409166  0.40066067  -0.00663173  1
  Rh  Rh211  1  0.80734206  0.60363169  0.00530325  1
  Rh  Rh212  1  0.18867384  0.20023170  0.60292568  1
  Rh  Rh213  1  0.00374375  0.20331366  0.80609341  1
  Rh  Rh214  1  0.40043864  0.00459189  0.19153086  1
  Rh  Rh215  1  -0.00138232  0.20598308  0.39429867  1
  Rh  Rh216  1  0.00543848  0.39723461  0.80804757  1
  Rh  Rh217  1  0.00202963  0.81245266  0.59024883  1
  Rh  Rh218  1  -0.00556294  0.60204424  0.79449651  1
  Rh  Rh219  1  0.60687989  0.20970227  0.80160668  1
  Rh  Rh220  1  0.60585030  -0.00700780  0.80180066  1
  Rh  Rh221  1  0.19181829  -0.00057759  0.59608315  1
  Rh  Rh222  1  0.81184676  0.20054300  0.38732203  1
  Rh  Rh223  1  0.19546836  0.39879558  0.81240514  1
  Rh  Rh224  1  0.20135531  0.00049382  0.20344446  1
  Rh  Rh225  1  0.00161163  0.59047318  0.59927625  1
  Rh  Rh226  1  0.40150890  -0.00175948  0.59854912  1
  Rh  Rh227  1  0.00468696  0.59140103  0.20467221  1
  Rh  Rh228  1  0.80763004  0.60284430  0.79421424  1
  Rh  Rh229  1  0.00542836  0.00228276  0.19091720  1
  Rh  Rh230  1  0.19919630  0.20190227  0.80592443  1
  Rh  Rh231  1  0.40445173  0.20578178  0.59649860  1
  Rh  Rh232  1  0.60488460  0.40080290  0.60026211  1
  Rh  Rh233  1  0.80373447  -0.00587156  -0.01143585  1
  Rh  Rh234  1  -0.00517305  0.00928625  0.79711668  1
  Rh  Rh235  1  0.00139499  0.58909930  0.39777026  1
  Rh  Rh236  1  0.19013046  0.39906361  0.19327844  1
  Rh  Rh237  1  0.59430439  0.40556347  0.20261970  1
  Rh  Rh238  1  0.80691494  0.39382410  0.19093289  1
  Rh  Rh239  1  0.60072775  0.59752163  -0.00013672  1
  Rh  Rh240  1  0.79905516  0.39687390  0.79651757  1
  Rh  Rh241  1  0.39273545  0.78950955  0.20958013  1
  Rh  Rh242  1  -0.00557115  0.20410145  0.20813504  1
  Rh  Rh243  1  0.00122267  0.40200902  0.39390623  1
  Rh  Rh244  1  0.60085720  0.80577705  0.40606241  1
  Rh  Rh245  1  0.40379467  0.19416710  -0.00496821  1
  Rh  Rh246  1  0.80081320  0.20646818  0.60695743  1
  Rh  Rh247  1  0.60231828  0.00713690  0.59450991  1
  Rh  Rh248  1  0.00407929  0.40124702  0.20749416  1
  Rh  Rh249  1  0.20129259  0.40341877  0.59475261  1
