# generated using pymatgen
data_ZrScNbPdRh
_symmetry_space_group_name_H-M   'P 1'
_cell_length_a   16.55924977
_cell_length_b   16.56142759
_cell_length_c   16.55995892
_cell_angle_alpha   90.01790601
_cell_angle_beta   90.01812264
_cell_angle_gamma   89.99008472
_symmetry_Int_Tables_number   1
_chemical_formula_structural   ZrScNbPdRh
_chemical_formula_sum   'Zr50 Sc50 Nb50 Pd50 Rh50'
_cell_volume   4541.48237048
_cell_formula_units_Z   50
loop_
 _symmetry_equiv_pos_site_id
 _symmetry_equiv_pos_as_xyz
  1  'x, y, z'
loop_
 _atom_site_type_symbol
 _atom_site_label
 _atom_site_symmetry_multiplicity
 _atom_site_fract_x
 _atom_site_fract_y
 _atom_site_fract_z
 _atom_site_occupancy
  Zr  Zr0  1  0.69819825  0.29426628  0.89313289  1
  Zr  Zr1  1  0.49923404  0.90027838  0.30348378  1
  Zr  Zr2  1  0.10340598  0.69830586  0.70102873  1
  Zr  Zr3  1  0.09587915  0.90340045  0.49912704  1
  Zr  Zr4  1  0.90296099  0.89928959  0.09960599  1
  Zr  Zr5  1  0.50994440  0.49949311  0.29789096  1
  Zr  Zr6  1  0.49706689  0.30317175  0.70133010  1
  Zr  Zr7  1  0.50548555  0.50561258  0.49808835  1
  Zr  Zr8  1  0.09679051  0.30543104  0.10237892  1
  Zr  Zr9  1  0.49514503  0.11064065  0.10154168  1
  Zr  Zr10  1  0.10007191  0.69850342  0.90789979  1
  Zr  Zr11  1  0.89497908  0.09675053  0.09646443  1
  Zr  Zr12  1  0.70995305  0.69161745  0.30056037  1
  Zr  Zr13  1  0.69593500  0.09797421  0.49125207  1
  Zr  Zr14  1  0.90454603  0.90621981  0.69523941  1
  Zr  Zr15  1  0.70521158  0.90732087  0.10502946  1
  Zr  Zr16  1  0.28705051  0.89872822  0.90505071  1
  Zr  Zr17  1  0.30029269  0.89919859  0.70909132  1
  Zr  Zr18  1  0.90507391  0.29594474  0.09662246  1
  Zr  Zr19  1  0.09625628  0.30335942  0.90632554  1
  Zr  Zr20  1  0.70079142  0.89842563  0.90595289  1
  Zr  Zr21  1  0.90607026  0.50161985  0.89778790  1
  Zr  Zr22  1  0.30510076  0.50075079  0.10461823  1
  Zr  Zr23  1  0.30032859  0.70703753  0.89255316  1
  Zr  Zr24  1  0.09892858  0.10304629  0.49382640  1
  Zr  Zr25  1  0.50936274  0.90465578  0.50155371  1
  Zr  Zr26  1  0.10205635  0.29737612  0.30299706  1
  Zr  Zr27  1  0.69827111  0.90408757  0.30136046  1
  Zr  Zr28  1  0.51041031  0.10410813  0.29958713  1
  Zr  Zr29  1  0.29362618  0.89858433  0.29616399  1
  Zr  Zr30  1  0.29529029  0.30623966  0.30308233  1
  Zr  Zr31  1  0.29670090  0.08983647  0.29493523  1
  Zr  Zr32  1  0.30483450  0.50573661  0.50659424  1
  Zr  Zr33  1  0.90929269  0.69870086  0.30236620  1
  Zr  Zr34  1  0.29743168  0.30105150  0.89395362  1
  Zr  Zr35  1  0.50615123  0.68615282  0.69642881  1
  Zr  Zr36  1  0.29526432  0.89453280  0.48932778  1
  Zr  Zr37  1  0.48880880  0.49700080  0.68581427  1
  Zr  Zr38  1  0.49929707  0.30486893  0.29954615  1
  Zr  Zr39  1  0.70723198  0.29859676  0.69679655  1
  Zr  Zr40  1  0.89349230  0.70214873  0.70585368  1
  Zr  Zr41  1  0.70356735  0.69606222  0.89363368  1
  Zr  Zr42  1  0.89551539  0.49665716  0.70381087  1
  Zr  Zr43  1  0.48553392  0.09279915  0.69236776  1
  Zr  Zr44  1  0.91201936  0.70083613  0.10221768  1
  Zr  Zr45  1  0.70666419  0.09875693  0.89707877  1
  Zr  Zr46  1  0.90250078  0.10678223  0.50430600  1
  Zr  Zr47  1  0.88994309  0.50948756  0.30545015  1
  Zr  Zr48  1  0.50438914  0.30016744  0.10541739  1
  Zr  Zr49  1  0.89860055  0.30476225  0.30209068  1
  Sc  Sc50  1  0.29283793  0.70121934  0.09479196  1
  Sc  Sc51  1  0.10514320  0.50264955  0.09758654  1
  Sc  Sc52  1  0.29392246  0.70406293  0.30754967  1
  Sc  Sc53  1  0.71069339  0.30352226  0.49937173  1
  Sc  Sc54  1  0.70745485  0.89331873  0.69379906  1
  Sc  Sc55  1  0.90284328  0.89327359  0.49590680  1
  Sc  Sc56  1  0.10279191  0.89265644  0.09189741  1
  Sc  Sc57  1  0.09669112  0.09288387  0.89719372  1
  Sc  Sc58  1  0.49314439  0.69612429  0.09920986  1
  Sc  Sc59  1  0.10037768  0.90327638  0.69899852  1
  Sc  Sc60  1  0.90452710  0.69449492  0.90091196  1
  Sc  Sc61  1  0.10421742  0.50918365  0.50018465  1
  Sc  Sc62  1  0.10531154  0.50406012  0.29789975  1
  Sc  Sc63  1  0.49954470  0.69886415  0.30654551  1
  Sc  Sc64  1  0.69985733  0.30015513  0.30392794  1
  Sc  Sc65  1  0.10750856  0.89967048  0.30438206  1
  Sc  Sc66  1  0.90219084  0.70475973  0.49133655  1
  Sc  Sc67  1  0.70088160  0.10450814  0.10656368  1
  Sc  Sc68  1  0.30994225  0.29935400  0.10371274  1
  Sc  Sc69  1  0.49188346  0.69707819  0.89611887  1
  Sc  Sc70  1  0.70271757  0.10108234  0.29999967  1
  Sc  Sc71  1  0.09348993  0.09355580  0.70432134  1
  Sc  Sc72  1  0.90204974  0.09733700  0.89927392  1
  Sc  Sc73  1  0.89543570  0.10549424  0.30174437  1
  Sc  Sc74  1  0.69664539  0.70876527  0.50355754  1
  Sc  Sc75  1  0.49979741  0.28546253  0.90064047  1
  Sc  Sc76  1  0.29787955  0.09639153  0.89356874  1
  Sc  Sc77  1  0.90066058  0.10390327  0.70355378  1
  Sc  Sc78  1  0.10602690  0.50389409  0.70807519  1
  Sc  Sc79  1  0.08891732  0.09788992  0.08796598  1
  Sc  Sc80  1  0.50068679  0.69525692  0.49745844  1
  Sc  Sc81  1  0.71003108  0.10416410  0.70484521  1
  Sc  Sc82  1  0.29551527  0.50296057  0.89480571  1
  Sc  Sc83  1  0.70196464  0.50552725  0.12367784  1
  Sc  Sc84  1  0.89123790  0.50026305  0.49469436  1
  Sc  Sc85  1  0.10372750  0.70189239  0.49634482  1
  Sc  Sc86  1  0.29379064  0.69238118  0.70112448  1
  Sc  Sc87  1  0.69866028  0.71134881  0.09937836  1
  Sc  Sc88  1  0.49523924  0.89950001  0.69633298  1
  Sc  Sc89  1  0.49947119  0.50652796  0.88211533  1
  Sc  Sc90  1  0.30179804  0.49917045  0.29843140  1
  Sc  Sc91  1  0.68859563  0.50101813  0.70584932  1
  Sc  Sc92  1  0.09976249  0.49795298  0.90139839  1
  Sc  Sc93  1  0.89680048  0.90910665  0.90441081  1
  Sc  Sc94  1  0.50070252  0.31323713  0.50069915  1
  Sc  Sc95  1  0.50938113  0.89605272  0.10580886  1
  Sc  Sc96  1  0.90535655  0.49547997  0.10680869  1
  Sc  Sc97  1  0.89747247  0.89044966  0.30091416  1
  Sc  Sc98  1  0.10279752  0.29322704  0.71091037  1
  Sc  Sc99  1  0.48562479  0.88947826  0.89523210  1
  Nb  Nb100  1  0.70066038  0.49955251  0.90380715  1
  Nb  Nb101  1  0.09498927  0.70427038  0.10374184  1
  Nb  Nb102  1  0.70334008  0.90252949  0.49928603  1
  Nb  Nb103  1  0.70179515  0.30154895  0.09310121  1
  Nb  Nb104  1  0.29863945  0.09767413  0.09738469  1
  Nb  Nb105  1  0.30470749  0.10306957  0.50731836  1
  Nb  Nb106  1  0.70130271  0.50085655  0.49459307  1
  Nb  Nb107  1  0.90030928  0.30073474  0.50917398  1
  Nb  Nb108  1  0.70477148  0.50259619  0.31480263  1
  Nb  Nb109  1  0.10117562  0.90225209  0.89791760  1
  Nb  Nb110  1  0.09556422  0.70372348  0.29184016  1
  Nb  Nb111  1  0.29633424  0.90494186  0.10197062  1
  Nb  Nb112  1  0.30054949  0.70122228  0.50143653  1
  Nb  Nb113  1  0.10039573  0.29966717  0.49829636  1
  Nb  Nb114  1  0.50042336  0.09572131  0.90218311  1
  Nb  Nb115  1  0.89304830  0.30029958  0.69124332  1
  Nb  Nb116  1  0.49977709  0.49768700  0.10371656  1
  Nb  Nb117  1  0.90229392  0.30645580  0.89667187  1
  Nb  Nb118  1  0.28959037  0.29470942  0.50147155  1
  Nb  Nb119  1  0.70381532  0.69932001  0.69918742  1
  Nb  Nb120  1  0.29785556  0.49212282  0.69908630  1
  Nb  Nb121  1  0.09888389  0.09612026  0.29923902  1
  Nb  Nb122  1  0.30002168  0.29876656  0.69695260  1
  Nb  Nb123  1  0.29946110  0.10094825  0.69046433  1
  Nb  Nb124  1  0.49872210  0.09666385  0.50282026  1
  Nb  Nb125  1  0.41078363  0.40376681  0.00093228  1
  Nb  Nb126  1  0.39299726  0.80541084  0.20109101  1
  Nb  Nb127  1  0.00116674  0.00034418  0.20240805  1
  Nb  Nb128  1  0.39940943  0.00138506  0.00575690  1
  Nb  Nb129  1  0.40071497  0.00658985  0.40461590  1
  Nb  Nb130  1  0.59336542  0.00302710  -0.00487683  1
  Nb  Nb131  1  0.39526032  0.79504559  0.59436074  1
  Nb  Nb132  1  0.79642399  0.59319290  0.00248295  1
  Nb  Nb133  1  0.19664027  0.19278054  0.19629053  1
  Nb  Nb134  1  0.00136131  0.39715531  0.40814471  1
  Nb  Nb135  1  0.79452945  0.40091765  -0.00023086  1
  Nb  Nb136  1  0.00214350  0.39705892  0.59756380  1
  Nb  Nb137  1  0.59835610  -0.00366988  0.80421828  1
  Nb  Nb138  1  0.60269436  0.59086501  0.00145301  1
  Nb  Nb139  1  0.20700277  0.00588123  0.59762773  1
  Nb  Nb140  1  0.00300897  0.80314034  0.80444983  1
  Nb  Nb141  1  0.60179897  0.40565144  0.00245749  1
  Nb  Nb142  1  0.59580032  0.19597300  0.59781268  1
  Nb  Nb143  1  0.20239341  0.19849086  0.00457694  1
  Nb  Nb144  1  0.79976306  -0.00092592  0.59162609  1
  Nb  Nb145  1  0.79732431  0.60209058  0.60317928  1
  Nb  Nb146  1  -0.00674268  0.59658752  0.60262731  1
  Nb  Nb147  1  0.20047769  0.39237769  0.59971660  1
  Nb  Nb148  1  0.60314687  0.79798302  0.79592079  1
  Nb  Nb149  1  0.39676929  0.19678700  0.40692123  1
  Pd  Pd150  1  0.19951011  0.19236819  0.80421042  1
  Pd  Pd151  1  0.20364217  0.80630263  0.60148788  1
  Pd  Pd152  1  0.60924954  0.39664393  0.59753579  1
  Pd  Pd153  1  0.59026947  0.79642928  -0.00826557  1
  Pd  Pd154  1  0.39897576  0.80731922  0.01145660  1
  Pd  Pd155  1  0.00539770  0.39775884  0.79078523  1
  Pd  Pd156  1  0.40656631  0.21217472  0.59319011  1
  Pd  Pd157  1  0.40520031  0.59126985  -0.00545971  1
  Pd  Pd158  1  0.00368536  0.59136361  0.20027142  1
  Pd  Pd159  1  0.80411570  0.80904078  0.80457827  1
  Pd  Pd160  1  0.39607785  0.61061600  0.20775762  1
  Pd  Pd161  1  0.79528343  0.39641643  0.19922779  1
  Pd  Pd162  1  0.19905756  0.60288559  0.39664776  1
  Pd  Pd163  1  0.39810232  0.59948541  0.39398253  1
  Pd  Pd164  1  -0.00170679  0.79148448  0.60438000  1
  Pd  Pd165  1  0.79664042  0.39965172  0.80363188  1
  Pd  Pd166  1  0.79687694  0.20517728  0.20248555  1
  Pd  Pd167  1  0.40140042  0.39989660  0.80643128  1
  Pd  Pd168  1  0.39683362  0.39892117  0.40521906  1
  Pd  Pd169  1  0.80935447  0.79104181  -0.00087812  1
  Pd  Pd170  1  0.00361013  0.19108139  0.20052965  1
  Pd  Pd171  1  0.59898981  0.60936895  0.19665798  1
  Pd  Pd172  1  0.60367626  0.19730093  0.00211604  1
  Pd  Pd173  1  0.21202931  0.39573735  0.00622487  1
  Pd  Pd174  1  -0.00534026  0.20476028  0.39808631  1
  Pd  Pd175  1  0.00288655  0.40889730  0.21154541  1
  Pd  Pd176  1  0.18413901  0.00262567  0.18688440  1
  Pd  Pd177  1  -0.00872238  -0.00328933  0.39065954  1
  Pd  Pd178  1  0.40821330  -0.00553081  0.19657428  1
  Pd  Pd179  1  0.39168331  0.20228255  0.21096227  1
  Pd  Pd180  1  0.39744196  0.19480487  0.79940317  1
  Pd  Pd181  1  0.19541632  0.40957269  0.40700444  1
  Pd  Pd182  1  0.59433098  0.20967140  0.40932880  1
  Pd  Pd183  1  0.59436595  0.79140059  0.20539716  1
  Pd  Pd184  1  -0.00627074  0.20173501  0.80321173  1
  Pd  Pd185  1  0.59401072  0.79831222  0.60522893  1
  Pd  Pd186  1  0.80229662  0.79655945  0.20224303  1
  Pd  Pd187  1  0.80547360  0.20322390  -0.00754256  1
  Pd  Pd188  1  0.61270586  0.00680462  0.61225178  1
  Pd  Pd189  1  0.59556682  0.39854875  0.80391002  1
  Pd  Pd190  1  0.39910711  0.00034170  0.80760886  1
  Pd  Pd191  1  0.20577470  0.19162122  0.39363100  1
  Pd  Pd192  1  0.80803600  -0.00118125  0.40108972  1
  Pd  Pd193  1  0.00776677  0.20394043  0.60857753  1
  Pd  Pd194  1  0.20097626  0.60074073  -0.00067160  1
  Pd  Pd195  1  0.60461953  0.79595789  0.39766584  1
  Pd  Pd196  1  0.18917071  0.19734803  0.60658382  1
  Pd  Pd197  1  0.61110363  0.39726174  0.20244724  1
  Pd  Pd198  1  0.59207137  0.18704765  0.78707354  1
  Pd  Pd199  1  0.20291777  0.60664840  0.20040305  1
  Rh  Rh200  1  0.19996900  0.79523968  0.19666996  1
  Rh  Rh201  1  0.19815158  0.79718066  0.00182944  1
  Rh  Rh202  1  0.80391179  0.80057511  0.59226302  1
  Rh  Rh203  1  0.19847665  0.59404521  0.60101160  1
  Rh  Rh204  1  0.59805952  -0.00096657  0.39572906  1
  Rh  Rh205  1  0.19133543  0.79159669  0.39736777  1
  Rh  Rh206  1  0.20158421  0.59719982  0.80488594  1
  Rh  Rh207  1  0.39971452  0.40268394  0.20018157  1
  Rh  Rh208  1  -0.00224096  0.59370007  0.00697657  1
  Rh  Rh209  1  0.80459889  0.39593947  0.40131990  1
  Rh  Rh210  1  0.81312997  0.20699592  0.80282771  1
  Rh  Rh211  1  0.60504122  0.40205003  0.40007368  1
  Rh  Rh212  1  0.19835093  0.39935192  0.79311566  1
  Rh  Rh213  1  0.60869884  0.20571618  0.20069694  1
  Rh  Rh214  1  0.20454157  0.00849644  0.40967249  1
  Rh  Rh215  1  0.19991079  0.00338297  0.79170862  1
  Rh  Rh216  1  -0.00187816  -0.00801057  0.80328892  1
  Rh  Rh217  1  0.00011443  -0.00603230  0.00311408  1
  Rh  Rh218  1  -0.00648535  0.40425505  0.00180084  1
  Rh  Rh219  1  0.00154035  0.20116572  -0.00843602  1
  Rh  Rh220  1  0.60309272  0.60450345  0.80401455  1
  Rh  Rh221  1  0.80561418  0.60824079  0.19173672  1
  Rh  Rh222  1  0.18964480  0.79941005  0.80165067  1
  Rh  Rh223  1  0.80832244  -0.00032818  0.20479313  1
  Rh  Rh224  1  -0.00119569  0.00399265  0.59637443  1
  Rh  Rh225  1  0.38807126  -0.01586911  0.59081491  1
  Rh  Rh226  1  0.20147121  0.00515948  -0.00012376  1
  Rh  Rh227  1  0.40856562  0.78598186  0.78202742  1
  Rh  Rh228  1  0.20120076  0.39543897  0.19568220  1
  Rh  Rh229  1  0.79195377  0.19097658  0.59413427  1
  Rh  Rh230  1  0.00848197  0.79898380  0.39478751  1
  Rh  Rh231  1  0.80297225  0.20485231  0.40280178  1
  Rh  Rh232  1  0.39081505  0.59735189  0.79160707  1
  Rh  Rh233  1  0.00370611  0.59657090  0.40351261  1
  Rh  Rh234  1  0.38886210  0.39329598  0.59404374  1
  Rh  Rh235  1  0.00901403  0.81184342  0.20462903  1
  Rh  Rh236  1  0.00459797  0.60853256  0.79633318  1
  Rh  Rh237  1  0.79330307  0.79932581  0.39996701  1
  Rh  Rh238  1  0.38943041  0.19956497  -0.00867555  1
  Rh  Rh239  1  0.79740417  -0.00409435  0.78919615  1
  Rh  Rh240  1  0.39261459  0.60664403  0.60251341  1
  Rh  Rh241  1  0.40177314  0.80459780  0.40106458  1
  Rh  Rh242  1  0.79302329  0.00508248  0.00396813  1
  Rh  Rh243  1  0.79949748  0.41122630  0.59913267  1
  Rh  Rh244  1  0.60496209  0.60262516  0.40259206  1
  Rh  Rh245  1  0.61147499  0.59581170  0.59314387  1
  Rh  Rh246  1  0.79594957  0.59330534  0.79986102  1
  Rh  Rh247  1  0.79528296  0.61022476  0.41414916  1
  Rh  Rh248  1  0.00106248  0.80386721  -0.00927713  1
  Rh  Rh249  1  0.59995142  0.00685002  0.19440483  1
