# generated using pymatgen
data_ZrScNbPdRh
_symmetry_space_group_name_H-M   'P 1'
_cell_length_a   16.56404826
_cell_length_b   16.55755600
_cell_length_c   16.56249538
_cell_angle_alpha   89.99681183
_cell_angle_beta   89.97874079
_cell_angle_gamma   89.99454996
_symmetry_Int_Tables_number   1
_chemical_formula_structural   ZrScNbPdRh
_chemical_formula_sum   'Zr50 Sc50 Nb50 Pd50 Rh50'
_cell_volume   4542.43223456
_cell_formula_units_Z   50
loop_
 _symmetry_equiv_pos_site_id
 _symmetry_equiv_pos_as_xyz
  1  'x, y, z'
loop_
 _atom_site_type_symbol
 _atom_site_label
 _atom_site_symmetry_multiplicity
 _atom_site_fract_x
 _atom_site_fract_y
 _atom_site_fract_z
 _atom_site_occupancy
  Zr  Zr0  1  0.69470898  0.70386370  0.10916053  1
  Zr  Zr1  1  0.90015177  0.69596502  0.89591299  1
  Zr  Zr2  1  0.48726146  0.49800351  0.29690911  1
  Zr  Zr3  1  0.70585204  0.10288979  0.70775128  1
  Zr  Zr4  1  0.29893361  0.90620824  0.69840327  1
  Zr  Zr5  1  0.50219503  0.49955550  0.50535450  1
  Zr  Zr6  1  0.70183824  0.28958197  0.89612034  1
  Zr  Zr7  1  0.10033975  0.49709813  0.09903901  1
  Zr  Zr8  1  0.50051425  0.09897280  0.11065967  1
  Zr  Zr9  1  0.10416794  0.89745114  0.90006962  1
  Zr  Zr10  1  0.10500610  0.69435524  0.68976620  1
  Zr  Zr11  1  0.30341745  0.10242897  0.10249729  1
  Zr  Zr12  1  0.10279200  0.29638443  0.30394191  1
  Zr  Zr13  1  0.69129954  0.10616176  0.29486912  1
  Zr  Zr14  1  0.49828240  0.50976318  0.70023765  1
  Zr  Zr15  1  0.09700678  0.70047496  0.90327017  1
  Zr  Zr16  1  0.30168271  0.29796114  0.49757988  1
  Zr  Zr17  1  0.70308398  0.51316418  0.29886111  1
  Zr  Zr18  1  0.10318229  0.90086075  0.10475876  1
  Zr  Zr19  1  0.69839629  0.50182648  0.10534780  1
  Zr  Zr20  1  0.70016660  0.29392696  0.10043178  1
  Zr  Zr21  1  0.90384675  0.89838438  0.30110697  1
  Zr  Zr22  1  0.70655833  0.29796196  0.29718133  1
  Zr  Zr23  1  0.09651487  0.29400772  0.09469152  1
  Zr  Zr24  1  0.69928196  0.89662381  0.51453325  1
  Zr  Zr25  1  0.49830414  0.90779431  0.30281882  1
  Zr  Zr26  1  0.49699836  0.89942213  0.49999964  1
  Zr  Zr27  1  0.50074497  0.70273757  0.29616888  1
  Zr  Zr28  1  0.70698750  0.10172004  0.90502870  1
  Zr  Zr29  1  0.69822718  0.89141231  0.29083608  1
  Zr  Zr30  1  0.50078473  0.50131164  0.08859279  1
  Zr  Zr31  1  0.90011710  0.30004099  0.31319036  1
  Zr  Zr32  1  0.90356667  0.10111381  0.50677637  1
  Zr  Zr33  1  0.69981054  0.90239148  0.90720605  1
  Zr  Zr34  1  0.90665519  0.50017194  0.89608562  1
  Zr  Zr35  1  0.50462175  0.90478740  0.09739791  1
  Zr  Zr36  1  0.90209348  0.49780886  0.10045590  1
  Zr  Zr37  1  0.69963830  0.70948482  0.89782978  1
  Zr  Zr38  1  0.09325339  0.10477364  0.90464808  1
  Zr  Zr39  1  0.68845139  0.70632238  0.69928047  1
  Zr  Zr40  1  0.10276111  0.70323521  0.50149317  1
  Zr  Zr41  1  0.30459906  0.50298415  0.70758214  1
  Zr  Zr42  1  0.09308571  0.49812060  0.90111231  1
  Zr  Zr43  1  0.30890100  0.31145424  0.30087282  1
  Zr  Zr44  1  0.89583479  0.48771426  0.49639418  1
  Zr  Zr45  1  0.48540994  0.49519987  0.89978928  1
  Zr  Zr46  1  0.69877524  0.49929780  0.68557474  1
  Zr  Zr47  1  0.29698826  0.29598050  0.70111466  1
  Zr  Zr48  1  0.90211834  0.31138318  0.70102553  1
  Zr  Zr49  1  0.10268358  0.10292580  0.69723526  1
  Sc  Sc50  1  0.68256811  0.49697222  0.90721505  1
  Sc  Sc51  1  0.29331238  0.69821524  0.49972351  1
  Sc  Sc52  1  0.90469588  0.49988104  0.70140953  1
  Sc  Sc53  1  0.29856817  0.09508499  0.50553177  1
  Sc  Sc54  1  0.49137227  0.29658180  0.09749521  1
  Sc  Sc55  1  0.89002247  0.69325107  0.70017282  1
  Sc  Sc56  1  0.29803364  0.90373626  0.31032295  1
  Sc  Sc57  1  0.49555209  0.69649322  0.50108267  1
  Sc  Sc58  1  0.10465036  0.90395293  0.69293153  1
  Sc  Sc59  1  0.29787917  0.50220617  0.29256102  1
  Sc  Sc60  1  0.70095875  0.69233592  0.50210418  1
  Sc  Sc61  1  0.50149739  0.69833898  0.09429914  1
  Sc  Sc62  1  0.50208268  0.09462618  0.50398671  1
  Sc  Sc63  1  0.09864248  0.50758700  0.50686501  1
  Sc  Sc64  1  0.69947350  0.30466137  0.50410941  1
  Sc  Sc65  1  0.50438267  0.69367097  0.90034678  1
  Sc  Sc66  1  0.50482574  0.29426990  0.69032163  1
  Sc  Sc67  1  0.90077575  0.71412383  0.50160737  1
  Sc  Sc68  1  0.29487386  0.09842744  0.29914065  1
  Sc  Sc69  1  0.90436065  0.09088704  0.70323626  1
  Sc  Sc70  1  0.29941313  0.50340597  0.49051224  1
  Sc  Sc71  1  0.11605260  0.69754931  0.30080526  1
  Sc  Sc72  1  0.89967250  0.09888400  0.89626348  1
  Sc  Sc73  1  0.49995439  0.10138550  0.90940567  1
  Sc  Sc74  1  0.69616347  0.09559117  0.50364932  1
  Sc  Sc75  1  0.50168157  0.29764678  0.50317122  1
  Sc  Sc76  1  0.49488648  0.09683991  0.69407936  1
  Sc  Sc77  1  0.50333797  0.89456120  0.90522448  1
  Sc  Sc78  1  0.10324821  0.09459229  0.29498679  1
  Sc  Sc79  1  0.10365173  0.29988662  0.89893788  1
  Sc  Sc80  1  0.90350399  0.30038441  0.11327055  1
  Sc  Sc81  1  0.88961324  0.49350672  0.29717813  1
  Sc  Sc82  1  0.88230327  0.70215656  0.30080420  1
  Sc  Sc83  1  0.90111570  0.90140906  0.09657583  1
  Sc  Sc84  1  0.90347546  0.29595438  0.89829295  1
  Sc  Sc85  1  0.30261368  0.69648561  0.30279451  1
  Sc  Sc86  1  0.29641059  0.70408603  0.09734155  1
  Sc  Sc87  1  0.89974811  0.70293533  0.08992609  1
  Sc  Sc88  1  0.70232713  0.89846282  0.70187085  1
  Sc  Sc89  1  0.29792411  0.89521252  0.90129716  1
  Sc  Sc90  1  0.30155617  0.09863974  0.69526081  1
  Sc  Sc91  1  0.11178443  0.50091326  0.29945883  1
  Sc  Sc92  1  0.90133735  0.10675330  0.29969570  1
  Sc  Sc93  1  0.50974360  0.89931701  0.69671734  1
  Sc  Sc94  1  0.89286000  0.90146431  0.89886015  1
  Sc  Sc95  1  0.08931693  0.29369835  0.49855989  1
  Sc  Sc96  1  0.29903679  0.30015937  0.09934884  1
  Sc  Sc97  1  0.10785085  0.90495925  0.30092253  1
  Sc  Sc98  1  0.91405039  0.10096975  0.10066650  1
  Sc  Sc99  1  0.30149615  0.09767620  0.89636163  1
  Nb  Nb100  1  0.29889417  0.89949325  0.50098036  1
  Nb  Nb101  1  0.10577189  0.09871876  0.09983329  1
  Nb  Nb102  1  0.31037043  0.31601100  0.89218001  1
  Nb  Nb103  1  0.89505061  0.90316964  0.68736067  1
  Nb  Nb104  1  0.50123724  0.30002956  0.29664303  1
  Nb  Nb105  1  0.70263591  0.29920397  0.70460681  1
  Nb  Nb106  1  0.30182221  0.69615768  0.69785253  1
  Nb  Nb107  1  0.69993200  0.09810330  0.10228600  1
  Nb  Nb108  1  0.10113938  0.69928230  0.09841758  1
  Nb  Nb109  1  0.09568740  0.49919589  0.70002905  1
  Nb  Nb110  1  0.30115368  0.49919699  0.90211645  1
  Nb  Nb111  1  0.29521500  0.69928480  0.89719600  1
  Nb  Nb112  1  0.30432506  0.50278216  0.09491376  1
  Nb  Nb113  1  0.10074518  0.30576354  0.69918604  1
  Nb  Nb114  1  0.50146652  0.30656017  0.90052742  1
  Nb  Nb115  1  0.10213897  0.89972750  0.50049245  1
  Nb  Nb116  1  0.50172701  0.10709742  0.29918639  1
  Nb  Nb117  1  0.90167323  0.29707601  0.49652380  1
  Nb  Nb118  1  0.30109009  0.90161783  0.09953034  1
  Nb  Nb119  1  0.09582515  0.09444355  0.50007564  1
  Nb  Nb120  1  0.69316568  0.49707543  0.49522884  1
  Nb  Nb121  1  0.69587042  0.90470104  0.09696168  1
  Nb  Nb122  1  0.49413850  0.69810973  0.69949304  1
  Nb  Nb123  1  0.69353281  0.69931415  0.29521819  1
  Nb  Nb124  1  0.90013829  0.90428130  0.50523395  1
  Nb  Nb125  1  0.60511422  0.00291760  0.80629798  1
  Nb  Nb126  1  0.39399678  0.40185779  0.60283055  1
  Nb  Nb127  1  0.80447402  0.20684991  0.60364070  1
  Nb  Nb128  1  0.59913056  0.39285233  0.79482840  1
  Nb  Nb129  1  0.60025727  0.40278392  0.39411259  1
  Nb  Nb130  1  -0.00152929  -0.00396710  0.40919839  1
  Nb  Nb131  1  0.20168398  0.59818459  0.80254826  1
  Nb  Nb132  1  0.39872942  0.80871722  0.19707178  1
  Nb  Nb133  1  0.79946539  0.40109794  0.00004525  1
  Nb  Nb134  1  0.80184557  -0.00463571  0.39926058  1
  Nb  Nb135  1  0.39744308  0.79241612  0.79416481  1
  Nb  Nb136  1  0.19872313  0.00233102  0.00734928  1
  Nb  Nb137  1  0.00201206  0.60669641  0.20232096  1
  Nb  Nb138  1  0.19759193  0.39951911  0.60628579  1
  Nb  Nb139  1  0.40145152  0.20941950  0.80349990  1
  Nb  Nb140  1  0.39495444  0.79812517  0.60427769  1
  Nb  Nb141  1  -0.00110781  0.80119014  0.79291758  1
  Nb  Nb142  1  0.79749142  0.59659667  -0.00195594  1
  Nb  Nb143  1  0.20185134  0.59731403  -0.00369663  1
  Nb  Nb144  1  -0.00238832  0.60374662  0.39481385  1
  Nb  Nb145  1  0.40608918  0.19867107  0.39383973  1
  Nb  Nb146  1  0.00627713  0.79271722  0.20030294  1
  Nb  Nb147  1  0.79496722  0.00100828  0.19965696  1
  Nb  Nb148  1  0.60253273  0.79663809  0.39590887  1
  Nb  Nb149  1  0.59671855  0.39909151  0.20390694  1
  Pd  Pd150  1  0.39904509  0.79463501  -0.00194495  1
  Pd  Pd151  1  0.00397697  0.19780081  0.20610779  1
  Pd  Pd152  1  -0.00252644  0.80574128  -0.00116922  1
  Pd  Pd153  1  0.00691939  0.79790745  0.39170273  1
  Pd  Pd154  1  0.39414832  0.20547679  -0.00903651  1
  Pd  Pd155  1  0.00439511  0.40581381  0.21200452  1
  Pd  Pd156  1  0.79053673  0.40847341  0.80874971  1
  Pd  Pd157  1  0.59686462  0.20650249  0.40659957  1
  Pd  Pd158  1  0.20369945  0.20538191  0.20350352  1
  Pd  Pd159  1  0.00934435  0.41086603  0.39733552  1
  Pd  Pd160  1  0.60771031  -0.00595959  0.39961485  1
  Pd  Pd161  1  0.39450003  -0.00159435  -0.00530155  1
  Pd  Pd162  1  0.39801031  0.60260591  0.40177788  1
  Pd  Pd163  1  0.20186937  0.39539093  0.19469258  1
  Pd  Pd164  1  0.39653926  0.01164568  0.40322768  1
  Pd  Pd165  1  0.00016164  -0.00963932  0.79629141  1
  Pd  Pd166  1  0.39694545  0.60958180  0.19170909  1
  Pd  Pd167  1  0.19402693  0.40545918  0.79797200  1
  Pd  Pd168  1  0.79541378  0.19275681  0.41107577  1
  Pd  Pd169  1  0.41166811  -0.00474446  0.80338214  1
  Pd  Pd170  1  0.39416447  -0.00273184  0.20647258  1
  Pd  Pd171  1  0.20571650  0.80019599  0.20299786  1
  Pd  Pd172  1  -0.00104831  0.80180187  0.60794086  1
  Pd  Pd173  1  -0.01212213  0.59892991  0.59191793  1
  Pd  Pd174  1  0.79979830  0.39559202  0.59640350  1
  Pd  Pd175  1  0.20609524  0.19813803  0.80662374  1
  Pd  Pd176  1  0.78908674  0.80369682  0.40699982  1
  Pd  Pd177  1  0.60328978  0.59433899  0.80105559  1
  Pd  Pd178  1  0.19134891  0.40365157  0.41153390  1
  Pd  Pd179  1  0.78665481  0.58935836  0.80585544  1
  Pd  Pd180  1  0.80621204  0.60253893  0.40872321  1
  Pd  Pd181  1  0.20927950  0.19941418  -0.00843460  1
  Pd  Pd182  1  0.81370918  0.20253367  0.00958059  1
  Pd  Pd183  1  0.20385772  0.19309420  0.40180897  1
  Pd  Pd184  1  0.00269525  -0.00329857  -0.00079621  1
  Pd  Pd185  1  0.19482891  0.20146959  0.59328219  1
  Pd  Pd186  1  0.80572708  0.00573129  0.00958456  1
  Pd  Pd187  1  0.80402587  0.59892860  0.59170261  1
  Pd  Pd188  1  0.20393510  0.40091922  0.00180959  1
  Pd  Pd189  1  0.20319665  0.80068534  0.40009713  1
  Pd  Pd190  1  0.80674121  0.80646987  0.79379855  1
  Pd  Pd191  1  -0.00091255  0.20364193  0.79556365  1
  Pd  Pd192  1  -0.00387689  0.20426487  0.60761182  1
  Pd  Pd193  1  0.80784976  0.80304027  0.18960469  1
  Pd  Pd194  1  0.19855738  0.79498619  0.79136131  1
  Pd  Pd195  1  0.60799864  0.19621363  0.59837400  1
  Pd  Pd196  1  0.59529378  0.19792572  0.00552373  1
  Pd  Pd197  1  0.59495334  0.60086616  0.39956078  1
  Pd  Pd198  1  0.58739439  0.19626200  0.79903228  1
  Pd  Pd199  1  0.19827715  0.00623291  0.80566825  1
  Rh  Rh200  1  0.80987050  0.60965261  0.19002700  1
  Rh  Rh201  1  0.60160710  0.60617160  0.59828060  1
  Rh  Rh202  1  0.40949602  0.39239743  0.41064311  1
  Rh  Rh203  1  0.59039030  0.79140691  0.59189150  1
  Rh  Rh204  1  0.81423000  0.20003840  0.79030829  1
  Rh  Rh205  1  0.20697853  -0.00031635  0.19401557  1
  Rh  Rh206  1  0.60900326  0.60982426  -0.00084822  1
  Rh  Rh207  1  0.00035025  0.59866863  0.01058458  1
  Rh  Rh208  1  0.58935940  0.80421408  0.19957222  1
  Rh  Rh209  1  0.00595968  0.39510031  0.80191852  1
  Rh  Rh210  1  0.39495525  0.39600640  0.00663652  1
  Rh  Rh211  1  0.00803439  0.61042335  0.78971782  1
  Rh  Rh212  1  0.58902749  0.80588100  0.80093424  1
  Rh  Rh213  1  0.39599483  0.20050640  0.20853558  1
  Rh  Rh214  1  -0.00144449  0.20149000  0.00126781  1
  Rh  Rh215  1  0.40377262  0.79904738  0.40174129  1
  Rh  Rh216  1  0.79638520  -0.00497187  0.79925831  1
  Rh  Rh217  1  0.59620202  0.39893152  0.60136655  1
  Rh  Rh218  1  0.19442646  0.59843522  0.40369001  1
  Rh  Rh219  1  0.79406624  0.79528099  0.00391643  1
  Rh  Rh220  1  0.19750699  0.00049277  0.59505871  1
  Rh  Rh221  1  0.59465850  0.20725033  0.19304912  1
  Rh  Rh222  1  0.19439052  0.00222108  0.40880053  1
  Rh  Rh223  1  -0.00327840  -0.00557536  0.20632984  1
  Rh  Rh224  1  0.20222687  0.80252333  0.00409455  1
  Rh  Rh225  1  0.80615552  0.18969098  0.19563840  1
  Rh  Rh226  1  0.58959951  0.59239836  0.20022212  1
  Rh  Rh227  1  0.60368166  0.00479705  0.61289490  1
  Rh  Rh228  1  0.20618878  0.58832491  0.60420613  1
  Rh  Rh229  1  0.00790467  -0.00416112  0.59841637  1
  Rh  Rh230  1  0.60148983  0.79699257  0.00288843  1
  Rh  Rh231  1  -0.00803950  0.38930145  -0.00277277  1
  Rh  Rh232  1  0.39906482  -0.00853747  0.59754403  1
  Rh  Rh233  1  0.39397457  0.59998804  0.59239937  1
  Rh  Rh234  1  0.39577035  0.60948547  0.81104053  1
  Rh  Rh235  1  0.60569543  0.38693075  0.00016752  1
  Rh  Rh236  1  0.20064473  0.59808577  0.18786545  1
  Rh  Rh237  1  0.20808549  0.80530785  0.59802037  1
  Rh  Rh238  1  0.40326747  0.40272724  0.18875797  1
  Rh  Rh239  1  0.60466529  0.00134449  0.19993194  1
  Rh  Rh240  1  0.60024078  0.00756631  -0.00261561  1
  Rh  Rh241  1  0.39829132  0.20205053  0.59740898  1
  Rh  Rh242  1  0.79273644  0.39522053  0.19563620  1
  Rh  Rh243  1  0.79754573  0.00754167  0.59854192  1
  Rh  Rh244  1  0.80031543  0.79548647  0.60383143  1
  Rh  Rh245  1  0.00606959  0.39929718  0.59607572  1
  Rh  Rh246  1  0.39162988  0.60524041  -0.00180099  1
  Rh  Rh247  1  0.78933493  0.39759129  0.40335578  1
  Rh  Rh248  1  0.00539119  0.18989332  0.39587645  1
  Rh  Rh249  1  0.41507677  0.39055092  0.78695797  1
