# generated using pymatgen
data_ZrScNbPdRh
_symmetry_space_group_name_H-M   'P 1'
_cell_length_a   16.56360418
_cell_length_b   16.55797018
_cell_length_c   16.55866882
_cell_angle_alpha   90.01449322
_cell_angle_beta   89.97639355
_cell_angle_gamma   90.01454412
_symmetry_Int_Tables_number   1
_chemical_formula_structural   ZrScNbPdRh
_chemical_formula_sum   'Zr50 Sc50 Nb50 Pd50 Rh50'
_cell_volume   4541.37427290
_cell_formula_units_Z   50
loop_
 _symmetry_equiv_pos_site_id
 _symmetry_equiv_pos_as_xyz
  1  'x, y, z'
loop_
 _atom_site_type_symbol
 _atom_site_label
 _atom_site_symmetry_multiplicity
 _atom_site_fract_x
 _atom_site_fract_y
 _atom_site_fract_z
 _atom_site_occupancy
  Zr  Zr0  1  0.89830986  0.10164103  0.49609930  1
  Zr  Zr1  1  0.09677195  0.10982576  0.09498503  1
  Zr  Zr2  1  0.68201186  0.91150640  0.49967199  1
  Zr  Zr3  1  0.09466789  0.49292726  0.90717274  1
  Zr  Zr4  1  0.49735308  0.70238263  0.69676846  1
  Zr  Zr5  1  0.49956192  0.29686068  0.29452234  1
  Zr  Zr6  1  0.09738235  0.29736529  0.10685924  1
  Zr  Zr7  1  0.69595864  0.89802345  0.70059878  1
  Zr  Zr8  1  0.49660278  0.30136510  0.89758895  1
  Zr  Zr9  1  0.10024528  0.49347709  0.30295217  1
  Zr  Zr10  1  0.70749274  0.88921659  0.90682828  1
  Zr  Zr11  1  0.50271904  0.50052957  0.69546443  1
  Zr  Zr12  1  0.90084106  0.70149675  0.30121260  1
  Zr  Zr13  1  0.69458870  0.70210511  0.70528534  1
  Zr  Zr14  1  0.30586069  0.50348143  0.10413561  1
  Zr  Zr15  1  0.90658742  0.10422986  0.70008381  1
  Zr  Zr16  1  0.29876719  0.70081327  0.70117505  1
  Zr  Zr17  1  0.90217134  0.69464814  0.49589347  1
  Zr  Zr18  1  0.50655661  0.69908870  0.29555958  1
  Zr  Zr19  1  0.09869572  0.10154930  0.28925371  1
  Zr  Zr20  1  0.49193403  0.50221406  0.90239067  1
  Zr  Zr21  1  0.48804725  0.90040160  0.49640979  1
  Zr  Zr22  1  0.10267602  0.70561390  0.69700691  1
  Zr  Zr23  1  0.49108719  0.90912173  0.90263780  1
  Zr  Zr24  1  0.10105171  0.48809761  0.70303303  1
  Zr  Zr25  1  0.90226432  0.89978932  0.90636072  1
  Zr  Zr26  1  0.50161795  0.49922658  0.50334097  1
  Zr  Zr27  1  0.69757848  0.10998380  0.49780651  1
  Zr  Zr28  1  0.29772719  0.70486889  0.90016802  1
  Zr  Zr29  1  0.50498530  0.69740165  0.49083368  1
  Zr  Zr30  1  0.90332030  0.29706399  0.50293157  1
  Zr  Zr31  1  0.88934777  0.49657512  0.90067905  1
  Zr  Zr32  1  0.90353368  0.30621073  0.70558751  1
  Zr  Zr33  1  0.09840734  0.49601080  0.10625874  1
  Zr  Zr34  1  0.69612003  0.50754572  0.50685694  1
  Zr  Zr35  1  0.10543415  0.29951621  0.70111918  1
  Zr  Zr36  1  0.29612125  0.90012844  0.89631208  1
  Zr  Zr37  1  0.09083301  0.90452315  0.30867837  1
  Zr  Zr38  1  0.49421790  0.30336056  0.70328261  1
  Zr  Zr39  1  0.50230689  0.90379096  0.69123111  1
  Zr  Zr40  1  0.89989784  0.10112405  0.10348026  1
  Zr  Zr41  1  0.30078148  0.29890289  0.29899759  1
  Zr  Zr42  1  0.29471732  0.30052420  0.09739459  1
  Zr  Zr43  1  0.89960244  0.49775981  0.50387492  1
  Zr  Zr44  1  0.69837610  0.10700865  0.70426300  1
  Zr  Zr45  1  0.50451736  0.10837332  0.89788269  1
  Zr  Zr46  1  0.50161071  0.69472928  0.10505333  1
  Zr  Zr47  1  0.09658548  0.69777069  0.10157039  1
  Zr  Zr48  1  0.11278714  0.29662402  0.90515818  1
  Zr  Zr49  1  0.29956679  0.49853532  0.49872329  1
  Sc  Sc50  1  0.69294273  0.69961003  0.29976235  1
  Sc  Sc51  1  0.31191140  0.70163251  0.50109287  1
  Sc  Sc52  1  0.50624456  0.29609066  0.10612765  1
  Sc  Sc53  1  0.30180446  0.89633600  0.70205506  1
  Sc  Sc54  1  0.70008035  0.71497026  0.09854577  1
  Sc  Sc55  1  0.49591602  0.69828402  0.89665285  1
  Sc  Sc56  1  0.91763033  0.90544048  0.49758286  1
  Sc  Sc57  1  0.29504615  0.10178371  0.11094133  1
  Sc  Sc58  1  0.30352573  0.91700861  0.29978654  1
  Sc  Sc59  1  0.69924440  0.09862973  0.29820225  1
  Sc  Sc60  1  0.31491205  0.69131158  0.29816396  1
  Sc  Sc61  1  0.09841306  0.09716961  0.71182730  1
  Sc  Sc62  1  0.09652441  0.10580619  0.49515074  1
  Sc  Sc63  1  0.30298467  0.49020826  0.90576017  1
  Sc  Sc64  1  0.08604887  0.69075228  0.30040995  1
  Sc  Sc65  1  0.30452471  0.10118650  0.49274885  1
  Sc  Sc66  1  0.89737085  0.29942542  0.10736361  1
  Sc  Sc67  1  0.69995012  0.29545791  0.28820422  1
  Sc  Sc68  1  0.49862945  0.29275959  0.50602508  1
  Sc  Sc69  1  0.50222925  0.10230963  0.10560674  1
  Sc  Sc70  1  0.70365512  0.30124630  0.69844443  1
  Sc  Sc71  1  0.50279579  0.90825899  0.29797138  1
  Sc  Sc72  1  0.50425423  0.50827898  0.29038438  1
  Sc  Sc73  1  0.69250933  0.50133644  0.29357406  1
  Sc  Sc74  1  0.69567242  0.90612035  0.29155194  1
  Sc  Sc75  1  0.30358784  0.09375888  0.88796792  1
  Sc  Sc76  1  0.50311795  0.89802454  0.10581537  1
  Sc  Sc77  1  0.70256078  0.50336084  0.69819332  1
  Sc  Sc78  1  0.49637853  0.10091508  0.29845452  1
  Sc  Sc79  1  0.89449218  0.70264380  0.70166258  1
  Sc  Sc80  1  0.30630863  0.70184711  0.10221167  1
  Sc  Sc81  1  0.90152216  0.49413396  0.09494747  1
  Sc  Sc82  1  0.91003940  0.09799311  0.90057963  1
  Sc  Sc83  1  0.30832014  0.90179714  0.10009475  1
  Sc  Sc84  1  0.88955787  0.89947600  0.10229929  1
  Sc  Sc85  1  0.90231257  0.29563134  0.29776188  1
  Sc  Sc86  1  0.09594414  0.70379068  0.50184350  1
  Sc  Sc87  1  0.30490453  0.10422013  0.29863351  1
  Sc  Sc88  1  0.09260985  0.89270364  0.09535650  1
  Sc  Sc89  1  0.49996430  0.09690596  0.49948669  1
  Sc  Sc90  1  0.10253159  0.48739031  0.50074113  1
  Sc  Sc91  1  0.49289319  0.10403225  0.69837890  1
  Sc  Sc92  1  0.69819454  0.29065395  0.89042043  1
  Sc  Sc93  1  0.29553715  0.10192636  0.70154307  1
  Sc  Sc94  1  0.29710341  0.49226074  0.69449472  1
  Sc  Sc95  1  0.91408417  0.90459138  0.69252383  1
  Sc  Sc96  1  0.70807276  0.49407958  0.10205304  1
  Sc  Sc97  1  0.29053386  0.29350648  0.50023230  1
  Sc  Sc98  1  0.90975412  0.50269908  0.30362271  1
  Sc  Sc99  1  0.90440349  0.70425396  0.09714675  1
  Nb  Nb100  1  0.29466457  0.29833327  0.71467488  1
  Nb  Nb101  1  0.89513334  0.69816125  0.90204305  1
  Nb  Nb102  1  0.10236767  0.08966879  0.89923064  1
  Nb  Nb103  1  0.70465510  0.70070772  0.49801461  1
  Nb  Nb104  1  0.70253749  0.50166395  0.90306157  1
  Nb  Nb105  1  0.30098364  0.49810062  0.30266336  1
  Nb  Nb106  1  0.69914290  0.29073987  0.10182462  1
  Nb  Nb107  1  0.10219695  0.89918437  0.89383320  1
  Nb  Nb108  1  0.09808565  0.70556971  0.90569528  1
  Nb  Nb109  1  0.90228430  0.08836495  0.29910385  1
  Nb  Nb110  1  0.30422564  0.30107361  0.89589128  1
  Nb  Nb111  1  0.70094121  0.10293677  0.09683599  1
  Nb  Nb112  1  0.69993807  0.30399453  0.49727285  1
  Nb  Nb113  1  0.09972441  0.30358662  0.49034038  1
  Nb  Nb114  1  0.69883892  0.90726571  0.09531111  1
  Nb  Nb115  1  0.89849975  0.90461453  0.30722426  1
  Nb  Nb116  1  0.50920720  0.50389102  0.09527572  1
  Nb  Nb117  1  0.29671107  0.90210490  0.49420760  1
  Nb  Nb118  1  0.09866010  0.30423237  0.30797058  1
  Nb  Nb119  1  0.71481963  0.69392948  0.89950471  1
  Nb  Nb120  1  0.89143139  0.30244576  0.89433905  1
  Nb  Nb121  1  0.09889275  0.89896565  0.69554412  1
  Nb  Nb122  1  0.09850481  0.89659074  0.50592602  1
  Nb  Nb123  1  0.90942891  0.49143939  0.70326752  1
  Nb  Nb124  1  0.70088538  0.10080530  0.89941428  1
  Nb  Nb125  1  0.79798976  0.00112697  0.60040325  1
  Nb  Nb126  1  0.20101352  0.80048618  0.39642875  1
  Nb  Nb127  1  0.59962092  0.40656944  0.80628479  1
  Nb  Nb128  1  0.60029459  0.39707826  0.40304553  1
  Nb  Nb129  1  0.19813895  0.79989204  0.21108917  1
  Nb  Nb130  1  -0.00043028  0.60224728  0.80409251  1
  Nb  Nb131  1  0.79619548  0.80535577  0.58957315  1
  Nb  Nb132  1  0.79667437  0.19744696  -0.00059368  1
  Nb  Nb133  1  0.79936464  0.80615949  0.40388744  1
  Nb  Nb134  1  0.19515340  -0.00071884  -0.00525067  1
  Nb  Nb135  1  0.80325995  0.60383559  0.19866460  1
  Nb  Nb136  1  -0.00093275  0.59219223  0.60999141  1
  Nb  Nb137  1  0.60878816  0.59808388  -0.00487996  1
  Nb  Nb138  1  0.19207391  0.60159314  0.80799663  1
  Nb  Nb139  1  0.39740650  0.20316114  -0.00381159  1
  Nb  Nb140  1  0.00498822  0.79722710  0.80618060  1
  Nb  Nb141  1  0.60860866  0.00278886  -0.00119178  1
  Nb  Nb142  1  0.79279026  0.39821697  0.40345451  1
  Nb  Nb143  1  0.79852106  0.00104960  0.79903717  1
  Nb  Nb144  1  0.60398789  0.40077684  -0.00154990  1
  Nb  Nb145  1  0.19417350  -0.00771487  0.59607813  1
  Nb  Nb146  1  0.19680549  0.60241166  -0.00108860  1
  Nb  Nb147  1  0.60462603  0.00041950  0.80601008  1
  Nb  Nb148  1  0.20278024  0.60021774  0.39773343  1
  Nb  Nb149  1  0.40372457  0.40072884  0.39693846  1
  Pd  Pd150  1  0.40451659  0.80505181  0.79749918  1
  Pd  Pd151  1  0.80505541  0.60407449  0.60959866  1
  Pd  Pd152  1  0.00480892  0.20604732  0.80993831  1
  Pd  Pd153  1  0.39315850  0.80578866  0.38895200  1
  Pd  Pd154  1  0.19562791  0.19207684  0.60144600  1
  Pd  Pd155  1  0.59744220  0.20338509  0.39535661  1
  Pd  Pd156  1  0.38664675  0.00215874  0.60081220  1
  Pd  Pd157  1  0.20186741  0.60884639  0.20388410  1
  Pd  Pd158  1  0.39618501  0.01404995  0.00884472  1
  Pd  Pd159  1  0.40061051  0.60171922  0.59993811  1
  Pd  Pd160  1  -0.00981459  0.20886093  -0.00785183  1
  Pd  Pd161  1  0.60489474  0.80498653  0.39323140  1
  Pd  Pd162  1  -0.00105253  0.59964651  -0.00041374  1
  Pd  Pd163  1  0.20908183  0.80346383  0.59204724  1
  Pd  Pd164  1  0.59681096  0.20310789  0.60385852  1
  Pd  Pd165  1  0.60031052  0.79383993  0.59208133  1
  Pd  Pd166  1  0.79712662  0.00195784  0.20115165  1
  Pd  Pd167  1  0.81212700  0.80961660  0.79128180  1
  Pd  Pd168  1  0.79194286  0.38518625  -0.00059778  1
  Pd  Pd169  1  0.40751308  0.40518535  0.19990497  1
  Pd  Pd170  1  0.39039197  0.20167737  0.60032298  1
  Pd  Pd171  1  -0.00544258  0.38661362  -0.00012428  1
  Pd  Pd172  1  0.00407572  -0.00355199  0.00643039  1
  Pd  Pd173  1  0.40753048  0.39203333  0.01155061  1
  Pd  Pd174  1  0.21321363  0.18688055  -0.00896813  1
  Pd  Pd175  1  0.20272970  0.80260107  0.01233645  1
  Pd  Pd176  1  0.79206149  0.59625765  0.38817495  1
  Pd  Pd177  1  0.80570004  0.59378764  0.79185374  1
  Pd  Pd178  1  0.79610870  0.79866160  0.20674274  1
  Pd  Pd179  1  0.79725200  0.39921864  0.60039799  1
  Pd  Pd180  1  0.19303863  0.59842214  0.59485241  1
  Pd  Pd181  1  0.00016039  0.80587194  0.20411756  1
  Pd  Pd182  1  0.39593125  0.80706567  0.20869512  1
  Pd  Pd183  1  -0.00271427  0.19722846  0.39157676  1
  Pd  Pd184  1  0.19482557  0.00231415  0.40498935  1
  Pd  Pd185  1  0.80136250  0.19970360  0.60265317  1
  Pd  Pd186  1  0.01036909  0.20125650  0.60165079  1
  Pd  Pd187  1  0.38644139  0.59222557  0.79719240  1
  Pd  Pd188  1  -0.00060937  -0.00699949  0.19166475  1
  Pd  Pd189  1  0.19468936  -0.01033216  0.18795282  1
  Pd  Pd190  1  0.60130932  0.59755009  0.80607913  1
  Pd  Pd191  1  0.39006307  0.38910850  0.59497557  1
  Pd  Pd192  1  0.59301010  0.80270405  0.81194520  1
  Pd  Pd193  1  0.19941486  0.19423355  0.39389824  1
  Pd  Pd194  1  0.40527594  0.79655469  0.00164770  1
  Pd  Pd195  1  0.19942915  0.39628795  0.20181855  1
  Pd  Pd196  1  0.79656781  -0.00556091  0.40618235  1
  Pd  Pd197  1  0.59508235  0.79794014  -0.00493555  1
  Pd  Pd198  1  0.80384022  0.40711603  0.21009665  1
  Pd  Pd199  1  0.79996120  0.20549134  0.38900718  1
  Rh  Rh200  1  0.01393905  0.59160044  0.41550691  1
  Rh  Rh201  1  0.79785916  0.00802767  -0.00451062  1
  Rh  Rh202  1  0.40351246  0.00317577  0.19715747  1
  Rh  Rh203  1  0.00025175  0.39477808  0.81272957  1
  Rh  Rh204  1  0.60129745  0.59444412  0.40148204  1
  Rh  Rh205  1  0.20569146  0.40428602  0.80527641  1
  Rh  Rh206  1  0.39856403  0.80113708  0.59796442  1
  Rh  Rh207  1  0.39839784  0.60516376  0.00334598  1
  Rh  Rh208  1  0.60150224  0.00321546  0.19105116  1
  Rh  Rh209  1  -0.00988370  0.39739041  0.40093700  1
  Rh  Rh210  1  -0.00177039  0.39726036  0.20416668  1
  Rh  Rh211  1  0.19671649  0.20642542  0.20779356  1
  Rh  Rh212  1  0.60255490  0.19388897  0.20322872  1
  Rh  Rh213  1  0.19847499  -0.00571532  0.79511010  1
  Rh  Rh214  1  0.19918578  0.19641229  0.80524895  1
  Rh  Rh215  1  0.20234951  0.40630990  0.00381660  1
  Rh  Rh216  1  0.39895353  0.40594950  0.79318677  1
  Rh  Rh217  1  0.39480607  0.19873231  0.80144678  1
  Rh  Rh218  1  0.59618990  0.20360108  0.79234624  1
  Rh  Rh219  1  -0.00488586  0.80140882  -0.00406860  1
  Rh  Rh220  1  0.00614463  0.39434269  0.59545242  1
  Rh  Rh221  1  0.60097249  0.39866257  0.19628156  1
  Rh  Rh222  1  -0.00893050  0.78951353  0.60528807  1
  Rh  Rh223  1  0.20828952  0.40183071  0.39942541  1
  Rh  Rh224  1  0.81130251  0.19325903  0.80549318  1
  Rh  Rh225  1  0.80477675  0.79456814  0.00532757  1
  Rh  Rh226  1  0.00425096  0.00799876  0.40281114  1
  Rh  Rh227  1  0.79561386  0.60688498  0.01137485  1
  Rh  Rh228  1  0.59975097  0.61014850  0.60104702  1
  Rh  Rh229  1  0.40315125  0.00437929  0.39930721  1
  Rh  Rh230  1  -0.00116868  0.79996508  0.39893973  1
  Rh  Rh231  1  0.40438593  0.59456068  0.19862090  1
  Rh  Rh232  1  0.00629585  0.01112604  0.59664103  1
  Rh  Rh233  1  -0.01077130  0.59290906  0.19080724  1
  Rh  Rh234  1  -0.00247192  0.20108162  0.20762435  1
  Rh  Rh235  1  0.40056065  0.59015284  0.39794097  1
  Rh  Rh236  1  0.61377117  0.60192433  0.18444036  1
  Rh  Rh237  1  0.20133469  0.38783683  0.59776464  1
  Rh  Rh238  1  0.60117067  0.20070689  0.00404012  1
  Rh  Rh239  1  -0.00270367  -0.00913551  0.80101149  1
  Rh  Rh240  1  0.60236883  0.01354313  0.60658400  1
  Rh  Rh241  1  0.79097592  0.40352855  0.79666863  1
  Rh  Rh242  1  0.60172220  0.80561277  0.20057671  1
  Rh  Rh243  1  0.39767434  0.20010199  0.19144328  1
  Rh  Rh244  1  0.59421636  0.00625595  0.39591198  1
  Rh  Rh245  1  0.40209903  0.20686038  0.40131927  1
  Rh  Rh246  1  0.60300645  0.39479554  0.60364155  1
  Rh  Rh247  1  0.19531520  0.79938137  0.79740246  1
  Rh  Rh248  1  0.40670277  -0.00128031  0.79033844  1
  Rh  Rh249  1  0.80242905  0.19123752  0.19868701  1
