# generated using pymatgen
data_ZrScNbPdRh
_symmetry_space_group_name_H-M   'P 1'
_cell_length_a   16.56130841
_cell_length_b   16.56140377
_cell_length_c   16.56244933
_cell_angle_alpha   89.98710971
_cell_angle_beta   90.01353029
_cell_angle_gamma   90.03453436
_symmetry_Int_Tables_number   1
_chemical_formula_structural   ZrScNbPdRh
_chemical_formula_sum   'Zr50 Sc50 Nb50 Pd50 Rh50'
_cell_volume   4542.72295056
_cell_formula_units_Z   50
loop_
 _symmetry_equiv_pos_site_id
 _symmetry_equiv_pos_as_xyz
  1  'x, y, z'
loop_
 _atom_site_type_symbol
 _atom_site_label
 _atom_site_symmetry_multiplicity
 _atom_site_fract_x
 _atom_site_fract_y
 _atom_site_fract_z
 _atom_site_occupancy
  Zr  Zr0  1  0.89563431  0.70038672  0.89533706  1
  Zr  Zr1  1  0.88522446  0.10518446  0.10208786  1
  Zr  Zr2  1  0.10443586  0.49814323  0.29922484  1
  Zr  Zr3  1  0.09825881  0.50345350  0.69257229  1
  Zr  Zr4  1  0.51260143  0.30848753  0.49199464  1
  Zr  Zr5  1  0.70261039  0.69808209  0.90609835  1
  Zr  Zr6  1  0.69900047  0.09791023  0.89984926  1
  Zr  Zr7  1  0.89444194  0.09959101  0.30208969  1
  Zr  Zr8  1  0.68892841  0.10341517  0.69878918  1
  Zr  Zr9  1  0.90950971  0.29246021  0.50548855  1
  Zr  Zr10  1  0.10074624  0.90034970  0.89584452  1
  Zr  Zr11  1  0.89694466  0.89827340  0.89438154  1
  Zr  Zr12  1  0.50950815  0.90010843  0.89694362  1
  Zr  Zr13  1  0.30121630  0.10032091  0.69427732  1
  Zr  Zr14  1  0.29380592  0.10272472  0.29759608  1
  Zr  Zr15  1  0.10642678  0.09649664  0.10079742  1
  Zr  Zr16  1  0.69268335  0.89780211  0.10329933  1
  Zr  Zr17  1  0.49214623  0.29832339  0.11371407  1
  Zr  Zr18  1  0.09572498  0.89578829  0.69849182  1
  Zr  Zr19  1  0.70064977  0.89757548  0.90382999  1
  Zr  Zr20  1  0.10219005  0.09774853  0.90272978  1
  Zr  Zr21  1  0.30043616  0.50394858  0.69948934  1
  Zr  Zr22  1  0.30426074  0.69914481  0.30758051  1
  Zr  Zr23  1  0.89877302  0.30012575  0.70913793  1
  Zr  Zr24  1  0.29649096  0.30186049  0.50779693  1
  Zr  Zr25  1  0.89667070  0.69618154  0.70007302  1
  Zr  Zr26  1  0.49485934  0.09381804  0.70743698  1
  Zr  Zr27  1  0.50585799  0.70462237  0.10010921  1
  Zr  Zr28  1  0.89848649  0.29791505  0.90725750  1
  Zr  Zr29  1  0.90240586  0.09718672  0.70297426  1
  Zr  Zr30  1  0.30204013  0.29867411  0.70492001  1
  Zr  Zr31  1  0.49598142  0.49898689  0.49994970  1
  Zr  Zr32  1  0.49824575  0.89597114  0.70452667  1
  Zr  Zr33  1  0.69819904  0.50380932  0.29925981  1
  Zr  Zr34  1  0.49547615  0.69925877  0.89913482  1
  Zr  Zr35  1  0.29613139  0.90486861  0.70100225  1
  Zr  Zr36  1  0.10656738  0.90123953  0.29734294  1
  Zr  Zr37  1  0.09499058  0.68548989  0.29923347  1
  Zr  Zr38  1  0.29923690  0.68466968  0.90023303  1
  Zr  Zr39  1  0.90609008  0.09455093  0.49998994  1
  Zr  Zr40  1  0.10003745  0.90141611  0.08713774  1
  Zr  Zr41  1  0.30222385  0.50490481  0.50155312  1
  Zr  Zr42  1  0.30778239  0.31150686  0.28816603  1
  Zr  Zr43  1  0.30976336  0.70278798  0.69833424  1
  Zr  Zr44  1  0.11125839  0.51157623  0.89525143  1
  Zr  Zr45  1  0.10314806  0.10188302  0.30359918  1
  Zr  Zr46  1  0.30271976  0.10410288  0.50470812  1
  Zr  Zr47  1  0.49838613  0.48613329  0.30695621  1
  Zr  Zr48  1  0.09200427  0.30999040  0.10080551  1
  Zr  Zr49  1  0.10357626  0.08773280  0.69924376  1
  Sc  Sc50  1  0.30207619  0.90212233  0.29765440  1
  Sc  Sc51  1  0.30808132  0.69731098  0.08948789  1
  Sc  Sc52  1  0.30370028  0.10487293  0.10273826  1
  Sc  Sc53  1  0.50109605  0.89336273  0.29736002  1
  Sc  Sc54  1  0.70136357  0.09694733  0.10638863  1
  Sc  Sc55  1  0.29676350  0.89267309  0.49654512  1
  Sc  Sc56  1  0.70818929  0.69958720  0.49324267  1
  Sc  Sc57  1  0.10547251  0.70821281  0.89499526  1
  Sc  Sc58  1  0.50687489  0.49553989  0.09714174  1
  Sc  Sc59  1  0.29954505  0.90657537  0.09845275  1
  Sc  Sc60  1  0.88313171  0.90417958  0.30626518  1
  Sc  Sc61  1  0.10389013  0.30253434  0.69299287  1
  Sc  Sc62  1  0.50623933  0.90123943  0.49292724  1
  Sc  Sc63  1  0.70822670  0.69665979  0.70662279  1
  Sc  Sc64  1  0.89409945  0.69612453  0.50146498  1
  Sc  Sc65  1  0.49997177  0.10034666  0.10505609  1
  Sc  Sc66  1  0.70303410  0.49876782  0.09802257  1
  Sc  Sc67  1  0.69361940  0.90228101  0.30958539  1
  Sc  Sc68  1  0.69834501  0.49559323  0.90362533  1
  Sc  Sc69  1  0.50277265  0.89679355  0.10396124  1
  Sc  Sc70  1  0.48543630  0.70145082  0.48883072  1
  Sc  Sc71  1  0.89423820  0.10545656  0.90133062  1
  Sc  Sc72  1  0.69682345  0.50239012  0.49946478  1
  Sc  Sc73  1  0.29733452  0.69754605  0.49957542  1
  Sc  Sc74  1  0.88872159  0.50215857  0.90219065  1
  Sc  Sc75  1  0.68973379  0.29800873  0.29730540  1
  Sc  Sc76  1  0.49495303  0.29921013  0.88985697  1
  Sc  Sc77  1  0.10599796  0.50525666  0.50190682  1
  Sc  Sc78  1  0.89818779  0.48969117  0.09909355  1
  Sc  Sc79  1  0.10340333  0.10911709  0.50287481  1
  Sc  Sc80  1  0.09900452  0.50291676  0.11051193  1
  Sc  Sc81  1  0.30652221  0.10864372  0.88343403  1
  Sc  Sc82  1  0.50322209  0.50279434  0.89417066  1
  Sc  Sc83  1  0.70120318  0.30404569  0.09749399  1
  Sc  Sc84  1  0.70261886  0.30424997  0.88980308  1
  Sc  Sc85  1  0.50955038  0.30696579  0.69576322  1
  Sc  Sc86  1  0.89343801  0.89030259  0.50391346  1
  Sc  Sc87  1  0.29100090  0.90020497  0.90036283  1
  Sc  Sc88  1  0.70197588  0.49833519  0.70987685  1
  Sc  Sc89  1  0.29949946  0.50557620  0.09966499  1
  Sc  Sc90  1  0.10149580  0.70113435  0.70199901  1
  Sc  Sc91  1  0.89297957  0.69475375  0.09443776  1
  Sc  Sc92  1  0.10810364  0.30255012  0.30012075  1
  Sc  Sc93  1  0.89242890  0.30116978  0.10043755  1
  Sc  Sc94  1  0.90521335  0.50340380  0.29718739  1
  Sc  Sc95  1  0.90645168  0.50568126  0.50892931  1
  Sc  Sc96  1  0.51133338  0.10116775  0.51369580  1
  Sc  Sc97  1  0.51036745  0.10496030  0.29061878  1
  Sc  Sc98  1  0.89262932  0.90314092  0.09161205  1
  Sc  Sc99  1  0.69772843  0.89610389  0.71054990  1
  Nb  Nb100  1  0.69933391  0.29564122  0.50480409  1
  Nb  Nb101  1  0.69543812  0.69758192  0.10795073  1
  Nb  Nb102  1  0.29732617  0.30407065  0.89516167  1
  Nb  Nb103  1  0.89964527  0.49976510  0.69946400  1
  Nb  Nb104  1  0.49998886  0.50958660  0.69781143  1
  Nb  Nb105  1  0.30110194  0.50071528  0.30103691  1
  Nb  Nb106  1  0.09766572  0.30379536  0.90045316  1
  Nb  Nb107  1  0.49764150  0.30236500  0.30128795  1
  Nb  Nb108  1  0.90294125  0.89880554  0.69653916  1
  Nb  Nb109  1  0.70457314  0.30178593  0.69874031  1
  Nb  Nb110  1  0.69706031  0.90535431  0.50228550  1
  Nb  Nb111  1  0.09672514  0.70051554  0.09985992  1
  Nb  Nb112  1  0.09422024  0.89313606  0.49975749  1
  Nb  Nb113  1  0.49950233  0.70155994  0.70322377  1
  Nb  Nb114  1  0.71042514  0.09264276  0.30001329  1
  Nb  Nb115  1  0.09865487  0.30573549  0.50293137  1
  Nb  Nb116  1  0.70068591  0.69601897  0.29654464  1
  Nb  Nb117  1  0.30156628  0.50126411  0.90130121  1
  Nb  Nb118  1  0.50073240  0.09877449  0.89691338  1
  Nb  Nb119  1  0.10108821  0.69951542  0.49230881  1
  Nb  Nb120  1  0.89516979  0.70219333  0.30638343  1
  Nb  Nb121  1  0.90147448  0.29407395  0.30542251  1
  Nb  Nb122  1  0.50242598  0.69833975  0.29715804  1
  Nb  Nb123  1  0.69857357  0.09517739  0.50166074  1
  Nb  Nb124  1  0.30096667  0.30268658  0.09474616  1
  Nb  Nb125  1  0.00062728  0.79788560  0.39569309  1
  Nb  Nb126  1  0.40666058  0.00598887  -0.00848939  1
  Nb  Nb127  1  0.19272125  0.79314668  0.19503282  1
  Nb  Nb128  1  0.80080437  0.39406658  0.60020704  1
  Nb  Nb129  1  0.79563931  0.79113308  0.20522419  1
  Nb  Nb130  1  0.00103784  0.40368235  0.80202100  1
  Nb  Nb131  1  0.59288483  0.60758405  0.60376537  1
  Nb  Nb132  1  0.40711022  0.60029177  0.20790528  1
  Nb  Nb133  1  0.40045205  0.01179265  0.39908563  1
  Nb  Nb134  1  0.39162249  0.39649044  -0.00468964  1
  Nb  Nb135  1  0.00384400  0.60328714  -0.00078577  1
  Nb  Nb136  1  0.59332754  0.19873558  -0.00344409  1
  Nb  Nb137  1  0.79390172  0.19787942  0.59875004  1
  Nb  Nb138  1  -0.00445025  0.80006590  0.20248064  1
  Nb  Nb139  1  0.80429677  0.39085629  0.40590136  1
  Nb  Nb140  1  0.79233347  0.19794474  0.40489101  1
  Nb  Nb141  1  -0.00294769  -0.00081032  0.20267784  1
  Nb  Nb142  1  0.20337294  0.39893433  -0.00648215  1
  Nb  Nb143  1  0.40519221  0.20323356  0.39694668  1
  Nb  Nb144  1  -0.00008246  0.39544084  0.40457562  1
  Nb  Nb145  1  0.59861717  0.79284484  0.60084380  1
  Nb  Nb146  1  -0.00254873  0.19692110  0.20302663  1
  Nb  Nb147  1  0.20292340  0.21233584  -0.00552376  1
  Nb  Nb148  1  0.00429653  -0.00828820  0.40101943  1
  Nb  Nb149  1  0.79594330  -0.00014357  0.60150692  1
  Pd  Pd150  1  0.19642808  -0.00515724  0.58959751  1
  Pd  Pd151  1  0.40031493  0.19981455  -0.00493954  1
  Pd  Pd152  1  0.00471700  0.19704110  0.60998649  1
  Pd  Pd153  1  0.79643761  0.79715131  0.00875022  1
  Pd  Pd154  1  0.19727518  0.79537956  0.39334259  1
  Pd  Pd155  1  0.40614845  0.40671581  0.79937822  1
  Pd  Pd156  1  0.59932486  0.59993705  0.00072461  1
  Pd  Pd157  1  0.59370550  0.59187780  0.20019674  1
  Pd  Pd158  1  0.41333276  0.20951783  0.59789611  1
  Pd  Pd159  1  0.40366356  -0.01010604  0.58932023  1
  Pd  Pd160  1  -0.01231391  0.60311686  0.19183587  1
  Pd  Pd161  1  0.20194344  0.00015179  0.41048904  1
  Pd  Pd162  1  0.40371382  0.00303388  0.20077372  1
  Pd  Pd163  1  -0.00368689  0.59671474  0.80572455  1
  Pd  Pd164  1  -0.01122009  0.00765427  0.00114732  1
  Pd  Pd165  1  0.59504405  0.00704924  0.00738791  1
  Pd  Pd166  1  0.39138736  0.79410739  0.19821191  1
  Pd  Pd167  1  0.39806314  0.81206059  -0.00319713  1
  Pd  Pd168  1  0.59839029  0.20630248  0.80263344  1
  Pd  Pd169  1  0.21296046  0.60645369  0.19584816  1
  Pd  Pd170  1  0.00864522  0.20438672  0.79720575  1
  Pd  Pd171  1  0.00540824  0.41704273  -0.01014656  1
  Pd  Pd172  1  -0.00557748  0.79317866  0.00070390  1
  Pd  Pd173  1  0.60373087  0.79252347  0.40393192  1
  Pd  Pd174  1  0.78952584  0.80512574  0.60458507  1
  Pd  Pd175  1  0.20641673  0.21089290  0.40120073  1
  Pd  Pd176  1  0.19939502  0.79470718  0.60174913  1
  Pd  Pd177  1  0.80597945  0.58900754  0.40225142  1
  Pd  Pd178  1  0.19603949  0.21029764  0.19176076  1
  Pd  Pd179  1  0.59177557  0.00801769  0.39453600  1
  Pd  Pd180  1  0.59052126  0.38753319  -0.00440231  1
  Pd  Pd181  1  0.00366485  0.60951018  0.59628184  1
  Pd  Pd182  1  0.60859225  0.41237296  0.60543207  1
  Pd  Pd183  1  0.19466139  0.40231752  0.79763928  1
  Pd  Pd184  1  0.60510194  0.60210522  0.79849835  1
  Pd  Pd185  1  0.79732268  0.00053188  0.79472545  1
  Pd  Pd186  1  0.19236279  0.19915857  0.79797639  1
  Pd  Pd187  1  0.39270754  0.80395773  0.80996194  1
  Pd  Pd188  1  0.79909867  0.39557165  0.20937956  1
  Pd  Pd189  1  0.40204525  0.39724907  0.60317883  1
  Pd  Pd190  1  0.60867016  0.20067813  0.19342333  1
  Pd  Pd191  1  0.40607122  0.80597578  0.59128199  1
  Pd  Pd192  1  0.20564367  0.79410296  0.00244970  1
  Pd  Pd193  1  -0.00214009  -0.00110843  0.80476160  1
  Pd  Pd194  1  0.19944041  0.40144440  0.40330668  1
  Pd  Pd195  1  -0.00222267  0.79032579  0.59427505  1
  Pd  Pd196  1  0.00312021  0.19510560  0.00879579  1
  Pd  Pd197  1  0.60178400  0.19242070  0.39746143  1
  Pd  Pd198  1  0.59509716  0.60570083  0.40670770  1
  Pd  Pd199  1  0.80570656  0.59999852  0.19554267  1
  Rh  Rh200  1  0.59977067  0.20362466  0.60314841  1
  Rh  Rh201  1  -0.00141506  -0.00704013  0.59305794  1
  Rh  Rh202  1  0.40971502  0.58837451  0.00646924  1
  Rh  Rh203  1  0.79606891  0.19594704  0.79810724  1
  Rh  Rh204  1  0.19166992  0.59805009  0.00745435  1
  Rh  Rh205  1  -0.00419928  0.80104183  0.79644945  1
  Rh  Rh206  1  0.39758069  0.19559063  0.20913612  1
  Rh  Rh207  1  0.60714832  0.79985092  0.20849024  1
  Rh  Rh208  1  0.80077850  -0.00016156  0.41284202  1
  Rh  Rh209  1  0.39947525  0.81154864  0.39619472  1
  Rh  Rh210  1  0.40471233  0.60356266  0.60017114  1
  Rh  Rh211  1  0.40572621  0.20451267  0.79124849  1
  Rh  Rh212  1  0.79633966  0.39679679  -0.00236788  1
  Rh  Rh213  1  0.60231743  -0.00160684  0.79764738  1
  Rh  Rh214  1  0.19747184  -0.00940898  0.19048556  1
  Rh  Rh215  1  0.60136071  0.79440383  -0.00220278  1
  Rh  Rh216  1  -0.00263496  0.59755202  0.40558827  1
  Rh  Rh217  1  0.20210549  0.40286039  0.60110111  1
  Rh  Rh218  1  0.79961287  0.59674711  0.00508478  1
  Rh  Rh219  1  0.40030362  0.59568343  0.79936592  1
  Rh  Rh220  1  0.21914431  0.02009198  -0.00701670  1
  Rh  Rh221  1  0.79000406  0.58847299  0.60247908  1
  Rh  Rh222  1  0.39853597  0.41364181  0.18972669  1
  Rh  Rh223  1  0.78499579  0.20339516  -0.00279819  1
  Rh  Rh224  1  0.19972998  0.60873530  0.59982577  1
  Rh  Rh225  1  0.80606270  0.40390875  0.79851403  1
  Rh  Rh226  1  0.20485120  0.40372163  0.19224654  1
  Rh  Rh227  1  -0.00233826  0.40483741  0.60124723  1
  Rh  Rh228  1  0.61318111  0.40042886  0.39600614  1
  Rh  Rh229  1  -0.00488186  0.39143104  0.21343025  1
  Rh  Rh230  1  0.20207923  0.00093336  0.80133328  1
  Rh  Rh231  1  0.79779369  0.20700994  0.20779519  1
  Rh  Rh232  1  0.60370730  -0.01460527  0.60869019  1
  Rh  Rh233  1  0.39572565  -0.00639500  0.80657440  1
  Rh  Rh234  1  0.80342469  0.80172441  0.79553508  1
  Rh  Rh235  1  0.19534854  0.20128444  0.60496010  1
  Rh  Rh236  1  0.79610987  0.80058467  0.39709257  1
  Rh  Rh237  1  0.59878431  0.40241471  0.79624441  1
  Rh  Rh238  1  0.60277780  -0.00306705  0.20539929  1
  Rh  Rh239  1  0.40059917  0.59522946  0.39324028  1
  Rh  Rh240  1  0.20221290  0.59551900  0.40265942  1
  Rh  Rh241  1  0.79732351  0.00045789  -0.00127617  1
  Rh  Rh242  1  0.60267020  0.40101972  0.20103181  1
  Rh  Rh243  1  0.20474679  0.79855657  0.79626077  1
  Rh  Rh244  1  0.79822581  -0.01380367  0.19614149  1
  Rh  Rh245  1  0.60365020  0.79106325  0.80022382  1
  Rh  Rh246  1  0.39116442  0.39358934  0.40652936  1
  Rh  Rh247  1  0.79747130  0.59518879  0.80173400  1
  Rh  Rh248  1  0.20639414  0.60576752  0.78941810  1
  Rh  Rh249  1  0.00699411  0.20248981  0.39363303  1
