# generated using pymatgen
data_ZrScNbPdRh
_symmetry_space_group_name_H-M   'P 1'
_cell_length_a   16.55960738
_cell_length_b   16.56227878
_cell_length_c   16.55901083
_cell_angle_alpha   89.99656833
_cell_angle_beta   90.00041536
_cell_angle_gamma   89.99643138
_symmetry_Int_Tables_number   1
_chemical_formula_structural   ZrScNbPdRh
_chemical_formula_sum   'Zr50 Sc50 Nb50 Pd50 Rh50'
_cell_volume   4541.55433846
_cell_formula_units_Z   50
loop_
 _symmetry_equiv_pos_site_id
 _symmetry_equiv_pos_as_xyz
  1  'x, y, z'
loop_
 _atom_site_type_symbol
 _atom_site_label
 _atom_site_symmetry_multiplicity
 _atom_site_fract_x
 _atom_site_fract_y
 _atom_site_fract_z
 _atom_site_occupancy
  Zr  Zr0  1  0.10076199  0.90447069  0.70117607  1
  Zr  Zr1  1  0.50186444  0.69990650  0.49840734  1
  Zr  Zr2  1  0.09751262  0.70234410  0.69665865  1
  Zr  Zr3  1  0.89938605  0.10059994  0.90593966  1
  Zr  Zr4  1  0.29852182  0.70423059  0.49786504  1
  Zr  Zr5  1  0.49915455  0.90390001  0.90691287  1
  Zr  Zr6  1  0.70514606  0.70202941  0.69682927  1
  Zr  Zr7  1  0.10143705  0.50834120  0.49368860  1
  Zr  Zr8  1  0.88795880  0.48504210  0.69563150  1
  Zr  Zr9  1  0.29590543  0.69290356  0.71238994  1
  Zr  Zr10  1  0.90150702  0.29650641  0.69973035  1
  Zr  Zr11  1  0.90900917  0.69979874  0.09096877  1
  Zr  Zr12  1  0.09085144  0.49676632  0.29764585  1
  Zr  Zr13  1  0.89948897  0.50123941  0.49513182  1
  Zr  Zr14  1  0.89733457  0.89566740  0.90095522  1
  Zr  Zr15  1  0.70289083  0.50321242  0.50059826  1
  Zr  Zr16  1  0.90202915  0.90405569  0.49257790  1
  Zr  Zr17  1  0.49964934  0.10077051  0.70027505  1
  Zr  Zr18  1  0.90521788  0.09761370  0.50067862  1
  Zr  Zr19  1  0.49364786  0.70414345  0.10077253  1
  Zr  Zr20  1  0.09147727  0.90447621  0.89987524  1
  Zr  Zr21  1  0.90722582  0.30682984  0.89257375  1
  Zr  Zr22  1  0.49057342  0.90856375  0.70025766  1
  Zr  Zr23  1  0.70066314  0.50169841  0.31091877  1
  Zr  Zr24  1  0.09842086  0.29745567  0.70308572  1
  Zr  Zr25  1  0.70748559  0.70209688  0.49617336  1
  Zr  Zr26  1  0.49205042  0.49222844  0.70592464  1
  Zr  Zr27  1  0.69648074  0.29322014  0.90280038  1
  Zr  Zr28  1  0.49407647  0.10230558  0.29127031  1
  Zr  Zr29  1  0.49958180  0.29508872  0.90037420  1
  Zr  Zr30  1  0.09899961  0.50097528  0.09958037  1
  Zr  Zr31  1  0.69253350  0.10238189  0.69875473  1
  Zr  Zr32  1  0.68739154  0.29559516  0.49398656  1
  Zr  Zr33  1  0.90311355  0.70516038  0.50777430  1
  Zr  Zr34  1  0.29528635  0.90608921  0.49789872  1
  Zr  Zr35  1  0.50037123  0.29255162  0.09723050  1
  Zr  Zr36  1  0.12079902  0.09963329  0.10891141  1
  Zr  Zr37  1  0.69475095  0.49319064  0.89054520  1
  Zr  Zr38  1  0.90028193  0.29960314  0.50948367  1
  Zr  Zr39  1  0.69617207  0.90049087  0.10930227  1
  Zr  Zr40  1  0.09843655  0.29826944  0.89913818  1
  Zr  Zr41  1  0.09338257  0.70650115  0.49763749  1
  Zr  Zr42  1  0.69638114  0.90489362  0.90200263  1
  Zr  Zr43  1  0.89917341  0.90207957  0.09708997  1
  Zr  Zr44  1  0.70019203  0.71020099  0.89294345  1
  Zr  Zr45  1  0.49710041  0.70420834  0.70464275  1
  Zr  Zr46  1  0.69623586  0.70889089  0.30242690  1
  Zr  Zr47  1  0.70499399  0.70212386  0.10593746  1
  Zr  Zr48  1  0.30203697  0.30199277  0.69660738  1
  Zr  Zr49  1  0.30029163  0.09509925  0.70271462  1
  Sc  Sc50  1  0.49649053  0.49488889  0.90022389  1
  Sc  Sc51  1  0.29351481  0.48848497  0.50753254  1
  Sc  Sc52  1  0.10392654  0.30579874  0.09327571  1
  Sc  Sc53  1  0.90130734  0.69882179  0.30306067  1
  Sc  Sc54  1  0.29976892  0.71013932  0.29408225  1
  Sc  Sc55  1  0.70042296  0.10002426  0.50784104  1
  Sc  Sc56  1  0.10589040  0.89337766  0.31446665  1
  Sc  Sc57  1  0.89075085  0.09701117  0.10237262  1
  Sc  Sc58  1  0.70425851  0.90972251  0.70189348  1
  Sc  Sc59  1  0.10981552  0.50615982  0.69336318  1
  Sc  Sc60  1  0.10579350  0.30162442  0.30102350  1
  Sc  Sc61  1  0.29864104  0.29919329  0.49884102  1
  Sc  Sc62  1  0.70035389  0.10303100  0.28883558  1
  Sc  Sc63  1  0.49945733  0.09674407  0.89874530  1
  Sc  Sc64  1  0.30538383  0.50966609  0.89348962  1
  Sc  Sc65  1  0.91252414  0.50519012  0.10209139  1
  Sc  Sc66  1  0.49552155  0.70872721  0.89980065  1
  Sc  Sc67  1  0.31090603  0.70207429  0.10635761  1
  Sc  Sc68  1  0.09645682  0.70400377  0.89430640  1
  Sc  Sc69  1  0.70684116  0.29743363  0.69935013  1
  Sc  Sc70  1  0.90044474  0.09399742  0.30679960  1
  Sc  Sc71  1  0.09050079  0.49243271  0.90512911  1
  Sc  Sc72  1  0.48647687  0.90396452  0.49938289  1
  Sc  Sc73  1  0.69615459  0.10280739  0.09660295  1
  Sc  Sc74  1  0.30141476  0.28910522  0.30256931  1
  Sc  Sc75  1  0.29927224  0.29495176  0.10029663  1
  Sc  Sc76  1  0.30784011  0.50318672  0.09836776  1
  Sc  Sc77  1  0.30685219  0.70109941  0.89897977  1
  Sc  Sc78  1  0.49341487  0.29814776  0.50132219  1
  Sc  Sc79  1  0.30732032  0.90081110  0.89743864  1
  Sc  Sc80  1  0.09691069  0.09102016  0.70654158  1
  Sc  Sc81  1  0.50773164  0.29207541  0.31385855  1
  Sc  Sc82  1  0.10098927  0.29869103  0.49960785  1
  Sc  Sc83  1  0.49584674  0.70423670  0.29582762  1
  Sc  Sc84  1  0.29783199  0.09265435  0.48771898  1
  Sc  Sc85  1  0.90345351  0.90462755  0.69772463  1
  Sc  Sc86  1  0.10314648  0.70283106  0.30871605  1
  Sc  Sc87  1  0.10440916  0.10013387  0.90013975  1
  Sc  Sc88  1  0.49306112  0.50438255  0.09433229  1
  Sc  Sc89  1  0.49116764  0.29357442  0.69885361  1
  Sc  Sc90  1  0.90018647  0.28820802  0.09088749  1
  Sc  Sc91  1  0.69154274  0.09977521  0.89804074  1
  Sc  Sc92  1  0.29767657  0.49632075  0.30041202  1
  Sc  Sc93  1  0.89347530  0.09806873  0.69397108  1
  Sc  Sc94  1  0.50486604  0.10427728  0.50117749  1
  Sc  Sc95  1  0.30078901  0.10290344  0.89972453  1
  Sc  Sc96  1  0.10242311  0.90382059  0.09478265  1
  Sc  Sc97  1  0.30079381  0.29443523  0.89961407  1
  Sc  Sc98  1  0.70575669  0.50055363  0.10361618  1
  Sc  Sc99  1  0.69765007  0.28869380  0.09801031  1
  Nb  Nb100  1  0.09841979  0.90333917  0.50473491  1
  Nb  Nb101  1  0.30307007  0.89943130  0.30170107  1
  Nb  Nb102  1  0.50369325  0.49980395  0.49570142  1
  Nb  Nb103  1  0.49634920  0.09601764  0.10051646  1
  Nb  Nb104  1  0.70388369  0.89669250  0.49170325  1
  Nb  Nb105  1  0.69714607  0.50031759  0.69712916  1
  Nb  Nb106  1  0.30630829  0.09860341  0.12035286  1
  Nb  Nb107  1  0.28736542  0.10028346  0.28851434  1
  Nb  Nb108  1  0.50234196  0.50222486  0.30305311  1
  Nb  Nb109  1  0.90216342  0.49146404  0.29914516  1
  Nb  Nb110  1  0.50940341  0.89928869  0.29201344  1
  Nb  Nb111  1  0.70428383  0.89786365  0.30224033  1
  Nb  Nb112  1  0.89751686  0.69961080  0.69936419  1
  Nb  Nb113  1  0.29994320  0.90240784  0.69429975  1
  Nb  Nb114  1  0.90013244  0.49867729  0.89724086  1
  Nb  Nb115  1  0.49646630  0.90414812  0.10103825  1
  Nb  Nb116  1  0.89691223  0.90631192  0.29880216  1
  Nb  Nb117  1  0.69924525  0.29927435  0.29866945  1
  Nb  Nb118  1  0.89886399  0.69932907  0.89617927  1
  Nb  Nb119  1  0.10295015  0.08911473  0.49320136  1
  Nb  Nb120  1  0.29925636  0.89657817  0.10730524  1
  Nb  Nb121  1  0.10638486  0.10448449  0.30565133  1
  Nb  Nb122  1  0.30076909  0.49748461  0.70351524  1
  Nb  Nb123  1  0.10105968  0.70388442  0.10152952  1
  Nb  Nb124  1  0.90129433  0.30050717  0.30281764  1
  Nb  Nb125  1  0.00183456  0.80700583  0.19981765  1
  Nb  Nb126  1  0.80218951  0.59888287  0.79853523  1
  Nb  Nb127  1  0.80124767  0.59771907  -0.01026437  1
  Nb  Nb128  1  0.20251491  0.79912782  0.00485021  1
  Nb  Nb129  1  0.19597385  0.60718694  0.00467837  1
  Nb  Nb130  1  0.60631950  0.60421638  0.00102777  1
  Nb  Nb131  1  0.00505894  0.00044931  0.20792241  1
  Nb  Nb132  1  0.40147788  0.59435890  0.59894297  1
  Nb  Nb133  1  0.59834000  0.59758774  0.20032393  1
  Nb  Nb134  1  0.40204641  0.59544876  0.40342244  1
  Nb  Nb135  1  0.20284578  0.40176270  0.79704186  1
  Nb  Nb136  1  0.60225898  0.80215855  0.59659512  1
  Nb  Nb137  1  -0.01073592  0.59890742  0.79685821  1
  Nb  Nb138  1  0.80229195  0.39578205  0.20456817  1
  Nb  Nb139  1  0.60055308  0.40206432  0.20568074  1
  Nb  Nb140  1  0.80255691  0.40392447  -0.00126771  1
  Nb  Nb141  1  0.19732390  0.19041622  0.59905866  1
  Nb  Nb142  1  0.59851664  0.40747340  0.59894115  1
  Nb  Nb143  1  0.41092799  0.39687687  0.20532408  1
  Nb  Nb144  1  0.19960738  0.80656127  0.60294217  1
  Nb  Nb145  1  0.59802049  0.59943362  0.60225120  1
  Nb  Nb146  1  0.80122174  0.20584630  0.39623274  1
  Nb  Nb147  1  0.60307744  -0.00753313  0.39255740  1
  Nb  Nb148  1  0.19591860  0.60163440  0.19482413  1
  Nb  Nb149  1  0.00460270  0.19357688  0.20615337  1
  Pd  Pd150  1  -0.00229717  0.18800995  0.79853327  1
  Pd  Pd151  1  0.80229920  0.59330416  0.20020600  1
  Pd  Pd152  1  0.59692394  0.60145101  0.80280795  1
  Pd  Pd153  1  0.21162531  0.40989248  -0.01032945  1
  Pd  Pd154  1  0.40510140  0.00413018  0.39025186  1
  Pd  Pd155  1  0.59729727  0.38599215  0.78865748  1
  Pd  Pd156  1  0.00468348  0.39458023  0.40527317  1
  Pd  Pd157  1  0.20663240  0.19726617  0.00210211  1
  Pd  Pd158  1  0.39466073  0.79500934  0.60471369  1
  Pd  Pd159  1  0.80052803  0.39222722  0.40126441  1
  Pd  Pd160  1  0.78891883  0.01097019  0.39876259  1
  Pd  Pd161  1  0.39410461  0.39796805  0.00151883  1
  Pd  Pd162  1  -0.00623458  0.79889206  0.79521227  1
  Pd  Pd163  1  0.39023883  0.19128645  0.59112863  1
  Pd  Pd164  1  0.78991231  0.00385062  0.00222820  1
  Pd  Pd165  1  0.80123871  0.19618384  0.80351941  1
  Pd  Pd166  1  -0.00628381  0.59165468  0.60611666  1
  Pd  Pd167  1  0.81201293  0.80026992  0.20389797  1
  Pd  Pd168  1  -0.00703365  0.38542787  0.19075699  1
  Pd  Pd169  1  0.40236057  0.79975295  0.39268975  1
  Pd  Pd170  1  0.39457751  0.19142380  0.39971304  1
  Pd  Pd171  1  0.60591835  0.40695811  0.01199092  1
  Pd  Pd172  1  0.60354331  0.00496331  0.19991259  1
  Pd  Pd173  1  0.20388585  0.80606663  0.80414710  1
  Pd  Pd174  1  0.59241949  0.80804071  0.40495333  1
  Pd  Pd175  1  0.21196176  0.40139783  0.19771593  1
  Pd  Pd176  1  0.59951581  -0.00920852  0.58828144  1
  Pd  Pd177  1  0.00891576  0.40826152  0.59992280  1
  Pd  Pd178  1  0.59819414  0.79886562  0.00639350  1
  Pd  Pd179  1  0.00934481  0.18990824  0.01157556  1
  Pd  Pd180  1  0.00490865  0.01206746  0.01084340  1
  Pd  Pd181  1  0.39186313  0.00576965  0.00494714  1
  Pd  Pd182  1  0.80924808  0.20215489  0.20448845  1
  Pd  Pd183  1  0.39584360  0.19032944  0.00389962  1
  Pd  Pd184  1  0.79876293  0.81284345  0.60314815  1
  Pd  Pd185  1  0.20800000  0.60661190  0.59674074  1
  Pd  Pd186  1  0.19297697  -0.01588825  0.20992870  1
  Pd  Pd187  1  0.21236118  -0.00461559  -0.00241307  1
  Pd  Pd188  1  0.20071182  0.39709461  0.39841572  1
  Pd  Pd189  1  0.79802759  0.79843258  0.00056393  1
  Pd  Pd190  1  0.00525889  0.61081321  0.20929466  1
  Pd  Pd191  1  0.01031433  0.18868400  0.60161888  1
  Pd  Pd192  1  0.59811600  0.81320384  0.79028608  1
  Pd  Pd193  1  0.39924480  0.40261838  0.39714586  1
  Pd  Pd194  1  -0.00045225  0.20203632  0.39651140  1
  Pd  Pd195  1  0.20496135  -0.00229953  0.80814361  1
  Pd  Pd196  1  0.80836190  0.60528300  0.39621284  1
  Pd  Pd197  1  0.39895540  -0.00810646  0.20549793  1
  Pd  Pd198  1  0.80233593  0.00483934  0.80028648  1
  Pd  Pd199  1  0.20866321  0.60015787  0.39033041  1
  Rh  Rh200  1  0.59592756  0.20130899  0.79690617  1
  Rh  Rh201  1  0.78850351  0.39211523  0.59200881  1
  Rh  Rh202  1  0.79767751  0.19959574  0.59362691  1
  Rh  Rh203  1  0.59162802  0.18815514  0.00074610  1
  Rh  Rh204  1  0.19840935  0.00196582  0.59997849  1
  Rh  Rh205  1  0.80465008  0.80293543  0.79490578  1
  Rh  Rh206  1  0.00291786  0.60618489  -0.01148465  1
  Rh  Rh207  1  0.01185677  0.41138062  0.78787404  1
  Rh  Rh208  1  -0.01088332  0.39589581  0.00749093  1
  Rh  Rh209  1  0.18491638  0.58975642  0.81402894  1
  Rh  Rh210  1  0.39752384  0.00849795  0.59628633  1
  Rh  Rh211  1  0.40860229  0.59983165  0.79962077  1
  Rh  Rh212  1  0.20316690  0.80372813  0.40906135  1
  Rh  Rh213  1  0.59672596  -0.00150641  0.80156746  1
  Rh  Rh214  1  0.20141461  0.20474087  0.79393887  1
  Rh  Rh215  1  0.40367914  0.60563873  -0.00761259  1
  Rh  Rh216  1  0.79815802  0.20223437  -0.00766125  1
  Rh  Rh217  1  0.19897965  -0.00201612  0.39231376  1
  Rh  Rh218  1  0.39126108  0.39279252  0.80819890  1
  Rh  Rh219  1  0.19710782  0.80024400  0.19535515  1
  Rh  Rh220  1  0.59690818  0.39756999  0.40226448  1
  Rh  Rh221  1  0.00678368  0.80063692  0.00149880  1
  Rh  Rh222  1  0.80958460  0.79878926  0.39555797  1
  Rh  Rh223  1  0.79496141  0.39662814  0.80454793  1
  Rh  Rh224  1  -0.00032877  0.00094091  0.59859511  1
  Rh  Rh225  1  0.80015103  -0.00096572  0.19947316  1
  Rh  Rh226  1  0.59497220  0.60747802  0.39537584  1
  Rh  Rh227  1  0.39690777  0.80739068  0.79757374  1
  Rh  Rh228  1  0.39823552  0.00096834  0.80156039  1
  Rh  Rh229  1  0.00771683  -0.00349565  0.39526354  1
  Rh  Rh230  1  0.20015835  0.19769728  0.40719255  1
  Rh  Rh231  1  0.19581358  0.21257268  0.19975106  1
  Rh  Rh232  1  0.39324882  0.80556104  0.00576657  1
  Rh  Rh233  1  0.59822971  0.00124666  0.00646602  1
  Rh  Rh234  1  0.39718368  0.58957053  0.21261106  1
  Rh  Rh235  1  -0.00638202  0.80467356  0.39609230  1
  Rh  Rh236  1  0.80069246  0.59855371  0.60323181  1
  Rh  Rh237  1  -0.00879060  0.00398431  0.80474820  1
  Rh  Rh238  1  0.40318769  0.20708413  0.20193888  1
  Rh  Rh239  1  0.40367189  0.81180589  0.20173950  1
  Rh  Rh240  1  0.40147249  0.19773189  0.80250299  1
  Rh  Rh241  1  0.59884746  0.21014050  0.60633910  1
  Rh  Rh242  1  0.79936667  -0.00206947  0.59636206  1
  Rh  Rh243  1  0.19668397  0.39035154  0.60564378  1
  Rh  Rh244  1  0.59394080  0.20311575  0.19810615  1
  Rh  Rh245  1  0.60869883  0.18202522  0.39525051  1
  Rh  Rh246  1  -0.00450670  0.59950309  0.39744494  1
  Rh  Rh247  1  0.40546522  0.40555042  0.59398928  1
  Rh  Rh248  1  0.59468661  0.79704594  0.19632758  1
  Rh  Rh249  1  0.00291177  0.80825359  0.60229237  1
