# generated using pymatgen
data_ZrScNbPdRh
_symmetry_space_group_name_H-M   'P 1'
_cell_length_a   16.55978393
_cell_length_b   16.55963571
_cell_length_c   16.56277323
_cell_angle_alpha   89.99254924
_cell_angle_beta   90.00370573
_cell_angle_gamma   90.00836615
_symmetry_Int_Tables_number   1
_chemical_formula_structural   ZrScNbPdRh
_chemical_formula_sum   'Zr50 Sc50 Nb50 Pd50 Rh50'
_cell_volume   4541.90965284
_cell_formula_units_Z   50
loop_
 _symmetry_equiv_pos_site_id
 _symmetry_equiv_pos_as_xyz
  1  'x, y, z'
loop_
 _atom_site_type_symbol
 _atom_site_label
 _atom_site_symmetry_multiplicity
 _atom_site_fract_x
 _atom_site_fract_y
 _atom_site_fract_z
 _atom_site_occupancy
  Zr  Zr0  1  0.29836996  0.29724629  0.90477631  1
  Zr  Zr1  1  0.69523908  0.30208721  0.70124609  1
  Zr  Zr2  1  0.48919339  0.89830602  0.90467459  1
  Zr  Zr3  1  0.09490200  0.31036817  0.29882742  1
  Zr  Zr4  1  0.49785337  0.28808032  0.49931005  1
  Zr  Zr5  1  0.70169943  0.50046300  0.09519056  1
  Zr  Zr6  1  0.49208118  0.09620394  0.10882712  1
  Zr  Zr7  1  0.50160205  0.70166532  0.89730541  1
  Zr  Zr8  1  0.29711086  0.70163389  0.30559589  1
  Zr  Zr9  1  0.29610002  0.09497084  0.69178250  1
  Zr  Zr10  1  0.30159372  0.50333097  0.29428693  1
  Zr  Zr11  1  0.30187444  0.49117282  0.10217262  1
  Zr  Zr12  1  0.29819384  0.88969326  0.29827807  1
  Zr  Zr13  1  0.10180458  0.89794625  0.50651560  1
  Zr  Zr14  1  0.50372035  0.31035885  0.69986234  1
  Zr  Zr15  1  0.90649818  0.30941542  0.89879056  1
  Zr  Zr16  1  0.49973485  0.30081254  0.10433926  1
  Zr  Zr17  1  0.50392648  0.71292499  0.09566290  1
  Zr  Zr18  1  0.09152425  0.89969739  0.69913217  1
  Zr  Zr19  1  0.90520825  0.49617890  0.29407718  1
  Zr  Zr20  1  0.89063102  0.30196534  0.70562907  1
  Zr  Zr21  1  0.30342046  0.90210483  0.90041179  1
  Zr  Zr22  1  0.49677549  0.49442589  0.10274708  1
  Zr  Zr23  1  0.91125454  0.89358926  0.09620263  1
  Zr  Zr24  1  0.88900962  0.69667262  0.50025454  1
  Zr  Zr25  1  0.09678077  0.49694698  0.89992970  1
  Zr  Zr26  1  0.10430138  0.10887814  0.89241235  1
  Zr  Zr27  1  0.09301745  0.70092291  0.71026347  1
  Zr  Zr28  1  0.30781517  0.48969235  0.69102337  1
  Zr  Zr29  1  0.69967540  0.90672620  0.69009059  1
  Zr  Zr30  1  0.70162568  0.10362287  0.70865603  1
  Zr  Zr31  1  0.70109200  0.91511933  0.90094401  1
  Zr  Zr32  1  0.09438651  0.88852277  0.90795165  1
  Zr  Zr33  1  0.10139180  0.50412321  0.29566134  1
  Zr  Zr34  1  0.50323236  0.10713602  0.90631332  1
  Zr  Zr35  1  0.30890067  0.90403231  0.10363005  1
  Zr  Zr36  1  0.89634363  0.09298315  0.90163557  1
  Zr  Zr37  1  0.50333457  0.70590527  0.49741556  1
  Zr  Zr38  1  0.68804485  0.49700733  0.69983692  1
  Zr  Zr39  1  0.70281364  0.51500933  0.50167163  1
  Zr  Zr40  1  0.69487806  0.89675665  0.10555793  1
  Zr  Zr41  1  0.30257378  0.50096083  0.90686551  1
  Zr  Zr42  1  0.89331075  0.10493090  0.48820245  1
  Zr  Zr43  1  0.50298757  0.90374394  0.49781470  1
  Zr  Zr44  1  0.69856066  0.70248731  0.09075386  1
  Zr  Zr45  1  0.50165339  0.10152955  0.30782018  1
  Zr  Zr46  1  0.29898807  0.70859631  0.89921920  1
  Zr  Zr47  1  0.50187194  0.90191968  0.69246260  1
  Zr  Zr48  1  0.49722927  0.70586690  0.30422008  1
  Zr  Zr49  1  0.89560691  0.29923025  0.29865855  1
  Sc  Sc50  1  0.30569889  0.89969294  0.70422731  1
  Sc  Sc51  1  0.70054577  0.89513377  0.50182973  1
  Sc  Sc52  1  0.30585212  0.90037238  0.50212302  1
  Sc  Sc53  1  0.10403979  0.30110641  0.48765161  1
  Sc  Sc54  1  0.89508252  0.49017781  0.09622209  1
  Sc  Sc55  1  0.89337983  0.89693635  0.51167852  1
  Sc  Sc56  1  0.90341233  0.69687048  0.29852762  1
  Sc  Sc57  1  0.69946404  0.51303346  0.90012234  1
  Sc  Sc58  1  0.10215031  0.10302954  0.29037613  1
  Sc  Sc59  1  0.90026706  0.70204906  0.69872919  1
  Sc  Sc60  1  0.89050514  0.50410221  0.70813088  1
  Sc  Sc61  1  0.29146290  0.29389040  0.29858611  1
  Sc  Sc62  1  0.50470980  0.49302383  0.89859519  1
  Sc  Sc63  1  0.70185923  0.30504983  0.10995772  1
  Sc  Sc64  1  0.89644232  0.50559297  0.49719046  1
  Sc  Sc65  1  0.49888323  0.70218204  0.69437557  1
  Sc  Sc66  1  0.90449692  0.09580730  0.70875723  1
  Sc  Sc67  1  0.69925094  0.69442626  0.69430178  1
  Sc  Sc68  1  0.69576251  0.09435954  0.49670259  1
  Sc  Sc69  1  0.50027880  0.10422978  0.69240316  1
  Sc  Sc70  1  0.09258054  0.29403263  0.71147167  1
  Sc  Sc71  1  0.69511658  0.29278294  0.89275587  1
  Sc  Sc72  1  0.50026311  0.90189927  0.10707925  1
  Sc  Sc73  1  0.09899337  0.70635171  0.10085372  1
  Sc  Sc74  1  0.10154778  0.09572023  0.10158322  1
  Sc  Sc75  1  0.90254261  0.69625366  0.88929856  1
  Sc  Sc76  1  0.31345160  0.29976570  0.69387438  1
  Sc  Sc77  1  0.11296489  0.30828168  0.09837911  1
  Sc  Sc78  1  0.29677660  0.29548807  0.50032141  1
  Sc  Sc79  1  0.69107323  0.30577066  0.50309855  1
  Sc  Sc80  1  0.30285938  0.10180635  0.50063022  1
  Sc  Sc81  1  0.09406531  0.89945744  0.10869816  1
  Sc  Sc82  1  0.49968371  0.50189407  0.29929661  1
  Sc  Sc83  1  0.10843980  0.50147567  0.10520859  1
  Sc  Sc84  1  0.70161518  0.70503184  0.30941088  1
  Sc  Sc85  1  0.69572654  0.29386970  0.30102105  1
  Sc  Sc86  1  0.29956131  0.69499698  0.10314627  1
  Sc  Sc87  1  0.10079625  0.09528144  0.69984120  1
  Sc  Sc88  1  0.69945924  0.10183096  0.90060453  1
  Sc  Sc89  1  0.10729366  0.09789836  0.50911051  1
  Sc  Sc90  1  0.69285930  0.09502399  0.10155724  1
  Sc  Sc91  1  0.30584118  0.10308771  0.89579861  1
  Sc  Sc92  1  0.70293392  0.10025374  0.30386581  1
  Sc  Sc93  1  0.90707349  0.08514611  0.09565306  1
  Sc  Sc94  1  0.69397406  0.89609913  0.30307086  1
  Sc  Sc95  1  0.10617651  0.48991496  0.48798854  1
  Sc  Sc96  1  0.30069120  0.10076462  0.29195259  1
  Sc  Sc97  1  0.69670430  0.50217465  0.30562396  1
  Sc  Sc98  1  0.89699967  0.10446176  0.30142118  1
  Sc  Sc99  1  0.50508280  0.50287228  0.50279590  1
  Nb  Nb100  1  0.89613510  0.90551141  0.90602602  1
  Nb  Nb101  1  0.10806619  0.70344750  0.30355373  1
  Nb  Nb102  1  0.29928681  0.10273153  0.10176859  1
  Nb  Nb103  1  0.29992334  0.69511639  0.69929830  1
  Nb  Nb104  1  0.69546774  0.70611747  0.90036667  1
  Nb  Nb105  1  0.30342999  0.49204188  0.49930038  1
  Nb  Nb106  1  0.91265706  0.89665217  0.29011214  1
  Nb  Nb107  1  0.30088928  0.69541482  0.50049039  1
  Nb  Nb108  1  0.70189934  0.70078958  0.49853846  1
  Nb  Nb109  1  0.49406549  0.09869932  0.49780425  1
  Nb  Nb110  1  0.10057044  0.89300174  0.29874114  1
  Nb  Nb111  1  0.90004964  0.50454167  0.90556017  1
  Nb  Nb112  1  0.10418964  0.49965468  0.69617615  1
  Nb  Nb113  1  0.90237543  0.30030171  0.49387982  1
  Nb  Nb114  1  0.09789121  0.69725497  0.89778654  1
  Nb  Nb115  1  0.89767501  0.69967438  0.09625540  1
  Nb  Nb116  1  0.49858765  0.30090670  0.30626712  1
  Nb  Nb117  1  0.30043750  0.29742222  0.10484123  1
  Nb  Nb118  1  0.49883861  0.29762260  0.89349669  1
  Nb  Nb119  1  0.89566664  0.30325285  0.10259134  1
  Nb  Nb120  1  0.49769210  0.49539331  0.70613976  1
  Nb  Nb121  1  0.49555405  0.89771864  0.29822952  1
  Nb  Nb122  1  0.10154305  0.30125573  0.89978632  1
  Nb  Nb123  1  0.89781016  0.89629641  0.70601916  1
  Nb  Nb124  1  0.10386354  0.69763959  0.49642482  1
  Nb  Nb125  1  0.20159276  0.78763910  0.60061264  1
  Nb  Nb126  1  0.79604364  0.80751672  0.80262849  1
  Nb  Nb127  1  0.80914893  0.20312873  0.00441320  1
  Nb  Nb128  1  -0.00222012  0.39991647  0.59942123  1
  Nb  Nb129  1  0.39643510  0.59707808  0.79511347  1
  Nb  Nb130  1  0.20549383  0.00058255  0.00084966  1
  Nb  Nb131  1  -0.00015101  0.20779790  -0.00000079  1
  Nb  Nb132  1  0.00984163  0.59554246  0.59899630  1
  Nb  Nb133  1  -0.00453024  0.20872520  0.19002575  1
  Nb  Nb134  1  0.00396574  -0.00845845  0.39679651  1
  Nb  Nb135  1  -0.00238907  0.59993798  -0.00455841  1
  Nb  Nb136  1  0.80160047  0.80123931  -0.00665179  1
  Nb  Nb137  1  0.20207128  0.59964676  0.59774101  1
  Nb  Nb138  1  0.00651602  0.79953320  0.39946676  1
  Nb  Nb139  1  0.80193842  0.39838539  0.40072233  1
  Nb  Nb140  1  0.40016454  0.39668795  0.39846673  1
  Nb  Nb141  1  -0.00835178  0.20660555  0.59570812  1
  Nb  Nb142  1  0.20291319  0.59756513  0.79572857  1
  Nb  Nb143  1  0.79646446  0.60231223  0.19317279  1
  Nb  Nb144  1  0.80421992  0.20366687  0.59864217  1
  Nb  Nb145  1  0.60266695  0.60563860  0.19509291  1
  Nb  Nb146  1  0.20048611  0.40193095  0.80172663  1
  Nb  Nb147  1  0.80560849  -0.01040024  0.20137837  1
  Nb  Nb148  1  0.60537197  0.80406209  0.80179783  1
  Nb  Nb149  1  0.19474098  -0.00856431  0.39522641  1
  Pd  Pd150  1  0.19112471  0.39092567  0.60365732  1
  Pd  Pd151  1  0.01089090  0.19104486  0.39801086  1
  Pd  Pd152  1  0.40738426  0.00935641  0.79637863  1
  Pd  Pd153  1  0.80786705  -0.01471676  0.39010434  1
  Pd  Pd154  1  0.59935757  0.40230425  0.40261077  1
  Pd  Pd155  1  0.40335067  0.59252262  0.40378187  1
  Pd  Pd156  1  0.59926559  0.19680509  0.20207607  1
  Pd  Pd157  1  0.38974684  -0.00018072  0.39518816  1
  Pd  Pd158  1  0.19656590  -0.00762894  0.80434237  1
  Pd  Pd159  1  -0.00022287  0.60236417  0.40453585  1
  Pd  Pd160  1  0.79455524  0.60606267  0.79894656  1
  Pd  Pd161  1  0.19572816  0.19465459  0.00697100  1
  Pd  Pd162  1  0.80943752  0.80656226  0.39701200  1
  Pd  Pd163  1  0.20331721  0.80609318  0.01095107  1
  Pd  Pd164  1  0.78891310  0.39231981  -0.00931787  1
  Pd  Pd165  1  0.60637591  0.19358067  0.59708233  1
  Pd  Pd166  1  0.59369732  0.60256801  0.60322973  1
  Pd  Pd167  1  0.59215331  -0.00107530  0.00434041  1
  Pd  Pd168  1  0.78895264  0.40648611  0.81160659  1
  Pd  Pd169  1  0.19004637  0.21034886  0.60583837  1
  Pd  Pd170  1  -0.00067225  0.78998450  0.59434902  1
  Pd  Pd171  1  0.20171948  0.80252461  0.79310634  1
  Pd  Pd172  1  0.60269674  0.40622252  0.20687565  1
  Pd  Pd173  1  -0.00260176  0.60315846  0.18883420  1
  Pd  Pd174  1  0.59002636  0.00017612  0.79961816  1
  Pd  Pd175  1  0.40053185  0.20162060  0.00435813  1
  Pd  Pd176  1  0.40760423  0.60742607  0.19633142  1
  Pd  Pd177  1  0.00376306  -0.00465519  0.80700317  1
  Pd  Pd178  1  0.60830041  0.20692653  0.00769849  1
  Pd  Pd179  1  0.80127413  0.79813306  0.19731111  1
  Pd  Pd180  1  0.00649279  0.40262742  0.00987226  1
  Pd  Pd181  1  0.20406396  0.59282289  0.40362524  1
  Pd  Pd182  1  0.40229523  0.59803320  0.59974358  1
  Pd  Pd183  1  0.40013306  0.20464346  0.20687907  1
  Pd  Pd184  1  0.80537876  0.18433998  0.18897525  1
  Pd  Pd185  1  0.00174407  0.40776673  0.79170355  1
  Pd  Pd186  1  0.40638919  0.60327602  -0.00333776  1
  Pd  Pd187  1  0.40400766  0.39126678  -0.00198271  1
  Pd  Pd188  1  0.59074932  0.59439710  0.00164396  1
  Pd  Pd189  1  0.39440413  0.80084735  0.59945656  1
  Pd  Pd190  1  -0.01038242  0.00948622  0.59259207  1
  Pd  Pd191  1  0.20941645  0.20825982  0.78867633  1
  Pd  Pd192  1  0.19816052  0.18683977  0.39752764  1
  Pd  Pd193  1  0.40244173  0.19797800  0.79269354  1
  Pd  Pd194  1  0.19244190  0.60327115  0.00018003  1
  Pd  Pd195  1  0.60554376  0.39292611  -0.00623484  1
  Pd  Pd196  1  0.80363546  0.40069232  0.59107436  1
  Pd  Pd197  1  0.60144342  -0.00257532  0.39856632  1
  Pd  Pd198  1  0.80614681  0.01104832  0.60373491  1
  Pd  Pd199  1  0.20015960  -0.00371603  0.19920016  1
  Rh  Rh200  1  0.60113388  0.19487993  0.40178245  1
  Rh  Rh201  1  0.80424042  0.60126301  0.60609792  1
  Rh  Rh202  1  0.39429358  0.79776111  0.00648048  1
  Rh  Rh203  1  0.20485082  0.39933255  0.20429896  1
  Rh  Rh204  1  -0.00435306  0.01099596  0.21035438  1
  Rh  Rh205  1  0.60203440  -0.00012594  0.20985291  1
  Rh  Rh206  1  0.59682671  0.79610979  0.21011431  1
  Rh  Rh207  1  0.19945559  0.79649137  0.19478231  1
  Rh  Rh208  1  0.39644889  0.20353287  0.39698814  1
  Rh  Rh209  1  0.20814620  -0.01136227  0.59851246  1
  Rh  Rh210  1  0.59135798  0.60580376  0.79543929  1
  Rh  Rh211  1  0.60385109  0.81497646  -0.01030590  1
  Rh  Rh212  1  0.21347077  0.40341616  0.39300456  1
  Rh  Rh213  1  0.79877383  0.59574576  0.38873189  1
  Rh  Rh214  1  -0.00809423  0.78636342  -0.00810807  1
  Rh  Rh215  1  0.40067645  0.00049352  0.20879318  1
  Rh  Rh216  1  0.59989452  0.80382335  0.40347931  1
  Rh  Rh217  1  0.39555382  0.40271217  0.80977061  1
  Rh  Rh218  1  0.19942206  0.60604338  0.19977075  1
  Rh  Rh219  1  0.41096129  0.39702755  0.58479333  1
  Rh  Rh220  1  0.78500912  0.21210163  0.41112429  1
  Rh  Rh221  1  0.39509648  0.01001001  0.00298951  1
  Rh  Rh222  1  0.80169744  -0.00273929  0.79293585  1
  Rh  Rh223  1  0.39630929  0.38894569  0.20925626  1
  Rh  Rh224  1  0.79235206  0.40910660  0.21090092  1
  Rh  Rh225  1  0.59505150  0.40533291  0.59586116  1
  Rh  Rh226  1  0.00497968  0.78506686  0.20690439  1
  Rh  Rh227  1  -0.01110511  0.80776552  0.80849151  1
  Rh  Rh228  1  0.81001563  0.60852246  -0.00147828  1
  Rh  Rh229  1  0.40080812  0.00293249  0.59856532  1
  Rh  Rh230  1  0.01901265  0.00931832  -0.00987908  1
  Rh  Rh231  1  0.00444689  0.39685269  0.19212340  1
  Rh  Rh232  1  0.60675652  0.79721361  0.60040677  1
  Rh  Rh233  1  -0.00839799  0.40787545  0.40522210  1
  Rh  Rh234  1  0.79408329  -0.00068547  0.01493229  1
  Rh  Rh235  1  0.19325181  0.20391806  0.19382252  1
  Rh  Rh236  1  0.39870087  0.79655109  0.19811418  1
  Rh  Rh237  1  0.59753038  0.00709674  0.59269765  1
  Rh  Rh238  1  -0.00546272  0.19839469  0.80317748  1
  Rh  Rh239  1  0.19995673  0.80333212  0.40884888  1
  Rh  Rh240  1  0.59924885  0.60723921  0.39564222  1
  Rh  Rh241  1  0.79530743  0.79506236  0.60863438  1
  Rh  Rh242  1  0.40884262  0.79366701  0.79314642  1
  Rh  Rh243  1  0.20329822  0.39905153  -0.00289633  1
  Rh  Rh244  1  0.39951729  0.80194928  0.40544348  1
  Rh  Rh245  1  0.00147942  0.59106672  0.80052042  1
  Rh  Rh246  1  0.59094417  0.19846390  0.79839412  1
  Rh  Rh247  1  0.80394855  0.19687645  0.80482031  1
  Rh  Rh248  1  0.60209136  0.40049211  0.80728417  1
  Rh  Rh249  1  0.39983284  0.19689431  0.59915863  1
