# generated using pymatgen
data_ZrScNbPdRh
_symmetry_space_group_name_H-M   'P 1'
_cell_length_a   16.56207552
_cell_length_b   16.56644187
_cell_length_c   16.56395127
_cell_angle_alpha   90.00915609
_cell_angle_beta   89.98329374
_cell_angle_gamma   90.01366966
_symmetry_Int_Tables_number   1
_chemical_formula_structural   ZrScNbPdRh
_chemical_formula_sum   'Zr50 Sc50 Nb50 Pd50 Rh50'
_cell_volume   4544.72813704
_cell_formula_units_Z   50
loop_
 _symmetry_equiv_pos_site_id
 _symmetry_equiv_pos_as_xyz
  1  'x, y, z'
loop_
 _atom_site_type_symbol
 _atom_site_label
 _atom_site_symmetry_multiplicity
 _atom_site_fract_x
 _atom_site_fract_y
 _atom_site_fract_z
 _atom_site_occupancy
  Zr  Zr0  1  0.08677811  0.51307439  0.29778581  1
  Zr  Zr1  1  0.89697558  0.90538928  0.50083099  1
  Zr  Zr2  1  0.49927304  0.29951590  0.30409968  1
  Zr  Zr3  1  0.09672330  0.30421550  0.09135662  1
  Zr  Zr4  1  0.29817763  0.69657970  0.90140776  1
  Zr  Zr5  1  0.49670476  0.70024134  0.30278588  1
  Zr  Zr6  1  0.89589791  0.90000450  0.90131116  1
  Zr  Zr7  1  0.69828727  0.50105006  0.51164893  1
  Zr  Zr8  1  0.09884470  0.49892057  0.49522782  1
  Zr  Zr9  1  0.29497380  0.69731754  0.10700753  1
  Zr  Zr10  1  0.29799147  0.49535736  0.70139793  1
  Zr  Zr11  1  0.49466463  0.90016078  0.89967632  1
  Zr  Zr12  1  0.10261716  0.50306925  0.89253558  1
  Zr  Zr13  1  0.29289245  0.08614326  0.89627702  1
  Zr  Zr14  1  0.50425014  0.69951346  0.69943536  1
  Zr  Zr15  1  0.09397005  0.88920624  0.50674763  1
  Zr  Zr16  1  0.70264246  0.90110944  0.49892938  1
  Zr  Zr17  1  0.69965534  0.09460567  0.30728000  1
  Zr  Zr18  1  0.70749955  0.09295133  0.50371216  1
  Zr  Zr19  1  0.09948985  0.09465941  0.49166040  1
  Zr  Zr20  1  0.50054947  0.90509958  0.09954171  1
  Zr  Zr21  1  0.29203620  0.71370784  0.49607027  1
  Zr  Zr22  1  0.69659946  0.10765012  0.89762733  1
  Zr  Zr23  1  0.50350908  0.09709802  0.89772191  1
  Zr  Zr24  1  0.09650624  0.91559224  0.89943278  1
  Zr  Zr25  1  0.30185844  0.89544454  0.10361575  1
  Zr  Zr26  1  0.70418508  0.49485027  0.10866469  1
  Zr  Zr27  1  0.89635255  0.10758201  0.10002119  1
  Zr  Zr28  1  0.30149851  0.30289939  0.68970964  1
  Zr  Zr29  1  0.29879859  0.10458592  0.70179253  1
  Zr  Zr30  1  0.50199047  0.89766451  0.29714212  1
  Zr  Zr31  1  0.10346632  0.90462692  0.30015954  1
  Zr  Zr32  1  0.90241694  0.49110592  0.48804460  1
  Zr  Zr33  1  0.09417021  0.30015614  0.90171647  1
  Zr  Zr34  1  0.70105272  0.29882797  0.09206736  1
  Zr  Zr35  1  0.50593428  0.09453916  0.10064957  1
  Zr  Zr36  1  0.69981882  0.89472830  0.10484115  1
  Zr  Zr37  1  0.09094800  0.69884334  0.69989724  1
  Zr  Zr38  1  0.89551489  0.70673912  0.09564783  1
  Zr  Zr39  1  0.30414879  0.50593870  0.89610805  1
  Zr  Zr40  1  0.89254472  0.50409531  0.09928091  1
  Zr  Zr41  1  0.70057185  0.90792551  0.69389730  1
  Zr  Zr42  1  0.50535633  0.30206077  0.90109277  1
  Zr  Zr43  1  0.89625743  0.30712183  0.30874839  1
  Zr  Zr44  1  0.50427125  0.90056672  0.69448695  1
  Zr  Zr45  1  0.70203374  0.70051554  0.50237653  1
  Zr  Zr46  1  0.50799137  0.29851052  0.10296325  1
  Zr  Zr47  1  0.29896438  0.70706842  0.29841934  1
  Zr  Zr48  1  0.49784721  0.69524746  0.88573963  1
  Zr  Zr49  1  0.50057677  0.49764518  0.10001637  1
  Sc  Sc50  1  0.30283551  0.90260828  0.69546956  1
  Sc  Sc51  1  0.89789635  0.29820143  0.09701337  1
  Sc  Sc52  1  0.69629710  0.30122987  0.29135040  1
  Sc  Sc53  1  0.49181554  0.29987375  0.49672709  1
  Sc  Sc54  1  0.30250127  0.08457886  0.09541306  1
  Sc  Sc55  1  0.30627830  0.09462347  0.49910796  1
  Sc  Sc56  1  0.10296391  0.50247512  0.09219573  1
  Sc  Sc57  1  0.70106982  0.89570939  0.30469574  1
  Sc  Sc58  1  0.71152358  0.49965871  0.91596253  1
  Sc  Sc59  1  0.89741126  0.89975641  0.08974924  1
  Sc  Sc60  1  0.70750236  0.70088553  0.10135626  1
  Sc  Sc61  1  0.69358526  0.69729416  0.69466448  1
  Sc  Sc62  1  0.09968582  0.29197590  0.31041005  1
  Sc  Sc63  1  0.90316378  0.89771699  0.70070000  1
  Sc  Sc64  1  0.29568382  0.50390081  0.08826051  1
  Sc  Sc65  1  0.90947970  0.69278837  0.29648253  1
  Sc  Sc66  1  0.50708214  0.49329180  0.49776464  1
  Sc  Sc67  1  0.50687020  0.70888870  0.50257293  1
  Sc  Sc68  1  0.09445473  0.09507853  0.10011331  1
  Sc  Sc69  1  0.10702617  0.69717571  0.30487113  1
  Sc  Sc70  1  0.29780212  0.47935705  0.50048388  1
  Sc  Sc71  1  0.30319289  0.31053881  0.89177503  1
  Sc  Sc72  1  0.29920919  0.70356212  0.70288207  1
  Sc  Sc73  1  0.30180077  0.90076758  0.49635142  1
  Sc  Sc74  1  0.50896879  0.09807379  0.30172438  1
  Sc  Sc75  1  0.90769935  0.50435173  0.69595526  1
  Sc  Sc76  1  0.70287837  0.29156807  0.69707136  1
  Sc  Sc77  1  0.70010859  0.90642465  0.89621053  1
  Sc  Sc78  1  0.50460296  0.50595951  0.70037635  1
  Sc  Sc79  1  0.49632804  0.29478030  0.70330518  1
  Sc  Sc80  1  0.29184134  0.09031124  0.31114574  1
  Sc  Sc81  1  0.89770898  0.71023224  0.89639389  1
  Sc  Sc82  1  0.29533448  0.50103217  0.30640258  1
  Sc  Sc83  1  0.10001879  0.10214999  0.71812716  1
  Sc  Sc84  1  0.10294709  0.69274781  0.10848688  1
  Sc  Sc85  1  0.90249708  0.10521375  0.30600348  1
  Sc  Sc86  1  0.90337828  0.10256212  0.90205267  1
  Sc  Sc87  1  0.69565153  0.10213061  0.69998870  1
  Sc  Sc88  1  0.90527091  0.29839815  0.90570568  1
  Sc  Sc89  1  0.69469135  0.10295061  0.09911687  1
  Sc  Sc90  1  0.69418908  0.70590549  0.29680891  1
  Sc  Sc91  1  0.10221194  0.29784157  0.71331916  1
  Sc  Sc92  1  0.50331787  0.09610146  0.49828092  1
  Sc  Sc93  1  0.90489737  0.70533757  0.50529501  1
  Sc  Sc94  1  0.09767509  0.09518757  0.29879255  1
  Sc  Sc95  1  0.70411757  0.29863965  0.50769071  1
  Sc  Sc96  1  0.89368988  0.10239098  0.70035215  1
  Sc  Sc97  1  0.49427088  0.70099406  0.11134484  1
  Sc  Sc98  1  0.51054661  0.49785117  0.30127384  1
  Sc  Sc99  1  0.49832746  0.09712845  0.69803003  1
  Nb  Nb100  1  0.49845110  0.50304624  0.89525293  1
  Nb  Nb101  1  0.90308993  0.29764118  0.69661531  1
  Nb  Nb102  1  0.10095445  0.69791072  0.89618440  1
  Nb  Nb103  1  0.10078726  0.70092321  0.50392647  1
  Nb  Nb104  1  0.10255240  0.50338704  0.69732034  1
  Nb  Nb105  1  0.90043610  0.69569223  0.70644523  1
  Nb  Nb106  1  0.90520191  0.29816650  0.50386876  1
  Nb  Nb107  1  0.29731922  0.89097890  0.30250791  1
  Nb  Nb108  1  0.70082888  0.50185157  0.70237158  1
  Nb  Nb109  1  0.69995876  0.30079900  0.89834480  1
  Nb  Nb110  1  0.10113409  0.89874633  0.10075846  1
  Nb  Nb111  1  0.70832258  0.49828670  0.29972163  1
  Nb  Nb112  1  0.89848684  0.89751384  0.29834226  1
  Nb  Nb113  1  0.49979189  0.90445053  0.50480566  1
  Nb  Nb114  1  0.29464748  0.89849952  0.90829294  1
  Nb  Nb115  1  0.29866404  0.30144647  0.09807780  1
  Nb  Nb116  1  0.90065052  0.50170989  0.90192104  1
  Nb  Nb117  1  0.10576972  0.10813456  0.89971825  1
  Nb  Nb118  1  0.29041384  0.29691008  0.49029243  1
  Nb  Nb119  1  0.10438014  0.30086367  0.50215212  1
  Nb  Nb120  1  0.89698792  0.10327177  0.50238924  1
  Nb  Nb121  1  0.30120963  0.29864298  0.30413698  1
  Nb  Nb122  1  0.89755964  0.49777510  0.29808895  1
  Nb  Nb123  1  0.10120513  0.90064903  0.69911122  1
  Nb  Nb124  1  0.69674099  0.69806533  0.89791761  1
  Nb  Nb125  1  -0.00255003  0.60302260  -0.00851383  1
  Nb  Nb126  1  0.80352284  -0.00180108  0.20354639  1
  Nb  Nb127  1  0.39203969  0.39292494  0.20121574  1
  Nb  Nb128  1  -0.00073007  0.40362441  0.20300574  1
  Nb  Nb129  1  0.19546394  0.80268301  -0.00345483  1
  Nb  Nb130  1  0.00509290  0.39309760  0.59945211  1
  Nb  Nb131  1  0.19901140  0.39397274  0.20051707  1
  Nb  Nb132  1  0.79842451  0.59341344  0.39764871  1
  Nb  Nb133  1  0.59915224  0.60334349  -0.00312691  1
  Nb  Nb134  1  0.39658014  0.19946404  0.00302262  1
  Nb  Nb135  1  0.19322979  0.00258233  0.60252858  1
  Nb  Nb136  1  0.39243466  0.20144310  0.19865953  1
  Nb  Nb137  1  0.19766345  0.59942233  0.59832671  1
  Nb  Nb138  1  0.80072455  0.40244319  0.79852784  1
  Nb  Nb139  1  0.39880299  0.60227747  0.40795804  1
  Nb  Nb140  1  0.20471301  0.19918337  -0.00060031  1
  Nb  Nb141  1  0.19444909  0.80626531  0.80639066  1
  Nb  Nb142  1  0.00178642  0.20285276  0.59630024  1
  Nb  Nb143  1  0.20774232  0.20455859  0.19584096  1
  Nb  Nb144  1  0.59748765  0.79334484  -0.00497793  1
  Nb  Nb145  1  0.80004231  0.59763322  0.79939005  1
  Nb  Nb146  1  0.39349807  0.60089090  0.59151815  1
  Nb  Nb147  1  0.00276576  0.80704798  0.19821295  1
  Nb  Nb148  1  0.19502338  0.20046521  0.59359279  1
  Nb  Nb149  1  0.61048986  0.40390862  0.80375336  1
  Pd  Pd150  1  0.80500332  0.20622373  0.80302882  1
  Pd  Pd151  1  0.39697998  0.20001738  0.80839011  1
  Pd  Pd152  1  0.60225085  0.59943241  0.40338615  1
  Pd  Pd153  1  0.60588998  0.60272386  0.19541137  1
  Pd  Pd154  1  0.20724234  0.59830922  0.40891212  1
  Pd  Pd155  1  0.39651803  0.19819017  0.59054435  1
  Pd  Pd156  1  0.79338038  0.00545069  0.00544001  1
  Pd  Pd157  1  0.39127622  0.80614760  0.79663960  1
  Pd  Pd158  1  0.60693399  0.20377132  0.40736755  1
  Pd  Pd159  1  0.60725165  0.80732235  0.80043243  1
  Pd  Pd160  1  0.79852906  0.60855727  0.20906598  1
  Pd  Pd161  1  0.01050125  0.79399719  0.00441459  1
  Pd  Pd162  1  0.19919320  0.39802622  0.80069139  1
  Pd  Pd163  1  0.79672716  0.19706884  0.20530613  1
  Pd  Pd164  1  -0.00625058  0.40286641  0.79330457  1
  Pd  Pd165  1  0.78785624  0.39799511  0.40382118  1
  Pd  Pd166  1  0.00026976  0.19981926  0.40368839  1
  Pd  Pd167  1  0.39825734  0.19178430  0.39646689  1
  Pd  Pd168  1  -0.00775612  0.00580568  0.79741332  1
  Pd  Pd169  1  0.80223436  0.00448412  0.79801443  1
  Pd  Pd170  1  0.39845301  -0.00600359  0.79614913  1
  Pd  Pd171  1  0.60156729  0.41003671  -0.00470648  1
  Pd  Pd172  1  0.00311781  0.00943276  0.60881521  1
  Pd  Pd173  1  0.79183727  0.79492233  0.79350434  1
  Pd  Pd174  1  0.20340415  0.00447580  0.19830144  1
  Pd  Pd175  1  0.80817621  0.40045480  0.60741454  1
  Pd  Pd176  1  0.59530361  0.19852706  0.59717645  1
  Pd  Pd177  1  0.80685289  0.78688129  0.39331206  1
  Pd  Pd178  1  0.00310697  0.80494566  0.79997107  1
  Pd  Pd179  1  0.39966412  0.79707028  0.59892201  1
  Pd  Pd180  1  0.39913850  0.39834292  0.00122678  1
  Pd  Pd181  1  0.40520428  -0.00475103  0.39588827  1
  Pd  Pd182  1  0.40159386  0.79157908  0.00304747  1
  Pd  Pd183  1  0.79445064  0.20554317  0.40289850  1
  Pd  Pd184  1  0.80412309  0.79812076  0.60838303  1
  Pd  Pd185  1  0.40913873  0.40430451  0.59951338  1
  Pd  Pd186  1  0.39543829  0.00582894  0.21221550  1
  Pd  Pd187  1  0.19053580  0.40231678  0.38807627  1
  Pd  Pd188  1  0.59498346  0.39304974  0.61107382  1
  Pd  Pd189  1  0.59794666  0.80543534  0.40387147  1
  Pd  Pd190  1  -0.00102449  0.00642733  0.00088532  1
  Pd  Pd191  1  0.40874457  0.60653971  0.00227064  1
  Pd  Pd192  1  0.39490699  0.58636366  0.20969937  1
  Pd  Pd193  1  -0.00573734  -0.00221781  0.39875756  1
  Pd  Pd194  1  0.00612213  0.20884541  0.20142759  1
  Pd  Pd195  1  0.80877511  0.59911638  0.59938207  1
  Pd  Pd196  1  0.60910493  0.39412754  0.40189396  1
  Pd  Pd197  1  -0.00042776  0.59565493  0.59299548  1
  Pd  Pd198  1  -0.01003317  -0.00578583  0.19664608  1
  Pd  Pd199  1  0.00116280  0.79508329  0.39190220  1
  Rh  Rh200  1  0.60455862  0.80442381  0.59852246  1
  Rh  Rh201  1  0.20211596  0.60642579  0.78992065  1
  Rh  Rh202  1  0.40355438  0.00446553  -0.00503491  1
  Rh  Rh203  1  -0.00893773  0.60749323  0.40746186  1
  Rh  Rh204  1  0.19209697  0.80159439  0.19721779  1
  Rh  Rh205  1  -0.00648943  0.41356209  0.00695843  1
  Rh  Rh206  1  0.00674387  0.39628900  0.39635765  1
  Rh  Rh207  1  0.59649103  0.79908607  0.19318933  1
  Rh  Rh208  1  0.59945574  0.00049380  0.79667143  1
  Rh  Rh209  1  0.80869687  0.00059119  0.39472923  1
  Rh  Rh210  1  0.19312251  0.00039162  0.00720201  1
  Rh  Rh211  1  0.79772210  0.19983243  -0.00498466  1
  Rh  Rh212  1  0.80522396  0.19699346  0.59821719  1
  Rh  Rh213  1  -0.00642403  0.79789025  0.60652041  1
  Rh  Rh214  1  0.40322385  0.40618084  0.39424692  1
  Rh  Rh215  1  -0.00805064  0.59913691  0.80576656  1
  Rh  Rh216  1  0.41251572  0.40567835  0.79470017  1
  Rh  Rh217  1  0.19124578  0.60725944  -0.00128575  1
  Rh  Rh218  1  0.80588507  0.39310396  0.19752832  1
  Rh  Rh219  1  0.80300303  0.61299808  -0.00978409  1
  Rh  Rh220  1  0.59816986  -0.00741708  0.40476411  1
  Rh  Rh221  1  0.80953583  0.80331051  0.20507197  1
  Rh  Rh222  1  0.59992132  0.40027350  0.20306040  1
  Rh  Rh223  1  0.40619071  0.80071943  0.40092186  1
  Rh  Rh224  1  0.20198154  -0.00856452  0.79119248  1
  Rh  Rh225  1  0.20063688  0.19351591  0.40045024  1
  Rh  Rh226  1  -0.00517449  0.59981832  0.18699692  1
  Rh  Rh227  1  0.20619227  0.58854200  0.20014396  1
  Rh  Rh228  1  0.39657284  0.00044312  0.59994628  1
  Rh  Rh229  1  0.20179167  0.39812868  -0.00625656  1
  Rh  Rh230  1  0.19532771  0.80131216  0.60950662  1
  Rh  Rh231  1  0.59878415  0.00315872  0.59651040  1
  Rh  Rh232  1  0.60366228  -0.00819635  -0.00284666  1
  Rh  Rh233  1  0.59953525  0.20570067  0.79525260  1
  Rh  Rh234  1  0.80604536  0.39035860  -0.00360091  1
  Rh  Rh235  1  0.19094084  0.80602484  0.39822296  1
  Rh  Rh236  1  0.59172001  0.59989264  0.59562615  1
  Rh  Rh237  1  0.19099503  0.39633961  0.60503987  1
  Rh  Rh238  1  0.19872847  -0.00990903  0.40833812  1
  Rh  Rh239  1  0.00624299  0.19281941  -0.00046032  1
  Rh  Rh240  1  0.61299844  0.58759641  0.81033341  1
  Rh  Rh241  1  0.59647301  0.19722327  -0.00311117  1
  Rh  Rh242  1  0.78718765  0.80283060  -0.00894662  1
  Rh  Rh243  1  0.40038975  0.80472613  0.20241983  1
  Rh  Rh244  1  0.61244978  -0.00169059  0.20440491  1
  Rh  Rh245  1  0.39524626  0.59625558  0.78724379  1
  Rh  Rh246  1  0.59858524  0.19699392  0.20246973  1
  Rh  Rh247  1  0.20805209  0.20886248  0.80498252  1
  Rh  Rh248  1  -0.00599693  0.19855755  0.79937075  1
  Rh  Rh249  1  0.80435589  0.00267113  0.60464374  1
