# generated using pymatgen
data_ZrScNbPdRh
_symmetry_space_group_name_H-M   'P 1'
_cell_length_a   16.55642217
_cell_length_b   16.55414816
_cell_length_c   16.55472715
_cell_angle_alpha   90.00249255
_cell_angle_beta   90.02360595
_cell_angle_gamma   90.00644766
_symmetry_Int_Tables_number   1
_chemical_formula_structural   ZrScNbPdRh
_chemical_formula_sum   'Zr50 Sc50 Nb50 Pd50 Rh50'
_cell_volume   4537.27724385
_cell_formula_units_Z   50
loop_
 _symmetry_equiv_pos_site_id
 _symmetry_equiv_pos_as_xyz
  1  'x, y, z'
loop_
 _atom_site_type_symbol
 _atom_site_label
 _atom_site_symmetry_multiplicity
 _atom_site_fract_x
 _atom_site_fract_y
 _atom_site_fract_z
 _atom_site_occupancy
  Zr  Zr0  1  0.69483757  0.10714043  0.70248348  1
  Zr  Zr1  1  0.89985699  0.09818889  0.70324787  1
  Zr  Zr2  1  0.30232408  0.50028600  0.30757692  1
  Zr  Zr3  1  0.30711290  0.69731152  0.89880905  1
  Zr  Zr4  1  0.09922205  0.70146426  0.70296127  1
  Zr  Zr5  1  0.49836490  0.10457261  0.10736204  1
  Zr  Zr6  1  0.49542549  0.49213432  0.09432972  1
  Zr  Zr7  1  0.70197759  0.09627471  0.10255374  1
  Zr  Zr8  1  0.71347221  0.70018616  0.09663578  1
  Zr  Zr9  1  0.50508352  0.08893690  0.90143982  1
  Zr  Zr10  1  0.29914303  0.09293254  0.49940819  1
  Zr  Zr11  1  0.69588784  0.69712492  0.29231091  1
  Zr  Zr12  1  0.69656276  0.50024046  0.30094157  1
  Zr  Zr13  1  0.69658433  0.30082957  0.50267140  1
  Zr  Zr14  1  0.30665792  0.89732841  0.29903841  1
  Zr  Zr15  1  0.09704017  0.89976194  0.09672501  1
  Zr  Zr16  1  0.10301091  0.69739572  0.29885246  1
  Zr  Zr17  1  0.10119505  0.09860839  0.50170045  1
  Zr  Zr18  1  0.69305976  0.89801780  0.90423193  1
  Zr  Zr19  1  0.69674045  0.09506632  0.50612795  1
  Zr  Zr20  1  0.50321099  0.10181596  0.69956682  1
  Zr  Zr21  1  0.90008329  0.70205312  0.50330835  1
  Zr  Zr22  1  0.10173121  0.30168152  0.90796248  1
  Zr  Zr23  1  0.10369044  0.09337374  0.70820630  1
  Zr  Zr24  1  0.30705337  0.10044457  0.70347728  1
  Zr  Zr25  1  0.10525344  0.49698577  0.09538459  1
  Zr  Zr26  1  0.69842785  0.90311924  0.69373344  1
  Zr  Zr27  1  0.89726847  0.49290963  0.29025066  1
  Zr  Zr28  1  0.89812191  0.69263942  0.90535092  1
  Zr  Zr29  1  0.10249734  0.70196105  0.89732723  1
  Zr  Zr30  1  0.10045637  0.70102190  0.08971631  1
  Zr  Zr31  1  0.10650994  0.50021742  0.49627295  1
  Zr  Zr32  1  0.09535773  0.09431375  0.30529049  1
  Zr  Zr33  1  0.90307605  0.30024057  0.90450918  1
  Zr  Zr34  1  0.49145705  0.29751132  0.68784650  1
  Zr  Zr35  1  0.30305417  0.49496015  0.90018322  1
  Zr  Zr36  1  0.09453378  0.90761717  0.30056221  1
  Zr  Zr37  1  0.88752982  0.70661810  0.29533152  1
  Zr  Zr38  1  0.29739140  0.09757780  0.90043781  1
  Zr  Zr39  1  0.69697456  0.49870629  0.69479813  1
  Zr  Zr40  1  0.49769666  0.89794548  0.09444999  1
  Zr  Zr41  1  0.70055055  0.70204324  0.49142989  1
  Zr  Zr42  1  0.89750474  0.50159802  0.50012690  1
  Zr  Zr43  1  0.89972062  0.09466001  0.30421315  1
  Zr  Zr44  1  0.50193507  0.10730795  0.50216113  1
  Zr  Zr45  1  0.09593296  0.30309808  0.09851151  1
  Zr  Zr46  1  0.30457697  0.89190127  0.89675747  1
  Zr  Zr47  1  0.70843387  0.89703928  0.30060390  1
  Zr  Zr48  1  0.70507128  0.09621630  0.90613594  1
  Zr  Zr49  1  0.89741557  0.10490799  0.50097229  1
  Sc  Sc50  1  0.29827598  0.89532644  0.50595087  1
  Sc  Sc51  1  0.50282967  0.70972375  0.29670540  1
  Sc  Sc52  1  0.88771206  0.30085368  0.70445860  1
  Sc  Sc53  1  0.90119571  0.49920494  0.09441070  1
  Sc  Sc54  1  0.30014971  0.69974386  0.09053028  1
  Sc  Sc55  1  0.30811962  0.09824765  0.30070706  1
  Sc  Sc56  1  0.49568006  0.51229195  0.90112270  1
  Sc  Sc57  1  0.70320870  0.29686582  0.89417234  1
  Sc  Sc58  1  0.49620434  0.31268408  0.90168099  1
  Sc  Sc59  1  0.49754717  0.69805667  0.70205346  1
  Sc  Sc60  1  0.50333510  0.69995832  0.10146573  1
  Sc  Sc61  1  0.88762588  0.89967404  0.50826272  1
  Sc  Sc62  1  0.30658429  0.69651480  0.30350520  1
  Sc  Sc63  1  0.70822388  0.90249298  0.09404952  1
  Sc  Sc64  1  0.10795186  0.91143273  0.50083101  1
  Sc  Sc65  1  0.29705321  0.09767332  0.10128448  1
  Sc  Sc66  1  0.89640616  0.09554228  0.08950639  1
  Sc  Sc67  1  0.50051865  0.29737465  0.29945677  1
  Sc  Sc68  1  0.69125850  0.50186859  0.10413547  1
  Sc  Sc69  1  0.30753599  0.31282296  0.50471107  1
  Sc  Sc70  1  0.89718411  0.50201638  0.70951200  1
  Sc  Sc71  1  0.09704092  0.09725463  0.08838273  1
  Sc  Sc72  1  0.10052145  0.49524468  0.89925354  1
  Sc  Sc73  1  0.29897269  0.50001342  0.09600345  1
  Sc  Sc74  1  0.09851599  0.90146733  0.89575872  1
  Sc  Sc75  1  0.90711110  0.09730667  0.89816244  1
  Sc  Sc76  1  0.90479924  0.89846638  0.70330755  1
  Sc  Sc77  1  0.49976843  0.30070162  0.49330905  1
  Sc  Sc78  1  0.69771668  0.50857466  0.89712974  1
  Sc  Sc79  1  0.10130587  0.29863918  0.50152410  1
  Sc  Sc80  1  0.50506826  0.89911946  0.49921869  1
  Sc  Sc81  1  0.50241222  0.49545078  0.30495711  1
  Sc  Sc82  1  0.91217812  0.69643537  0.70166160  1
  Sc  Sc83  1  0.30475055  0.30778743  0.10166860  1
  Sc  Sc84  1  0.09288796  0.50274833  0.70156396  1
  Sc  Sc85  1  0.90832361  0.30630201  0.10500437  1
  Sc  Sc86  1  0.30301487  0.89807268  0.09739686  1
  Sc  Sc87  1  0.68542372  0.69710149  0.70250458  1
  Sc  Sc88  1  0.49525371  0.10731228  0.30825361  1
  Sc  Sc89  1  0.11134826  0.49820576  0.29567155  1
  Sc  Sc90  1  0.10717195  0.89380040  0.70601387  1
  Sc  Sc91  1  0.09788563  0.69767505  0.51000261  1
  Sc  Sc92  1  0.89794208  0.89883219  0.09992712  1
  Sc  Sc93  1  0.10068698  0.30772163  0.70678622  1
  Sc  Sc94  1  0.69490883  0.69710173  0.90283279  1
  Sc  Sc95  1  0.69982398  0.09775443  0.31074672  1
  Sc  Sc96  1  0.69989179  0.90235461  0.50184517  1
  Sc  Sc97  1  0.50144053  0.49669826  0.50192116  1
  Sc  Sc98  1  0.49659966  0.69729241  0.50377833  1
  Sc  Sc99  1  0.31193817  0.30256397  0.30058429  1
  Nb  Nb100  1  0.90196858  0.29828639  0.29742312  1
  Nb  Nb101  1  0.30250544  0.30172481  0.70358589  1
  Nb  Nb102  1  0.50048563  0.29876004  0.10151968  1
  Nb  Nb103  1  0.89038057  0.49727879  0.89814313  1
  Nb  Nb104  1  0.29661482  0.89696885  0.69887920  1
  Nb  Nb105  1  0.69530922  0.30158776  0.10456162  1
  Nb  Nb106  1  0.50085657  0.89689233  0.70806027  1
  Nb  Nb107  1  0.50111674  0.88970605  0.89815651  1
  Nb  Nb108  1  0.30467066  0.48853002  0.69633267  1
  Nb  Nb109  1  0.50619664  0.50307278  0.69490436  1
  Nb  Nb110  1  0.29956116  0.69708264  0.50321701  1
  Nb  Nb111  1  0.09142031  0.29515787  0.29388928  1
  Nb  Nb112  1  0.90023987  0.29920787  0.49795663  1
  Nb  Nb113  1  0.70268757  0.30505989  0.29668144  1
  Nb  Nb114  1  0.49909599  0.89642998  0.29035867  1
  Nb  Nb115  1  0.30112098  0.50481460  0.49727820  1
  Nb  Nb116  1  0.89972331  0.90372260  0.30208714  1
  Nb  Nb117  1  0.90115461  0.70024917  0.09758788  1
  Nb  Nb118  1  0.49785138  0.71091359  0.89456409  1
  Nb  Nb119  1  0.09925553  0.10258138  0.89927733  1
  Nb  Nb120  1  0.69478440  0.49932560  0.49911087  1
  Nb  Nb121  1  0.89671096  0.90016353  0.89614910  1
  Nb  Nb122  1  0.69175763  0.30511173  0.70130835  1
  Nb  Nb123  1  0.29946452  0.30333762  0.89407586  1
  Nb  Nb124  1  0.29651681  0.70915137  0.69451615  1
  Nb  Nb125  1  -0.00648578  0.39759782  0.59302928  1
  Nb  Nb126  1  0.20497034  0.20383745  0.80280891  1
  Nb  Nb127  1  0.59609206  -0.00497850  0.20443509  1
  Nb  Nb128  1  0.79848313  0.80048620  0.80493998  1
  Nb  Nb129  1  0.79982372  0.20658373  0.20392792  1
  Nb  Nb130  1  0.19772112  0.80140033  0.20305658  1
  Nb  Nb131  1  0.59852031  0.40274793  0.79000618  1
  Nb  Nb132  1  0.20565081  0.20268055  0.60589055  1
  Nb  Nb133  1  0.40340320  0.20382463  -0.00060635  1
  Nb  Nb134  1  0.21012310  0.59926573  0.79146343  1
  Nb  Nb135  1  0.19917998  0.20151637  0.39805761  1
  Nb  Nb136  1  -0.00363854  0.39638013  0.39660263  1
  Nb  Nb137  1  0.21277880  0.59695622  0.60414085  1
  Nb  Nb138  1  -0.00082135  0.80148241  0.39846398  1
  Nb  Nb139  1  0.59691302  0.20545983  0.00590270  1
  Nb  Nb140  1  -0.00278158  0.60052998  0.39305133  1
  Nb  Nb141  1  0.79567874  0.39915331  0.00058656  1
  Nb  Nb142  1  0.40316723  -0.00474890  0.60894464  1
  Nb  Nb143  1  0.19763816  0.79759890  0.39893471  1
  Nb  Nb144  1  0.79341607  0.59864284  0.59615226  1
  Nb  Nb145  1  0.80142686  0.39382401  0.39952016  1
  Nb  Nb146  1  -0.00086460  0.60531205  0.19665361  1
  Nb  Nb147  1  0.40204278  0.59615073  0.19923187  1
  Nb  Nb148  1  0.00110563  0.00592275  0.60322273  1
  Nb  Nb149  1  0.19337261  0.20193804  0.20668918  1
  Pd  Pd150  1  0.80368236  0.59334251  0.19095872  1
  Pd  Pd151  1  0.00055771  0.79684203  0.20210215  1
  Pd  Pd152  1  0.39776932  0.60044696  0.79020002  1
  Pd  Pd153  1  0.41105124  0.40563887  0.79637767  1
  Pd  Pd154  1  0.39754284  0.59511989  0.60374391  1
  Pd  Pd155  1  0.79336626  0.20411512  0.39557109  1
  Pd  Pd156  1  0.00678554  0.20495225  0.60930488  1
  Pd  Pd157  1  0.00082387  0.59208663  -0.00189507  1
  Pd  Pd158  1  0.60821223  0.39627082  -0.01008524  1
  Pd  Pd159  1  0.40419401  0.20315487  0.81098802  1
  Pd  Pd160  1  0.79870259  0.20927375  0.00901687  1
  Pd  Pd161  1  0.59358990  -0.00429457  0.39274479  1
  Pd  Pd162  1  -0.00575242  0.80579586  -0.00713824  1
  Pd  Pd163  1  0.59037242  0.20999403  0.80999011  1
  Pd  Pd164  1  0.20152019  0.00173266  0.20054589  1
  Pd  Pd165  1  0.19853018  -0.00676702  -0.00541730  1
  Pd  Pd166  1  0.40524889  0.80627387  0.60157375  1
  Pd  Pd167  1  0.60628278  0.19485038  0.20514525  1
  Pd  Pd168  1  0.79644266  -0.00475247  0.79929153  1
  Pd  Pd169  1  0.40947532  0.60223935  0.39585701  1
  Pd  Pd170  1  0.79550777  0.20237565  0.60477182  1
  Pd  Pd171  1  0.39764825  0.79926941  0.40558182  1
  Pd  Pd172  1  0.19757542  0.38727583  0.39342483  1
  Pd  Pd173  1  0.20482298  0.39251408  0.20454014  1
  Pd  Pd174  1  0.80328356  0.40312585  0.59772377  1
  Pd  Pd175  1  0.19461630  0.40044122  0.60396535  1
  Pd  Pd176  1  0.40004854  -0.00833885  0.79832039  1
  Pd  Pd177  1  0.59268101  0.40124024  0.20385408  1
  Pd  Pd178  1  0.80060198  0.59429597  0.40083585  1
  Pd  Pd179  1  0.40495154  -0.00704773  0.40752022  1
  Pd  Pd180  1  0.79726867  0.60947737  0.79175231  1
  Pd  Pd181  1  -0.00648206  0.00631378  0.19012545  1
  Pd  Pd182  1  0.59556814  0.79675595  0.59875422  1
  Pd  Pd183  1  -0.00365260  0.18818419  0.18975504  1
  Pd  Pd184  1  0.00443956  0.20400160  0.40214491  1
  Pd  Pd185  1  0.00493718  0.20553021  0.79941334  1
  Pd  Pd186  1  0.59550733  0.60599326  0.00049691  1
  Pd  Pd187  1  0.39926669  0.00254958  0.00056047  1
  Pd  Pd188  1  0.00803513  0.81529964  0.59347840  1
  Pd  Pd189  1  0.60391605  -0.00381311  0.79854725  1
  Pd  Pd190  1  0.20919202  0.20587275  0.00455022  1
  Pd  Pd191  1  0.59064087  0.60276734  0.40024668  1
  Pd  Pd192  1  0.60097270  0.79301900  0.00578335  1
  Pd  Pd193  1  0.79976358  0.19967491  0.80094247  1
  Pd  Pd194  1  0.59859201  0.80216499  0.40046797  1
  Pd  Pd195  1  0.20670627  0.60679488  0.19322966  1
  Pd  Pd196  1  0.60918545  0.80679155  0.19060590  1
  Pd  Pd197  1  0.40445228  0.00162783  0.19996106  1
  Pd  Pd198  1  0.79725733  0.78728288  0.61558123  1
  Pd  Pd199  1  -0.00330655  0.40097975  0.79752300  1
  Rh  Rh200  1  0.00327768  -0.00444077  0.79785583  1
  Rh  Rh201  1  0.40599146  0.60529114  0.00635364  1
  Rh  Rh202  1  0.00873406  0.41066312  0.20306449  1
  Rh  Rh203  1  0.59714098  0.00367901  0.00916148  1
  Rh  Rh204  1  0.79855807  0.59002176  0.00387233  1
  Rh  Rh205  1  0.40413399  0.40788912  0.20287124  1
  Rh  Rh206  1  0.19697196  0.79528675  0.59252231  1
  Rh  Rh207  1  0.80361762  0.80649054  0.39951003  1
  Rh  Rh208  1  0.60200568  0.20507290  0.59750445  1
  Rh  Rh209  1  0.60280050  0.80040308  0.80003965  1
  Rh  Rh210  1  0.20593683  0.79472043  0.80305627  1
  Rh  Rh211  1  -0.00902689  0.40630580  -0.00500073  1
  Rh  Rh212  1  0.20538310  0.39783317  -0.00034482  1
  Rh  Rh213  1  -0.00267719  0.58866323  0.59562295  1
  Rh  Rh214  1  0.80391294  0.00639706  0.60498898  1
  Rh  Rh215  1  0.20376948  0.00272876  0.61098387  1
  Rh  Rh216  1  0.58978342  0.59603639  0.20173286  1
  Rh  Rh217  1  0.60373930  0.60371743  0.59170533  1
  Rh  Rh218  1  0.59145418  -0.00348796  0.60377998  1
  Rh  Rh219  1  0.19714174  0.60919185  0.41187635  1
  Rh  Rh220  1  0.79818904  0.00534413  0.20431140  1
  Rh  Rh221  1  -0.01486306  -0.01065558  0.41693952  1
  Rh  Rh222  1  -0.00170665  -0.00298744  -0.00820922  1
  Rh  Rh223  1  0.39708723  0.39516120  -0.00067116  1
  Rh  Rh224  1  0.60564990  0.39631096  0.39926128  1
  Rh  Rh225  1  0.00636517  0.59657943  0.81037374  1
  Rh  Rh226  1  0.20218225  -0.00008216  0.80532033  1
  Rh  Rh227  1  0.39168696  0.78967264  0.19500298  1
  Rh  Rh228  1  0.20100474  0.40157200  0.79822783  1
  Rh  Rh229  1  0.20205846  0.59593606  -0.01322120  1
  Rh  Rh230  1  0.59106981  0.59588832  0.80256115  1
  Rh  Rh231  1  0.39007432  0.20238338  0.19324294  1
  Rh  Rh232  1  0.20108271  0.80620126  0.00270555  1
  Rh  Rh233  1  0.60331336  0.20400672  0.39895658  1
  Rh  Rh234  1  0.40459189  0.40575975  0.59684019  1
  Rh  Rh235  1  0.80612134  0.80152617  -0.00742890  1
  Rh  Rh236  1  0.39308858  0.20505365  0.40589433  1
  Rh  Rh237  1  0.21050775  -0.00173387  0.39066555  1
  Rh  Rh238  1  0.79739438  0.39444086  0.19426892  1
  Rh  Rh239  1  0.40411917  0.79577295  0.00048416  1
  Rh  Rh240  1  0.40318179  0.40357222  0.40260266  1
  Rh  Rh241  1  0.59274846  0.39791941  0.60084579  1
  Rh  Rh242  1  0.39958403  0.79900879  0.79204480  1
  Rh  Rh243  1  0.80078387  -0.00223557  0.40503403  1
  Rh  Rh244  1  0.80505498  -0.00439022  -0.00533553  1
  Rh  Rh245  1  -0.00868798  0.79918487  0.80560805  1
  Rh  Rh246  1  0.78920222  0.40122690  0.80888952  1
  Rh  Rh247  1  0.79958269  0.80559801  0.19469168  1
  Rh  Rh248  1  0.39198750  0.19555138  0.59140445  1
  Rh  Rh249  1  -0.00124564  0.19787659  0.00149745  1
