# generated using pymatgen
data_ZrScNbPdRh
_symmetry_space_group_name_H-M   'P 1'
_cell_length_a   16.55358667
_cell_length_b   16.55449244
_cell_length_c   16.55228528
_cell_angle_alpha   89.99823815
_cell_angle_beta   90.03380307
_cell_angle_gamma   89.99918478
_symmetry_Int_Tables_number   1
_chemical_formula_structural   ZrScNbPdRh
_chemical_formula_sum   'Zr50 Sc50 Nb50 Pd50 Rh50'
_cell_volume   4535.92498833
_cell_formula_units_Z   50
loop_
 _symmetry_equiv_pos_site_id
 _symmetry_equiv_pos_as_xyz
  1  'x, y, z'
loop_
 _atom_site_type_symbol
 _atom_site_label
 _atom_site_symmetry_multiplicity
 _atom_site_fract_x
 _atom_site_fract_y
 _atom_site_fract_z
 _atom_site_occupancy
  Zr  Zr0  1  0.69807274  0.30359260  0.31174450  1
  Zr  Zr1  1  0.10853062  0.10384559  0.49538035  1
  Zr  Zr2  1  0.89055243  0.50208589  0.30680921  1
  Zr  Zr3  1  0.70610422  0.70589724  0.70190612  1
  Zr  Zr4  1  0.70716423  0.49642564  0.48471967  1
  Zr  Zr5  1  0.29945659  0.30350700  0.89837947  1
  Zr  Zr6  1  0.90492956  0.30111285  0.09911440  1
  Zr  Zr7  1  0.70525291  0.69291430  0.50431601  1
  Zr  Zr8  1  0.10339288  0.89946790  0.70209351  1
  Zr  Zr9  1  0.10241098  0.10767427  0.30147610  1
  Zr  Zr10  1  0.50238232  0.90301198  0.90430611  1
  Zr  Zr11  1  0.90390262  0.89088990  0.10322305  1
  Zr  Zr12  1  0.08990786  0.08973305  0.90071830  1
  Zr  Zr13  1  0.49731257  0.71365253  0.30051568  1
  Zr  Zr14  1  0.29896224  0.10378224  0.10875892  1
  Zr  Zr15  1  0.49748264  0.10139925  0.31379065  1
  Zr  Zr16  1  0.11229420  0.10127991  0.69636378  1
  Zr  Zr17  1  0.30727361  0.29465269  0.28828126  1
  Zr  Zr18  1  0.90284604  0.50006933  0.89848301  1
  Zr  Zr19  1  0.10304000  0.69888199  0.69614995  1
  Zr  Zr20  1  0.69837182  0.49070646  0.89281766  1
  Zr  Zr21  1  0.09709807  0.69893750  0.30466408  1
  Zr  Zr22  1  0.88855210  0.50107158  0.10008388  1
  Zr  Zr23  1  0.70118211  0.89741154  0.50098586  1
  Zr  Zr24  1  0.69131620  0.90211742  0.30864819  1
  Zr  Zr25  1  0.09804920  0.49690107  0.09290958  1
  Zr  Zr26  1  0.90314883  0.69340706  0.69215048  1
  Zr  Zr27  1  0.69154586  0.90517107  0.89236191  1
  Zr  Zr28  1  0.90663211  0.29644444  0.29892693  1
  Zr  Zr29  1  0.90580330  0.69784171  0.49726818  1
  Zr  Zr30  1  0.29783816  0.49924953  0.50272736  1
  Zr  Zr31  1  0.50925096  0.49918874  0.70927962  1
  Zr  Zr32  1  0.89930052  0.10227524  0.49637018  1
  Zr  Zr33  1  0.50133222  0.89897767  0.48948682  1
  Zr  Zr34  1  0.91480285  0.90268607  0.90658931  1
  Zr  Zr35  1  0.90163933  0.69933981  0.29279365  1
  Zr  Zr36  1  0.50156120  0.49658591  0.50798335  1
  Zr  Zr37  1  0.30095207  0.90760785  0.69672960  1
  Zr  Zr38  1  0.90718839  0.49208292  0.69871775  1
  Zr  Zr39  1  0.49276927  0.50178826  0.09469280  1
  Zr  Zr40  1  0.70599733  0.09214136  0.70951775  1
  Zr  Zr41  1  0.69656280  0.30439958  0.70406597  1
  Zr  Zr42  1  0.10133198  0.69940147  0.49855666  1
  Zr  Zr43  1  0.89607082  0.10431003  0.89752126  1
  Zr  Zr44  1  0.29227294  0.69838953  0.50323700  1
  Zr  Zr45  1  0.50096619  0.09167534  0.09130121  1
  Zr  Zr46  1  0.90462509  0.10965490  0.10088651  1
  Zr  Zr47  1  0.29154985  0.09669348  0.30760457  1
  Zr  Zr48  1  0.70149513  0.09909400  0.90041421  1
  Zr  Zr49  1  0.29567505  0.50523676  0.89977481  1
  Sc  Sc50  1  0.70992074  0.10199567  0.10491020  1
  Sc  Sc51  1  0.09367271  0.30340895  0.10409401  1
  Sc  Sc52  1  0.70325431  0.70335971  0.90130050  1
  Sc  Sc53  1  0.30230873  0.70565504  0.09251007  1
  Sc  Sc54  1  0.70400108  0.69902344  0.09674708  1
  Sc  Sc55  1  0.71285072  0.29726626  0.10003042  1
  Sc  Sc56  1  0.89914091  0.69923001  0.89815224  1
  Sc  Sc57  1  0.10227346  0.30329674  0.50268134  1
  Sc  Sc58  1  0.49024080  0.29734125  0.89836354  1
  Sc  Sc59  1  0.09945890  0.49814413  0.70763872  1
  Sc  Sc60  1  0.10007487  0.89528215  0.89913528  1
  Sc  Sc61  1  0.29336223  0.29143550  0.70506672  1
  Sc  Sc62  1  0.49952182  0.70258707  0.09615998  1
  Sc  Sc63  1  0.50093657  0.89371596  0.09021605  1
  Sc  Sc64  1  0.49920529  0.51477016  0.29752384  1
  Sc  Sc65  1  0.69690100  0.89216912  0.09365502  1
  Sc  Sc66  1  0.90126222  0.50396342  0.50165013  1
  Sc  Sc67  1  0.69484207  0.69489666  0.29422380  1
  Sc  Sc68  1  0.89218476  0.30107243  0.90046839  1
  Sc  Sc69  1  0.49550659  0.10733967  0.50666166  1
  Sc  Sc70  1  0.89873558  0.89639181  0.50280053  1
  Sc  Sc71  1  0.10508271  0.69983060  0.89253949  1
  Sc  Sc72  1  0.30534267  0.89148349  0.89920003  1
  Sc  Sc73  1  0.09947172  0.31223439  0.89590273  1
  Sc  Sc74  1  0.90730180  0.30924978  0.50147223  1
  Sc  Sc75  1  0.69442336  0.09396010  0.49719477  1
  Sc  Sc76  1  0.30157009  0.49433650  0.09546921  1
  Sc  Sc77  1  0.70421651  0.50433530  0.69608189  1
  Sc  Sc78  1  0.10139332  0.30296404  0.30573094  1
  Sc  Sc79  1  0.29854869  0.09791979  0.51033366  1
  Sc  Sc80  1  0.49804469  0.69998870  0.49363020  1
  Sc  Sc81  1  0.29885646  0.50126707  0.30185993  1
  Sc  Sc82  1  0.29923417  0.70760195  0.70759607  1
  Sc  Sc83  1  0.89457728  0.89314220  0.69606240  1
  Sc  Sc84  1  0.30258924  0.70449817  0.30290587  1
  Sc  Sc85  1  0.31195756  0.10617920  0.88699641  1
  Sc  Sc86  1  0.88896282  0.90098377  0.29743659  1
  Sc  Sc87  1  0.29851708  0.89828577  0.50032079  1
  Sc  Sc88  1  0.09947266  0.49846175  0.30759893  1
  Sc  Sc89  1  0.30093763  0.69793762  0.89735292  1
  Sc  Sc90  1  0.48566944  0.09701205  0.70190485  1
  Sc  Sc91  1  0.09828219  0.89481867  0.09806621  1
  Sc  Sc92  1  0.29350269  0.49943846  0.69928603  1
  Sc  Sc93  1  0.48129516  0.30124746  0.10287004  1
  Sc  Sc94  1  0.09071653  0.70738912  0.10358799  1
  Sc  Sc95  1  0.10489031  0.89312020  0.50060028  1
  Sc  Sc96  1  0.11256259  0.89700500  0.30129363  1
  Sc  Sc97  1  0.30753870  0.30333010  0.51730291  1
  Sc  Sc98  1  0.48942727  0.89695605  0.71033766  1
  Sc  Sc99  1  0.89565663  0.70176094  0.10057087  1
  Nb  Nb100  1  0.69136279  0.29479953  0.49940949  1
  Nb  Nb101  1  0.09857816  0.50279003  0.89559411  1
  Nb  Nb102  1  0.90544694  0.30111655  0.69339611  1
  Nb  Nb103  1  0.89362190  0.10066177  0.29774462  1
  Nb  Nb104  1  0.70295073  0.49996901  0.29053028  1
  Nb  Nb105  1  0.49066479  0.69344043  0.89662512  1
  Nb  Nb106  1  0.30096895  0.09835725  0.69568391  1
  Nb  Nb107  1  0.49660096  0.69467786  0.70510632  1
  Nb  Nb108  1  0.69530393  0.29330170  0.89789636  1
  Nb  Nb109  1  0.49556354  0.50094754  0.89893360  1
  Nb  Nb110  1  0.69509149  0.89763659  0.69956165  1
  Nb  Nb111  1  0.30013718  0.90328864  0.10001365  1
  Nb  Nb112  1  0.11272726  0.50641153  0.50025893  1
  Nb  Nb113  1  0.09827047  0.10000917  0.09809755  1
  Nb  Nb114  1  0.50766752  0.09586817  0.89787304  1
  Nb  Nb115  1  0.49869796  0.90029363  0.30323341  1
  Nb  Nb116  1  0.89785181  0.10697984  0.69621401  1
  Nb  Nb117  1  0.09219231  0.30269703  0.70100494  1
  Nb  Nb118  1  0.29840420  0.29903135  0.09473530  1
  Nb  Nb119  1  0.50931990  0.29945016  0.50307119  1
  Nb  Nb120  1  0.49688741  0.30239888  0.68801807  1
  Nb  Nb121  1  0.30488614  0.89989493  0.29947975  1
  Nb  Nb122  1  0.50355835  0.29643234  0.30843299  1
  Nb  Nb123  1  0.69605250  0.50078212  0.09862657  1
  Nb  Nb124  1  0.70575473  0.09895959  0.30033743  1
  Nb  Nb125  1  0.59547454  0.00235416  0.20658351  1
  Nb  Nb126  1  0.59797914  0.79979377  0.60707582  1
  Nb  Nb127  1  0.00090908  0.00598871  0.59799530  1
  Nb  Nb128  1  -0.00044701  0.00481231  0.39659922  1
  Nb  Nb129  1  0.59906198  0.20324839  -0.00005842  1
  Nb  Nb130  1  0.59796268  0.20145336  0.20316990  1
  Nb  Nb131  1  0.59907139  -0.00911063  0.60658392  1
  Nb  Nb132  1  0.40296278  0.60113744  0.60648522  1
  Nb  Nb133  1  0.19933003  0.19678286  0.00225829  1
  Nb  Nb134  1  0.00102739  0.59435483  -0.00424415  1
  Nb  Nb135  1  0.00070408  0.00707436  0.20391693  1
  Nb  Nb136  1  0.80647902  -0.00075101  -0.00120876  1
  Nb  Nb137  1  0.40228434  0.40225178  0.79577325  1
  Nb  Nb138  1  0.59759159  0.59140284  -0.00583452  1
  Nb  Nb139  1  0.79798281  0.20070945  0.40295079  1
  Nb  Nb140  1  0.40108645  -0.00722694  0.20556899  1
  Nb  Nb141  1  0.59982607  0.39927833  0.19864863  1
  Nb  Nb142  1  0.20278111  0.00533415  0.00401843  1
  Nb  Nb143  1  -0.00298573  0.20208523  0.79034254  1
  Nb  Nb144  1  0.79741161  0.20473689  0.59868690  1
  Nb  Nb145  1  0.79630387  0.79525800  0.40035218  1
  Nb  Nb146  1  0.40936409  0.39262717  0.40164512  1
  Nb  Nb147  1  0.19637025  0.60111309  0.19711543  1
  Nb  Nb148  1  0.59850707  0.39713794  0.00149898  1
  Nb  Nb149  1  0.59508957  0.19959312  0.80140449  1
  Pd  Pd150  1  0.18943100  0.19996589  0.80854021  1
  Pd  Pd151  1  0.20994624  -0.00203525  0.81147169  1
  Pd  Pd152  1  0.60380252  0.18652097  0.61086785  1
  Pd  Pd153  1  0.39896801  0.19670306  -0.00239485  1
  Pd  Pd154  1  0.59220834  0.41228718  0.39206558  1
  Pd  Pd155  1  0.60012760  0.60034019  0.39666371  1
  Pd  Pd156  1  0.40606841  0.40520701  0.20975968  1
  Pd  Pd157  1  0.21283347  0.21424051  0.40914980  1
  Pd  Pd158  1  0.39947204  0.80547079  0.19338125  1
  Pd  Pd159  1  0.38969502  0.00038547  -0.00229812  1
  Pd  Pd160  1  0.19447187  0.39712080  0.60842069  1
  Pd  Pd161  1  0.00255595  0.59296044  0.19398580  1
  Pd  Pd162  1  0.80003623  0.59844075  0.79856937  1
  Pd  Pd163  1  0.20034224  0.40518718  0.19950112  1
  Pd  Pd164  1  0.79504252  0.39753586  -0.00337460  1
  Pd  Pd165  1  0.80014515  0.80632113  -0.00729167  1
  Pd  Pd166  1  0.61043473  0.40567797  0.59884051  1
  Pd  Pd167  1  0.00128897  0.19930771  0.59796825  1
  Pd  Pd168  1  -0.00044754  0.40837048  0.20528406  1
  Pd  Pd169  1  0.59850641  0.60043562  0.19089412  1
  Pd  Pd170  1  0.21416156  0.39180880  0.39921036  1
  Pd  Pd171  1  0.39873748  0.59639759  0.40657070  1
  Pd  Pd172  1  0.19193214  0.20968378  0.19419811  1
  Pd  Pd173  1  0.80526765  0.39568147  0.79755601  1
  Pd  Pd174  1  -0.00675351  0.81258551  0.39349518  1
  Pd  Pd175  1  -0.00204674  0.79403414  0.79773100  1
  Pd  Pd176  1  0.80696196  0.80650371  0.80563475  1
  Pd  Pd177  1  0.39298581  -0.00016298  0.40520249  1
  Pd  Pd178  1  0.80001960  0.00272839  0.59917852  1
  Pd  Pd179  1  0.39196996  0.20771515  0.41323126  1
  Pd  Pd180  1  0.79731371  -0.00805585  0.19165258  1
  Pd  Pd181  1  0.00852897  0.59091751  0.59713487  1
  Pd  Pd182  1  0.19788095  0.39469942  -0.00011524  1
  Pd  Pd183  1  0.60147595  0.80562166  0.19563337  1
  Pd  Pd184  1  0.59229468  0.79413983  0.80047080  1
  Pd  Pd185  1  0.19266312  0.60876654  0.00559873  1
  Pd  Pd186  1  0.79487352  0.39640964  0.59255518  1
  Pd  Pd187  1  0.40817991  0.19065297  0.20209971  1
  Pd  Pd188  1  0.60669927  0.60767137  0.80772913  1
  Pd  Pd189  1  0.59714254  0.60531063  0.60093631  1
  Pd  Pd190  1  0.00769275  0.21083723  -0.01236464  1
  Pd  Pd191  1  0.40573438  0.79453992  0.59810360  1
  Pd  Pd192  1  0.19878837  0.80327728  -0.00190045  1
  Pd  Pd193  1  0.19717081  -0.00503983  0.19591007  1
  Pd  Pd194  1  0.81156867  -0.01172805  0.80345699  1
  Pd  Pd195  1  0.38840336  0.60528913  0.19467875  1
  Pd  Pd196  1  0.00128608  0.40751859  0.40657311  1
  Pd  Pd197  1  0.79660768  0.39469257  0.20227807  1
  Pd  Pd198  1  0.20336746  0.79316763  0.19937562  1
  Pd  Pd199  1  -0.00685936  0.00472863  0.78471788  1
  Rh  Rh200  1  0.79783933  0.60801641  0.39207694  1
  Rh  Rh201  1  -0.00238238  0.40338384  -0.00378165  1
  Rh  Rh202  1  0.40483804  -0.00263490  0.59661164  1
  Rh  Rh203  1  0.40063823  0.60358945  0.00006676  1
  Rh  Rh204  1  0.40119370  0.79831257  -0.00259728  1
  Rh  Rh205  1  0.00167536  0.60332986  0.80391291  1
  Rh  Rh206  1  0.00004611  -0.00344645  0.01470056  1
  Rh  Rh207  1  0.80500158  0.39165111  0.40434669  1
  Rh  Rh208  1  0.20015583  0.80130586  0.60394398  1
  Rh  Rh209  1  0.00545304  0.19775475  0.20464518  1
  Rh  Rh210  1  0.79681036  0.60356136  0.19750751  1
  Rh  Rh211  1  0.19975578  0.60257068  0.39093656  1
  Rh  Rh212  1  0.59710069  0.00723653  0.40360185  1
  Rh  Rh213  1  0.61531552  0.00770477  0.01100029  1
  Rh  Rh214  1  0.20346719  0.60114986  0.60698235  1
  Rh  Rh215  1  0.80198677  0.20964889  0.78941109  1
  Rh  Rh216  1  0.58969072  0.00479820  0.79005208  1
  Rh  Rh217  1  0.79881169  0.59771090  -0.00182936  1
  Rh  Rh218  1  0.20360480  0.40188666  0.79758489  1
  Rh  Rh219  1  -0.00503187  0.19800489  0.39821941  1
  Rh  Rh220  1  0.39833429  0.40057684  -0.00919163  1
  Rh  Rh221  1  0.00298563  0.81289697  0.20915476  1
  Rh  Rh222  1  0.19690509  -0.00356381  0.59540761  1
  Rh  Rh223  1  0.00431868  0.59215034  0.40554667  1
  Rh  Rh224  1  0.59425368  0.78403710  -0.01081517  1
  Rh  Rh225  1  0.79624267  0.19562553  0.00100641  1
  Rh  Rh226  1  0.40161368  0.79864799  0.80563271  1
  Rh  Rh227  1  0.60685977  0.19117749  0.39934421  1
  Rh  Rh228  1  0.80640851  -0.00111437  0.40053096  1
  Rh  Rh229  1  -0.00397494  0.39372105  0.80256361  1
  Rh  Rh230  1  0.39319407  0.80126933  0.40304602  1
  Rh  Rh231  1  0.79528244  0.20993994  0.21044034  1
  Rh  Rh232  1  0.01155774  0.40818124  0.59462616  1
  Rh  Rh233  1  0.80418213  0.59368325  0.60274074  1
  Rh  Rh234  1  0.20321412  0.80387906  0.79964816  1
  Rh  Rh235  1  0.39871129  0.19987714  0.60321841  1
  Rh  Rh236  1  0.00414285  0.80672775  0.60286487  1
  Rh  Rh237  1  0.00288758  0.78541582  -0.00632321  1
  Rh  Rh238  1  0.40745564  0.20804951  0.79025407  1
  Rh  Rh239  1  0.20052384  0.60041157  0.79702414  1
  Rh  Rh240  1  0.20660126  0.79880147  0.39808640  1
  Rh  Rh241  1  0.58810133  0.38671451  0.80711194  1
  Rh  Rh242  1  0.39320663  0.59339818  0.79241138  1
  Rh  Rh243  1  0.79184433  0.79777732  0.20801619  1
  Rh  Rh244  1  0.60683256  0.78782947  0.40637129  1
  Rh  Rh245  1  0.79673429  0.79718106  0.59539890  1
  Rh  Rh246  1  0.19845339  -0.00494474  0.40390677  1
  Rh  Rh247  1  0.39765162  -0.00149816  0.80418965  1
  Rh  Rh248  1  0.20054734  0.20514125  0.60196363  1
  Rh  Rh249  1  0.40343960  0.40625536  0.60359570  1
