# generated using pymatgen
data_ZrScNbPdRh
_symmetry_space_group_name_H-M   'P 1'
_cell_length_a   16.55279732
_cell_length_b   16.55680862
_cell_length_c   16.55469928
_cell_angle_alpha   89.99172235
_cell_angle_beta   90.02728780
_cell_angle_gamma   89.97163886
_symmetry_Int_Tables_number   1
_chemical_formula_structural   ZrScNbPdRh
_chemical_formula_sum   'Zr50 Sc50 Nb50 Pd50 Rh50'
_cell_volume   4537.00455614
_cell_formula_units_Z   50
loop_
 _symmetry_equiv_pos_site_id
 _symmetry_equiv_pos_as_xyz
  1  'x, y, z'
loop_
 _atom_site_type_symbol
 _atom_site_label
 _atom_site_symmetry_multiplicity
 _atom_site_fract_x
 _atom_site_fract_y
 _atom_site_fract_z
 _atom_site_occupancy
  Zr  Zr0  1  0.89250094  0.49637337  0.10181060  1
  Zr  Zr1  1  0.08813683  0.90045851  0.90565634  1
  Zr  Zr2  1  0.09788234  0.69706340  0.89662999  1
  Zr  Zr3  1  0.50455421  0.70214933  0.10342721  1
  Zr  Zr4  1  0.09828846  0.09402191  0.52022878  1
  Zr  Zr5  1  0.69913203  0.50214623  0.49700075  1
  Zr  Zr6  1  0.10167586  0.09117250  0.28347331  1
  Zr  Zr7  1  0.10159941  0.30005976  0.50357026  1
  Zr  Zr8  1  0.70340386  0.70376023  0.69376437  1
  Zr  Zr9  1  0.70135573  0.30840226  0.50301009  1
  Zr  Zr10  1  0.49880405  0.29831958  0.09299733  1
  Zr  Zr11  1  0.30962864  0.30382920  0.90148754  1
  Zr  Zr12  1  0.30072621  0.89846866  0.29699244  1
  Zr  Zr13  1  0.50104933  0.49642717  0.49862434  1
  Zr  Zr14  1  0.10164580  0.49414775  0.10816280  1
  Zr  Zr15  1  0.29659825  0.30227082  0.09213975  1
  Zr  Zr16  1  0.30010532  0.69665965  0.70256631  1
  Zr  Zr17  1  0.08834308  0.29462116  0.69637503  1
  Zr  Zr18  1  0.50147068  0.70704430  0.30283876  1
  Zr  Zr19  1  0.70129176  0.09902187  0.70814736  1
  Zr  Zr20  1  0.29172491  0.49882993  0.30009416  1
  Zr  Zr21  1  0.09911584  0.90663244  0.69213451  1
  Zr  Zr22  1  0.90199070  0.69844869  0.89675472  1
  Zr  Zr23  1  0.88654520  0.69522404  0.10621576  1
  Zr  Zr24  1  0.89616160  0.70052855  0.70526487  1
  Zr  Zr25  1  0.90165626  0.69692861  0.49271373  1
  Zr  Zr26  1  0.90219870  0.50649891  0.29880799  1
  Zr  Zr27  1  0.09776131  0.91195337  0.10620148  1
  Zr  Zr28  1  0.49730646  0.30125199  0.89992471  1
  Zr  Zr29  1  0.29144115  0.89824719  0.50793084  1
  Zr  Zr30  1  0.49597893  0.10946172  0.50619224  1
  Zr  Zr31  1  0.30078660  0.49616385  0.49971939  1
  Zr  Zr32  1  0.30361453  0.10280267  0.49956640  1
  Zr  Zr33  1  0.69030456  0.69367724  0.09387423  1
  Zr  Zr34  1  0.89858328  0.89971772  0.89858331  1
  Zr  Zr35  1  0.30644058  0.90144515  0.89306652  1
  Zr  Zr36  1  0.50878735  0.50119401  0.10045536  1
  Zr  Zr37  1  0.50523191  0.69963387  0.69691232  1
  Zr  Zr38  1  0.89197183  0.29718663  0.90860464  1
  Zr  Zr39  1  0.90157091  0.89924582  0.10306232  1
  Zr  Zr40  1  0.89792146  0.30886920  0.30342603  1
  Zr  Zr41  1  0.49514562  0.50278342  0.70071047  1
  Zr  Zr42  1  0.69446851  0.29212289  0.90076943  1
  Zr  Zr43  1  0.50308729  0.70241931  0.89851913  1
  Zr  Zr44  1  0.50404011  0.10483643  0.89912074  1
  Zr  Zr45  1  0.09835358  0.11239943  0.09219312  1
  Zr  Zr46  1  0.09270015  0.89353387  0.29771261  1
  Zr  Zr47  1  0.70344741  0.49672471  0.90531688  1
  Zr  Zr48  1  0.09682693  0.50432056  0.89952604  1
  Zr  Zr49  1  0.50759891  0.69276467  0.49619291  1
  Sc  Sc50  1  0.89772419  0.09215921  0.50165223  1
  Sc  Sc51  1  0.09234740  0.69634872  0.31091437  1
  Sc  Sc52  1  0.10551897  0.50042191  0.49686582  1
  Sc  Sc53  1  0.49848581  0.30252438  0.29991746  1
  Sc  Sc54  1  0.49456065  0.90508791  0.71204265  1
  Sc  Sc55  1  0.29486518  0.30896605  0.70491715  1
  Sc  Sc56  1  0.30572666  0.90309238  0.70220874  1
  Sc  Sc57  1  0.69008364  0.89833060  0.09385486  1
  Sc  Sc58  1  0.90336886  0.09864207  0.90366038  1
  Sc  Sc59  1  0.29036177  0.69406710  0.50061458  1
  Sc  Sc60  1  0.89693985  0.49574985  0.49806202  1
  Sc  Sc61  1  0.30852134  0.69206590  0.29926919  1
  Sc  Sc62  1  0.11159679  0.29342135  0.89466484  1
  Sc  Sc63  1  0.50074357  0.49231795  0.89616369  1
  Sc  Sc64  1  0.70442792  0.30620818  0.09818698  1
  Sc  Sc65  1  0.89962498  0.10599439  0.09576572  1
  Sc  Sc66  1  0.30204699  0.90532701  0.09725958  1
  Sc  Sc67  1  0.30017077  0.49371386  0.89043866  1
  Sc  Sc68  1  0.50546324  0.29881069  0.70218842  1
  Sc  Sc69  1  0.89651110  0.10075026  0.29436208  1
  Sc  Sc70  1  0.30286898  0.10559369  0.10234112  1
  Sc  Sc71  1  0.10466914  0.49561877  0.70555078  1
  Sc  Sc72  1  0.51120039  0.88579425  0.49723354  1
  Sc  Sc73  1  0.50060934  0.90351686  0.10214629  1
  Sc  Sc74  1  0.09935528  0.49842727  0.29769599  1
  Sc  Sc75  1  0.89955338  0.50770558  0.89755527  1
  Sc  Sc76  1  0.50154035  0.90768243  0.90096124  1
  Sc  Sc77  1  0.09989810  0.30873808  0.29175885  1
  Sc  Sc78  1  0.69627547  0.30008377  0.70295638  1
  Sc  Sc79  1  0.69775816  0.70312516  0.50326333  1
  Sc  Sc80  1  0.30581650  0.30128202  0.49822590  1
  Sc  Sc81  1  0.50391003  0.51025382  0.30181225  1
  Sc  Sc82  1  0.90348487  0.31028785  0.50610310  1
  Sc  Sc83  1  0.28760696  0.50619222  0.10181069  1
  Sc  Sc84  1  0.70145687  0.30712923  0.29387725  1
  Sc  Sc85  1  0.30004368  0.29968532  0.30494524  1
  Sc  Sc86  1  0.69946165  0.50098106  0.69862020  1
  Sc  Sc87  1  0.90023230  0.70613326  0.29843302  1
  Sc  Sc88  1  0.70392727  0.89715934  0.50304943  1
  Sc  Sc89  1  0.69834548  0.49706135  0.29521625  1
  Sc  Sc90  1  0.90592983  0.49511859  0.69805124  1
  Sc  Sc91  1  0.10876695  0.68898587  0.08816574  1
  Sc  Sc92  1  0.89082958  0.89641836  0.49394893  1
  Sc  Sc93  1  0.69959223  0.70014145  0.29543463  1
  Sc  Sc94  1  0.30843434  0.09468913  0.69272246  1
  Sc  Sc95  1  0.30225262  0.11279187  0.89747310  1
  Sc  Sc96  1  0.70180624  0.09816937  0.90425026  1
  Sc  Sc97  1  0.70334907  0.69094805  0.89814634  1
  Sc  Sc98  1  0.89571830  0.29510174  0.10407784  1
  Sc  Sc99  1  0.30618013  0.10369288  0.29465868  1
  Nb  Nb100  1  0.69586343  0.09485500  0.30780653  1
  Nb  Nb101  1  0.50284429  0.09512940  0.30231083  1
  Nb  Nb102  1  0.50514022  0.10133291  0.10211173  1
  Nb  Nb103  1  0.89804765  0.90021674  0.29643889  1
  Nb  Nb104  1  0.09946095  0.30262841  0.09431684  1
  Nb  Nb105  1  0.89845278  0.30021812  0.69749628  1
  Nb  Nb106  1  0.29570219  0.70361219  0.90507176  1
  Nb  Nb107  1  0.30014055  0.50112969  0.69532072  1
  Nb  Nb108  1  0.50171027  0.29678099  0.49499925  1
  Nb  Nb109  1  0.69659205  0.10012319  0.10468983  1
  Nb  Nb110  1  0.70334642  0.09812240  0.49944215  1
  Nb  Nb111  1  0.91315720  0.10165181  0.69667912  1
  Nb  Nb112  1  0.70253883  0.90052659  0.89482961  1
  Nb  Nb113  1  0.70609333  0.89850819  0.70363212  1
  Nb  Nb114  1  0.09746443  0.09893859  0.89573822  1
  Nb  Nb115  1  0.70190576  0.50454290  0.10207171  1
  Nb  Nb116  1  0.29775843  0.69863394  0.09652287  1
  Nb  Nb117  1  0.10251546  0.89374827  0.49729742  1
  Nb  Nb118  1  0.10408588  0.69962310  0.69560935  1
  Nb  Nb119  1  0.08940309  0.09985780  0.70512701  1
  Nb  Nb120  1  0.09971229  0.70809567  0.50581518  1
  Nb  Nb121  1  0.69828849  0.91056064  0.31129681  1
  Nb  Nb122  1  0.50510538  0.09608649  0.70159230  1
  Nb  Nb123  1  0.89109851  0.89705828  0.70289014  1
  Nb  Nb124  1  0.50187622  0.90097531  0.30516725  1
  Nb  Nb125  1  0.19143193  0.00346547  0.80162453  1
  Nb  Nb126  1  0.59911811  0.19006098  0.20417010  1
  Nb  Nb127  1  0.19557889  0.00629946  -0.00763982  1
  Nb  Nb128  1  0.20192632  0.79559978  0.19602171  1
  Nb  Nb129  1  0.80243461  0.19721597  0.60156313  1
  Nb  Nb130  1  0.79714701  0.80081233  -0.00356374  1
  Nb  Nb131  1  0.00130787  0.79919217  0.59846779  1
  Nb  Nb132  1  0.00790023  0.60814829  0.59963445  1
  Nb  Nb133  1  0.79664517  0.19817433  0.40451915  1
  Nb  Nb134  1  0.39898069  0.40270360  0.19472573  1
  Nb  Nb135  1  0.60826619  0.80480600  0.80006466  1
  Nb  Nb136  1  0.00241766  0.39622393  0.00257777  1
  Nb  Nb137  1  0.60229160  0.19681817  0.40014324  1
  Nb  Nb138  1  0.00460563  -0.00245840  0.39782236  1
  Nb  Nb139  1  0.40416831  -0.00393770  0.39844305  1
  Nb  Nb140  1  0.79020433  -0.00152334  0.20408577  1
  Nb  Nb141  1  0.00283603  0.19357928  0.40127057  1
  Nb  Nb142  1  0.18984090  0.19140140  0.40129419  1
  Nb  Nb143  1  0.19645728  0.80206527  0.80142484  1
  Nb  Nb144  1  0.80180085  0.39405062  0.80127593  1
  Nb  Nb145  1  0.39580789  0.60559042  -0.00025955  1
  Nb  Nb146  1  0.40186063  0.79415443  0.60146495  1
  Nb  Nb147  1  0.39783459  0.79346850  0.00009124  1
  Nb  Nb148  1  0.60339372  0.00358638  0.60621652  1
  Nb  Nb149  1  0.19761558  0.00065983  0.40132278  1
  Pd  Pd150  1  0.79738939  -0.00331022  0.00801570  1
  Pd  Pd151  1  0.01117596  0.78496893  0.18997686  1
  Pd  Pd152  1  0.60569909  0.80871428  0.20710047  1
  Pd  Pd153  1  0.40343338  0.40406801  0.39090935  1
  Pd  Pd154  1  0.80939002  0.00768761  0.80018866  1
  Pd  Pd155  1  0.40143082  0.00063747  0.20218767  1
  Pd  Pd156  1  0.79564566  0.60169605  0.39410911  1
  Pd  Pd157  1  0.20339113  0.19402868  0.78912738  1
  Pd  Pd158  1  0.39715243  0.59810184  0.80804773  1
  Pd  Pd159  1  0.39649278  0.80180561  0.19233594  1
  Pd  Pd160  1  0.80742895  0.59532971  0.60068730  1
  Pd  Pd161  1  0.59633456  0.40300608  0.60442064  1
  Pd  Pd162  1  0.60776567  0.19753621  0.59841468  1
  Pd  Pd163  1  -0.01321787  -0.01467075  0.59392181  1
  Pd  Pd164  1  0.60501924  0.60105556  0.80017024  1
  Pd  Pd165  1  0.39586710  0.00476474  -0.00174956  1
  Pd  Pd166  1  0.79069345  0.19578721  0.20583345  1
  Pd  Pd167  1  0.79941616  0.00202297  0.60435960  1
  Pd  Pd168  1  0.20670390  0.20013130  0.60507916  1
  Pd  Pd169  1  0.39709334  0.21264915  0.60969756  1
  Pd  Pd170  1  0.40485534  0.39174707  0.60287074  1
  Pd  Pd171  1  0.20482040  0.79649124  0.38986512  1
  Pd  Pd172  1  0.19720907  0.40117982  0.60312181  1
  Pd  Pd173  1  0.60387793  0.39921600  0.00119140  1
  Pd  Pd174  1  -0.00189826  0.20678709  0.20487945  1
  Pd  Pd175  1  0.79483669  0.79637779  0.39627556  1
  Pd  Pd176  1  0.00471404  0.40146756  0.40232697  1
  Pd  Pd177  1  -0.00475151  0.39405001  0.80942196  1
  Pd  Pd178  1  0.41433461  -0.01282645  0.59075787  1
  Pd  Pd179  1  -0.00527417  0.59400894  0.00800668  1
  Pd  Pd180  1  -0.00619727  0.20470808  0.80844874  1
  Pd  Pd181  1  0.59232820  0.00251943  0.41588978  1
  Pd  Pd182  1  0.59903738  0.39580306  0.39248006  1
  Pd  Pd183  1  0.00519885  0.80246181  0.79043968  1
  Pd  Pd184  1  0.20257168  0.81164197  0.00046282  1
  Pd  Pd185  1  0.19591629  0.40354350  -0.00805233  1
  Pd  Pd186  1  0.00442531  0.60644309  0.19723371  1
  Pd  Pd187  1  0.60079459  0.00178642  -0.00256078  1
  Pd  Pd188  1  0.19565542  0.60170401  0.39943477  1
  Pd  Pd189  1  0.40672578  0.20637129  0.20237474  1
  Pd  Pd190  1  0.39945364  0.59350520  0.19415676  1
  Pd  Pd191  1  0.39469729  0.80086679  0.41051055  1
  Pd  Pd192  1  -0.00649427  0.79003840  0.01099628  1
  Pd  Pd193  1  0.40218506  0.20075211  0.79021567  1
  Pd  Pd194  1  0.80713794  0.19914198  0.79612334  1
  Pd  Pd195  1  0.20075264  0.20793767  0.20412362  1
  Pd  Pd196  1  0.20251923  0.60074578  0.80118334  1
  Pd  Pd197  1  0.78633705  0.80987164  0.19656496  1
  Pd  Pd198  1  0.39752311  0.60440716  0.59261217  1
  Pd  Pd199  1  0.60179100  -0.00357050  0.20068885  1
  Rh  Rh200  1  0.20150175  0.19715729  -0.00349748  1
  Rh  Rh201  1  0.79428034  0.59723574  0.20598028  1
  Rh  Rh202  1  0.79886016  0.39712559  0.60988391  1
  Rh  Rh203  1  0.59414671  0.81443137  0.61562477  1
  Rh  Rh204  1  -0.01622963  0.00523536  0.19999362  1
  Rh  Rh205  1  0.60312336  0.19832423  0.00769232  1
  Rh  Rh206  1  -0.01082790  0.20258365  0.59268061  1
  Rh  Rh207  1  0.00200363  0.00820828  0.00406833  1
  Rh  Rh208  1  0.60938890  0.79836550  0.39417663  1
  Rh  Rh209  1  0.79347704  0.79671010  0.80793702  1
  Rh  Rh210  1  0.59485641  0.59226159  -0.00634791  1
  Rh  Rh211  1  0.40138133  0.79259028  0.79972794  1
  Rh  Rh212  1  0.80034868  0.60419060  -0.00003221  1
  Rh  Rh213  1  0.39607421  0.01431866  0.80627262  1
  Rh  Rh214  1  0.59444074  0.39548380  0.19694153  1
  Rh  Rh215  1  0.80303926  0.40187212  -0.00224891  1
  Rh  Rh216  1  0.39508516  0.41616049  0.00993492  1
  Rh  Rh217  1  0.40225291  0.19474512  0.39551981  1
  Rh  Rh218  1  -0.00423471  -0.00149473  0.79735163  1
  Rh  Rh219  1  0.59966664  0.80627310  -0.01275827  1
  Rh  Rh220  1  0.20190553  0.00282634  0.60607156  1
  Rh  Rh221  1  0.59633487  0.19882422  0.80154524  1
  Rh  Rh222  1  0.39847815  0.59650419  0.40401332  1
  Rh  Rh223  1  0.20799610  0.39349979  0.20130893  1
  Rh  Rh224  1  0.79301194  0.19469890  0.00477395  1
  Rh  Rh225  1  0.21060135  -0.00501922  0.19510259  1
  Rh  Rh226  1  0.40230945  0.19339201  0.00128713  1
  Rh  Rh227  1  0.60329945  0.59180510  0.59740307  1
  Rh  Rh228  1  0.80950825  0.00386991  0.39180193  1
  Rh  Rh229  1  0.19416892  0.61208548  0.20896554  1
  Rh  Rh230  1  0.79870231  0.40010395  0.39797877  1
  Rh  Rh231  1  0.60609918  0.39992063  0.80007550  1
  Rh  Rh232  1  0.19812274  0.39067495  0.39937698  1
  Rh  Rh233  1  -0.00559794  0.39549191  0.19237034  1
  Rh  Rh234  1  0.00541684  0.40896630  0.60051444  1
  Rh  Rh235  1  0.40089609  0.40097391  0.79112297  1
  Rh  Rh236  1  0.79971848  0.40446197  0.20051559  1
  Rh  Rh237  1  0.00257167  0.59539030  0.40906148  1
  Rh  Rh238  1  0.19678514  0.59164079  0.59952530  1
  Rh  Rh239  1  0.00309322  0.20843055  -0.00576872  1
  Rh  Rh240  1  0.60284460  0.60112150  0.20462928  1
  Rh  Rh241  1  0.20655455  0.59080936  -0.00953941  1
  Rh  Rh242  1  -0.00595092  0.80649121  0.40578593  1
  Rh  Rh243  1  0.60251777  -0.00389989  0.79758321  1
  Rh  Rh244  1  0.20378503  0.80064333  0.61106791  1
  Rh  Rh245  1  0.80694779  0.80069407  0.59776398  1
  Rh  Rh246  1  0.19897237  0.39935917  0.79820604  1
  Rh  Rh247  1  0.00009796  0.59983127  0.78828893  1
  Rh  Rh248  1  0.60643086  0.60262098  0.39742310  1
  Rh  Rh249  1  0.80126041  0.58893372  0.79496557  1
