# generated using pymatgen
data_ZrScNbPdRh
_symmetry_space_group_name_H-M   'P 1'
_cell_length_a   16.55855037
_cell_length_b   16.56073131
_cell_length_c   16.55380564
_cell_angle_alpha   89.98331452
_cell_angle_beta   89.99206595
_cell_angle_gamma   89.98918315
_symmetry_Int_Tables_number   1
_chemical_formula_structural   ZrScNbPdRh
_chemical_formula_sum   'Zr50 Sc50 Nb50 Pd50 Rh50'
_cell_volume   4539.41246629
_cell_formula_units_Z   50
loop_
 _symmetry_equiv_pos_site_id
 _symmetry_equiv_pos_as_xyz
  1  'x, y, z'
loop_
 _atom_site_type_symbol
 _atom_site_label
 _atom_site_symmetry_multiplicity
 _atom_site_fract_x
 _atom_site_fract_y
 _atom_site_fract_z
 _atom_site_occupancy
  Zr  Zr0  1  0.50308054  0.90092479  0.30142670  1
  Zr  Zr1  1  0.49997900  0.10368773  0.89367960  1
  Zr  Zr2  1  0.90204565  0.89761025  0.09459546  1
  Zr  Zr3  1  0.10531499  0.89856270  0.69292920  1
  Zr  Zr4  1  0.49495371  0.30067515  0.90439188  1
  Zr  Zr5  1  0.90732400  0.50360112  0.29457749  1
  Zr  Zr6  1  0.29091444  0.70408357  0.10908897  1
  Zr  Zr7  1  0.30187275  0.09788841  0.69057501  1
  Zr  Zr8  1  0.69460448  0.89570231  0.30983664  1
  Zr  Zr9  1  0.90012844  0.29305201  0.70668652  1
  Zr  Zr10  1  0.28829773  0.90699049  0.51321186  1
  Zr  Zr11  1  0.70858268  0.10758393  0.10380011  1
  Zr  Zr12  1  0.49539582  0.49532355  0.30644630  1
  Zr  Zr13  1  0.90425061  0.90243369  0.90127263  1
  Zr  Zr14  1  0.29638719  0.49398071  0.90214072  1
  Zr  Zr15  1  0.90582903  0.10312108  0.10100969  1
  Zr  Zr16  1  0.89827027  0.89252754  0.30244594  1
  Zr  Zr17  1  0.49188022  0.49419417  0.69122104  1
  Zr  Zr18  1  0.70353296  0.90015857  0.69759026  1
  Zr  Zr19  1  0.29901766  0.89902955  0.28960308  1
  Zr  Zr20  1  0.88862477  0.70406265  0.90504713  1
  Zr  Zr21  1  0.49286989  0.11059776  0.10378929  1
  Zr  Zr22  1  0.10005363  0.70255002  0.90508150  1
  Zr  Zr23  1  0.49826035  0.70140276  0.09471350  1
  Zr  Zr24  1  0.51450890  0.90257050  0.49777229  1
  Zr  Zr25  1  0.70335437  0.29760619  0.29517218  1
  Zr  Zr26  1  0.50140657  0.10026913  0.30113444  1
  Zr  Zr27  1  0.70128377  0.29504660  0.70068843  1
  Zr  Zr28  1  0.70830022  0.10256744  0.30055497  1
  Zr  Zr29  1  0.29183589  0.50877286  0.30613428  1
  Zr  Zr30  1  0.50120461  0.90019166  0.10217092  1
  Zr  Zr31  1  0.29750148  0.68952277  0.91636555  1
  Zr  Zr32  1  0.70200222  0.30088055  0.90400411  1
  Zr  Zr33  1  0.89831796  0.29879265  0.90238138  1
  Zr  Zr34  1  0.50896960  0.70092527  0.70320143  1
  Zr  Zr35  1  0.09169786  0.10785027  0.70343118  1
  Zr  Zr36  1  0.50016673  0.30083354  0.29060868  1
  Zr  Zr37  1  0.70564517  0.50384745  0.70194926  1
  Zr  Zr38  1  0.49973301  0.29323642  0.69700987  1
  Zr  Zr39  1  0.50257506  0.29925969  0.50173899  1
  Zr  Zr40  1  0.28803118  0.10270771  0.09691760  1
  Zr  Zr41  1  0.89313729  0.69292915  0.10491006  1
  Zr  Zr42  1  0.30435238  0.51634750  0.50460720  1
  Zr  Zr43  1  0.28170543  0.90290525  0.90107517  1
  Zr  Zr44  1  0.09621103  0.69482610  0.70035521  1
  Zr  Zr45  1  0.10332219  0.49986491  0.90027379  1
  Zr  Zr46  1  0.11016043  0.49722366  0.70013478  1
  Zr  Zr47  1  0.29806136  0.10267576  0.90100220  1
  Zr  Zr48  1  0.70717662  0.70220737  0.29489244  1
  Zr  Zr49  1  0.29911798  0.90147023  0.70309122  1
  Sc  Sc50  1  0.10415889  0.68473855  0.29470187  1
  Sc  Sc51  1  0.89603800  0.30004115  0.09751570  1
  Sc  Sc52  1  0.90063383  0.49424128  0.49631309  1
  Sc  Sc53  1  0.90635444  0.09904931  0.50636492  1
  Sc  Sc54  1  0.10250036  0.89841812  0.08876306  1
  Sc  Sc55  1  0.30275533  0.30802717  0.29646461  1
  Sc  Sc56  1  0.89775279  0.49669002  0.70622142  1
  Sc  Sc57  1  0.69842741  0.48880248  0.30208401  1
  Sc  Sc58  1  0.70644324  0.49276632  0.09684350  1
  Sc  Sc59  1  0.29004782  0.69196528  0.68403894  1
  Sc  Sc60  1  0.89119961  0.69723464  0.70270286  1
  Sc  Sc61  1  0.70295451  0.90013266  0.09245036  1
  Sc  Sc62  1  0.10807885  0.31491963  0.29905221  1
  Sc  Sc63  1  0.50299704  0.10235968  0.69891416  1
  Sc  Sc64  1  0.69938401  0.70509207  0.50458501  1
  Sc  Sc65  1  0.29342945  0.29898693  0.90634795  1
  Sc  Sc66  1  0.89415317  0.49460943  0.89717242  1
  Sc  Sc67  1  0.89939284  0.30354531  0.50277295  1
  Sc  Sc68  1  0.50023304  0.49550209  0.49305936  1
  Sc  Sc69  1  0.50545417  0.70643132  0.30271145  1
  Sc  Sc70  1  0.10295489  0.30067739  0.09685123  1
  Sc  Sc71  1  0.09712866  0.49522833  0.11112545  1
  Sc  Sc72  1  0.69988085  0.09660472  0.70055478  1
  Sc  Sc73  1  0.89510325  0.49779037  0.10338281  1
  Sc  Sc74  1  0.10392954  0.30440782  0.69375773  1
  Sc  Sc75  1  0.70334004  0.89623685  0.89820152  1
  Sc  Sc76  1  0.70931509  0.70043110  0.09536289  1
  Sc  Sc77  1  0.08438879  0.90961629  0.30241027  1
  Sc  Sc78  1  0.70174180  0.89864675  0.50930219  1
  Sc  Sc79  1  0.49832509  0.68999649  0.49742005  1
  Sc  Sc80  1  0.90897727  0.10162071  0.89723184  1
  Sc  Sc81  1  0.90690093  0.09690645  0.28983910  1
  Sc  Sc82  1  0.70533748  0.49831274  0.90005455  1
  Sc  Sc83  1  0.69751955  0.09718391  0.89907983  1
  Sc  Sc84  1  0.28680121  0.29107107  0.50679354  1
  Sc  Sc85  1  0.89782362  0.09648646  0.70265661  1
  Sc  Sc86  1  0.51512901  0.90060707  0.89996165  1
  Sc  Sc87  1  0.70416761  0.70572010  0.70622444  1
  Sc  Sc88  1  0.29592095  0.30657062  0.69871336  1
  Sc  Sc89  1  0.90541559  0.70675862  0.49694911  1
  Sc  Sc90  1  0.49507095  0.49706858  0.90295619  1
  Sc  Sc91  1  0.50930266  0.90311742  0.70154852  1
  Sc  Sc92  1  0.70828921  0.30685234  0.49489890  1
  Sc  Sc93  1  0.10380982  0.70348174  0.50439239  1
  Sc  Sc94  1  0.10250758  0.30208139  0.89847542  1
  Sc  Sc95  1  0.49698553  0.48704420  0.09307287  1
  Sc  Sc96  1  0.10138161  0.69822236  0.10062044  1
  Sc  Sc97  1  0.29148781  0.10351565  0.28824569  1
  Sc  Sc98  1  0.70084058  0.08980727  0.50580578  1
  Sc  Sc99  1  0.10355884  0.09964670  0.90483998  1
  Nb  Nb100  1  0.09337420  0.90546968  0.49771964  1
  Nb  Nb101  1  0.29506014  0.69860860  0.30544556  1
  Nb  Nb102  1  0.30055148  0.70169738  0.49401468  1
  Nb  Nb103  1  0.10030846  0.50188354  0.30506164  1
  Nb  Nb104  1  0.29988830  0.50186520  0.69829588  1
  Nb  Nb105  1  0.69805988  0.30114912  0.10030638  1
  Nb  Nb106  1  0.91636799  0.90362897  0.49538403  1
  Nb  Nb107  1  0.10616460  0.10743053  0.49684727  1
  Nb  Nb108  1  0.90234046  0.90289324  0.69963328  1
  Nb  Nb109  1  0.49948678  0.29813851  0.10063716  1
  Nb  Nb110  1  0.30105454  0.50772406  0.08820942  1
  Nb  Nb111  1  0.30117336  0.90156597  0.09760159  1
  Nb  Nb112  1  0.88998426  0.30053118  0.30808617  1
  Nb  Nb113  1  0.30912940  0.29754360  0.09464830  1
  Nb  Nb114  1  0.70113799  0.50198612  0.49702273  1
  Nb  Nb115  1  0.69425686  0.69990715  0.89666559  1
  Nb  Nb116  1  0.09870934  0.49221948  0.49378967  1
  Nb  Nb117  1  0.49718234  0.10046212  0.49921953  1
  Nb  Nb118  1  0.09734482  0.10344398  0.11472160  1
  Nb  Nb119  1  0.10015647  0.29942215  0.50092873  1
  Nb  Nb120  1  0.09581277  0.89598549  0.89664032  1
  Nb  Nb121  1  0.09441746  0.10353582  0.29500259  1
  Nb  Nb122  1  0.50149638  0.70195412  0.89808989  1
  Nb  Nb123  1  0.89675172  0.69661770  0.29400753  1
  Nb  Nb124  1  0.29827815  0.10089666  0.50105558  1
  Nb  Nb125  1  0.39642870  0.79381894  0.80301303  1
  Nb  Nb126  1  0.00326766  0.59276868  0.59981040  1
  Nb  Nb127  1  -0.00395372  0.59956764  -0.00119851  1
  Nb  Nb128  1  0.60239306  0.00362145  0.20068145  1
  Nb  Nb129  1  0.39918252  0.79964547  0.59905364  1
  Nb  Nb130  1  0.19426527  0.00493328  0.40180966  1
  Nb  Nb131  1  0.81020234  -0.00713031  0.40411690  1
  Nb  Nb132  1  0.59587802  0.59668719  0.19452266  1
  Nb  Nb133  1  0.59705583  0.19801110  0.40043988  1
  Nb  Nb134  1  0.39103779  0.80451460  0.40491406  1
  Nb  Nb135  1  0.39692811  0.80547591  -0.00362230  1
  Nb  Nb136  1  -0.00691976  0.79424833  0.20037966  1
  Nb  Nb137  1  0.59814495  0.39611396  0.79594457  1
  Nb  Nb138  1  -0.00037146  0.80552629  0.80118961  1
  Nb  Nb139  1  0.60007678  0.60291970  -0.00281670  1
  Nb  Nb140  1  0.00822405  0.20399537  0.39842717  1
  Nb  Nb141  1  0.39718227  0.60259151  0.79832356  1
  Nb  Nb142  1  0.60441290  0.59318918  0.60112682  1
  Nb  Nb143  1  0.39959947  0.19354587  0.40377632  1
  Nb  Nb144  1  0.39039418  0.00168140  0.40445292  1
  Nb  Nb145  1  0.39915560  0.59992100  0.20049227  1
  Nb  Nb146  1  0.59894432  0.20698743  0.00737446  1
  Nb  Nb147  1  0.80225352  0.60047453  0.39674777  1
  Nb  Nb148  1  0.39555221  -0.00393878  0.00175642  1
  Nb  Nb149  1  0.20088038  0.80630629  0.39973842  1
  Pd  Pd150  1  0.60819154  0.19537327  0.59125930  1
  Pd  Pd151  1  0.79928933  0.18975367  0.80515563  1
  Pd  Pd152  1  -0.00235839  0.21710100  0.20900549  1
  Pd  Pd153  1  0.38917572  0.39341836  0.58976729  1
  Pd  Pd154  1  -0.00037065  0.60546607  0.40702854  1
  Pd  Pd155  1  0.40497360  -0.01041766  0.80913001  1
  Pd  Pd156  1  0.80306761  0.00645545  -0.00618547  1
  Pd  Pd157  1  0.40136167  0.00605466  0.19866775  1
  Pd  Pd158  1  0.20832004  0.40261378  0.40900465  1
  Pd  Pd159  1  0.61013899  0.79937385  0.19096196  1
  Pd  Pd160  1  0.79992775  0.00129859  0.80332494  1
  Pd  Pd161  1  0.20027548  0.19915227  0.38978252  1
  Pd  Pd162  1  0.59538763  0.58767120  0.80141857  1
  Pd  Pd163  1  0.79875142  0.19631478  0.59474149  1
  Pd  Pd164  1  -0.01003385  0.60465631  0.80197213  1
  Pd  Pd165  1  0.79610094  -0.00991846  0.20537196  1
  Pd  Pd166  1  0.19994430  0.21386172  0.20051159  1
  Pd  Pd167  1  0.40025902  0.79158132  0.20295345  1
  Pd  Pd168  1  0.41044586  -0.00548080  0.59792683  1
  Pd  Pd169  1  0.81157345  0.80440637  0.59637590  1
  Pd  Pd170  1  -0.00176890  0.40708988  0.00127326  1
  Pd  Pd171  1  0.39078096  0.40926330  0.19247138  1
  Pd  Pd172  1  -0.00228571  0.39115750  0.39540777  1
  Pd  Pd173  1  0.00313442  0.00557935  0.60290814  1
  Pd  Pd174  1  0.60788120  0.40458452  0.60023115  1
  Pd  Pd175  1  0.00386009  0.39535602  0.79809223  1
  Pd  Pd176  1  0.20943784  0.40446525  0.19094281  1
  Pd  Pd177  1  0.80696215  0.18885735  0.40767298  1
  Pd  Pd178  1  0.59550223  0.01251628  0.00805962  1
  Pd  Pd179  1  0.80380815  0.60069680  0.59002795  1
  Pd  Pd180  1  -0.00248833  0.40330421  0.60579898  1
  Pd  Pd181  1  -0.00462323  0.39286018  0.20293021  1
  Pd  Pd182  1  0.18261884  0.80803441  0.20778181  1
  Pd  Pd183  1  0.20173640  0.78840243  0.79798505  1
  Pd  Pd184  1  0.00828209  0.00688650  0.00371304  1
  Pd  Pd185  1  0.01306172  0.78693822  0.38917371  1
  Pd  Pd186  1  0.18813896  -0.00789867  0.20000765  1
  Pd  Pd187  1  -0.00123930  0.20491279  0.59499194  1
  Pd  Pd188  1  0.20292933  0.20365039  0.79583744  1
  Pd  Pd189  1  0.80022614  0.79938430  0.41012069  1
  Pd  Pd190  1  0.20856468  0.60384340  0.80027717  1
  Pd  Pd191  1  -0.00590586  0.79382960  0.60819696  1
  Pd  Pd192  1  0.60871321  0.60240693  0.39788952  1
  Pd  Pd193  1  0.60150787  0.40653081  0.19493088  1
  Pd  Pd194  1  0.39086217  0.20501655  0.79524355  1
  Pd  Pd195  1  0.00791689  0.19975378  -0.00088791  1
  Pd  Pd196  1  0.80351784  0.40019511  0.60288610  1
  Pd  Pd197  1  0.38897102  0.39018870  0.41103616  1
  Pd  Pd198  1  0.39915997  0.40138287  0.80181668  1
  Pd  Pd199  1  0.19087916  0.00782653  0.79605404  1
  Rh  Rh200  1  0.80278386  0.80644055  0.19416501  1
  Rh  Rh201  1  0.19478593  0.00445696  0.00431518  1
  Rh  Rh202  1  0.81043023  -0.00862469  0.59468709  1
  Rh  Rh203  1  0.20005570  0.79843758  0.59548025  1
  Rh  Rh204  1  0.00496023  -0.00665452  0.79777117  1
  Rh  Rh205  1  0.00343593  0.60220049  0.19329420  1
  Rh  Rh206  1  0.60571623  -0.00032946  0.79524324  1
  Rh  Rh207  1  0.80403898  0.39556913  0.20218033  1
  Rh  Rh208  1  0.19337277  0.20123103  0.00576378  1
  Rh  Rh209  1  0.80481446  0.80606802  0.79979713  1
  Rh  Rh210  1  0.59401863  0.79049410  0.59691723  1
  Rh  Rh211  1  0.78762883  0.58753671  0.20936531  1
  Rh  Rh212  1  0.60208087  0.79263214  -0.00144757  1
  Rh  Rh213  1  -0.00024260  0.79128022  0.00133999  1
  Rh  Rh214  1  0.79758089  0.19796805  -0.00178161  1
  Rh  Rh215  1  0.18704069  0.01185386  0.60108998  1
  Rh  Rh216  1  0.79355513  0.80125735  -0.00260081  1
  Rh  Rh217  1  0.20154229  0.39984016  0.00695306  1
  Rh  Rh218  1  0.20461024  0.58993248  0.19562075  1
  Rh  Rh219  1  0.38945064  0.20461613  0.20487004  1
  Rh  Rh220  1  0.60222363  0.20578834  0.80730017  1
  Rh  Rh221  1  0.40905743  0.60164161  0.00066065  1
  Rh  Rh222  1  0.79487940  0.39504012  0.79692042  1
  Rh  Rh223  1  0.59816920  0.00530537  0.60543568  1
  Rh  Rh224  1  0.39423448  0.39595002  0.00188011  1
  Rh  Rh225  1  0.00232718  -0.00887879  0.18930135  1
  Rh  Rh226  1  0.20384059  0.40790988  0.59207726  1
  Rh  Rh227  1  0.60459267  0.19723915  0.19922075  1
  Rh  Rh228  1  0.60346863  0.38947285  0.40143614  1
  Rh  Rh229  1  0.79735178  0.59591978  -0.00582844  1
  Rh  Rh230  1  0.60231508  0.39846915  -0.00513407  1
  Rh  Rh231  1  0.40131476  0.19652138  -0.00205425  1
  Rh  Rh232  1  0.18342463  0.59022801  0.01017347  1
  Rh  Rh233  1  0.60298691  0.80566376  0.80017203  1
  Rh  Rh234  1  0.20217083  0.80182651  0.00343986  1
  Rh  Rh235  1  0.60991850  0.00915006  0.39646825  1
  Rh  Rh236  1  0.59808266  0.79154953  0.40822327  1
  Rh  Rh237  1  0.40524725  0.60822320  0.38888939  1
  Rh  Rh238  1  0.19663284  0.19684346  0.60828447  1
  Rh  Rh239  1  0.81082171  0.20762838  0.19723601  1
  Rh  Rh240  1  0.80327110  0.40952688  0.39672318  1
  Rh  Rh241  1  0.20212674  0.39764532  0.80035966  1
  Rh  Rh242  1  0.39612886  0.20173271  0.59853716  1
  Rh  Rh243  1  -0.00054197  0.01594224  0.40112284  1
  Rh  Rh244  1  0.00306027  0.20606962  0.80443623  1
  Rh  Rh245  1  0.40860209  0.60844242  0.60729529  1
  Rh  Rh246  1  0.18910156  0.59257796  0.59046983  1
  Rh  Rh247  1  0.80072261  0.60157736  0.80622621  1
  Rh  Rh248  1  0.80374122  0.39804304  0.00268549  1
  Rh  Rh249  1  0.18882617  0.60261689  0.40793631  1
