# generated using pymatgen
data_ZrScNbPdRh
_symmetry_space_group_name_H-M   'P 1'
_cell_length_a   16.55946992
_cell_length_b   16.56089317
_cell_length_c   16.56466428
_cell_angle_alpha   90.02967368
_cell_angle_beta   90.01054983
_cell_angle_gamma   89.98937688
_symmetry_Int_Tables_number   1
_chemical_formula_structural   ZrScNbPdRh
_chemical_formula_sum   'Zr50 Sc50 Nb50 Pd50 Rh50'
_cell_volume   4542.68634337
_cell_formula_units_Z   50
loop_
 _symmetry_equiv_pos_site_id
 _symmetry_equiv_pos_as_xyz
  1  'x, y, z'
loop_
 _atom_site_type_symbol
 _atom_site_label
 _atom_site_symmetry_multiplicity
 _atom_site_fract_x
 _atom_site_fract_y
 _atom_site_fract_z
 _atom_site_occupancy
  Zr  Zr0  1  0.10538359  0.09834109  0.90350580  1
  Zr  Zr1  1  0.69654658  0.90070603  0.10134513  1
  Zr  Zr2  1  0.90667273  0.08920775  0.88652222  1
  Zr  Zr3  1  0.31172287  0.09934155  0.49466761  1
  Zr  Zr4  1  0.49758393  0.28758957  0.50123654  1
  Zr  Zr5  1  0.29396614  0.69234450  0.09500103  1
  Zr  Zr6  1  0.30823426  0.50966713  0.69457427  1
  Zr  Zr7  1  0.50284636  0.50402155  0.69523541  1
  Zr  Zr8  1  0.09292086  0.50874997  0.70172118  1
  Zr  Zr9  1  0.89285127  0.50017488  0.29398246  1
  Zr  Zr10  1  0.90121801  0.49533500  0.09760921  1
  Zr  Zr11  1  0.50900597  0.10691587  0.11360714  1
  Zr  Zr12  1  0.29831257  0.10287149  0.90398012  1
  Zr  Zr13  1  0.09648353  0.89779503  0.49636369  1
  Zr  Zr14  1  0.29930332  0.10482610  0.09851844  1
  Zr  Zr15  1  0.30649622  0.30063395  0.69640870  1
  Zr  Zr16  1  0.89322397  0.69711884  0.70228232  1
  Zr  Zr17  1  0.89651066  0.90012620  0.70899915  1
  Zr  Zr18  1  0.49229493  0.89567756  0.69919007  1
  Zr  Zr19  1  0.49445187  0.50456670  0.29940596  1
  Zr  Zr20  1  0.90021778  0.69811122  0.10265022  1
  Zr  Zr21  1  0.30058525  0.49994504  0.49042817  1
  Zr  Zr22  1  0.30190945  0.90625426  0.89838524  1
  Zr  Zr23  1  0.10376117  0.10487202  0.10720878  1
  Zr  Zr24  1  0.90261788  0.50595116  0.49015040  1
  Zr  Zr25  1  0.50346687  0.90032703  0.90400600  1
  Zr  Zr26  1  0.10578758  0.69607101  0.69753058  1
  Zr  Zr27  1  0.49464249  0.49747248  0.49932673  1
  Zr  Zr28  1  0.09151525  0.29502006  0.29175027  1
  Zr  Zr29  1  0.89981967  0.69427651  0.29949787  1
  Zr  Zr30  1  0.10354958  0.68997915  0.89948181  1
  Zr  Zr31  1  0.69765809  0.49437798  0.69327505  1
  Zr  Zr32  1  0.50365965  0.30569465  0.69397566  1
  Zr  Zr33  1  0.50020437  0.10237240  0.68888713  1
  Zr  Zr34  1  0.49264396  0.09732255  0.30349204  1
  Zr  Zr35  1  0.69643792  0.09722524  0.10033298  1
  Zr  Zr36  1  0.10065463  0.90520285  0.29562671  1
  Zr  Zr37  1  0.51014424  0.90320968  0.10197101  1
  Zr  Zr38  1  0.29801007  0.09987366  0.29757103  1
  Zr  Zr39  1  0.11206498  0.90081598  0.69509893  1
  Zr  Zr40  1  0.70614529  0.68837078  0.90116880  1
  Zr  Zr41  1  0.50002987  0.89636650  0.29256517  1
  Zr  Zr42  1  0.69762738  0.69208763  0.69382937  1
  Zr  Zr43  1  0.10171502  0.09885079  0.29645354  1
  Zr  Zr44  1  0.70826621  0.49982246  0.49793594  1
  Zr  Zr45  1  0.29786525  0.08901194  0.70114345  1
  Zr  Zr46  1  0.90119500  0.88880873  0.09502534  1
  Zr  Zr47  1  0.30060970  0.90372714  0.30150570  1
  Zr  Zr48  1  0.09411852  0.90390699  0.90366616  1
  Zr  Zr49  1  0.49790111  0.70650657  0.11238651  1
  Sc  Sc50  1  0.50406365  0.70011075  0.50858056  1
  Sc  Sc51  1  0.09135472  0.50269778  0.30571263  1
  Sc  Sc52  1  0.08945508  0.30048723  0.69733892  1
  Sc  Sc53  1  0.29968752  0.89204453  0.10555802  1
  Sc  Sc54  1  0.29741663  0.69402023  0.29201802  1
  Sc  Sc55  1  0.09634485  0.89690418  0.10456170  1
  Sc  Sc56  1  0.70235059  0.29686919  0.90770603  1
  Sc  Sc57  1  0.49764196  0.09728624  0.90104796  1
  Sc  Sc58  1  0.09797025  0.10272018  0.48756756  1
  Sc  Sc59  1  0.90210509  0.89908134  0.30749788  1
  Sc  Sc60  1  0.70644445  0.51357455  0.09704119  1
  Sc  Sc61  1  0.89332681  0.50317267  0.68611456  1
  Sc  Sc62  1  0.89713770  0.28926661  0.69568133  1
  Sc  Sc63  1  0.70359679  0.89235801  0.30321294  1
  Sc  Sc64  1  0.70345659  0.70686152  0.49714050  1
  Sc  Sc65  1  0.30058751  0.69487721  0.50634435  1
  Sc  Sc66  1  0.70725363  0.28407325  0.10025549  1
  Sc  Sc67  1  0.70441116  0.70108445  0.29629098  1
  Sc  Sc68  1  0.89551966  0.10368794  0.48893378  1
  Sc  Sc69  1  0.48957991  0.50811875  0.10242466  1
  Sc  Sc70  1  0.89591093  0.30003442  0.91211524  1
  Sc  Sc71  1  0.70641151  0.09958683  0.90457575  1
  Sc  Sc72  1  0.90161188  0.10263430  0.30049481  1
  Sc  Sc73  1  0.30136781  0.90019193  0.51573317  1
  Sc  Sc74  1  0.30918489  0.30185657  0.09491016  1
  Sc  Sc75  1  0.70335886  0.10559285  0.49336187  1
  Sc  Sc76  1  0.30349683  0.30148093  0.90922660  1
  Sc  Sc77  1  0.69482731  0.89925198  0.70225872  1
  Sc  Sc78  1  0.70228645  0.10746004  0.29784229  1
  Sc  Sc79  1  0.50029330  0.29417343  0.30022457  1
  Sc  Sc80  1  0.89656283  0.30174573  0.49899122  1
  Sc  Sc81  1  0.09139260  0.09965518  0.70690315  1
  Sc  Sc82  1  0.09834266  0.70437990  0.10296795  1
  Sc  Sc83  1  0.09223947  0.30517500  0.49263852  1
  Sc  Sc84  1  0.09433761  0.69843237  0.29370144  1
  Sc  Sc85  1  0.89974321  0.30394883  0.10406086  1
  Sc  Sc86  1  0.70394801  0.30166670  0.49524338  1
  Sc  Sc87  1  0.70197115  0.70518160  0.10399935  1
  Sc  Sc88  1  0.09526636  0.49690570  0.09446085  1
  Sc  Sc89  1  0.30709165  0.30571064  0.49599687  1
  Sc  Sc90  1  0.49551362  0.30108162  0.90465349  1
  Sc  Sc91  1  0.30392221  0.50270392  0.30323646  1
  Sc  Sc92  1  0.48680232  0.69471309  0.91115020  1
  Sc  Sc93  1  0.70808526  0.09748156  0.70652359  1
  Sc  Sc94  1  0.30500735  0.29918529  0.30351423  1
  Sc  Sc95  1  0.10178866  0.30635617  0.90810911  1
  Sc  Sc96  1  0.30008712  0.50958126  0.91565471  1
  Sc  Sc97  1  0.70215108  0.90640747  0.90466820  1
  Sc  Sc98  1  0.50194066  0.89893383  0.50785571  1
  Sc  Sc99  1  0.89514115  0.10661204  0.10201488  1
  Nb  Nb100  1  0.89936270  0.70503808  0.49454077  1
  Nb  Nb101  1  0.31154163  0.70537841  0.70308317  1
  Nb  Nb102  1  0.10104526  0.50421345  0.50215020  1
  Nb  Nb103  1  0.29703743  0.70084764  0.90265582  1
  Nb  Nb104  1  0.70127094  0.49674252  0.30484817  1
  Nb  Nb105  1  0.49882488  0.49904597  0.90100687  1
  Nb  Nb106  1  0.70058561  0.30324491  0.70237868  1
  Nb  Nb107  1  0.50205300  0.09583687  0.49764579  1
  Nb  Nb108  1  0.29840025  0.49765101  0.10619448  1
  Nb  Nb109  1  0.09376891  0.49981877  0.89590040  1
  Nb  Nb110  1  0.49648647  0.69430072  0.70329891  1
  Nb  Nb111  1  0.29911687  0.89325967  0.70030254  1
  Nb  Nb112  1  0.90602736  0.89241898  0.90017612  1
  Nb  Nb113  1  0.89599976  0.90038557  0.49491370  1
  Nb  Nb114  1  0.09892525  0.69929171  0.49961769  1
  Nb  Nb115  1  0.90128955  0.70039959  0.89890681  1
  Nb  Nb116  1  0.70668548  0.30762930  0.29954618  1
  Nb  Nb117  1  0.69950614  0.49684324  0.90381868  1
  Nb  Nb118  1  0.49794364  0.69892769  0.30288170  1
  Nb  Nb119  1  0.89192885  0.49941411  0.90519276  1
  Nb  Nb120  1  0.70677012  0.90317545  0.49313430  1
  Nb  Nb121  1  0.89152537  0.30298102  0.29220970  1
  Nb  Nb122  1  0.09657015  0.30213430  0.09953034  1
  Nb  Nb123  1  0.50714172  0.30499626  0.10407625  1
  Nb  Nb124  1  0.90026741  0.09364141  0.69805586  1
  Nb  Nb125  1  0.80482078  -0.00374545  0.59586783  1
  Nb  Nb126  1  0.39959134  0.40840681  0.80217005  1
  Nb  Nb127  1  0.20185803  0.20655891  0.79731304  1
  Nb  Nb128  1  -0.00884224  -0.00410009  0.59660614  1
  Nb  Nb129  1  0.60352236  0.40065218  0.19844475  1
  Nb  Nb130  1  0.59827641  0.40324071  0.00776075  1
  Nb  Nb131  1  0.19852116  0.39940216  0.19686511  1
  Nb  Nb132  1  0.19508956  0.40499115  0.59950549  1
  Nb  Nb133  1  -0.00512532  0.59682888  -0.00961342  1
  Nb  Nb134  1  0.00364898  0.79588620  0.79969635  1
  Nb  Nb135  1  0.59978219  0.59772973  0.39534705  1
  Nb  Nb136  1  0.39771571  0.79797997  0.39839194  1
  Nb  Nb137  1  0.79873780  -0.00424923  0.19825399  1
  Nb  Nb138  1  0.20017921  0.79762680  0.40323183  1
  Nb  Nb139  1  0.00574868  0.19906619  0.00376558  1
  Nb  Nb140  1  -0.00497102  0.79972623  0.59799660  1
  Nb  Nb141  1  0.20654730  0.79685812  0.79996727  1
  Nb  Nb142  1  -0.00663823  0.40843090  0.80494416  1
  Nb  Nb143  1  0.20108515  0.20439516  0.60151462  1
  Nb  Nb144  1  0.60127381  0.20614844  0.79485056  1
  Nb  Nb145  1  0.59865930  -0.00073529  0.40254608  1
  Nb  Nb146  1  0.79792821  0.40155549  0.80138172  1
  Nb  Nb147  1  0.59543979  0.59582783  0.80348815  1
  Nb  Nb148  1  0.20036060  0.40450154  0.79684614  1
  Nb  Nb149  1  0.59403754  0.78656674  0.80058064  1
  Pd  Pd150  1  0.61378888  0.19620808  0.60344543  1
  Pd  Pd151  1  0.20137212  0.40424873  0.00141055  1
  Pd  Pd152  1  0.60293428  0.39664145  0.58621359  1
  Pd  Pd153  1  0.40214669  0.20621087  0.80035766  1
  Pd  Pd154  1  0.78846489  0.40177598  0.18753024  1
  Pd  Pd155  1  0.59363477  0.59787521  0.00100226  1
  Pd  Pd156  1  0.00384201  0.79586137  0.39721781  1
  Pd  Pd157  1  0.79232040  0.80351125  0.80735996  1
  Pd  Pd158  1  -0.00744794  0.20437494  0.39583830  1
  Pd  Pd159  1  -0.00180217  0.40161723  0.60302453  1
  Pd  Pd160  1  -0.00574933  0.39947129  0.39386161  1
  Pd  Pd161  1  0.19671195  0.80386521  -0.00315508  1
  Pd  Pd162  1  0.60552768  0.59635846  0.20542738  1
  Pd  Pd163  1  0.61251233  0.00318823  0.59283786  1
  Pd  Pd164  1  0.39786777  0.80218822  0.00572962  1
  Pd  Pd165  1  0.21399916  0.59747280  0.80207766  1
  Pd  Pd166  1  0.40451818  0.00133792  0.79757709  1
  Pd  Pd167  1  0.00320251  0.18933021  0.59301134  1
  Pd  Pd168  1  0.79796817  0.20587463  0.80409479  1
  Pd  Pd169  1  -0.00679067  0.60754032  0.59270021  1
  Pd  Pd170  1  -0.01147608  0.00029003  0.19659172  1
  Pd  Pd171  1  0.60031788  0.00507214  0.80169558  1
  Pd  Pd172  1  0.60353749  0.79161699  -0.00705022  1
  Pd  Pd173  1  0.80952565  0.00125769  0.00285882  1
  Pd  Pd174  1  0.59499514  0.79882547  0.39902738  1
  Pd  Pd175  1  0.59439766  0.40074316  0.39611888  1
  Pd  Pd176  1  0.20931385  0.21323998  0.19666252  1
  Pd  Pd177  1  0.39911474  0.39640291  0.20272449  1
  Pd  Pd178  1  -0.00578071  0.00794678  0.01060082  1
  Pd  Pd179  1  0.39663041  0.00014702  0.19099854  1
  Pd  Pd180  1  0.60041326  0.39759884  0.81151958  1
  Pd  Pd181  1  0.20077156  -0.00863685  0.01093289  1
  Pd  Pd182  1  0.19478603  0.60737487  0.39579097  1
  Pd  Pd183  1  0.60302707  0.19685176  0.39412054  1
  Pd  Pd184  1  0.40187646  0.79719108  0.80841674  1
  Pd  Pd185  1  0.19078308  0.58850637  0.19856411  1
  Pd  Pd186  1  0.80016008  0.80544619  0.59776458  1
  Pd  Pd187  1  0.00313438  0.21343824  0.81135301  1
  Pd  Pd188  1  0.79664264  0.19414366  0.59847434  1
  Pd  Pd189  1  0.19539819  0.39686595  0.39503098  1
  Pd  Pd190  1  0.79451724  0.79754820  -0.00351275  1
  Pd  Pd191  1  0.20524515  0.59918275  0.59768445  1
  Pd  Pd192  1  0.19104565  0.01444082  0.59211440  1
  Pd  Pd193  1  0.59561642  0.20163069  -0.00777674  1
  Pd  Pd194  1  0.60171600  0.80110437  0.60484855  1
  Pd  Pd195  1  0.20373294  -0.00532542  0.40724404  1
  Pd  Pd196  1  0.79745612  0.58854735  0.79721040  1
  Pd  Pd197  1  0.20296622  0.20881955  0.40571095  1
  Pd  Pd198  1  0.41104638  0.19876985  0.00643093  1
  Pd  Pd199  1  0.40555177  0.00143422  0.01113403  1
  Rh  Rh200  1  0.80716157  0.60477332  0.00373268  1
  Rh  Rh201  1  0.40103609  -0.00104662  0.60188721  1
  Rh  Rh202  1  0.40098080  0.79548973  0.59633313  1
  Rh  Rh203  1  0.80230297  0.19577456  0.20448176  1
  Rh  Rh204  1  0.78812652  0.39817418  0.00256485  1
  Rh  Rh205  1  0.40697020  0.39473603  0.39709894  1
  Rh  Rh206  1  0.40172808  0.60432182  0.59311783  1
  Rh  Rh207  1  0.79310739  0.00166675  0.39567950  1
  Rh  Rh208  1  0.00512164  -0.00951725  0.79287337  1
  Rh  Rh209  1  0.80267557  0.79524824  0.39649376  1
  Rh  Rh210  1  -0.00253621  0.00475975  0.40116428  1
  Rh  Rh211  1  0.40011413  0.19959400  0.39839619  1
  Rh  Rh212  1  0.20182897  0.79034053  0.59981693  1
  Rh  Rh213  1  -0.00706820  0.20250647  0.19461479  1
  Rh  Rh214  1  0.00235170  0.60389457  0.40211129  1
  Rh  Rh215  1  0.39880745  0.20323046  0.19837100  1
  Rh  Rh216  1  0.81221186  0.19203075  -0.00486756  1
  Rh  Rh217  1  0.39655514  0.40373478  0.59865527  1
  Rh  Rh218  1  0.60439323  0.79710001  0.20449336  1
  Rh  Rh219  1  0.59626619  0.00756823  -0.00272791  1
  Rh  Rh220  1  0.39873719  0.60073944  0.00717986  1
  Rh  Rh221  1  0.40017137  0.59639391  0.80729197  1
  Rh  Rh222  1  0.00563431  0.78931983  -0.00807673  1
  Rh  Rh223  1  0.80194708  0.20897362  0.39283087  1
  Rh  Rh224  1  0.40630418  0.61017335  0.40392415  1
  Rh  Rh225  1  0.60252109  0.59944755  0.59368595  1
  Rh  Rh226  1  0.19488984  0.20623104  -0.00273927  1
  Rh  Rh227  1  0.79877956  0.59936184  0.20058378  1
  Rh  Rh228  1  0.20384225  -0.00108363  0.19486747  1
  Rh  Rh229  1  0.61244204  -0.00238573  0.21445013  1
  Rh  Rh230  1  0.40637216  0.40553837  0.00048869  1
  Rh  Rh231  1  0.80819498  0.39760216  0.40082698  1
  Rh  Rh232  1  0.00009953  0.59567946  0.18963160  1
  Rh  Rh233  1  -0.01607141  0.59746039  0.80410976  1
  Rh  Rh234  1  0.39440562  0.60418483  0.19739017  1
  Rh  Rh235  1  -0.00251056  0.80151771  0.20624498  1
  Rh  Rh236  1  0.80120769  0.60509323  0.58786536  1
  Rh  Rh237  1  0.80549623  0.80629154  0.20398779  1
  Rh  Rh238  1  0.19835022  0.80077056  0.20833912  1
  Rh  Rh239  1  0.20056591  -0.00055557  0.80167083  1
  Rh  Rh240  1  0.60521693  0.21098185  0.20849401  1
  Rh  Rh241  1  0.80422425  0.39312161  0.60384353  1
  Rh  Rh242  1  -0.00279345  0.39848341  -0.00411480  1
  Rh  Rh243  1  0.19222186  0.59530283  0.00579681  1
  Rh  Rh244  1  0.40944112  -0.01322093  0.40798489  1
  Rh  Rh245  1  0.79333903  0.60582181  0.39946364  1
  Rh  Rh246  1  0.00491489  0.40309693  0.20421281  1
  Rh  Rh247  1  0.79748192  -0.00527120  0.80033200  1
  Rh  Rh248  1  0.39396343  0.79456649  0.20448168  1
  Rh  Rh249  1  0.39502628  0.19412613  0.59742619  1
