# generated using pymatgen
data_ZrScNbPdRh
_symmetry_space_group_name_H-M   'P 1'
_cell_length_a   16.55553185
_cell_length_b   16.55572544
_cell_length_c   16.55493108
_cell_angle_alpha   89.94564893
_cell_angle_beta   90.00477089
_cell_angle_gamma   90.02935504
_symmetry_Int_Tables_number   1
_chemical_formula_structural   ZrScNbPdRh
_chemical_formula_sum   'Zr50 Sc50 Nb50 Pd50 Rh50'
_cell_volume   4537.51919842
_cell_formula_units_Z   50
loop_
 _symmetry_equiv_pos_site_id
 _symmetry_equiv_pos_as_xyz
  1  'x, y, z'
loop_
 _atom_site_type_symbol
 _atom_site_label
 _atom_site_symmetry_multiplicity
 _atom_site_fract_x
 _atom_site_fract_y
 _atom_site_fract_z
 _atom_site_occupancy
  Zr  Zr0  1  0.69626039  0.70484840  0.28791236  1
  Zr  Zr1  1  0.29990728  0.49715921  0.69942368  1
  Zr  Zr2  1  0.09395898  0.08992862  0.10249957  1
  Zr  Zr3  1  0.29803632  0.30105043  0.09473436  1
  Zr  Zr4  1  0.90075448  0.09661437  0.69738576  1
  Zr  Zr5  1  0.28938119  0.29769015  0.50225393  1
  Zr  Zr6  1  0.10210169  0.89762875  0.50317853  1
  Zr  Zr7  1  0.10206886  0.49574817  0.29616404  1
  Zr  Zr8  1  0.49451624  0.09396552  0.30032997  1
  Zr  Zr9  1  0.29575503  0.09751753  0.30919058  1
  Zr  Zr10  1  0.50878747  0.09753530  0.89045845  1
  Zr  Zr11  1  0.50712736  0.70434269  0.10471614  1
  Zr  Zr12  1  0.70215788  0.90265165  0.49555247  1
  Zr  Zr13  1  0.69183646  0.09693132  0.50838768  1
  Zr  Zr14  1  0.89112692  0.70599981  0.69956371  1
  Zr  Zr15  1  0.30141576  0.70710526  0.50231339  1
  Zr  Zr16  1  0.29390026  0.09531423  0.09961852  1
  Zr  Zr17  1  0.70015217  0.49993346  0.49865070  1
  Zr  Zr18  1  0.09444526  0.70050388  0.10183389  1
  Zr  Zr19  1  0.90652509  0.89223676  0.50868865  1
  Zr  Zr20  1  0.50496418  0.09444477  0.69039158  1
  Zr  Zr21  1  0.69512055  0.09540367  0.90509370  1
  Zr  Zr22  1  0.90081583  0.69016959  0.10517641  1
  Zr  Zr23  1  0.49252930  0.70663107  0.89734735  1
  Zr  Zr24  1  0.50432704  0.90567504  0.50837239  1
  Zr  Zr25  1  0.70472389  0.69876947  0.09708022  1
  Zr  Zr26  1  0.70013071  0.30954822  0.50274612  1
  Zr  Zr27  1  0.09485094  0.89719127  0.69308436  1
  Zr  Zr28  1  0.09994405  0.70964273  0.49463986  1
  Zr  Zr29  1  0.29288894  0.31407872  0.30189949  1
  Zr  Zr30  1  0.70665429  0.08690053  0.30314895  1
  Zr  Zr31  1  0.70127554  0.30285272  0.29853371  1
  Zr  Zr32  1  0.08652511  0.50492204  0.10058287  1
  Zr  Zr33  1  0.69600281  0.29929520  0.70137468  1
  Zr  Zr34  1  0.69139789  0.49406867  0.30302283  1
  Zr  Zr35  1  0.09640473  0.89878499  0.90327356  1
  Zr  Zr36  1  0.29396402  0.90033739  0.09388179  1
  Zr  Zr37  1  0.50859431  0.09961098  0.09484301  1
  Zr  Zr38  1  0.48801658  0.50759383  0.29979361  1
  Zr  Zr39  1  0.50356096  0.49347743  0.09319384  1
  Zr  Zr40  1  0.90204305  0.10371180  0.49701115  1
  Zr  Zr41  1  0.89405683  0.30933763  0.89833404  1
  Zr  Zr42  1  0.30552711  0.89707068  0.30294051  1
  Zr  Zr43  1  0.28872108  0.90104994  0.50102705  1
  Zr  Zr44  1  0.30779700  0.09870910  0.49744166  1
  Zr  Zr45  1  0.10874865  0.10082488  0.49541949  1
  Zr  Zr46  1  0.49793863  0.49753757  0.89898501  1
  Zr  Zr47  1  0.29472683  0.30430675  0.70005239  1
  Zr  Zr48  1  0.10418612  0.30707118  0.69385041  1
  Zr  Zr49  1  0.90246329  0.09822099  0.28920177  1
  Sc  Sc50  1  0.50671195  0.30406758  0.09601351  1
  Sc  Sc51  1  0.90632461  0.69028854  0.49551996  1
  Sc  Sc52  1  0.89626702  0.50925128  0.30579629  1
  Sc  Sc53  1  0.70199682  0.10076083  0.09857959  1
  Sc  Sc54  1  0.49364577  0.30308472  0.50389653  1
  Sc  Sc55  1  0.89830188  0.68680636  0.89110700  1
  Sc  Sc56  1  0.30829442  0.49849685  0.50174595  1
  Sc  Sc57  1  0.09865587  0.89133030  0.30719210  1
  Sc  Sc58  1  0.09491136  0.50573095  0.50789094  1
  Sc  Sc59  1  0.09780240  0.69139548  0.70262847  1
  Sc  Sc60  1  0.28902832  0.10527227  0.89647134  1
  Sc  Sc61  1  0.69661421  0.30429030  0.10224134  1
  Sc  Sc62  1  0.70786373  0.49892605  0.10062145  1
  Sc  Sc63  1  0.30750836  0.89472078  0.69102165  1
  Sc  Sc64  1  0.50625070  0.30960707  0.29875900  1
  Sc  Sc65  1  0.71391035  0.49591172  0.90536440  1
  Sc  Sc66  1  0.49406311  0.69657372  0.50195222  1
  Sc  Sc67  1  0.10368902  0.29418960  0.88768178  1
  Sc  Sc68  1  0.69519657  0.90299865  0.10224159  1
  Sc  Sc69  1  0.90318180  0.29988673  0.69828184  1
  Sc  Sc70  1  0.50051828  0.89896785  0.09968285  1
  Sc  Sc71  1  0.09881549  0.10024482  0.70141107  1
  Sc  Sc72  1  0.30325320  0.09607109  0.69221716  1
  Sc  Sc73  1  0.10336072  0.90294886  0.09846506  1
  Sc  Sc74  1  0.90635052  0.89550431  0.70557111  1
  Sc  Sc75  1  0.10545571  0.50089069  0.70130909  1
  Sc  Sc76  1  0.69422619  0.10300303  0.70727543  1
  Sc  Sc77  1  0.50582847  0.89805592  0.89275755  1
  Sc  Sc78  1  0.90807706  0.91630043  0.10634280  1
  Sc  Sc79  1  0.30256280  0.50509942  0.89482959  1
  Sc  Sc80  1  0.70820404  0.89073899  0.70735081  1
  Sc  Sc81  1  0.08961220  0.50788439  0.89247068  1
  Sc  Sc82  1  0.70047646  0.29641761  0.90104437  1
  Sc  Sc83  1  0.30128584  0.69655444  0.69790335  1
  Sc  Sc84  1  0.89551710  0.30639442  0.10840280  1
  Sc  Sc85  1  0.09821975  0.30019045  0.30604894  1
  Sc  Sc86  1  0.69451792  0.49923392  0.68604452  1
  Sc  Sc87  1  0.49217311  0.70231293  0.69686194  1
  Sc  Sc88  1  0.70195362  0.70585380  0.89007028  1
  Sc  Sc89  1  0.89206942  0.09263427  0.90278539  1
  Sc  Sc90  1  0.31205546  0.71063674  0.08921120  1
  Sc  Sc91  1  0.29055652  0.29991907  0.89493888  1
  Sc  Sc92  1  0.09983749  0.10036515  0.90160238  1
  Sc  Sc93  1  0.30940579  0.49461994  0.10018388  1
  Sc  Sc94  1  0.09609923  0.31005827  0.11071575  1
  Sc  Sc95  1  0.51157853  0.30706729  0.90372241  1
  Sc  Sc96  1  0.49919627  0.90096295  0.70593247  1
  Sc  Sc97  1  0.70889771  0.69147326  0.50931773  1
  Sc  Sc98  1  0.08055085  0.69445497  0.30123592  1
  Sc  Sc99  1  0.50272291  0.49936453  0.50893887  1
  Nb  Nb100  1  0.29781167  0.70752272  0.90147338  1
  Nb  Nb101  1  0.49995464  0.10172719  0.50068586  1
  Nb  Nb102  1  0.10290811  0.70045707  0.89971859  1
  Nb  Nb103  1  0.90578491  0.10160833  0.10019137  1
  Nb  Nb104  1  0.90362708  0.29986893  0.50230155  1
  Nb  Nb105  1  0.70434628  0.90004002  0.89925922  1
  Nb  Nb106  1  0.90015124  0.89459202  0.89671953  1
  Nb  Nb107  1  0.89866562  0.49487875  0.50358797  1
  Nb  Nb108  1  0.51368044  0.88460575  0.30368915  1
  Nb  Nb109  1  0.49774961  0.49627134  0.69873578  1
  Nb  Nb110  1  0.89215954  0.90650270  0.30239271  1
  Nb  Nb111  1  0.70507761  0.89914810  0.30386412  1
  Nb  Nb112  1  0.89742195  0.70821205  0.29871220  1
  Nb  Nb113  1  0.91032125  0.50127973  0.70847921  1
  Nb  Nb114  1  0.89997168  0.29354973  0.30772204  1
  Nb  Nb115  1  0.49896658  0.70302003  0.30144982  1
  Nb  Nb116  1  0.29937585  0.89363678  0.90330431  1
  Nb  Nb117  1  0.31701045  0.69515364  0.30412735  1
  Nb  Nb118  1  0.89946582  0.49986843  0.90601833  1
  Nb  Nb119  1  0.09223750  0.30031200  0.50171366  1
  Nb  Nb120  1  0.50074732  0.30813833  0.70704067  1
  Nb  Nb121  1  0.69641074  0.69838410  0.69800301  1
  Nb  Nb122  1  0.29893387  0.50514448  0.29992272  1
  Nb  Nb123  1  0.90021088  0.50358302  0.07688100  1
  Nb  Nb124  1  0.09842533  0.10253316  0.30425941  1
  Nb  Nb125  1  0.20666930  0.60295523  0.39154313  1
  Nb  Nb126  1  0.59961037  0.60210983  -0.00737661  1
  Nb  Nb127  1  -0.00648386  0.19933193  0.00536777  1
  Nb  Nb128  1  0.39505316  0.19855488  0.19773422  1
  Nb  Nb129  1  0.40626378  0.20218196  0.79855442  1
  Nb  Nb130  1  -0.00732696  0.39611928  0.40883453  1
  Nb  Nb131  1  0.20550999  0.78772407  0.20600322  1
  Nb  Nb132  1  0.60504729  0.79633793  0.60258618  1
  Nb  Nb133  1  0.79891504  0.20346881  0.40144620  1
  Nb  Nb134  1  0.19946211  0.60299101  0.00224600  1
  Nb  Nb135  1  -0.00081064  0.00211550  0.39826995  1
  Nb  Nb136  1  0.39740124  0.00270922  -0.00703922  1
  Nb  Nb137  1  0.20957042  0.60451987  0.20084381  1
  Nb  Nb138  1  0.20081952  0.80049662  0.80459322  1
  Nb  Nb139  1  0.80182896  -0.00079639  0.59940679  1
  Nb  Nb140  1  0.80087236  0.80016145  0.39327769  1
  Nb  Nb141  1  0.59669830  0.59834593  0.79655195  1
  Nb  Nb142  1  0.20055821  0.19600610  0.20485868  1
  Nb  Nb143  1  0.20165811  -0.01225300  0.80009164  1
  Nb  Nb144  1  0.60149226  0.19551247  0.40308001  1
  Nb  Nb145  1  -0.00734441  0.79876658  -0.00433278  1
  Nb  Nb146  1  0.19424735  0.40987005  -0.00060658  1
  Nb  Nb147  1  0.40292433  0.19555100  -0.00291013  1
  Nb  Nb148  1  0.59546849  0.60473303  0.39434106  1
  Nb  Nb149  1  0.80797165  0.80494491  -0.00310094  1
  Pd  Pd150  1  0.39658620  0.39328238  0.80631416  1
  Pd  Pd151  1  0.40520591  0.80693775  0.40800362  1
  Pd  Pd152  1  0.80370624  0.20527896  0.00571878  1
  Pd  Pd153  1  0.40750878  -0.01137452  0.40271095  1
  Pd  Pd154  1  0.40399870  -0.00285535  0.19464440  1
  Pd  Pd155  1  0.59618593  0.19895887  0.20777495  1
  Pd  Pd156  1  0.40653656  0.21046214  0.39127285  1
  Pd  Pd157  1  0.79262316  0.60921350  0.39424446  1
  Pd  Pd158  1  0.80849835  0.40283845  0.60998954  1
  Pd  Pd159  1  0.19060967  0.41056435  0.41229572  1
  Pd  Pd160  1  0.18559794  0.20908268  0.00938095  1
  Pd  Pd161  1  0.39038395  0.00455442  0.80400239  1
  Pd  Pd162  1  -0.01557891  0.40622399  0.21049832  1
  Pd  Pd163  1  -0.00384243  0.60192570  0.60423443  1
  Pd  Pd164  1  0.39884033  0.80466472  0.19751217  1
  Pd  Pd165  1  0.79662194  0.40736208  0.79047633  1
  Pd  Pd166  1  0.80435148  0.81089887  0.19360381  1
  Pd  Pd167  1  0.40061103  0.60332887  0.79551221  1
  Pd  Pd168  1  0.80092295  -0.00710807  0.00512808  1
  Pd  Pd169  1  0.40237030  0.40044869  0.40499943  1
  Pd  Pd170  1  0.59236300  0.20916704  0.59761339  1
  Pd  Pd171  1  0.00717702  0.38849948  -0.00830224  1
  Pd  Pd172  1  0.19298358  -0.00638651  0.21188393  1
  Pd  Pd173  1  0.00625512  0.19793658  0.60331160  1
  Pd  Pd174  1  0.80708874  0.39697545  0.39912956  1
  Pd  Pd175  1  0.60788574  0.79919779  -0.00353447  1
  Pd  Pd176  1  0.19779073  0.19428318  0.60285367  1
  Pd  Pd177  1  0.59782509  0.59380137  0.19746220  1
  Pd  Pd178  1  0.40054354  0.60193605  0.00313979  1
  Pd  Pd179  1  0.40315940  0.39431395  0.19835485  1
  Pd  Pd180  1  0.00494190  0.00371424  0.80402284  1
  Pd  Pd181  1  0.80298913  0.59051233  0.20149081  1
  Pd  Pd182  1  0.40439943  0.20710399  0.60795697  1
  Pd  Pd183  1  0.60870900  0.78803820  0.41145643  1
  Pd  Pd184  1  0.00431827  0.39980691  0.80094606  1
  Pd  Pd185  1  0.60066283  -0.00525999  0.20209551  1
  Pd  Pd186  1  0.59219972  0.00167549  0.39645841  1
  Pd  Pd187  1  0.79641198  0.19789455  0.20046803  1
  Pd  Pd188  1  0.00071411  0.81074043  0.19662382  1
  Pd  Pd189  1  0.39880099  0.60289984  0.18707962  1
  Pd  Pd190  1  0.00671598  0.20398610  0.19633626  1
  Pd  Pd191  1  0.79805334  0.19660729  0.59874386  1
  Pd  Pd192  1  0.79764053  -0.00048628  0.79320449  1
  Pd  Pd193  1  0.79167568  0.59031309  0.79270321  1
  Pd  Pd194  1  0.80837008  0.40891238  0.20052945  1
  Pd  Pd195  1  0.80867118  0.59170527  0.60737232  1
  Pd  Pd196  1  0.80153487  0.19724431  0.80211180  1
  Pd  Pd197  1  0.61188800  0.41049072  0.80255755  1
  Pd  Pd198  1  0.20314711  0.60067320  0.59106280  1
  Pd  Pd199  1  -0.00761983  0.19524471  0.80772563  1
  Rh  Rh200  1  0.00188278  0.78670918  0.60532768  1
  Rh  Rh201  1  0.59450697  0.39644286  0.60064123  1
  Rh  Rh202  1  0.79426871  0.80382548  0.59302689  1
  Rh  Rh203  1  -0.00316180  0.40464564  0.60037555  1
  Rh  Rh204  1  0.39787332  0.39732921  0.60203240  1
  Rh  Rh205  1  -0.00436574  0.00188640  -0.00663579  1
  Rh  Rh206  1  0.40934269  0.81125247  -0.00349343  1
  Rh  Rh207  1  0.19002693  0.79312153  0.00237466  1
  Rh  Rh208  1  -0.00296992  0.20102814  0.40045948  1
  Rh  Rh209  1  0.81033348  -0.00176956  0.40935018  1
  Rh  Rh210  1  0.59767793  0.40544681  0.19715575  1
  Rh  Rh211  1  0.60178910  0.80587279  0.19740401  1
  Rh  Rh212  1  -0.00316768  0.60183917  0.79736390  1
  Rh  Rh213  1  0.19790325  0.40562932  0.59422885  1
  Rh  Rh214  1  0.20361199  0.00003917  -0.01204297  1
  Rh  Rh215  1  0.60995955  -0.00813618  0.79711707  1
  Rh  Rh216  1  0.20723216  0.18955050  0.78639622  1
  Rh  Rh217  1  0.39061736  0.38839167  -0.00967176  1
  Rh  Rh218  1  0.20471384  0.78655141  0.38692575  1
  Rh  Rh219  1  0.61097071  -0.01375994  0.61295921  1
  Rh  Rh220  1  -0.01242382  0.80756219  0.39564481  1
  Rh  Rh221  1  0.59215608  0.40494489  0.40444125  1
  Rh  Rh222  1  0.00790998  -0.00564910  0.21256251  1
  Rh  Rh223  1  0.40739168  0.80348344  0.59729742  1
  Rh  Rh224  1  0.39846279  -0.00211915  0.59510799  1
  Rh  Rh225  1  0.79481383  0.00001751  0.19073320  1
  Rh  Rh226  1  0.80135860  0.79857747  0.80551762  1
  Rh  Rh227  1  0.59135547  0.60621398  0.60192393  1
  Rh  Rh228  1  0.19917763  0.20614289  0.39728423  1
  Rh  Rh229  1  0.00526710  0.58911735  0.40140456  1
  Rh  Rh230  1  0.59574642  -0.00681997  -0.00496891  1
  Rh  Rh231  1  0.20059807  0.00128246  0.60643889  1
  Rh  Rh232  1  0.20503020  0.60652642  0.80830164  1
  Rh  Rh233  1  0.40185261  0.59793488  0.40821165  1
  Rh  Rh234  1  0.19655017  0.79293876  0.61291061  1
  Rh  Rh235  1  0.00152438  0.60836393  -0.00891385  1
  Rh  Rh236  1  0.00370943  0.79149254  0.80356018  1
  Rh  Rh237  1  0.39154037  0.80049896  0.79802477  1
  Rh  Rh238  1  0.60006655  0.20205161  -0.00079787  1
  Rh  Rh239  1  0.59987935  0.79434453  0.79240182  1
  Rh  Rh240  1  0.19480992  0.40971566  0.80727622  1
  Rh  Rh241  1  0.61165212  0.40783087  -0.00073346  1
  Rh  Rh242  1  -0.01011302  0.59267622  0.20442019  1
  Rh  Rh243  1  0.19205594  -0.00493183  0.39665451  1
  Rh  Rh244  1  0.59494967  0.20559847  0.79948088  1
  Rh  Rh245  1  -0.00311120  0.00668629  0.59202627  1
  Rh  Rh246  1  0.39957591  0.59543561  0.60293976  1
  Rh  Rh247  1  0.79436354  0.60853546  -0.00570151  1
  Rh  Rh248  1  0.80043548  0.39281495  0.00412469  1
  Rh  Rh249  1  0.20513027  0.40435225  0.19118693  1
