# generated using pymatgen
data_ZrScNbPdRh
_symmetry_space_group_name_H-M   'P 1'
_cell_length_a   16.56349350
_cell_length_b   16.55987842
_cell_length_c   16.56037034
_cell_angle_alpha   89.99794378
_cell_angle_beta   89.98057082
_cell_angle_gamma   90.01748016
_symmetry_Int_Tables_number   1
_chemical_formula_structural   ZrScNbPdRh
_chemical_formula_sum   'Zr50 Sc50 Nb50 Pd50 Rh50'
_cell_volume   4542.33420761
_cell_formula_units_Z   50
loop_
 _symmetry_equiv_pos_site_id
 _symmetry_equiv_pos_as_xyz
  1  'x, y, z'
loop_
 _atom_site_type_symbol
 _atom_site_label
 _atom_site_symmetry_multiplicity
 _atom_site_fract_x
 _atom_site_fract_y
 _atom_site_fract_z
 _atom_site_occupancy
  Zr  Zr0  1  0.29784395  0.29582771  0.30043701  1
  Zr  Zr1  1  0.10925946  0.50364314  0.10228571  1
  Zr  Zr2  1  0.10904958  0.30295594  0.89972731  1
  Zr  Zr3  1  0.30079786  0.70967995  0.30014437  1
  Zr  Zr4  1  0.70662006  0.30166388  0.09862707  1
  Zr  Zr5  1  0.90234492  0.89866398  0.10203683  1
  Zr  Zr6  1  0.89218583  0.49494911  0.49723426  1
  Zr  Zr7  1  0.10339816  0.10153719  0.30965751  1
  Zr  Zr8  1  0.49558684  0.90208721  0.69352503  1
  Zr  Zr9  1  0.69830213  0.49131976  0.50348594  1
  Zr  Zr10  1  0.49189059  0.30028053  0.10201939  1
  Zr  Zr11  1  0.89993357  0.49989572  0.89958513  1
  Zr  Zr12  1  0.49307096  0.70117985  0.71015024  1
  Zr  Zr13  1  0.10829846  0.30672216  0.70043456  1
  Zr  Zr14  1  0.10477260  0.09140383  0.90823415  1
  Zr  Zr15  1  0.90082693  0.90317651  0.49593889  1
  Zr  Zr16  1  0.49277936  0.10420865  0.10243664  1
  Zr  Zr17  1  0.90600521  0.10694730  0.09019038  1
  Zr  Zr18  1  0.30049707  0.29767613  0.69732352  1
  Zr  Zr19  1  0.69847644  0.90771041  0.29538185  1
  Zr  Zr20  1  0.90164865  0.29650830  0.10473854  1
  Zr  Zr21  1  0.10400480  0.10386898  0.09860260  1
  Zr  Zr22  1  0.89675195  0.50658946  0.69289588  1
  Zr  Zr23  1  0.89292182  0.28995446  0.91312751  1
  Zr  Zr24  1  0.69921310  0.49531449  0.90350210  1
  Zr  Zr25  1  0.10728259  0.69319415  0.69226810  1
  Zr  Zr26  1  0.11221559  0.70231848  0.90239270  1
  Zr  Zr27  1  0.90531304  0.68715537  0.50280513  1
  Zr  Zr28  1  0.30156027  0.29782918  0.89712235  1
  Zr  Zr29  1  0.09438550  0.70459040  0.30235052  1
  Zr  Zr30  1  0.90902470  0.90062893  0.29429155  1
  Zr  Zr31  1  0.70033707  0.30406382  0.49643820  1
  Zr  Zr32  1  0.49786062  0.30424854  0.89939098  1
  Zr  Zr33  1  0.10137757  0.50893863  0.49894445  1
  Zr  Zr34  1  0.70437800  0.69873418  0.70592757  1
  Zr  Zr35  1  0.30350927  0.70796957  0.69390723  1
  Zr  Zr36  1  0.90000947  0.69859148  0.10522813  1
  Zr  Zr37  1  0.29956710  0.10088928  0.90170209  1
  Zr  Zr38  1  0.30439141  0.30352216  0.50242880  1
  Zr  Zr39  1  0.50887017  0.69358076  0.10208467  1
  Zr  Zr40  1  0.10071906  0.89990603  0.90706215  1
  Zr  Zr41  1  0.69109738  0.69496152  0.29456931  1
  Zr  Zr42  1  0.10822389  0.90055628  0.70611463  1
  Zr  Zr43  1  0.89801289  0.90070052  0.69852219  1
  Zr  Zr44  1  0.09783746  0.49509404  0.29710134  1
  Zr  Zr45  1  0.10839860  0.90376273  0.48341439  1
  Zr  Zr46  1  0.30369219  0.69838151  0.89914516  1
  Zr  Zr47  1  0.70378509  0.90039199  0.90188635  1
  Zr  Zr48  1  0.49590776  0.10360666  0.89635394  1
  Zr  Zr49  1  0.30438501  0.90549700  0.69546284  1
  Sc  Sc50  1  0.69816690  0.49403346  0.69553966  1
  Sc  Sc51  1  0.49684241  0.29939083  0.49876368  1
  Sc  Sc52  1  0.49683142  0.50523811  0.90245408  1
  Sc  Sc53  1  0.69999695  0.91373629  0.70488814  1
  Sc  Sc54  1  0.29899258  0.50319213  0.91242799  1
  Sc  Sc55  1  0.50311202  0.70024450  0.30116752  1
  Sc  Sc56  1  0.10444056  0.10611819  0.69245179  1
  Sc  Sc57  1  0.48586449  0.70039854  0.50292179  1
  Sc  Sc58  1  0.49750135  0.09624404  0.49757016  1
  Sc  Sc59  1  0.90007289  0.90861947  0.90314612  1
  Sc  Sc60  1  0.90766457  0.11094609  0.49440643  1
  Sc  Sc61  1  0.49014851  0.30910297  0.69889694  1
  Sc  Sc62  1  0.50208666  0.49767990  0.30378866  1
  Sc  Sc63  1  0.50167434  0.49419818  0.49585670  1
  Sc  Sc64  1  0.69710364  0.91515131  0.50509661  1
  Sc  Sc65  1  0.69902762  0.50598410  0.10362802  1
  Sc  Sc66  1  0.70048610  0.68231988  0.49245381  1
  Sc  Sc67  1  0.50044896  0.09922454  0.30373401  1
  Sc  Sc68  1  0.28651735  0.90273046  0.89548912  1
  Sc  Sc69  1  0.70229883  0.90134484  0.10142786  1
  Sc  Sc70  1  0.49309454  0.90011062  0.30391804  1
  Sc  Sc71  1  0.30506792  0.09921764  0.69814914  1
  Sc  Sc72  1  0.89886866  0.09610300  0.70381426  1
  Sc  Sc73  1  0.90317596  0.49511976  0.29797381  1
  Sc  Sc74  1  0.90765161  0.29715217  0.69796170  1
  Sc  Sc75  1  0.50953778  0.90022166  0.10805160  1
  Sc  Sc76  1  0.10632489  0.29550500  0.10132458  1
  Sc  Sc77  1  0.88317641  0.70341155  0.90426988  1
  Sc  Sc78  1  0.69324269  0.69941991  0.90661868  1
  Sc  Sc79  1  0.30177192  0.89977332  0.30897966  1
  Sc  Sc80  1  0.89611485  0.30325614  0.29903417  1
  Sc  Sc81  1  0.89557620  0.50006851  0.10865444  1
  Sc  Sc82  1  0.29300797  0.69572963  0.09435089  1
  Sc  Sc83  1  0.11183044  0.49537096  0.89265250  1
  Sc  Sc84  1  0.29031594  0.48291629  0.29900008  1
  Sc  Sc85  1  0.69860273  0.49870085  0.30695893  1
  Sc  Sc86  1  0.29936450  0.89285662  0.10772632  1
  Sc  Sc87  1  0.29980514  0.29929384  0.10333593  1
  Sc  Sc88  1  0.70075766  0.70093923  0.09919733  1
  Sc  Sc89  1  0.49226803  0.29301388  0.30259453  1
  Sc  Sc90  1  0.71071543  0.09522177  0.89679357  1
  Sc  Sc91  1  0.50959155  0.90615956  0.88921952  1
  Sc  Sc92  1  0.89771073  0.30174204  0.49571274  1
  Sc  Sc93  1  0.69214859  0.10297511  0.49187221  1
  Sc  Sc94  1  0.09697883  0.28551461  0.50586620  1
  Sc  Sc95  1  0.90358566  0.10697400  0.29327719  1
  Sc  Sc96  1  0.70035338  0.09461932  0.11029850  1
  Sc  Sc97  1  0.49144843  0.09537736  0.70252969  1
  Sc  Sc98  1  0.29681339  0.49462598  0.69228653  1
  Sc  Sc99  1  0.10182834  0.70538087  0.10251162  1
  Nb  Nb100  1  0.49186738  0.49643739  0.10486445  1
  Nb  Nb101  1  0.90155910  0.69991866  0.69608149  1
  Nb  Nb102  1  0.89870003  0.70473515  0.29632659  1
  Nb  Nb103  1  0.49868506  0.90057863  0.49759338  1
  Nb  Nb104  1  0.70088728  0.10382666  0.69973401  1
  Nb  Nb105  1  0.09832740  0.90290349  0.09837533  1
  Nb  Nb106  1  0.29626475  0.09197816  0.49438114  1
  Nb  Nb107  1  0.10485293  0.70036258  0.49828109  1
  Nb  Nb108  1  0.10515262  0.29788916  0.29152287  1
  Nb  Nb109  1  0.29696103  0.49841378  0.49054450  1
  Nb  Nb110  1  0.69965560  0.30222589  0.69735664  1
  Nb  Nb111  1  0.29060278  0.70261492  0.49587194  1
  Nb  Nb112  1  0.49371229  0.70117331  0.90224957  1
  Nb  Nb113  1  0.30447367  0.49848850  0.10383116  1
  Nb  Nb114  1  0.09744682  0.09446956  0.49833705  1
  Nb  Nb115  1  0.70002419  0.10578488  0.30687834  1
  Nb  Nb116  1  0.69975615  0.28926284  0.30114679  1
  Nb  Nb117  1  0.09767394  0.49518531  0.70047503  1
  Nb  Nb118  1  0.29776003  0.10035234  0.10017091  1
  Nb  Nb119  1  0.50184725  0.50593833  0.69757012  1
  Nb  Nb120  1  0.09867251  0.90535667  0.29571786  1
  Nb  Nb121  1  0.69944614  0.29937701  0.90101613  1
  Nb  Nb122  1  0.90761731  0.10425567  0.90162609  1
  Nb  Nb123  1  0.30005885  0.10013292  0.29792845  1
  Nb  Nb124  1  0.31117310  0.89581094  0.49663508  1
  Nb  Nb125  1  0.60253523  0.20299233  0.60810589  1
  Nb  Nb126  1  0.00189240  0.59672628  -0.00467132  1
  Nb  Nb127  1  0.00068336  0.60451925  0.79904722  1
  Nb  Nb128  1  0.79700633  0.39087420  0.80145204  1
  Nb  Nb129  1  0.60186291  0.79761506  0.59730020  1
  Nb  Nb130  1  0.60380903  0.80374687  0.40935478  1
  Nb  Nb131  1  0.00192211  0.19814149  0.80810450  1
  Nb  Nb132  1  0.60696133  0.20614565  0.79799176  1
  Nb  Nb133  1  0.19790275  0.00108068  0.20383398  1
  Nb  Nb134  1  0.38747576  0.59790921  0.39882304  1
  Nb  Nb135  1  0.80110074  0.00170828  0.39204749  1
  Nb  Nb136  1  0.79833319  0.80068685  0.39920796  1
  Nb  Nb137  1  0.39608395  0.59390200  0.20147613  1
  Nb  Nb138  1  0.59220810  0.60226310  0.60559867  1
  Nb  Nb139  1  0.79888891  0.79584098  0.59392980  1
  Nb  Nb140  1  0.00480974  0.40679681  0.60113268  1
  Nb  Nb141  1  0.59913939  0.39325180  0.19913107  1
  Nb  Nb142  1  0.00235170  0.40294938  0.00014115  1
  Nb  Nb143  1  0.00686992  -0.00284032  0.59347711  1
  Nb  Nb144  1  0.00327363  0.79869405  0.59799745  1
  Nb  Nb145  1  0.39829646  -0.00339915  0.00328503  1
  Nb  Nb146  1  0.40692989  0.80120814  -0.00391324  1
  Nb  Nb147  1  -0.00045561  0.79166611  0.79562368  1
  Nb  Nb148  1  0.60254595  0.20303420  -0.00490161  1
  Nb  Nb149  1  0.79198966  0.20125116  0.60285785  1
  Pd  Pd150  1  0.80511267  0.40588384  0.00277072  1
  Pd  Pd151  1  0.19444188  0.80651202  0.20183444  1
  Pd  Pd152  1  -0.00352108  0.59811505  0.39109347  1
  Pd  Pd153  1  0.80078994  0.19549396  0.19970346  1
  Pd  Pd154  1  0.59718877  0.59446038  -0.00043647  1
  Pd  Pd155  1  0.39327963  -0.00065620  0.19846208  1
  Pd  Pd156  1  0.19657813  0.19267291  0.79897654  1
  Pd  Pd157  1  0.00511055  0.00889080  0.19597012  1
  Pd  Pd158  1  0.59654111  0.40009992  0.00955580  1
  Pd  Pd159  1  0.59754526  0.39048320  0.38977186  1
  Pd  Pd160  1  0.60091680  0.59783759  0.80072310  1
  Pd  Pd161  1  0.80354682  0.20265903  0.79456805  1
  Pd  Pd162  1  0.00746813  0.39194859  0.40693554  1
  Pd  Pd163  1  0.20844277  0.19503296  0.59285573  1
  Pd  Pd164  1  0.20066012  -0.00086105  0.59654899  1
  Pd  Pd165  1  0.59500130  0.00761625  -0.00075718  1
  Pd  Pd166  1  0.60073190  0.39990386  0.79578483  1
  Pd  Pd167  1  0.40588639  0.79177946  0.19047265  1
  Pd  Pd168  1  0.59364939  0.00672984  0.60311291  1
  Pd  Pd169  1  -0.00771515  0.39723727  0.80133938  1
  Pd  Pd170  1  0.20175222  0.20336938  0.40585563  1
  Pd  Pd171  1  0.20575120  0.59524177  0.79518015  1
  Pd  Pd172  1  0.00536139  0.39570414  0.19280505  1
  Pd  Pd173  1  0.20882084  0.59456359  0.59882620  1
  Pd  Pd174  1  0.40274259  0.40698793  0.59554026  1
  Pd  Pd175  1  0.39502610  0.41179122  0.80199975  1
  Pd  Pd176  1  0.39705167  0.59308035  0.59138589  1
  Pd  Pd177  1  0.18835687  0.38684798  0.40739923  1
  Pd  Pd178  1  0.59641335  0.80365004  -0.00040440  1
  Pd  Pd179  1  0.39413440  0.39942108  -0.00183642  1
  Pd  Pd180  1  0.79394042  0.79987479  0.20182580  1
  Pd  Pd181  1  0.79909307  0.59593940  0.20651663  1
  Pd  Pd182  1  0.20660722  0.60073682  0.20816004  1
  Pd  Pd183  1  0.20282331  0.60104431  0.38848928  1
  Pd  Pd184  1  0.39103286  0.59085932  0.79901582  1
  Pd  Pd185  1  -0.00379203  0.79579809  0.40445758  1
  Pd  Pd186  1  -0.00542473  0.79271519  -0.00630380  1
  Pd  Pd187  1  0.79871830  0.59350095  0.80131524  1
  Pd  Pd188  1  0.00431580  0.00286901  0.79491452  1
  Pd  Pd189  1  0.80561851  0.60038884  0.38987442  1
  Pd  Pd190  1  0.59794959  0.20311297  0.19701933  1
  Pd  Pd191  1  0.80744747  0.01273063  0.58900227  1
  Pd  Pd192  1  0.39548386  0.81192573  0.80920562  1
  Pd  Pd193  1  0.39940073  0.19375340  0.40382052  1
  Pd  Pd194  1  0.19845232  0.80756591  0.59248659  1
  Pd  Pd195  1  0.80249181  0.00344062  0.00336543  1
  Pd  Pd196  1  0.00004334  0.20858968  0.39246709  1
  Pd  Pd197  1  0.59491044  0.00456292  0.20661487  1
  Pd  Pd198  1  0.60238440  0.80308308  0.79569304  1
  Pd  Pd199  1  0.80231852  0.80493893  0.79797816  1
  Rh  Rh200  1  0.40295093  0.60674148  0.01041164  1
  Rh  Rh201  1  0.39800660  0.00311009  0.58931338  1
  Rh  Rh202  1  0.20892814  -0.00004119  0.39477727  1
  Rh  Rh203  1  0.40472595  0.20368382  0.79296322  1
  Rh  Rh204  1  0.80473035  0.00656471  0.20483500  1
  Rh  Rh205  1  -0.00602945  0.00558993  0.40042324  1
  Rh  Rh206  1  0.19338305  0.40223366  0.59062666  1
  Rh  Rh207  1  0.39799280  0.19544609  0.00162118  1
  Rh  Rh208  1  0.20032359  0.80216117  0.39661077  1
  Rh  Rh209  1  -0.00582670  0.19498300  0.60889175  1
  Rh  Rh210  1  0.39381672  -0.00362068  0.80925043  1
  Rh  Rh211  1  -0.00276824  -0.00206668  0.00424590  1
  Rh  Rh212  1  0.19933966  0.39474417  0.19466257  1
  Rh  Rh213  1  0.80220583  0.60141542  0.00488141  1
  Rh  Rh214  1  0.60174215  0.80423583  0.20847568  1
  Rh  Rh215  1  0.81308352  0.39108708  0.60651791  1
  Rh  Rh216  1  0.20137442  0.00823471  0.79337611  1
  Rh  Rh217  1  0.39822222  0.40376863  0.39818903  1
  Rh  Rh218  1  0.39436865  0.19862592  0.20417502  1
  Rh  Rh219  1  0.79746967  0.80369928  0.00508931  1
  Rh  Rh220  1  0.59512385  0.20258084  0.40647996  1
  Rh  Rh221  1  0.78783382  0.18839148  0.00494352  1
  Rh  Rh222  1  0.58355495  0.60805527  0.41123619  1
  Rh  Rh223  1  0.40122753  0.80189655  0.59433548  1
  Rh  Rh224  1  0.40214130  0.19457022  0.59679573  1
  Rh  Rh225  1  0.40348007  0.40200960  0.20734679  1
  Rh  Rh226  1  0.79656138  0.39756684  0.39102416  1
  Rh  Rh227  1  0.20145937  0.79812462  0.79688347  1
  Rh  Rh228  1  0.19690097  0.59809045  0.00235904  1
  Rh  Rh229  1  0.59200085  0.58629578  0.20020930  1
  Rh  Rh230  1  0.78550400  0.60234577  0.60159813  1
  Rh  Rh231  1  0.20802594  0.80537351  0.00428324  1
  Rh  Rh232  1  0.00382176  0.20337991  0.20429436  1
  Rh  Rh233  1  0.00721069  0.59696590  0.60278749  1
  Rh  Rh234  1  0.58945861  0.40093581  0.60422520  1
  Rh  Rh235  1  0.79897772  0.19667261  0.40369871  1
  Rh  Rh236  1  0.39758902  0.00219532  0.40155044  1
  Rh  Rh237  1  0.20213834  0.39943111  0.00623155  1
  Rh  Rh238  1  0.40457862  0.79527917  0.40377665  1
  Rh  Rh239  1  0.01330556  0.20735378  -0.00513464  1
  Rh  Rh240  1  0.80326352  0.00203186  0.80450206  1
  Rh  Rh241  1  0.60324651  0.00837543  0.79746171  1
  Rh  Rh242  1  0.20928816  -0.00875577  0.01579774  1
  Rh  Rh243  1  -0.00049838  0.60334328  0.19880925  1
  Rh  Rh244  1  0.20374920  0.19430391  0.20216639  1
  Rh  Rh245  1  0.60152455  -0.00427040  0.39580455  1
  Rh  Rh246  1  0.00597608  0.79827230  0.19666966  1
  Rh  Rh247  1  0.20571972  0.20484683  0.00096873  1
  Rh  Rh248  1  0.78805463  0.39902694  0.20775916  1
  Rh  Rh249  1  0.21363529  0.40500290  0.79921288  1
