# generated using pymatgen
data_ZrScNbPdRh
_symmetry_space_group_name_H-M   'P 1'
_cell_length_a   16.55395578
_cell_length_b   16.55190761
_cell_length_c   16.55500887
_cell_angle_alpha   90.02435482
_cell_angle_beta   90.01594700
_cell_angle_gamma   90.00062852
_symmetry_Int_Tables_number   1
_chemical_formula_structural   ZrScNbPdRh
_chemical_formula_sum   'Zr50 Sc50 Nb50 Pd50 Rh50'
_cell_volume   4536.06433986
_cell_formula_units_Z   50
loop_
 _symmetry_equiv_pos_site_id
 _symmetry_equiv_pos_as_xyz
  1  'x, y, z'
loop_
 _atom_site_type_symbol
 _atom_site_label
 _atom_site_symmetry_multiplicity
 _atom_site_fract_x
 _atom_site_fract_y
 _atom_site_fract_z
 _atom_site_occupancy
  Zr  Zr0  1  0.29761529  0.29866036  0.09622623  1
  Zr  Zr1  1  0.29388749  0.09515328  0.91001741  1
  Zr  Zr2  1  0.90406746  0.70557987  0.50147705  1
  Zr  Zr3  1  0.50849036  0.29639758  0.49207815  1
  Zr  Zr4  1  0.69482801  0.50182439  0.49732862  1
  Zr  Zr5  1  0.89578255  0.11271467  0.10032789  1
  Zr  Zr6  1  0.91233724  0.09777955  0.70644785  1
  Zr  Zr7  1  0.49970348  0.70687319  0.69814464  1
  Zr  Zr8  1  0.30509396  0.31383907  0.29895613  1
  Zr  Zr9  1  0.09843203  0.10055527  0.31128366  1
  Zr  Zr10  1  0.30104139  0.89387785  0.31144504  1
  Zr  Zr11  1  0.30423471  0.70384450  0.69276395  1
  Zr  Zr12  1  0.49619880  0.09912220  0.10335088  1
  Zr  Zr13  1  0.70617710  0.49481483  0.89997924  1
  Zr  Zr14  1  0.70270127  0.09911375  0.70286486  1
  Zr  Zr15  1  0.89494469  0.30335566  0.91027795  1
  Zr  Zr16  1  0.10942701  0.90388192  0.89909901  1
  Zr  Zr17  1  0.89432333  0.90359419  0.90400506  1
  Zr  Zr18  1  0.50407800  0.90260591  0.09765658  1
  Zr  Zr19  1  0.09560952  0.50603583  0.90074860  1
  Zr  Zr20  1  0.90066732  0.91402653  0.10183509  1
  Zr  Zr21  1  0.10136434  0.69528971  0.08472880  1
  Zr  Zr22  1  0.10393836  0.70518984  0.30186148  1
  Zr  Zr23  1  0.50381877  0.89940683  0.30132946  1
  Zr  Zr24  1  0.70917223  0.50588027  0.70063233  1
  Zr  Zr25  1  0.51205978  0.69899435  0.10232297  1
  Zr  Zr26  1  0.90811253  0.30286528  0.50123255  1
  Zr  Zr27  1  0.50007028  0.09029340  0.90640963  1
  Zr  Zr28  1  0.91237673  0.49890901  0.51029626  1
  Zr  Zr29  1  0.69545935  0.90766738  0.89736958  1
  Zr  Zr30  1  0.90723785  0.29970800  0.70127270  1
  Zr  Zr31  1  0.29530010  0.30053847  0.90065848  1
  Zr  Zr32  1  0.69899234  0.70583195  0.69663864  1
  Zr  Zr33  1  0.70226907  0.71383033  0.90676581  1
  Zr  Zr34  1  0.10961410  0.29935264  0.90325057  1
  Zr  Zr35  1  0.30175622  0.49042877  0.89733817  1
  Zr  Zr36  1  0.49332867  0.29767677  0.11209027  1
  Zr  Zr37  1  0.09180208  0.29584257  0.09606577  1
  Zr  Zr38  1  0.89932100  0.69635863  0.09750812  1
  Zr  Zr39  1  0.10165948  0.69799280  0.50316750  1
  Zr  Zr40  1  0.69677850  0.89197063  0.70169027  1
  Zr  Zr41  1  0.69949127  0.50651430  0.10751170  1
  Zr  Zr42  1  0.68987187  0.11598037  0.50531964  1
  Zr  Zr43  1  0.49700972  0.70027059  0.30903680  1
  Zr  Zr44  1  0.49849145  0.50051601  0.09678918  1
  Zr  Zr45  1  0.69473951  0.88809038  0.09118459  1
  Zr  Zr46  1  0.89707649  0.89654439  0.48854779  1
  Zr  Zr47  1  0.11042783  0.10065500  0.50634826  1
  Zr  Zr48  1  0.70113851  0.28790796  0.69086274  1
  Zr  Zr49  1  0.09559859  0.90342427  0.09822940  1
  Sc  Sc50  1  0.89933472  0.70508700  0.30455693  1
  Sc  Sc51  1  0.49605868  0.89535601  0.49543052  1
  Sc  Sc52  1  0.69289805  0.70108246  0.50395681  1
  Sc  Sc53  1  0.10760453  0.70444578  0.69068524  1
  Sc  Sc54  1  0.49231187  0.30027531  0.69706972  1
  Sc  Sc55  1  0.49742732  0.69762065  0.50105484  1
  Sc  Sc56  1  0.69718500  0.10153000  0.29463355  1
  Sc  Sc57  1  0.10104901  0.89529812  0.50060473  1
  Sc  Sc58  1  0.29772771  0.49970417  0.69612245  1
  Sc  Sc59  1  0.49744987  0.50357577  0.49145464  1
  Sc  Sc60  1  0.89857031  0.08924714  0.29502851  1
  Sc  Sc61  1  0.30200991  0.89930421  0.69853363  1
  Sc  Sc62  1  0.29799727  0.31026096  0.70490293  1
  Sc  Sc63  1  0.30216690  0.90098220  0.50460211  1
  Sc  Sc64  1  0.10219827  0.29789604  0.49712745  1
  Sc  Sc65  1  0.90082185  0.69609372  0.69480292  1
  Sc  Sc66  1  0.10801020  0.90995475  0.69990840  1
  Sc  Sc67  1  0.29922742  0.10094745  0.31740638  1
  Sc  Sc68  1  0.89509675  0.48881637  0.28764555  1
  Sc  Sc69  1  0.69595005  0.90423414  0.30112326  1
  Sc  Sc70  1  0.89998069  0.89774948  0.69887351  1
  Sc  Sc71  1  0.49348543  0.30984851  0.91329305  1
  Sc  Sc72  1  0.10283628  0.49498245  0.50549882  1
  Sc  Sc73  1  0.49126948  0.89717934  0.70190128  1
  Sc  Sc74  1  0.50547738  0.10249490  0.30322783  1
  Sc  Sc75  1  0.91183076  0.69260654  0.90227423  1
  Sc  Sc76  1  0.09812474  0.49854914  0.69609894  1
  Sc  Sc77  1  0.49262937  0.09511946  0.69560155  1
  Sc  Sc78  1  0.69280548  0.30077361  0.29367143  1
  Sc  Sc79  1  0.49128085  0.10261982  0.49688283  1
  Sc  Sc80  1  0.49475383  0.69763082  0.89628103  1
  Sc  Sc81  1  0.29512543  0.91091641  0.08536341  1
  Sc  Sc82  1  0.90309392  0.29716960  0.28517889  1
  Sc  Sc83  1  0.69047458  0.69521930  0.29447984  1
  Sc  Sc84  1  0.29971857  0.90313619  0.89081065  1
  Sc  Sc85  1  0.91380141  0.09660764  0.49474127  1
  Sc  Sc86  1  0.49620474  0.49835654  0.90356001  1
  Sc  Sc87  1  0.30443001  0.50140981  0.50425480  1
  Sc  Sc88  1  0.69985198  0.89176179  0.49575832  1
  Sc  Sc89  1  0.29892106  0.09073448  0.69349427  1
  Sc  Sc90  1  0.30239952  0.29569764  0.49977819  1
  Sc  Sc91  1  0.09536006  0.90111407  0.30807828  1
  Sc  Sc92  1  0.70324643  0.29389891  0.09960804  1
  Sc  Sc93  1  0.69278280  0.49870511  0.29728969  1
  Sc  Sc94  1  0.49690480  0.89902476  0.89636270  1
  Sc  Sc95  1  0.09133510  0.10065688  0.09282048  1
  Sc  Sc96  1  0.69218718  0.10291618  0.09942584  1
  Sc  Sc97  1  0.10608446  0.49692665  0.09619159  1
  Sc  Sc98  1  0.49577324  0.49706198  0.30300054  1
  Sc  Sc99  1  0.48765856  0.50130932  0.70006667  1
  Nb  Nb100  1  0.89791495  0.89988942  0.29747541  1
  Nb  Nb101  1  0.29400488  0.70492769  0.89777323  1
  Nb  Nb102  1  0.10610332  0.49730693  0.30095014  1
  Nb  Nb103  1  0.89787165  0.50075577  0.89377704  1
  Nb  Nb104  1  0.30355443  0.50224424  0.10815163  1
  Nb  Nb105  1  0.89885623  0.30095283  0.10156047  1
  Nb  Nb106  1  0.70100817  0.10558812  0.89857224  1
  Nb  Nb107  1  0.70060726  0.70093932  0.09997414  1
  Nb  Nb108  1  0.49883971  0.30460204  0.30336479  1
  Nb  Nb109  1  0.70189376  0.30050699  0.50089337  1
  Nb  Nb110  1  0.69771393  0.29512303  0.89715642  1
  Nb  Nb111  1  0.09901683  0.09972971  0.70699081  1
  Nb  Nb112  1  0.30071744  0.69828350  0.29893846  1
  Nb  Nb113  1  0.89792510  0.49373058  0.09830015  1
  Nb  Nb114  1  0.89600535  0.10032689  0.90138894  1
  Nb  Nb115  1  0.11046498  0.30132492  0.30187029  1
  Nb  Nb116  1  0.30125411  0.69431173  0.10270658  1
  Nb  Nb117  1  0.90257429  0.49866762  0.70806605  1
  Nb  Nb118  1  0.09774624  0.10074190  0.88652197  1
  Nb  Nb119  1  0.29793024  0.50514139  0.29566516  1
  Nb  Nb120  1  0.30073072  0.09645822  0.50309422  1
  Nb  Nb121  1  0.10339820  0.29387096  0.70604255  1
  Nb  Nb122  1  0.29870258  0.70056890  0.49546396  1
  Nb  Nb123  1  0.29819902  0.10127662  0.10427783  1
  Nb  Nb124  1  0.10569909  0.70314600  0.89781214  1
  Nb  Nb125  1  0.20185433  0.60676907  0.80380012  1
  Nb  Nb126  1  0.20245588  0.00318395  0.20202632  1
  Nb  Nb127  1  0.80612007  0.59353528  0.40181887  1
  Nb  Nb128  1  -0.00124056  0.79938280  0.19737229  1
  Nb  Nb129  1  0.80280919  0.59444870  0.00139592  1
  Nb  Nb130  1  0.00321784  0.59333401  0.39227004  1
  Nb  Nb131  1  0.80182841  0.80191738  0.19642383  1
  Nb  Nb132  1  0.39333870  0.79235166  0.00531496  1
  Nb  Nb133  1  0.20417281  0.80095849  0.19466136  1
  Nb  Nb134  1  0.79671739  0.00212912  0.59714920  1
  Nb  Nb135  1  0.80152163  0.40099541  0.60040485  1
  Nb  Nb136  1  0.19940207  0.19817641  0.20382511  1
  Nb  Nb137  1  0.20287766  0.59790031  0.39364405  1
  Nb  Nb138  1  0.60499549  0.39907936  0.60183655  1
  Nb  Nb139  1  0.59591310  0.20198045  0.80677351  1
  Nb  Nb140  1  0.79943429  0.39705560  0.40507236  1
  Nb  Nb141  1  0.00933623  0.80054153  0.80521378  1
  Nb  Nb142  1  0.00291980  0.59821755  0.20084828  1
  Nb  Nb143  1  0.60471896  0.39723894  0.79679263  1
  Nb  Nb144  1  0.40029835  0.19737899  0.80714202  1
  Nb  Nb145  1  0.79989697  0.20671539  0.40125659  1
  Nb  Nb146  1  0.60542557  0.59724273  0.79850796  1
  Nb  Nb147  1  0.39236501  0.79902177  0.19532111  1
  Nb  Nb148  1  0.60392279  -0.00056662  0.60033126  1
  Nb  Nb149  1  0.39245227  -0.00280322  0.20265260  1
  Pd  Pd150  1  0.79458854  0.40071980  0.00804388  1
  Pd  Pd151  1  0.20002507  -0.00521206  0.40446416  1
  Pd  Pd152  1  0.80595406  0.59929347  0.59358655  1
  Pd  Pd153  1  0.79379439  0.01206578  0.40581809  1
  Pd  Pd154  1  0.19651534  0.39461820  0.19238579  1
  Pd  Pd155  1  0.81687001  0.19280500  0.59190067  1
  Pd  Pd156  1  0.40103662  0.19875632  -0.00352573  1
  Pd  Pd157  1  -0.00081727  0.40427210  -0.00242726  1
  Pd  Pd158  1  -0.00659615  0.20492913  0.39109535  1
  Pd  Pd159  1  0.39401518  0.60309624  -0.00339874  1
  Pd  Pd160  1  0.80242453  0.20165837  0.80349715  1
  Pd  Pd161  1  0.19319867  0.60402329  0.20055375  1
  Pd  Pd162  1  0.80407828  -0.00028955  0.79458382  1
  Pd  Pd163  1  0.79920922  0.61276408  0.80842166  1
  Pd  Pd164  1  -0.00188425  0.20734210  0.81080065  1
  Pd  Pd165  1  0.40827104  0.60136330  0.20393619  1
  Pd  Pd166  1  0.60094536  0.00356585  0.40973513  1
  Pd  Pd167  1  0.00692258  0.19592215  0.20622737  1
  Pd  Pd168  1  0.19727630  0.39365901  0.59902525  1
  Pd  Pd169  1  0.20707653  0.80210508  0.00322194  1
  Pd  Pd170  1  0.21226235  0.19335146  0.79237033  1
  Pd  Pd171  1  0.59840069  0.39991153  0.19706995  1
  Pd  Pd172  1  0.59521710  0.20431617  -0.00107370  1
  Pd  Pd173  1  0.00985288  0.60858376  0.78935104  1
  Pd  Pd174  1  0.21114038  0.59204495  -0.00600419  1
  Pd  Pd175  1  0.81447956  0.79328179  0.80108477  1
  Pd  Pd176  1  0.79107680  0.00972321  0.00491923  1
  Pd  Pd177  1  0.00782066  0.40371382  0.20009303  1
  Pd  Pd178  1  0.00699481  0.39640645  0.80317556  1
  Pd  Pd179  1  0.20750494  0.40559176  0.40835193  1
  Pd  Pd180  1  -0.00415762  0.80436436  -0.00293394  1
  Pd  Pd181  1  0.60623953  0.39589341  0.00125201  1
  Pd  Pd182  1  0.59333664  0.00461664  0.79281664  1
  Pd  Pd183  1  0.60708034  0.60097132  -0.00973901  1
  Pd  Pd184  1  0.58863345  0.59342843  0.60602420  1
  Pd  Pd185  1  0.39736478  0.20306670  0.39625472  1
  Pd  Pd186  1  0.00333026  0.80749081  0.60911205  1
  Pd  Pd187  1  -0.00063127  -0.00694539  0.59707858  1
  Pd  Pd188  1  0.20421924  0.20337617  0.60742299  1
  Pd  Pd189  1  0.40698945  0.39908616  0.59209489  1
  Pd  Pd190  1  0.39247954  0.19172258  0.21434167  1
  Pd  Pd191  1  0.00902870  0.20005107  0.59967429  1
  Pd  Pd192  1  0.39655566  0.60090199  0.79907474  1
  Pd  Pd193  1  0.80578303  0.60506622  0.20528658  1
  Pd  Pd194  1  0.00229290  0.01011879  -0.01021876  1
  Pd  Pd195  1  0.78697661  -0.00335965  0.19457796  1
  Pd  Pd196  1  0.79763092  0.39015586  0.79276042  1
  Pd  Pd197  1  0.39514586  0.20079408  0.60709921  1
  Pd  Pd198  1  -0.00231624  0.40088008  0.38899263  1
  Pd  Pd199  1  0.78855156  0.79015840  0.39008201  1
  Rh  Rh200  1  0.40698902  0.39197650  0.80184731  1
  Rh  Rh201  1  0.80012624  0.80469186  0.59706823  1
  Rh  Rh202  1  0.00257940  0.60058652  0.60377286  1
  Rh  Rh203  1  0.60151363  0.39855604  0.40121956  1
  Rh  Rh204  1  0.19154747  0.40996311  0.79697692  1
  Rh  Rh205  1  0.39875868  0.79880898  0.59371216  1
  Rh  Rh206  1  0.60479711  0.00095704  -0.00039719  1
  Rh  Rh207  1  0.20429384  0.59996469  0.59855156  1
  Rh  Rh208  1  0.80898820  0.79637838  0.00446224  1
  Rh  Rh209  1  0.60477049  0.20402371  0.38984036  1
  Rh  Rh210  1  0.19262912  0.19314741  0.00573657  1
  Rh  Rh211  1  0.00588735  0.39348808  0.61190299  1
  Rh  Rh212  1  0.39957038  0.79600701  0.40196500  1
  Rh  Rh213  1  0.79978231  0.19834613  -0.00096528  1
  Rh  Rh214  1  0.79915922  0.20102980  0.20381809  1
  Rh  Rh215  1  0.59259014  0.59691948  0.20432510  1
  Rh  Rh216  1  0.00844820  -0.00196785  0.20787203  1
  Rh  Rh217  1  0.20664781  0.20683026  0.39843794  1
  Rh  Rh218  1  0.60269256  0.80164570  0.20532635  1
  Rh  Rh219  1  0.19758962  0.79685767  0.79212797  1
  Rh  Rh220  1  -0.00069372  0.80019922  0.39576836  1
  Rh  Rh221  1  0.59404382  0.79438499  0.80367779  1
  Rh  Rh222  1  0.60366393  0.60081355  0.39731151  1
  Rh  Rh223  1  -0.00077168  -0.00734404  0.80544114  1
  Rh  Rh224  1  0.79524936  0.39235144  0.19917649  1
  Rh  Rh225  1  0.40225657  0.00111580  0.40048694  1
  Rh  Rh226  1  0.59486871  0.20254520  0.20222399  1
  Rh  Rh227  1  0.39708783  0.79989799  0.80633903  1
  Rh  Rh228  1  -0.00844002  0.58717296  0.00442108  1
  Rh  Rh229  1  0.40169598  -0.00605832  0.00362429  1
  Rh  Rh230  1  0.39532269  0.00520600  0.80129306  1
  Rh  Rh231  1  0.20186925  0.79527163  0.40423277  1
  Rh  Rh232  1  0.39934871  0.60300117  0.59634397  1
  Rh  Rh233  1  0.40211351  0.40716231  0.19908805  1
  Rh  Rh234  1  0.40544771  -0.00342637  0.59317434  1
  Rh  Rh235  1  0.60105196  0.79509135  0.40047429  1
  Rh  Rh236  1  0.00077032  -0.00509752  0.40227864  1
  Rh  Rh237  1  0.59663944  -0.00032753  0.19718556  1
  Rh  Rh238  1  0.20451419  0.80490392  0.59804768  1
  Rh  Rh239  1  0.19098935  0.00866262  0.00292356  1
  Rh  Rh240  1  0.20364268  0.40581204  0.00488848  1
  Rh  Rh241  1  0.59341013  0.80864086  0.59733879  1
  Rh  Rh242  1  0.58418267  0.19857142  0.60768738  1
  Rh  Rh243  1  0.58649959  0.79901385  -0.00949618  1
  Rh  Rh244  1  -0.00421634  0.19791893  -0.00879551  1
  Rh  Rh245  1  0.20285338  0.00593978  0.79529195  1
  Rh  Rh246  1  0.39716329  0.40330436  0.40185719  1
  Rh  Rh247  1  0.39050865  0.59858174  0.40117114  1
  Rh  Rh248  1  0.39298655  0.40347564  0.00985908  1
  Rh  Rh249  1  0.20006453  0.00071270  0.59881141  1
