# generated using pymatgen
data_ZrScNbPdRh
_symmetry_space_group_name_H-M   'P 1'
_cell_length_a   16.56784578
_cell_length_b   16.56321048
_cell_length_c   16.56725719
_cell_angle_alpha   90.00493716
_cell_angle_beta   89.99030586
_cell_angle_gamma   89.97889598
_symmetry_Int_Tables_number   1
_chemical_formula_structural   ZrScNbPdRh
_chemical_formula_sum   'Zr50 Sc50 Nb50 Pd50 Rh50'
_cell_volume   4546.33193431
_cell_formula_units_Z   50
loop_
 _symmetry_equiv_pos_site_id
 _symmetry_equiv_pos_as_xyz
  1  'x, y, z'
loop_
 _atom_site_type_symbol
 _atom_site_label
 _atom_site_symmetry_multiplicity
 _atom_site_fract_x
 _atom_site_fract_y
 _atom_site_fract_z
 _atom_site_occupancy
  Zr  Zr0  1  0.69022972  0.10213539  0.32135517  1
  Zr  Zr1  1  0.90722563  0.91449495  0.70065042  1
  Zr  Zr2  1  0.70017152  0.91083629  0.49495558  1
  Zr  Zr3  1  0.70175734  0.49675954  0.90201400  1
  Zr  Zr4  1  0.10663513  0.29910394  0.48381163  1
  Zr  Zr5  1  0.30738024  0.29974548  0.69933846  1
  Zr  Zr6  1  0.49466697  0.70300144  0.10459395  1
  Zr  Zr7  1  0.09714262  0.50427402  0.49436570  1
  Zr  Zr8  1  0.69772554  0.89937857  0.10758689  1
  Zr  Zr9  1  0.10036341  0.09900338  0.49097302  1
  Zr  Zr10  1  0.09541515  0.29626879  0.09274753  1
  Zr  Zr11  1  0.30600710  0.70007573  0.31450881  1
  Zr  Zr12  1  0.49469433  0.68891608  0.69658785  1
  Zr  Zr13  1  0.10339687  0.69767050  0.49602041  1
  Zr  Zr14  1  0.90134734  0.50524827  0.10521055  1
  Zr  Zr15  1  0.90244499  0.10023229  0.10270500  1
  Zr  Zr16  1  0.89409637  0.90292947  0.10785701  1
  Zr  Zr17  1  0.10303752  0.10079084  0.90765696  1
  Zr  Zr18  1  0.49842857  0.28986342  0.30078335  1
  Zr  Zr19  1  0.70013099  0.09712532  0.09098485  1
  Zr  Zr20  1  0.50281632  0.09648067  0.49957492  1
  Zr  Zr21  1  0.07470290  0.09776139  0.69433410  1
  Zr  Zr22  1  0.10146237  0.69497310  0.69900026  1
  Zr  Zr23  1  0.70424824  0.50570405  0.49393167  1
  Zr  Zr24  1  0.10666361  0.50223312  0.69968025  1
  Zr  Zr25  1  0.90305590  0.29520070  0.69338626  1
  Zr  Zr26  1  0.89859340  0.69710435  0.10985130  1
  Zr  Zr27  1  0.89165646  0.70521444  0.69767315  1
  Zr  Zr28  1  0.49746471  0.90299993  0.89745878  1
  Zr  Zr29  1  0.09859874  0.90140600  0.49222446  1
  Zr  Zr30  1  0.49503445  0.89683280  0.10391296  1
  Zr  Zr31  1  0.29927740  0.69764744  0.09263614  1
  Zr  Zr32  1  0.10338642  0.90197875  0.30731552  1
  Zr  Zr33  1  0.29354777  0.90689588  0.10776770  1
  Zr  Zr34  1  0.69708942  0.91038538  0.90590659  1
  Zr  Zr35  1  0.29801645  0.89581693  0.90063973  1
  Zr  Zr36  1  0.49725150  0.88840437  0.30227532  1
  Zr  Zr37  1  0.10763113  0.30043971  0.90226206  1
  Zr  Zr38  1  0.09294279  0.30226270  0.69855682  1
  Zr  Zr39  1  0.90034294  0.09673043  0.50535454  1
  Zr  Zr40  1  0.10056874  0.90687265  0.10642651  1
  Zr  Zr41  1  0.49658531  0.90344594  0.70399742  1
  Zr  Zr42  1  0.10333103  0.50661879  0.09697948  1
  Zr  Zr43  1  0.70722517  0.50095442  0.09865451  1
  Zr  Zr44  1  0.90141974  0.29381181  0.10632813  1
  Zr  Zr45  1  0.69346915  0.29617790  0.90450460  1
  Zr  Zr46  1  0.49831224  0.50066448  0.89402463  1
  Zr  Zr47  1  0.49279036  0.49926541  0.10157495  1
  Zr  Zr48  1  0.48759904  0.70588248  0.90026847  1
  Zr  Zr49  1  0.29723629  0.50073253  0.09782372  1
  Sc  Sc50  1  0.90017181  0.09224173  0.89505246  1
  Sc  Sc51  1  0.50790201  0.10069870  0.69996328  1
  Sc  Sc52  1  0.29443558  0.49784793  0.89770173  1
  Sc  Sc53  1  0.49771185  0.49828568  0.30953269  1
  Sc  Sc54  1  0.89722773  0.50669239  0.90663859  1
  Sc  Sc55  1  0.70390140  0.29599312  0.09634722  1
  Sc  Sc56  1  0.69853174  0.29939072  0.68418569  1
  Sc  Sc57  1  0.09564628  0.69370173  0.09837979  1
  Sc  Sc58  1  0.90517698  0.69798085  0.90142118  1
  Sc  Sc59  1  0.69236717  0.51051611  0.69238728  1
  Sc  Sc60  1  0.30773259  0.29931118  0.09235844  1
  Sc  Sc61  1  0.49970922  0.29208338  0.09687250  1
  Sc  Sc62  1  0.70158493  0.89782452  0.29934134  1
  Sc  Sc63  1  0.70694301  0.90523948  0.70303129  1
  Sc  Sc64  1  0.29684997  0.69798113  0.69503835  1
  Sc  Sc65  1  0.70059680  0.29951325  0.49483696  1
  Sc  Sc66  1  0.70112376  0.50143497  0.30641741  1
  Sc  Sc67  1  0.91384877  0.49456447  0.69055890  1
  Sc  Sc68  1  0.69200188  0.09916546  0.89639078  1
  Sc  Sc69  1  0.30622944  0.89430854  0.69970162  1
  Sc  Sc70  1  0.09803295  0.10058162  0.30188609  1
  Sc  Sc71  1  0.50328874  0.49975110  0.50354216  1
  Sc  Sc72  1  0.30276801  0.29908287  0.89874228  1
  Sc  Sc73  1  0.30851123  0.29534754  0.49618002  1
  Sc  Sc74  1  0.90030920  0.89818821  0.89593345  1
  Sc  Sc75  1  0.29481506  0.88955335  0.49566552  1
  Sc  Sc76  1  0.89816195  0.29375161  0.30085007  1
  Sc  Sc77  1  0.49326001  0.29899808  0.69383791  1
  Sc  Sc78  1  0.10244952  0.50239552  0.90024304  1
  Sc  Sc79  1  0.90775298  0.90074012  0.29660957  1
  Sc  Sc80  1  0.49584758  0.29289880  0.89844813  1
  Sc  Sc81  1  0.29993048  0.10987173  0.90843511  1
  Sc  Sc82  1  0.30515292  0.30203571  0.31329835  1
  Sc  Sc83  1  0.10406823  0.89289475  0.89885012  1
  Sc  Sc84  1  0.30240048  0.10150669  0.29556093  1
  Sc  Sc85  1  0.70143840  0.29554838  0.30408046  1
  Sc  Sc86  1  0.90000092  0.10217501  0.29828822  1
  Sc  Sc87  1  0.89578571  0.30449805  0.49929492  1
  Sc  Sc88  1  0.30252276  0.50089835  0.30536031  1
  Sc  Sc89  1  0.90876762  0.29894759  0.90526415  1
  Sc  Sc90  1  0.10483647  0.10097100  0.10158934  1
  Sc  Sc91  1  0.30781010  0.50440595  0.69952659  1
  Sc  Sc92  1  0.32462625  0.09923370  0.69081273  1
  Sc  Sc93  1  0.69781126  0.70453419  0.30421277  1
  Sc  Sc94  1  0.09898702  0.89553435  0.70193100  1
  Sc  Sc95  1  0.10316448  0.69853444  0.89682509  1
  Sc  Sc96  1  0.50350465  0.10349196  0.89756793  1
  Sc  Sc97  1  0.89786735  0.51000944  0.30400841  1
  Sc  Sc98  1  0.49905583  0.89843929  0.50218408  1
  Sc  Sc99  1  0.71433349  0.68899607  0.89180490  1
  Nb  Nb100  1  0.49977633  0.70177411  0.49038436  1
  Nb  Nb101  1  0.90496321  0.89582481  0.49571843  1
  Nb  Nb102  1  0.70630408  0.69737632  0.50813591  1
  Nb  Nb103  1  0.69988797  0.10288182  0.50521621  1
  Nb  Nb104  1  0.70523961  0.10466446  0.68957322  1
  Nb  Nb105  1  0.09737476  0.69600369  0.30080142  1
  Nb  Nb106  1  0.48665869  0.10422667  0.11315262  1
  Nb  Nb107  1  0.49665985  0.10068858  0.29829145  1
  Nb  Nb108  1  0.89994403  0.69222691  0.49877592  1
  Nb  Nb109  1  0.10291565  0.30308715  0.30021662  1
  Nb  Nb110  1  0.10344698  0.49825621  0.30092281  1
  Nb  Nb111  1  0.49858029  0.49754911  0.70436805  1
  Nb  Nb112  1  0.89642598  0.10469354  0.69613775  1
  Nb  Nb113  1  0.69882450  0.70379925  0.69607362  1
  Nb  Nb114  1  0.29356368  0.70881241  0.89559402  1
  Nb  Nb115  1  0.90089295  0.51324417  0.49554612  1
  Nb  Nb116  1  0.29371977  0.50290332  0.49912167  1
  Nb  Nb117  1  0.49402545  0.30171748  0.49245506  1
  Nb  Nb118  1  0.30176826  0.09724530  0.49782693  1
  Nb  Nb119  1  0.50376358  0.69884074  0.30662628  1
  Nb  Nb120  1  0.29635351  0.90130138  0.30236376  1
  Nb  Nb121  1  0.30135581  0.69097134  0.50468676  1
  Nb  Nb122  1  0.69794658  0.70272374  0.10514308  1
  Nb  Nb123  1  0.29775882  0.09936268  0.10411127  1
  Nb  Nb124  1  0.90654145  0.70259677  0.30527100  1
  Nb  Nb125  1  -0.00733055  0.79728045  0.59223855  1
  Nb  Nb126  1  0.60058118  0.60524139  0.00432947  1
  Nb  Nb127  1  0.19811580  0.19297362  0.78470695  1
  Nb  Nb128  1  0.60502785  0.79316881  0.60189362  1
  Nb  Nb129  1  0.39869158  -0.00243185  0.39436800  1
  Nb  Nb130  1  0.79396400  0.79869343  0.00677918  1
  Nb  Nb131  1  0.59948713  0.40333200  0.19755318  1
  Nb  Nb132  1  0.20167798  0.39693617  0.59462898  1
  Nb  Nb133  1  0.00128746  -0.00406762  0.00463948  1
  Nb  Nb134  1  0.20027530  0.20919828  0.20149061  1
  Nb  Nb135  1  0.20105037  0.01033399  0.79151802  1
  Nb  Nb136  1  0.39579367  0.00367033  0.01003183  1
  Nb  Nb137  1  0.20005745  0.79612008  0.20854401  1
  Nb  Nb138  1  0.19970245  0.19685739  0.60031795  1
  Nb  Nb139  1  0.59626456  0.60119560  0.19946618  1
  Nb  Nb140  1  0.80002940  0.20086675  0.79040518  1
  Nb  Nb141  1  0.60324987  0.79407184  0.79745217  1
  Nb  Nb142  1  0.80847402  0.79494616  0.40897696  1
  Nb  Nb143  1  0.79574291  0.39477296  0.79707887  1
  Nb  Nb144  1  0.00732163  0.40179682  0.20486380  1
  Nb  Nb145  1  0.20047756  0.00675145  0.60207099  1
  Nb  Nb146  1  0.60042527  0.40230227  0.79578059  1
  Nb  Nb147  1  0.19604771  0.39745868  0.20248027  1
  Nb  Nb148  1  0.59158235  0.00732493  0.20417003  1
  Nb  Nb149  1  0.60487198  0.79369739  -0.00339366  1
  Pd  Pd150  1  0.40486500  0.79661239  0.59590966  1
  Pd  Pd151  1  0.79399232  0.00939550  0.79950049  1
  Pd  Pd152  1  0.20419401  0.60211341  0.20805667  1
  Pd  Pd153  1  0.60518550  0.20748054  0.79104348  1
  Pd  Pd154  1  0.78909539  0.19269501  0.20541377  1
  Pd  Pd155  1  0.59288245  0.40208795  0.00116245  1
  Pd  Pd156  1  0.79912006  0.40911359  0.60125772  1
  Pd  Pd157  1  -0.00389408  0.59715685  0.79965091  1
  Pd  Pd158  1  0.38912822  0.79425270  0.20395842  1
  Pd  Pd159  1  0.80170430  -0.00269401  0.59789932  1
  Pd  Pd160  1  -0.00030198  0.79814630  0.79390120  1
  Pd  Pd161  1  0.79211283  0.60608220  0.21113415  1
  Pd  Pd162  1  -0.00709214  0.19956646  0.39872243  1
  Pd  Pd163  1  0.39853987  0.39321209  0.20494423  1
  Pd  Pd164  1  0.00628078  0.39755690  0.58543272  1
  Pd  Pd165  1  0.39161565  0.01013473  0.81250670  1
  Pd  Pd166  1  0.80561338  0.59043120  0.60720342  1
  Pd  Pd167  1  0.80814656  0.58663010  0.78672766  1
  Pd  Pd168  1  0.60127887  0.60218989  0.80553460  1
  Pd  Pd169  1  0.40406746  0.59321275  0.40933018  1
  Pd  Pd170  1  0.59372273  0.20563656  0.59364844  1
  Pd  Pd171  1  -0.00609864  0.80361038  0.00360791  1
  Pd  Pd172  1  0.59948757  0.39619460  0.39397028  1
  Pd  Pd173  1  0.20416263  0.39579638  0.79277076  1
  Pd  Pd174  1  0.19421277  0.80509122  0.60110470  1
  Pd  Pd175  1  0.61009387  0.79743676  0.40945685  1
  Pd  Pd176  1  0.79572715  0.80409107  0.80733067  1
  Pd  Pd177  1  -0.00253434  0.19903824  0.80891095  1
  Pd  Pd178  1  -0.01066734  0.40391812  0.39486332  1
  Pd  Pd179  1  0.38750261  0.60352318  0.80358426  1
  Pd  Pd180  1  0.40265622  0.60189856  0.20908526  1
  Pd  Pd181  1  0.80484732  0.19616806  -0.01250352  1
  Pd  Pd182  1  0.40104668  0.39846516  -0.00634840  1
  Pd  Pd183  1  0.39575712  0.59791583  -0.00934456  1
  Pd  Pd184  1  -0.00315183  0.40762813  0.00396630  1
  Pd  Pd185  1  0.80902662  0.39421602  -0.00314841  1
  Pd  Pd186  1  0.80638139  0.40144369  0.39669548  1
  Pd  Pd187  1  0.80896705  -0.00423138  0.39421165  1
  Pd  Pd188  1  0.59390226  0.60310952  0.59206152  1
  Pd  Pd189  1  0.80032549  0.80967008  0.59596373  1
  Pd  Pd190  1  0.39540428  0.40715420  0.59330986  1
  Pd  Pd191  1  0.58448323  0.00479495  0.01036488  1
  Pd  Pd192  1  -0.00648763  0.40629988  0.80893690  1
  Pd  Pd193  1  0.60198212  -0.00603870  0.60609374  1
  Pd  Pd194  1  0.60723828  0.19987240  0.19416585  1
  Pd  Pd195  1  0.78806988  0.01059669  0.21200994  1
  Pd  Pd196  1  0.19365719  0.79736077  0.00930814  1
  Pd  Pd197  1  0.80024116  0.39696200  0.20828832  1
  Pd  Pd198  1  0.00844593  0.79854252  0.20124458  1
  Pd  Pd199  1  0.59641870  0.39908780  0.60023140  1
  Rh  Rh200  1  0.20204388  0.60429445  -0.01047635  1
  Rh  Rh201  1  0.00864856  0.20488148  0.20398898  1
  Rh  Rh202  1  0.20728767  0.40520359  0.40114285  1
  Rh  Rh203  1  0.39582752  0.80887072  0.00097766  1
  Rh  Rh204  1  0.40618996  0.20033374  0.59071920  1
  Rh  Rh205  1  0.58833906  -0.00511292  0.39358980  1
  Rh  Rh206  1  0.81116471  -0.00664590  -0.00153395  1
  Rh  Rh207  1  0.39695960  0.19805214  0.80057488  1
  Rh  Rh208  1  0.40186307  -0.00197966  0.20485263  1
  Rh  Rh209  1  0.59425974  0.20406619  0.40981555  1
  Rh  Rh210  1  0.19706270  0.00496257  0.21173104  1
  Rh  Rh211  1  0.59296973  0.19254397  0.00652503  1
  Rh  Rh212  1  0.38785004  0.20850491  0.20314119  1
  Rh  Rh213  1  0.00442422  0.00641116  0.19888668  1
  Rh  Rh214  1  0.00247470  0.59971710  0.39467247  1
  Rh  Rh215  1  0.40301716  0.19206463  0.00067202  1
  Rh  Rh216  1  0.01070422  -0.00300947  0.81378028  1
  Rh  Rh217  1  0.20297502  0.40023901  0.00440190  1
  Rh  Rh218  1  0.79957993  0.61015481  0.00644114  1
  Rh  Rh219  1  0.40731150  0.39840609  0.80142930  1
  Rh  Rh220  1  0.40345818  0.59691013  0.59372541  1
  Rh  Rh221  1  0.20318667  0.59262177  0.59947504  1
  Rh  Rh222  1  0.20261996  -0.00057621  -0.00902826  1
  Rh  Rh223  1  0.00391032  -0.00866943  0.59117138  1
  Rh  Rh224  1  -0.00739429  0.00409575  0.39573831  1
  Rh  Rh225  1  0.59691395  0.79846029  0.20070807  1
  Rh  Rh226  1  0.20323915  0.80265043  0.79300698  1
  Rh  Rh227  1  0.39956257  0.79376394  0.79129894  1
  Rh  Rh228  1  0.80184045  0.19693524  0.40868150  1
  Rh  Rh229  1  0.00123160  0.20752431  0.58429911  1
  Rh  Rh230  1  0.20441746  0.60402756  0.80125004  1
  Rh  Rh231  1  -0.00190057  0.60717341  0.60233381  1
  Rh  Rh232  1  -0.00635658  0.18745880  -0.00263093  1
  Rh  Rh233  1  0.79637898  0.60981034  0.39616639  1
  Rh  Rh234  1  0.00113043  0.59516050  0.20821544  1
  Rh  Rh235  1  0.80574521  0.79341745  0.20805224  1
  Rh  Rh236  1  0.60286540  0.60477188  0.40008170  1
  Rh  Rh237  1  0.39097785  -0.01022624  0.58417783  1
  Rh  Rh238  1  0.40329527  0.18916702  0.40340338  1
  Rh  Rh239  1  0.39688623  0.80211814  0.40654727  1
  Rh  Rh240  1  0.20101801  0.79073794  0.39747758  1
  Rh  Rh241  1  0.80055733  0.20017045  0.59542557  1
  Rh  Rh242  1  0.60496725  -0.00049310  0.79016579  1
  Rh  Rh243  1  -0.00324699  0.79322286  0.40350548  1
  Rh  Rh244  1  0.00108333  0.60246293  -0.00229161  1
  Rh  Rh245  1  0.19966834  0.60130634  0.39775777  1
  Rh  Rh246  1  0.20596748  0.19411084  0.39500756  1
  Rh  Rh247  1  0.40154839  0.40511603  0.40621167  1
  Rh  Rh248  1  0.20559122  0.20556844  0.00584547  1
  Rh  Rh249  1  0.20939678  0.00600804  0.40082894  1
