# generated using pymatgen
data_ZrScNbPdRh
_symmetry_space_group_name_H-M   'P 1'
_cell_length_a   16.56104517
_cell_length_b   16.56379146
_cell_length_c   16.56209701
_cell_angle_alpha   90.01151748
_cell_angle_beta   89.98137593
_cell_angle_gamma   89.99552439
_symmetry_Int_Tables_number   1
_chemical_formula_structural   ZrScNbPdRh
_chemical_formula_sum   'Zr50 Sc50 Nb50 Pd50 Rh50'
_cell_volume   4543.20974053
_cell_formula_units_Z   50
loop_
 _symmetry_equiv_pos_site_id
 _symmetry_equiv_pos_as_xyz
  1  'x, y, z'
loop_
 _atom_site_type_symbol
 _atom_site_label
 _atom_site_symmetry_multiplicity
 _atom_site_fract_x
 _atom_site_fract_y
 _atom_site_fract_z
 _atom_site_occupancy
  Zr  Zr0  1  0.89834887  0.50192213  0.50157238  1
  Zr  Zr1  1  0.29552585  0.49010518  0.89815276  1
  Zr  Zr2  1  0.90413120  0.89666816  0.10812912  1
  Zr  Zr3  1  0.69454486  0.89819587  0.89868649  1
  Zr  Zr4  1  0.69641682  0.69609000  0.69686504  1
  Zr  Zr5  1  0.70701167  0.50212541  0.69532897  1
  Zr  Zr6  1  0.89607930  0.90479417  0.89249726  1
  Zr  Zr7  1  0.48668689  0.29174297  0.90214563  1
  Zr  Zr8  1  0.69406401  0.50684389  0.09924231  1
  Zr  Zr9  1  0.50583968  0.68999490  0.09652326  1
  Zr  Zr10  1  0.49752495  0.49972907  0.10270887  1
  Zr  Zr11  1  0.49878133  0.09659493  0.29483853  1
  Zr  Zr12  1  0.29624920  0.09632002  0.49345553  1
  Zr  Zr13  1  0.09799343  0.30853189  0.90248871  1
  Zr  Zr14  1  0.10565797  0.70352284  0.30255135  1
  Zr  Zr15  1  0.70371338  0.70724639  0.30103974  1
  Zr  Zr16  1  0.90812209  0.49508280  0.30259101  1
  Zr  Zr17  1  0.30625218  0.50088671  0.10127692  1
  Zr  Zr18  1  0.89738472  0.49747170  0.10854940  1
  Zr  Zr19  1  0.10589472  0.90398310  0.10075543  1
  Zr  Zr20  1  0.49692352  0.70152396  0.89247507  1
  Zr  Zr21  1  0.10135473  0.08944970  0.49489840  1
  Zr  Zr22  1  0.69645396  0.89975725  0.30080137  1
  Zr  Zr23  1  0.10187521  0.50561950  0.70234128  1
  Zr  Zr24  1  0.70053324  0.89519992  0.49454752  1
  Zr  Zr25  1  0.30553117  0.10744094  0.90150845  1
  Zr  Zr26  1  0.69892191  0.09444011  0.89470485  1
  Zr  Zr27  1  0.29470437  0.09343374  0.70501925  1
  Zr  Zr28  1  0.91654259  0.50001490  0.90356754  1
  Zr  Zr29  1  0.09991778  0.69462024  0.89748711  1
  Zr  Zr30  1  0.49299968  0.31107398  0.49657624  1
  Zr  Zr31  1  0.69764089  0.50364804  0.89533278  1
  Zr  Zr32  1  0.49150837  0.90350482  0.29489595  1
  Zr  Zr33  1  0.51067720  0.30122083  0.30195678  1
  Zr  Zr34  1  0.70031644  0.50735610  0.49681569  1
  Zr  Zr35  1  0.29519261  0.70410235  0.50572304  1
  Zr  Zr36  1  0.70437450  0.29069944  0.50069159  1
  Zr  Zr37  1  0.09934636  0.30448919  0.31250763  1
  Zr  Zr38  1  0.69563742  0.89382655  0.10664769  1
  Zr  Zr39  1  0.29881910  0.49910580  0.30708192  1
  Zr  Zr40  1  0.91811434  0.10113727  0.10161889  1
  Zr  Zr41  1  0.71077689  0.48919672  0.30145114  1
  Zr  Zr42  1  0.49198462  0.69740013  0.70011544  1
  Zr  Zr43  1  0.50035898  0.09748743  0.70755651  1
  Zr  Zr44  1  0.09861321  0.10607229  0.29555125  1
  Zr  Zr45  1  0.50349499  0.69514298  0.50596600  1
  Zr  Zr46  1  0.09663833  0.09552141  0.70217916  1
  Zr  Zr47  1  0.69743085  0.10405170  0.31574977  1
  Zr  Zr48  1  0.89741774  0.30534948  0.30313480  1
  Zr  Zr49  1  0.29491597  0.89495251  0.70151752  1
  Sc  Sc50  1  0.29945874  0.29917618  0.08263155  1
  Sc  Sc51  1  0.10777960  0.89552098  0.89823283  1
  Sc  Sc52  1  0.90439173  0.50208835  0.68769190  1
  Sc  Sc53  1  0.49268195  0.50626136  0.69634454  1
  Sc  Sc54  1  0.50545372  0.49130523  0.30078366  1
  Sc  Sc55  1  0.10026358  0.28609418  0.09876334  1
  Sc  Sc56  1  0.90527786  0.29758208  0.09696629  1
  Sc  Sc57  1  0.90980739  0.71346894  0.29730275  1
  Sc  Sc58  1  0.29506077  0.90053182  0.49355533  1
  Sc  Sc59  1  0.29633122  0.70937236  0.89619521  1
  Sc  Sc60  1  0.29899190  0.90194557  0.09935452  1
  Sc  Sc61  1  0.29190659  0.09858653  0.09849294  1
  Sc  Sc62  1  0.90050695  0.90128143  0.69606326  1
  Sc  Sc63  1  0.09511362  0.10352087  0.89967665  1
  Sc  Sc64  1  0.90365499  0.30948210  0.49954057  1
  Sc  Sc65  1  0.90379449  0.10089107  0.70979736  1
  Sc  Sc66  1  0.49579242  0.09385212  0.09634036  1
  Sc  Sc67  1  0.09886430  0.90539834  0.69351385  1
  Sc  Sc68  1  0.49748525  0.09212901  0.90147825  1
  Sc  Sc69  1  0.30020982  0.70921435  0.10276155  1
  Sc  Sc70  1  0.29595291  0.30836283  0.49692555  1
  Sc  Sc71  1  0.30224133  0.49364780  0.50901863  1
  Sc  Sc72  1  0.70294180  0.28466297  0.90264703  1
  Sc  Sc73  1  0.90389474  0.10532297  0.89888212  1
  Sc  Sc74  1  0.89761932  0.70649729  0.50473881  1
  Sc  Sc75  1  0.49433599  0.90224586  0.10243731  1
  Sc  Sc76  1  0.70027603  0.29621047  0.10372767  1
  Sc  Sc77  1  0.49518077  0.51107615  0.89827957  1
  Sc  Sc78  1  0.10662733  0.49400170  0.50961002  1
  Sc  Sc79  1  0.29934161  0.09595934  0.29985505  1
  Sc  Sc80  1  0.29864734  0.70662730  0.30218891  1
  Sc  Sc81  1  0.30143845  0.89871574  0.90282067  1
  Sc  Sc82  1  0.49602910  0.70723908  0.30131388  1
  Sc  Sc83  1  0.69754075  0.89687754  0.70687044  1
  Sc  Sc84  1  0.69830071  0.70118654  0.49838595  1
  Sc  Sc85  1  0.50061734  0.10504317  0.48713556  1
  Sc  Sc86  1  0.09664774  0.30614054  0.70521476  1
  Sc  Sc87  1  0.30187246  0.50322288  0.69757911  1
  Sc  Sc88  1  0.29830564  0.30039882  0.30900540  1
  Sc  Sc89  1  0.49798581  0.89654496  0.71067661  1
  Sc  Sc90  1  0.89859750  0.09945843  0.48700183  1
  Sc  Sc91  1  0.90864081  0.89896135  0.49607435  1
  Sc  Sc92  1  0.08437130  0.49677144  0.09801273  1
  Sc  Sc93  1  0.49923215  0.29668215  0.70082897  1
  Sc  Sc94  1  0.09773214  0.70589438  0.10689578  1
  Sc  Sc95  1  0.69207728  0.69666094  0.89111597  1
  Sc  Sc96  1  0.11111019  0.70036002  0.69296984  1
  Sc  Sc97  1  0.49637820  0.89203161  0.48959751  1
  Sc  Sc98  1  0.49768550  0.90199735  0.90028344  1
  Sc  Sc99  1  0.69262368  0.09947799  0.10037507  1
  Nb  Nb100  1  0.90144244  0.09907465  0.29951751  1
  Nb  Nb101  1  0.30713118  0.89475749  0.29349610  1
  Nb  Nb102  1  0.69492967  0.11002874  0.69096155  1
  Nb  Nb103  1  0.30194749  0.70188547  0.69724765  1
  Nb  Nb104  1  0.89979319  0.70124645  0.10365866  1
  Nb  Nb105  1  0.69944819  0.09988092  0.50324759  1
  Nb  Nb106  1  0.49795321  0.30108665  0.10113590  1
  Nb  Nb107  1  0.10587134  0.71026351  0.49416733  1
  Nb  Nb108  1  0.29766938  0.29557570  0.89434895  1
  Nb  Nb109  1  0.50015379  0.49920403  0.50224667  1
  Nb  Nb110  1  0.09569638  0.89136671  0.30690318  1
  Nb  Nb111  1  0.90154439  0.90152480  0.30181036  1
  Nb  Nb112  1  0.89982674  0.70022926  0.90058007  1
  Nb  Nb113  1  0.89639694  0.30116923  0.69548794  1
  Nb  Nb114  1  0.10168426  0.89361061  0.49676089  1
  Nb  Nb115  1  0.89664943  0.70039480  0.70093658  1
  Nb  Nb116  1  0.90240896  0.29901190  0.89612630  1
  Nb  Nb117  1  0.10279331  0.29584982  0.50411182  1
  Nb  Nb118  1  0.70323698  0.29712596  0.69494916  1
  Nb  Nb119  1  0.70317784  0.69885774  0.10127699  1
  Nb  Nb120  1  0.30591663  0.29337597  0.70647993  1
  Nb  Nb121  1  0.09867307  0.50215383  0.29970691  1
  Nb  Nb122  1  0.10169385  0.50094174  0.89965849  1
  Nb  Nb123  1  0.70419410  0.29933185  0.30345932  1
  Nb  Nb124  1  0.10089930  0.10268599  0.10088623  1
  Nb  Nb125  1  0.39190852  0.19667836  0.60135914  1
  Nb  Nb126  1  0.80422001  0.00365940  0.20543566  1
  Nb  Nb127  1  0.80229231  0.39283402  0.79960366  1
  Nb  Nb128  1  0.19894974  0.19989892  0.60119368  1
  Nb  Nb129  1  0.19511695  0.59429959  0.00166151  1
  Nb  Nb130  1  0.80305914  0.19411085  0.20903635  1
  Nb  Nb131  1  0.60128808  0.00490696  0.59839175  1
  Nb  Nb132  1  0.79034038  0.00733627  0.59821556  1
  Nb  Nb133  1  0.19754215  0.40401462  0.20052793  1
  Nb  Nb134  1  0.80197204  -0.00467212  0.00770466  1
  Nb  Nb135  1  0.19710481  0.59196334  0.19923811  1
  Nb  Nb136  1  0.60626512  0.39526226  0.79869807  1
  Nb  Nb137  1  0.40288619  0.00304443  0.59880746  1
  Nb  Nb138  1  0.60353804  0.39949079  0.60208844  1
  Nb  Nb139  1  0.40268091  0.59735204  0.40722509  1
  Nb  Nb140  1  0.00997438  0.60324808  0.40309266  1
  Nb  Nb141  1  0.80273464  0.60653962  0.19848718  1
  Nb  Nb142  1  0.59807123  0.39757990  -0.00449003  1
  Nb  Nb143  1  0.80108860  0.79530553  0.00136484  1
  Nb  Nb144  1  0.80436118  0.60439534  0.00240887  1
  Nb  Nb145  1  0.79945900  0.40221476  -0.00707644  1
  Nb  Nb146  1  -0.00745259  0.79732246  -0.00436988  1
  Nb  Nb147  1  0.40415812  0.20593371  0.19609053  1
  Nb  Nb148  1  0.00451828  0.20202631  0.59888988  1
  Nb  Nb149  1  -0.00419646  0.79259570  0.80007270  1
  Pd  Pd150  1  0.20079124  -0.00481734  0.20690845  1
  Pd  Pd151  1  0.19863099  -0.00826016  0.38708792  1
  Pd  Pd152  1  -0.00301570  0.60433726  0.79088019  1
  Pd  Pd153  1  0.38779143  0.60692348  -0.00711080  1
  Pd  Pd154  1  0.40654294  0.40289249  0.79576049  1
  Pd  Pd155  1  0.39772924  0.20210855  0.39654528  1
  Pd  Pd156  1  0.19207649  0.40400728  0.00959285  1
  Pd  Pd157  1  0.00281813  0.60687679  0.00771083  1
  Pd  Pd158  1  0.40542901  0.40145462  -0.00528959  1
  Pd  Pd159  1  -0.00622725  0.40151218  0.79163068  1
  Pd  Pd160  1  0.00138061  -0.00587091  -0.00829201  1
  Pd  Pd161  1  0.60492422  0.60048842  0.21388539  1
  Pd  Pd162  1  0.59569089  0.80888318  0.60438284  1
  Pd  Pd163  1  0.80025913  0.79599981  0.80026170  1
  Pd  Pd164  1  0.81089945  0.59252908  0.80196137  1
  Pd  Pd165  1  0.80492767  0.19494010  0.01044546  1
  Pd  Pd166  1  0.59359989  0.20190502  0.00026870  1
  Pd  Pd167  1  0.59712492  0.20361054  0.80488354  1
  Pd  Pd168  1  0.59002295  0.79652045  0.19935295  1
  Pd  Pd169  1  0.59346604  0.60121792  0.39173288  1
  Pd  Pd170  1  0.40061257  0.80987496  0.59694499  1
  Pd  Pd171  1  0.79438203  0.00607304  0.79161951  1
  Pd  Pd172  1  0.39577592  0.60612097  0.21174140  1
  Pd  Pd173  1  0.59276243  -0.00364760  0.40471206  1
  Pd  Pd174  1  0.00763101  0.61074976  0.59183011  1
  Pd  Pd175  1  0.00916042  0.38740231  0.19539533  1
  Pd  Pd176  1  -0.01282793  0.00783867  0.59608899  1
  Pd  Pd177  1  0.20440736  0.39226029  0.61103349  1
  Pd  Pd178  1  0.20234988  0.39865603  0.79210890  1
  Pd  Pd179  1  0.21007272  0.20972954  0.19944176  1
  Pd  Pd180  1  0.60042329  0.19654868  0.19875213  1
  Pd  Pd181  1  0.60089420  -0.00241259  0.00290697  1
  Pd  Pd182  1  0.00391166  0.79579229  0.60607384  1
  Pd  Pd183  1  0.80254418  0.20027200  0.79714517  1
  Pd  Pd184  1  0.19967671  0.00653183  -0.00607371  1
  Pd  Pd185  1  0.60668101  0.39693180  0.19382033  1
  Pd  Pd186  1  0.00529799  -0.00353080  0.20866368  1
  Pd  Pd187  1  0.81449373  0.61108771  0.39123917  1
  Pd  Pd188  1  0.59991295  0.79488916  -0.00161066  1
  Pd  Pd189  1  0.39106157  0.38952280  0.20406267  1
  Pd  Pd190  1  0.20856176  0.60199593  0.80261633  1
  Pd  Pd191  1  0.19107726  0.20313604  0.79967270  1
  Pd  Pd192  1  0.81600902  0.19241968  0.59600647  1
  Pd  Pd193  1  0.20167345  0.59513499  0.40556500  1
  Pd  Pd194  1  0.79898049  0.80722836  0.60056005  1
  Pd  Pd195  1  0.80347943  -0.00611245  0.40227849  1
  Pd  Pd196  1  0.19851318  -0.00306937  0.80906141  1
  Pd  Pd197  1  0.58547538  0.20181924  0.59285522  1
  Pd  Pd198  1  -0.00250255  0.20165387  0.40523546  1
  Pd  Pd199  1  0.40238072  0.79987836  0.00327394  1
  Rh  Rh200  1  0.38930012  0.60275040  0.80114158  1
  Rh  Rh201  1  0.20144481  0.60183886  0.59763387  1
  Rh  Rh202  1  0.80038498  0.61027185  0.59739403  1
  Rh  Rh203  1  0.59143108  0.59633797  0.79140883  1
  Rh  Rh204  1  0.39495603  -0.00107303  0.00015217  1
  Rh  Rh205  1  0.60114404  0.59333837  0.60413412  1
  Rh  Rh206  1  0.19680656  0.80639924  0.60051842  1
  Rh  Rh207  1  0.40430884  0.39273913  0.60799429  1
  Rh  Rh208  1  0.19886661  0.19929293  0.40431269  1
  Rh  Rh209  1  0.59747026  0.79753659  0.39720454  1
  Rh  Rh210  1  0.20753099  0.80899174  0.39478754  1
  Rh  Rh211  1  -0.00064522  0.60533504  0.21210781  1
  Rh  Rh212  1  0.39543784  0.79305203  0.40230146  1
  Rh  Rh213  1  -0.00106318  0.79794055  0.40485668  1
  Rh  Rh214  1  0.39587488  0.80093292  0.80043537  1
  Rh  Rh215  1  0.79533824  0.39313234  0.19188230  1
  Rh  Rh216  1  0.79647104  0.39644612  0.41013228  1
  Rh  Rh217  1  0.00253914  0.39494787  0.60099200  1
  Rh  Rh218  1  0.00568887  -0.00978879  0.80315738  1
  Rh  Rh219  1  0.00828631  0.80567180  0.19777625  1
  Rh  Rh220  1  0.00866739  0.41084916  0.41320433  1
  Rh  Rh221  1  0.39356982  0.60103696  0.59365462  1
  Rh  Rh222  1  0.39213853  0.00902078  0.19617103  1
  Rh  Rh223  1  0.40166502  0.19546290  0.79748004  1
  Rh  Rh224  1  0.79970807  0.80228313  0.20255547  1
  Rh  Rh225  1  0.00568237  -0.00359250  0.39372586  1
  Rh  Rh226  1  0.20056392  0.80339395  0.20257205  1
  Rh  Rh227  1  0.40065183  0.40820237  0.39767102  1
  Rh  Rh228  1  0.79447938  0.40002695  0.59876270  1
  Rh  Rh229  1  0.39653451  -0.00439064  0.79973224  1
  Rh  Rh230  1  0.60504728  0.00324377  0.20230069  1
  Rh  Rh231  1  -0.00254268  0.20484620  0.20703077  1
  Rh  Rh232  1  0.80657284  0.80207888  0.39979286  1
  Rh  Rh233  1  0.20547906  -0.00195515  0.59570559  1
  Rh  Rh234  1  -0.00148970  0.39336714  0.00287622  1
  Rh  Rh235  1  0.39925515  0.19481563  0.00729199  1
  Rh  Rh236  1  0.00444327  0.20198854  -0.00670983  1
  Rh  Rh237  1  0.40210618  0.79837040  0.19381281  1
  Rh  Rh238  1  0.80561279  0.20467323  0.39864717  1
  Rh  Rh239  1  0.00031718  0.20810571  0.79579397  1
  Rh  Rh240  1  0.60486438  0.00132919  0.79403681  1
  Rh  Rh241  1  0.59821981  0.20654043  0.40390180  1
  Rh  Rh242  1  0.59632752  0.79678603  0.79827523  1
  Rh  Rh243  1  0.19170334  0.79274438  0.00396184  1
  Rh  Rh244  1  0.60929068  0.39757684  0.41012589  1
  Rh  Rh245  1  0.19583273  0.19652288  -0.00698203  1
  Rh  Rh246  1  0.19561839  0.40424098  0.40060756  1
  Rh  Rh247  1  0.60144226  0.60077030  -0.00495198  1
  Rh  Rh248  1  0.19478024  0.79968196  0.79401406  1
  Rh  Rh249  1  0.39882637  -0.00479742  0.40040123  1
