# generated using pymatgen
data_ZrScNbPdRh
_symmetry_space_group_name_H-M   'P 1'
_cell_length_a   16.55271499
_cell_length_b   16.55329682
_cell_length_c   16.55349273
_cell_angle_alpha   90.00047097
_cell_angle_beta   90.02423101
_cell_angle_gamma   90.02231677
_symmetry_Int_Tables_number   1
_chemical_formula_structural   ZrScNbPdRh
_chemical_formula_sum   'Zr50 Sc50 Nb50 Pd50 Rh50'
_cell_volume   4535.68943921
_cell_formula_units_Z   50
loop_
 _symmetry_equiv_pos_site_id
 _symmetry_equiv_pos_as_xyz
  1  'x, y, z'
loop_
 _atom_site_type_symbol
 _atom_site_label
 _atom_site_symmetry_multiplicity
 _atom_site_fract_x
 _atom_site_fract_y
 _atom_site_fract_z
 _atom_site_occupancy
  Zr  Zr0  1  0.90253268  0.29574261  0.30591209  1
  Zr  Zr1  1  0.30129976  0.89137722  0.49949857  1
  Zr  Zr2  1  0.89330175  0.70793095  0.68972020  1
  Zr  Zr3  1  0.30095465  0.10015154  0.91055263  1
  Zr  Zr4  1  0.10106801  0.10050001  0.50472234  1
  Zr  Zr5  1  0.89424219  0.29516253  0.70313710  1
  Zr  Zr6  1  0.88775624  0.09826334  0.29713051  1
  Zr  Zr7  1  0.31021296  0.50459863  0.09968057  1
  Zr  Zr8  1  0.69972876  0.69560906  0.69720264  1
  Zr  Zr9  1  0.49936690  0.70416576  0.90641703  1
  Zr  Zr10  1  0.89369307  0.90442459  0.89744157  1
  Zr  Zr11  1  0.30753279  0.50355876  0.50191577  1
  Zr  Zr12  1  0.30008642  0.29071653  0.49808700  1
  Zr  Zr13  1  0.69335137  0.30543155  0.50398856  1
  Zr  Zr14  1  0.90356678  0.69563858  0.30239136  1
  Zr  Zr15  1  0.48851050  0.49131558  0.70654360  1
  Zr  Zr16  1  0.30005607  0.89828642  0.90981515  1
  Zr  Zr17  1  0.91034585  0.90328268  0.70191236  1
  Zr  Zr18  1  0.10419363  0.29564601  0.49033593  1
  Zr  Zr19  1  0.29855773  0.29483693  0.89640449  1
  Zr  Zr20  1  0.69289888  0.68658285  0.89645154  1
  Zr  Zr21  1  0.10146332  0.50470334  0.70291682  1
  Zr  Zr22  1  0.09650949  0.10321923  0.30987256  1
  Zr  Zr23  1  0.49999629  0.10933109  0.10225992  1
  Zr  Zr24  1  0.70338547  0.70044068  0.09703261  1
  Zr  Zr25  1  0.88510625  0.09534894  0.09698797  1
  Zr  Zr26  1  0.09623327  0.29932113  0.90334568  1
  Zr  Zr27  1  0.09666273  0.70046295  0.29874705  1
  Zr  Zr28  1  0.49406873  0.09894558  0.49449254  1
  Zr  Zr29  1  0.30760917  0.30101497  0.69893545  1
  Zr  Zr30  1  0.30658218  0.70252726  0.31162896  1
  Zr  Zr31  1  0.89962760  0.49941075  0.89938986  1
  Zr  Zr32  1  0.69661134  0.29717839  0.69478659  1
  Zr  Zr33  1  0.51038174  0.09469379  0.90604792  1
  Zr  Zr34  1  0.69582752  0.50263057  0.09913582  1
  Zr  Zr35  1  0.30211363  0.91068204  0.30171701  1
  Zr  Zr36  1  0.49844627  0.29868221  0.50214370  1
  Zr  Zr37  1  0.90750867  0.30207795  0.89343935  1
  Zr  Zr38  1  0.30007929  0.90202305  0.68897164  1
  Zr  Zr39  1  0.09910465  0.90069044  0.89639702  1
  Zr  Zr40  1  0.10386374  0.70209116  0.09910223  1
  Zr  Zr41  1  0.69768921  0.10428560  0.09907997  1
  Zr  Zr42  1  0.10715956  0.49947519  0.30188921  1
  Zr  Zr43  1  0.89346562  0.30924629  0.50572297  1
  Zr  Zr44  1  0.89250790  0.69657247  0.90018565  1
  Zr  Zr45  1  0.70250284  0.09373280  0.89764599  1
  Zr  Zr46  1  0.30200624  0.70188012  0.09178031  1
  Zr  Zr47  1  0.89352311  0.10470133  0.89457791  1
  Zr  Zr48  1  0.90208279  0.89061993  0.50780289  1
  Zr  Zr49  1  0.69771464  0.89892399  0.69651334  1
  Sc  Sc50  1  0.10609661  0.10886858  0.89446471  1
  Sc  Sc51  1  0.69684008  0.49718791  0.30455087  1
  Sc  Sc52  1  0.10706624  0.50842002  0.10025230  1
  Sc  Sc53  1  0.70694880  0.89294291  0.10459247  1
  Sc  Sc54  1  0.70667888  0.49737030  0.50174026  1
  Sc  Sc55  1  0.09523866  0.50735082  0.89869706  1
  Sc  Sc56  1  0.09982381  0.71085256  0.49872591  1
  Sc  Sc57  1  0.51283365  0.09188206  0.69573713  1
  Sc  Sc58  1  0.10079329  0.90041809  0.30455367  1
  Sc  Sc59  1  0.30597002  0.49302779  0.29904020  1
  Sc  Sc60  1  0.69286515  0.30118757  0.89415145  1
  Sc  Sc61  1  0.89339151  0.89195007  0.29744186  1
  Sc  Sc62  1  0.50168476  0.70127968  0.09696202  1
  Sc  Sc63  1  0.69225279  0.89828287  0.89866982  1
  Sc  Sc64  1  0.48835615  0.70188357  0.49306430  1
  Sc  Sc65  1  0.49199211  0.10023720  0.30380095  1
  Sc  Sc66  1  0.10019665  0.90296285  0.50663773  1
  Sc  Sc67  1  0.69439128  0.29588518  0.29832127  1
  Sc  Sc68  1  0.49449021  0.49879283  0.30733750  1
  Sc  Sc69  1  0.10425509  0.89793123  0.10520075  1
  Sc  Sc70  1  0.70872112  0.69882734  0.49979515  1
  Sc  Sc71  1  0.89723076  0.48942179  0.69628070  1
  Sc  Sc72  1  0.31162166  0.30321656  0.10294089  1
  Sc  Sc73  1  0.29749844  0.69321715  0.69180710  1
  Sc  Sc74  1  0.10463110  0.69333987  0.90161191  1
  Sc  Sc75  1  0.50726390  0.89219315  0.09044003  1
  Sc  Sc76  1  0.90490095  0.29768400  0.08597683  1
  Sc  Sc77  1  0.69600616  0.49498671  0.70358359  1
  Sc  Sc78  1  0.50477762  0.70179800  0.30594312  1
  Sc  Sc79  1  0.30126878  0.09677509  0.49745693  1
  Sc  Sc80  1  0.69993920  0.89357323  0.30336850  1
  Sc  Sc81  1  0.29254221  0.10191732  0.69189045  1
  Sc  Sc82  1  0.29825505  0.69625228  0.90721924  1
  Sc  Sc83  1  0.49574148  0.30352587  0.30209431  1
  Sc  Sc84  1  0.69572750  0.89259502  0.49500649  1
  Sc  Sc85  1  0.10066542  0.09311940  0.69903665  1
  Sc  Sc86  1  0.50320420  0.30661865  0.89912947  1
  Sc  Sc87  1  0.50108172  0.70082770  0.70223207  1
  Sc  Sc88  1  0.10105493  0.69967963  0.70058810  1
  Sc  Sc89  1  0.69810641  0.70896698  0.30136220  1
  Sc  Sc90  1  0.68917655  0.29895040  0.10511604  1
  Sc  Sc91  1  0.50347026  0.30622970  0.10587517  1
  Sc  Sc92  1  0.50283346  0.89989496  0.68732830  1
  Sc  Sc93  1  0.31439474  0.50563669  0.89618887  1
  Sc  Sc94  1  0.90281876  0.09759215  0.48946438  1
  Sc  Sc95  1  0.49648928  0.90163962  0.49754130  1
  Sc  Sc96  1  0.29612593  0.91107743  0.09954911  1
  Sc  Sc97  1  0.10801585  0.09943263  0.09925691  1
  Sc  Sc98  1  0.09672735  0.29453219  0.70570294  1
  Sc  Sc99  1  0.69571841  0.10115012  0.49067018  1
  Nb  Nb100  1  0.89434420  0.50687767  0.10361003  1
  Nb  Nb101  1  0.50050315  0.49721044  0.10519831  1
  Nb  Nb102  1  0.50326618  0.30136128  0.70291148  1
  Nb  Nb103  1  0.90631670  0.50188500  0.30056555  1
  Nb  Nb104  1  0.29802099  0.70571256  0.49844354  1
  Nb  Nb105  1  0.29650144  0.49845096  0.70176485  1
  Nb  Nb106  1  0.90010063  0.89576637  0.10159197  1
  Nb  Nb107  1  0.89354302  0.10159190  0.70153442  1
  Nb  Nb108  1  0.70223454  0.09632985  0.28796806  1
  Nb  Nb109  1  0.30165012  0.10125495  0.11199366  1
  Nb  Nb110  1  0.29980442  0.09819694  0.28955337  1
  Nb  Nb111  1  0.09956891  0.89874654  0.69663412  1
  Nb  Nb112  1  0.49738508  0.90040024  0.89656973  1
  Nb  Nb113  1  0.50391989  0.49946216  0.50155908  1
  Nb  Nb114  1  0.50376148  0.89628662  0.29802449  1
  Nb  Nb115  1  0.10400365  0.30213699  0.30102760  1
  Nb  Nb116  1  0.70931230  0.09915470  0.70379773  1
  Nb  Nb117  1  0.89843823  0.69313036  0.50027947  1
  Nb  Nb118  1  0.51299535  0.50669211  0.90131545  1
  Nb  Nb119  1  0.89794261  0.70462674  0.10584241  1
  Nb  Nb120  1  0.29230395  0.30302606  0.30946910  1
  Nb  Nb121  1  0.90107529  0.50567953  0.49472732  1
  Nb  Nb122  1  0.69572129  0.50475503  0.90277712  1
  Nb  Nb123  1  0.09934736  0.49930719  0.49996803  1
  Nb  Nb124  1  0.10012130  0.30246946  0.10238110  1
  Nb  Nb125  1  0.20426355  0.40360331  0.79911593  1
  Nb  Nb126  1  0.00023473  0.39974950  0.20117623  1
  Nb  Nb127  1  0.20854141  0.79827142  0.20458713  1
  Nb  Nb128  1  -0.00489446  0.59796644  0.59090141  1
  Nb  Nb129  1  0.20193148  0.60126289  0.40640131  1
  Nb  Nb130  1  0.40176261  -0.00049148  0.80320835  1
  Nb  Nb131  1  0.39601949  0.80759416  0.80194959  1
  Nb  Nb132  1  0.80997211  0.40465156  0.19731141  1
  Nb  Nb133  1  -0.00588384  -0.00304760  0.00331306  1
  Nb  Nb134  1  0.80124915  0.00315797  0.60373051  1
  Nb  Nb135  1  -0.00760272  0.80137649  0.00401600  1
  Nb  Nb136  1  -0.00633333  0.00342978  0.19661544  1
  Nb  Nb137  1  0.20138530  0.39860831  -0.00324439  1
  Nb  Nb138  1  0.59339805  0.59295259  0.59590507  1
  Nb  Nb139  1  0.20359021  0.80600531  0.79751702  1
  Nb  Nb140  1  0.39836498  0.80393331  0.20161566  1
  Nb  Nb141  1  0.40657335  0.19358893  0.79878963  1
  Nb  Nb142  1  -0.00671517  0.19780955  0.59953388  1
  Nb  Nb143  1  0.79791706  0.40919604  0.00058193  1
  Nb  Nb144  1  0.00487297  0.20178420  0.19963855  1
  Nb  Nb145  1  0.20206981  0.40353790  0.60215140  1
  Nb  Nb146  1  0.59793728  0.59755809  0.19805306  1
  Nb  Nb147  1  0.00017128  0.40597310  0.39776495  1
  Nb  Nb148  1  0.60141019  0.00073032  0.20315541  1
  Nb  Nb149  1  0.20151697  0.20422582  0.20469024  1
  Pd  Pd150  1  0.80325529  0.59325634  0.78979558  1
  Pd  Pd151  1  0.79211891  0.39916705  0.80519822  1
  Pd  Pd152  1  0.19316811  0.60156430  0.59282788  1
  Pd  Pd153  1  0.80147393  0.19066243  0.58855926  1
  Pd  Pd154  1  0.60279762  0.39847978  -0.00026347  1
  Pd  Pd155  1  0.20240337  0.00246041  0.40543928  1
  Pd  Pd156  1  0.40634122  0.60588204  0.60073452  1
  Pd  Pd157  1  0.40928755  0.60789056  0.20367224  1
  Pd  Pd158  1  0.79354977  0.80229066  0.80137593  1
  Pd  Pd159  1  -0.00127991  0.80407889  0.40140610  1
  Pd  Pd160  1  0.00219506  0.59611799  0.19377959  1
  Pd  Pd161  1  -0.00711527  -0.00950695  0.39423503  1
  Pd  Pd162  1  0.20400450  0.39686163  0.19073769  1
  Pd  Pd163  1  0.00233006  0.41138451  0.00833198  1
  Pd  Pd164  1  0.00705170  0.79033759  0.80589183  1
  Pd  Pd165  1  0.00240909  0.18622007  0.00622950  1
  Pd  Pd166  1  0.79696058  0.80037075  -0.00594045  1
  Pd  Pd167  1  0.40110789  0.40238103  -0.00608035  1
  Pd  Pd168  1  0.80422617  0.21525003  0.19344328  1
  Pd  Pd169  1  0.59755361  0.39978507  0.39803869  1
  Pd  Pd170  1  0.60370919  0.60360943  0.40286164  1
  Pd  Pd171  1  0.39880492  0.61112247  0.79958775  1
  Pd  Pd172  1  0.79076499  0.20234293  0.40452445  1
  Pd  Pd173  1  0.20479596  0.20674449  0.01371745  1
  Pd  Pd174  1  0.19204196  0.00204190  0.00282676  1
  Pd  Pd175  1  -0.00509090  0.60618362  0.00631079  1
  Pd  Pd176  1  0.79114222  0.21469554  -0.00603790  1
  Pd  Pd177  1  0.41448833  -0.00818132  0.19121648  1
  Pd  Pd178  1  0.00249154  0.00969384  0.80469437  1
  Pd  Pd179  1  0.40421810  0.00005066  0.00660321  1
  Pd  Pd180  1  -0.00931683  0.60534302  0.78831493  1
  Pd  Pd181  1  0.39669132  0.21032300  0.20871995  1
  Pd  Pd182  1  0.20785468  -0.00132153  0.79699478  1
  Pd  Pd183  1  0.79671214  -0.00800254  0.40588162  1
  Pd  Pd184  1  0.60001343  -0.00112977  0.39146337  1
  Pd  Pd185  1  0.59545606  0.78590211  0.58990136  1
  Pd  Pd186  1  0.59703357  0.19632386  0.79850841  1
  Pd  Pd187  1  0.59912937  0.19261157  0.60050334  1
  Pd  Pd188  1  0.60987473  0.00432376  0.59210701  1
  Pd  Pd189  1  0.40643966  0.20476817  -0.00294831  1
  Pd  Pd190  1  0.59352648  0.80336190  0.79759980  1
  Pd  Pd191  1  0.59950032  0.19810671  0.39198787  1
  Pd  Pd192  1  0.00599268  0.39789845  0.59766005  1
  Pd  Pd193  1  0.60776167  -0.00778777  0.00958921  1
  Pd  Pd194  1  0.21068429  0.60644223  0.20867013  1
  Pd  Pd195  1  0.40887001  0.19111754  0.60907156  1
  Pd  Pd196  1  0.80140658  0.40050576  0.39264735  1
  Pd  Pd197  1  0.39846348  0.39863899  0.59507828  1
  Pd  Pd198  1  0.79387825  0.60137457  0.39361142  1
  Pd  Pd199  1  0.79132762  0.60043642  0.21076349  1
  Rh  Rh200  1  0.39390706  0.19972656  0.39375982  1
  Rh  Rh201  1  0.00827400  0.40078668  0.79807720  1
  Rh  Rh202  1  0.59336008  0.60050922  0.00843122  1
  Rh  Rh203  1  0.80334910  0.59801171  -0.00006053  1
  Rh  Rh204  1  0.79640454  -0.00682040  -0.00027477  1
  Rh  Rh205  1  0.59889790  0.20730119  -0.00122305  1
  Rh  Rh206  1  0.18962614  0.00389517  0.20307802  1
  Rh  Rh207  1  0.60027289  0.40876757  0.20678455  1
  Rh  Rh208  1  0.79514362  0.40435791  0.60126391  1
  Rh  Rh209  1  0.19633801  0.79940583  0.60595765  1
  Rh  Rh210  1  0.20677002  0.20292953  0.79254144  1
  Rh  Rh211  1  0.39702744  0.59659977  0.40265842  1
  Rh  Rh212  1  0.19950334  -0.00363070  0.59494345  1
  Rh  Rh213  1  0.19122932  0.80234998  0.00024072  1
  Rh  Rh214  1  0.40018458  0.39593282  0.40499490  1
  Rh  Rh215  1  0.39950932  0.39358158  0.80694772  1
  Rh  Rh216  1  0.40056467  0.79562145  0.60378105  1
  Rh  Rh217  1  0.19780691  0.79744810  0.39583688  1
  Rh  Rh218  1  0.59463097  0.59419348  0.78988858  1
  Rh  Rh219  1  0.21038961  0.18918977  0.39290563  1
  Rh  Rh220  1  0.80590501  0.79490239  0.40133116  1
  Rh  Rh221  1  0.79573490  -0.00704144  0.79328744  1
  Rh  Rh222  1  0.60734512  0.79789778  -0.00465813  1
  Rh  Rh223  1  0.00580301  0.80529255  0.19575551  1
  Rh  Rh224  1  0.79544951  -0.01039286  0.20097621  1
  Rh  Rh225  1  0.41031350  0.59522438  -0.00003612  1
  Rh  Rh226  1  -0.00702145  0.00813232  0.60190430  1
  Rh  Rh227  1  0.59841478  -0.00346349  0.79695771  1
  Rh  Rh228  1  0.40404178  0.80886600  0.39598176  1
  Rh  Rh229  1  0.59358925  0.79895839  0.20043260  1
  Rh  Rh230  1  0.80140181  0.79528000  0.20494847  1
  Rh  Rh231  1  0.60004463  0.40422941  0.79876859  1
  Rh  Rh232  1  0.40001551  -0.00201542  0.40055169  1
  Rh  Rh233  1  0.39912267  0.80369243  0.00244414  1
  Rh  Rh234  1  0.20647883  0.58540731  -0.00658399  1
  Rh  Rh235  1  0.79566133  0.80656528  0.59711169  1
  Rh  Rh236  1  -0.00040222  0.19286722  0.79214512  1
  Rh  Rh237  1  0.00882099  0.59823583  0.40640832  1
  Rh  Rh238  1  0.40022102  0.39714226  0.20569194  1
  Rh  Rh239  1  0.79391318  0.20614072  0.80532104  1
  Rh  Rh240  1  -0.00392188  0.20567984  0.40432531  1
  Rh  Rh241  1  0.39989102  0.00328811  0.60107787  1
  Rh  Rh242  1  0.59340708  0.19255378  0.20783058  1
  Rh  Rh243  1  0.59736237  0.79710024  0.40483997  1
  Rh  Rh244  1  0.20697992  0.60214737  0.80432192  1
  Rh  Rh245  1  0.59564334  0.40579429  0.60288796  1
  Rh  Rh246  1  0.79941671  0.59296536  0.60295460  1
  Rh  Rh247  1  0.18822003  0.20643256  0.60380120  1
  Rh  Rh248  1  0.20208376  0.40842968  0.41021126  1
  Rh  Rh249  1  0.00517024  0.79159562  0.60043824  1
