# generated using pymatgen
data_ZrScNbPdRh
_symmetry_space_group_name_H-M   'P 1'
_cell_length_a   16.55818148
_cell_length_b   16.55858389
_cell_length_c   16.56337763
_cell_angle_alpha   90.01916437
_cell_angle_beta   90.00013401
_cell_angle_gamma   89.98431719
_symmetry_Int_Tables_number   1
_chemical_formula_structural   ZrScNbPdRh
_chemical_formula_sum   'Zr50 Sc50 Nb50 Pd50 Rh50'
_cell_volume   4541.34706945
_cell_formula_units_Z   50
loop_
 _symmetry_equiv_pos_site_id
 _symmetry_equiv_pos_as_xyz
  1  'x, y, z'
loop_
 _atom_site_type_symbol
 _atom_site_label
 _atom_site_symmetry_multiplicity
 _atom_site_fract_x
 _atom_site_fract_y
 _atom_site_fract_z
 _atom_site_occupancy
  Zr  Zr0  1  0.50464685  0.09863887  0.10261185  1
  Zr  Zr1  1  0.70224696  0.48993284  0.10913243  1
  Zr  Zr2  1  0.09592908  0.68917298  0.09709601  1
  Zr  Zr3  1  0.70736611  0.10412749  0.90375229  1
  Zr  Zr4  1  0.69857796  0.29748929  0.49573369  1
  Zr  Zr5  1  0.30269177  0.30393474  0.70103001  1
  Zr  Zr6  1  0.10095783  0.30014529  0.89904185  1
  Zr  Zr7  1  0.29652375  0.09251859  0.30338601  1
  Zr  Zr8  1  0.89906597  0.30780726  0.69951153  1
  Zr  Zr9  1  0.90193665  0.69674918  0.90258165  1
  Zr  Zr10  1  0.10410966  0.09971054  0.49930735  1
  Zr  Zr11  1  0.50647776  0.50352272  0.89459563  1
  Zr  Zr12  1  0.30347478  0.09180310  0.09780197  1
  Zr  Zr13  1  0.49805878  0.70239935  0.10106405  1
  Zr  Zr14  1  0.69747677  0.30865628  0.29831920  1
  Zr  Zr15  1  0.70188745  0.89713876  0.90316922  1
  Zr  Zr16  1  0.69172213  0.09957090  0.69083615  1
  Zr  Zr17  1  0.90031107  0.69659038  0.50383402  1
  Zr  Zr18  1  0.89953751  0.89803119  0.69057278  1
  Zr  Zr19  1  0.09609024  0.30128499  0.09420654  1
  Zr  Zr20  1  0.09845926  0.29740484  0.30203763  1
  Zr  Zr21  1  0.09385072  0.09939638  0.10153500  1
  Zr  Zr22  1  0.70853796  0.69769157  0.69297827  1
  Zr  Zr23  1  0.90535337  0.29588311  0.89014615  1
  Zr  Zr24  1  0.09546230  0.90316686  0.30057663  1
  Zr  Zr25  1  0.89709411  0.30654794  0.50117605  1
  Zr  Zr26  1  0.69836733  0.90266723  0.69889870  1
  Zr  Zr27  1  0.70616213  0.90417284  0.10290273  1
  Zr  Zr28  1  0.30211613  0.69382851  0.89457634  1
  Zr  Zr29  1  0.09884435  0.70072859  0.50027124  1
  Zr  Zr30  1  0.10085870  0.10009855  0.30265472  1
  Zr  Zr31  1  0.30286233  0.30287473  0.89634020  1
  Zr  Zr32  1  0.49874196  0.89996979  0.71000473  1
  Zr  Zr33  1  0.28968551  0.29717473  0.50177880  1
  Zr  Zr34  1  0.68872954  0.09775704  0.49458418  1
  Zr  Zr35  1  0.50414181  0.08581527  0.30636331  1
  Zr  Zr36  1  0.69820133  0.69049624  0.10742059  1
  Zr  Zr37  1  0.10201020  0.09567423  0.90852902  1
  Zr  Zr38  1  0.29874336  0.10066640  0.90417948  1
  Zr  Zr39  1  0.89616471  0.90093186  0.10692208  1
  Zr  Zr40  1  0.11349536  0.69999043  0.69804160  1
  Zr  Zr41  1  0.29857983  0.31508967  0.30338565  1
  Zr  Zr42  1  0.50650411  0.30096234  0.10369248  1
  Zr  Zr43  1  0.70836025  0.89778276  0.50752181  1
  Zr  Zr44  1  0.69931741  0.29276244  0.10431495  1
  Zr  Zr45  1  0.89706915  0.29846961  0.10451799  1
  Zr  Zr46  1  0.30092637  0.70501943  0.09374569  1
  Zr  Zr47  1  0.69770851  0.30928492  0.69682263  1
  Zr  Zr48  1  0.30026450  0.50056193  0.70128103  1
  Zr  Zr49  1  0.49162769  0.49823452  0.31338750  1
  Sc  Sc50  1  0.30401154  0.09070063  0.69814124  1
  Sc  Sc51  1  0.30796925  0.90362200  0.09663006  1
  Sc  Sc52  1  0.90739502  0.10127789  0.49834904  1
  Sc  Sc53  1  0.30271676  0.70441685  0.31061444  1
  Sc  Sc54  1  0.10063059  0.49763326  0.90322857  1
  Sc  Sc55  1  0.08871527  0.90695838  0.09889657  1
  Sc  Sc56  1  0.89523209  0.29733216  0.30874765  1
  Sc  Sc57  1  0.09728540  0.29383248  0.49687563  1
  Sc  Sc58  1  0.90632950  0.69044489  0.70183087  1
  Sc  Sc59  1  0.51004565  0.31333104  0.49537654  1
  Sc  Sc60  1  0.50548084  0.49428955  0.70363537  1
  Sc  Sc61  1  0.28697885  0.70013208  0.50279697  1
  Sc  Sc62  1  0.90234366  0.50123414  0.50347167  1
  Sc  Sc63  1  0.69989853  0.50104237  0.50765997  1
  Sc  Sc64  1  0.09587439  0.50435785  0.30064149  1
  Sc  Sc65  1  0.90134678  0.89552184  0.91628648  1
  Sc  Sc66  1  0.10016149  0.50378379  0.69957210  1
  Sc  Sc67  1  0.69851609  0.91150781  0.30080236  1
  Sc  Sc68  1  0.29482539  0.09298834  0.49989329  1
  Sc  Sc69  1  0.91109479  0.11282278  0.69910064  1
  Sc  Sc70  1  0.69663782  0.09911981  0.29725263  1
  Sc  Sc71  1  0.49605234  0.90424907  0.48736420  1
  Sc  Sc72  1  0.50922730  0.49480970  0.10133459  1
  Sc  Sc73  1  0.90336819  0.09568521  0.29753819  1
  Sc  Sc74  1  0.49125095  0.30458267  0.89898228  1
  Sc  Sc75  1  0.29736824  0.49025534  0.90032944  1
  Sc  Sc76  1  0.69942333  0.50149429  0.70764365  1
  Sc  Sc77  1  0.30227176  0.90728773  0.89965846  1
  Sc  Sc78  1  0.50152167  0.70640802  0.90339303  1
  Sc  Sc79  1  0.69536043  0.69805971  0.90408056  1
  Sc  Sc80  1  0.89392145  0.50814402  0.29938334  1
  Sc  Sc81  1  0.90257545  0.70233804  0.10611640  1
  Sc  Sc82  1  0.69941858  0.69603225  0.49931551  1
  Sc  Sc83  1  0.09869860  0.50007802  0.09040904  1
  Sc  Sc84  1  0.48951795  0.10491378  0.89851242  1
  Sc  Sc85  1  0.10126132  0.09978396  0.68970565  1
  Sc  Sc86  1  0.30298259  0.31645912  0.09492212  1
  Sc  Sc87  1  0.49286191  0.89918549  0.10037806  1
  Sc  Sc88  1  0.90134205  0.90499641  0.49724081  1
  Sc  Sc89  1  0.70548697  0.30234137  0.89401620  1
  Sc  Sc90  1  0.90963217  0.49679425  0.88861634  1
  Sc  Sc91  1  0.10045709  0.29483538  0.69320379  1
  Sc  Sc92  1  0.29902255  0.49827547  0.49087089  1
  Sc  Sc93  1  0.49774832  0.09430663  0.69614334  1
  Sc  Sc94  1  0.08783958  0.70090165  0.30315211  1
  Sc  Sc95  1  0.50113677  0.69802518  0.48497786  1
  Sc  Sc96  1  0.09474182  0.50914780  0.50096756  1
  Sc  Sc97  1  0.29393360  0.90062324  0.49604288  1
  Sc  Sc98  1  0.49920041  0.69046184  0.71870701  1
  Sc  Sc99  1  0.09442978  0.69434689  0.89391643  1
  Nb  Nb100  1  0.89984497  0.70172561  0.29840077  1
  Nb  Nb101  1  0.50099560  0.10808670  0.49711540  1
  Nb  Nb102  1  0.90281856  0.49932608  0.10089933  1
  Nb  Nb103  1  0.69941010  0.51160505  0.28754180  1
  Nb  Nb104  1  0.70307496  0.49609175  0.90236404  1
  Nb  Nb105  1  0.89129282  0.09335373  0.09328559  1
  Nb  Nb106  1  0.49926239  0.29726890  0.70160068  1
  Nb  Nb107  1  0.69899755  0.69064941  0.29919715  1
  Nb  Nb108  1  0.49545104  0.89509272  0.29978755  1
  Nb  Nb109  1  0.49205597  0.50821852  0.50195160  1
  Nb  Nb110  1  0.30459775  0.90557909  0.29737163  1
  Nb  Nb111  1  0.90245646  0.89066084  0.29238738  1
  Nb  Nb112  1  0.49841707  0.30028653  0.30353580  1
  Nb  Nb113  1  0.29514876  0.89244785  0.69538631  1
  Nb  Nb114  1  0.50223149  0.70016834  0.30106806  1
  Nb  Nb115  1  0.70203034  0.09669959  0.10038555  1
  Nb  Nb116  1  0.10028640  0.90326370  0.50872337  1
  Nb  Nb117  1  0.10032974  0.90178539  0.89880245  1
  Nb  Nb118  1  0.30177774  0.69890836  0.69892153  1
  Nb  Nb119  1  0.89729229  0.50129210  0.69508249  1
  Nb  Nb120  1  0.30025534  0.50177064  0.29402372  1
  Nb  Nb121  1  0.10468864  0.89843858  0.70196224  1
  Nb  Nb122  1  0.90256354  0.09780986  0.89474316  1
  Nb  Nb123  1  0.29860226  0.50537625  0.09881775  1
  Nb  Nb124  1  0.50735073  0.90032084  0.90356960  1
  Nb  Nb125  1  0.80428266  0.40303131  0.00061248  1
  Nb  Nb126  1  0.80283984  0.79521610  0.38965939  1
  Nb  Nb127  1  0.00104137  -0.00632618  0.80257934  1
  Nb  Nb128  1  0.20443440  0.19801535  0.80310207  1
  Nb  Nb129  1  0.39952630  0.60411652  0.60064064  1
  Nb  Nb130  1  0.59674045  0.20293969  0.79376216  1
  Nb  Nb131  1  0.59718923  0.79732109  0.21159322  1
  Nb  Nb132  1  0.40706221  0.20323040  0.59306716  1
  Nb  Nb133  1  0.39981667  0.79512454  0.60620274  1
  Nb  Nb134  1  0.40341751  0.20270109  0.39996394  1
  Nb  Nb135  1  0.00888268  0.80286574  0.60143143  1
  Nb  Nb136  1  0.39935745  0.59658069  0.00469228  1
  Nb  Nb137  1  0.60326554  0.00250094  0.00024060  1
  Nb  Nb138  1  0.20610989  0.20259326  0.19860475  1
  Nb  Nb139  1  0.80227717  0.80366966  0.79914355  1
  Nb  Nb140  1  0.20032097  0.80001537  0.19792348  1
  Nb  Nb141  1  0.80751741  0.00000886  0.80013687  1
  Nb  Nb142  1  0.39706938  0.59887361  0.20186340  1
  Nb  Nb143  1  0.19482952  0.80247329  -0.00144644  1
  Nb  Nb144  1  0.79458099  0.20509025  0.59589886  1
  Nb  Nb145  1  0.59046648  0.79833237  0.60201951  1
  Nb  Nb146  1  0.20706683  0.60219479  0.19912302  1
  Nb  Nb147  1  0.39851804  0.20301132  0.20786400  1
  Nb  Nb148  1  -0.00448838  0.40002477  0.19762888  1
  Nb  Nb149  1  0.80056050  0.58857101  0.00222373  1
  Pd  Pd150  1  0.59752590  0.40608390  0.59881967  1
  Pd  Pd151  1  0.18810743  0.40548491  0.19546855  1
  Pd  Pd152  1  0.60203192  0.80656097  0.01270543  1
  Pd  Pd153  1  0.19774713  0.59281269  0.80476559  1
  Pd  Pd154  1  0.61148387  0.80518123  0.40004045  1
  Pd  Pd155  1  -0.00569123  0.80418565  0.79477311  1
  Pd  Pd156  1  0.19760471  0.80691275  0.39320816  1
  Pd  Pd157  1  0.79988214  0.19146357  0.40171104  1
  Pd  Pd158  1  0.00702641  0.40163243  0.60114799  1
  Pd  Pd159  1  0.19119827  0.40686695  0.59563673  1
  Pd  Pd160  1  0.39836219  -0.00301097  0.80335905  1
  Pd  Pd161  1  0.60785707  0.79175016  0.79510709  1
  Pd  Pd162  1  0.60016832  0.59639432  0.00138317  1
  Pd  Pd163  1  0.78957616  0.79721458  0.20607281  1
  Pd  Pd164  1  0.39557020  0.80501188  0.80297037  1
  Pd  Pd165  1  -0.00149567  -0.00133671  0.39959272  1
  Pd  Pd166  1  0.20534446  0.80222270  0.80901178  1
  Pd  Pd167  1  -0.00891274  0.19670687  -0.00181636  1
  Pd  Pd168  1  0.60763421  0.41366746  0.39873120  1
  Pd  Pd169  1  0.80485450  -0.00323906  0.39467818  1
  Pd  Pd170  1  0.60222118  0.01156384  0.81069908  1
  Pd  Pd171  1  -0.00193106  0.40604409  0.39377517  1
  Pd  Pd172  1  0.40427285  0.40120931  0.59434673  1
  Pd  Pd173  1  0.39407658  0.79889623  0.40790546  1
  Pd  Pd174  1  0.20880914  0.20682206  0.00494653  1
  Pd  Pd175  1  0.79489809  0.41345918  0.39677598  1
  Pd  Pd176  1  0.80022827  0.19288657  0.20673875  1
  Pd  Pd177  1  0.40148251  -0.00461003  0.59261577  1
  Pd  Pd178  1  0.60609531  0.39208535  -0.00595236  1
  Pd  Pd179  1  -0.00138014  0.20204463  0.20229952  1
  Pd  Pd180  1  0.81102620  0.01696847  0.60400303  1
  Pd  Pd181  1  0.60416795  0.59197778  0.39956710  1
  Pd  Pd182  1  0.19757491  -0.00489417  0.19374496  1
  Pd  Pd183  1  0.40642124  0.40303407  0.19557461  1
  Pd  Pd184  1  0.59719604  0.19678763  0.20891465  1
  Pd  Pd185  1  0.19617579  0.00541884  0.79436926  1
  Pd  Pd186  1  0.00767405  0.40299354  0.79130029  1
  Pd  Pd187  1  0.79324250  0.19440105  0.78656122  1
  Pd  Pd188  1  -0.00539503  0.80333306  0.40779944  1
  Pd  Pd189  1  0.58919887  0.60652366  0.60251690  1
  Pd  Pd190  1  0.58645706  -0.01002146  0.59140916  1
  Pd  Pd191  1  0.00586244  0.79855538  0.00490638  1
  Pd  Pd192  1  0.39777378  0.20584177  0.01138664  1
  Pd  Pd193  1  0.79975250  0.59988691  0.40339690  1
  Pd  Pd194  1  0.39648151  0.79694161  0.20600486  1
  Pd  Pd195  1  0.59713705  0.19922046  -0.01101176  1
  Pd  Pd196  1  0.19903066  0.59862606  0.39247730  1
  Pd  Pd197  1  0.80618870  0.20561315  -0.00095217  1
  Pd  Pd198  1  0.18949434  0.40853717  0.40380831  1
  Pd  Pd199  1  0.79821743  0.60147284  0.80650255  1
  Rh  Rh200  1  -0.00825681  0.59398087  -0.00471743  1
  Rh  Rh201  1  0.80816940  0.60308064  0.19526069  1
  Rh  Rh202  1  0.59624501  -0.00976392  0.19201539  1
  Rh  Rh203  1  0.19988285  0.80339368  0.59859725  1
  Rh  Rh204  1  0.60791920  0.60138265  0.80340914  1
  Rh  Rh205  1  -0.00788701  0.40009829  0.00319888  1
  Rh  Rh206  1  0.79978944  0.78349822  -0.00060362  1
  Rh  Rh207  1  0.19550676  -0.00798005  0.40224512  1
  Rh  Rh208  1  0.39496693  0.79945384  -0.01325283  1
  Rh  Rh209  1  0.19829096  -0.01150030  0.00743960  1
  Rh  Rh210  1  0.39836252  0.19654195  0.78574343  1
  Rh  Rh211  1  -0.00747091  0.00197579  -0.00235801  1
  Rh  Rh212  1  0.00215773  0.59427269  0.20227805  1
  Rh  Rh213  1  0.80396017  0.79304960  0.59732302  1
  Rh  Rh214  1  0.20527303  0.20093154  0.39234182  1
  Rh  Rh215  1  0.21392355  0.19479439  0.61035957  1
  Rh  Rh216  1  0.19427351  0.39237819  0.79803642  1
  Rh  Rh217  1  0.20803722  0.59388704  0.59886612  1
  Rh  Rh218  1  -0.00658520  0.59992439  0.39879409  1
  Rh  Rh219  1  0.39718226  0.00261657  0.40252059  1
  Rh  Rh220  1  0.00734183  0.79817421  0.19706331  1
  Rh  Rh221  1  -0.00779665  0.00272595  0.19962820  1
  Rh  Rh222  1  0.00498955  0.59571995  0.79491287  1
  Rh  Rh223  1  0.19971328  0.40124204  -0.00077265  1
  Rh  Rh224  1  0.40496497  0.40587643  0.80045377  1
  Rh  Rh225  1  0.20553256  0.60417636  -0.00230556  1
  Rh  Rh226  1  -0.00090995  0.19791027  0.40229177  1
  Rh  Rh227  1  0.80633841  0.39894461  0.20310451  1
  Rh  Rh228  1  0.60127438  -0.00747790  0.40357634  1
  Rh  Rh229  1  0.59355541  0.40527711  0.21295798  1
  Rh  Rh230  1  0.59941475  0.39266783  0.80426231  1
  Rh  Rh231  1  -0.00787133  0.20693483  0.59144163  1
  Rh  Rh232  1  0.40503315  0.00185217  0.20297228  1
  Rh  Rh233  1  0.00405258  -0.00440187  0.60585281  1
  Rh  Rh234  1  0.59598539  0.20211052  0.39265578  1
  Rh  Rh235  1  0.39312856  0.60498808  0.40168991  1
  Rh  Rh236  1  0.40585647  0.41012066  0.00029932  1
  Rh  Rh237  1  0.79937505  0.00231344  -0.00457388  1
  Rh  Rh238  1  0.79877321  0.40219469  0.60186886  1
  Rh  Rh239  1  0.80516556  0.00594367  0.20516752  1
  Rh  Rh240  1  0.39761506  0.39639963  0.40857024  1
  Rh  Rh241  1  0.58669337  0.59949726  0.20632168  1
  Rh  Rh242  1  0.00256085  0.60522787  0.60495415  1
  Rh  Rh243  1  0.80307520  0.40767670  0.80267194  1
  Rh  Rh244  1  0.41214320  -0.00305979  -0.00667202  1
  Rh  Rh245  1  0.20074903  -0.00347877  0.60147622  1
  Rh  Rh246  1  0.01742552  0.18900061  0.80295210  1
  Rh  Rh247  1  0.59658856  0.20612069  0.60385718  1
  Rh  Rh248  1  0.80213338  0.59346164  0.59987735  1
  Rh  Rh249  1  0.39824225  0.59175552  0.80179656  1
