# generated using pymatgen
data_ZrScNbPdRh
_symmetry_space_group_name_H-M   'P 1'
_cell_length_a   16.56027028
_cell_length_b   16.55565134
_cell_length_c   16.55708153
_cell_angle_alpha   90.01001535
_cell_angle_beta   90.01283294
_cell_angle_gamma   89.98948850
_symmetry_Int_Tables_number   1
_chemical_formula_structural   ZrScNbPdRh
_chemical_formula_sum   'Zr50 Sc50 Nb50 Pd50 Rh50'
_cell_volume   4539.38956170
_cell_formula_units_Z   50
loop_
 _symmetry_equiv_pos_site_id
 _symmetry_equiv_pos_as_xyz
  1  'x, y, z'
loop_
 _atom_site_type_symbol
 _atom_site_label
 _atom_site_symmetry_multiplicity
 _atom_site_fract_x
 _atom_site_fract_y
 _atom_site_fract_z
 _atom_site_occupancy
  Zr  Zr0  1  0.89681833  0.29871922  0.29346597  1
  Zr  Zr1  1  0.30220519  0.30006710  0.69225638  1
  Zr  Zr2  1  0.10611301  0.69800972  0.49572743  1
  Zr  Zr3  1  0.10263659  0.10560928  0.49969293  1
  Zr  Zr4  1  0.89739364  0.30058264  0.89945608  1
  Zr  Zr5  1  0.70021715  0.49734972  0.69721657  1
  Zr  Zr6  1  0.69528231  0.09668629  0.10821502  1
  Zr  Zr7  1  0.90196287  0.29642370  0.10085274  1
  Zr  Zr8  1  0.09410596  0.70479559  0.89970321  1
  Zr  Zr9  1  0.70216420  0.69496883  0.90709711  1
  Zr  Zr10  1  0.49620509  0.69467803  0.89417163  1
  Zr  Zr11  1  0.30627718  0.89973374  0.10274125  1
  Zr  Zr12  1  0.29578127  0.28841169  0.91322819  1
  Zr  Zr13  1  0.69170328  0.29733388  0.89732757  1
  Zr  Zr14  1  0.70342718  0.30691480  0.10867139  1
  Zr  Zr15  1  0.10385514  0.09435262  0.68931818  1
  Zr  Zr16  1  0.10238041  0.50234240  0.50130924  1
  Zr  Zr17  1  0.90770394  0.49854541  0.50047590  1
  Zr  Zr18  1  0.69967178  0.10665297  0.69932158  1
  Zr  Zr19  1  0.50021368  0.70973982  0.69337413  1
  Zr  Zr20  1  0.10823826  0.90058725  0.29839182  1
  Zr  Zr21  1  0.70267452  0.89147619  0.90025041  1
  Zr  Zr22  1  0.69966128  0.91464023  0.50036542  1
  Zr  Zr23  1  0.29917505  0.90169530  0.89583362  1
  Zr  Zr24  1  0.90394116  0.10467688  0.89878231  1
  Zr  Zr25  1  0.50503014  0.50194252  0.90259405  1
  Zr  Zr26  1  0.49959723  0.09486831  0.10279465  1
  Zr  Zr27  1  0.10400962  0.09464777  0.90270924  1
  Zr  Zr28  1  0.10325653  0.89511581  0.89892553  1
  Zr  Zr29  1  0.49964399  0.10585551  0.90269002  1
  Zr  Zr30  1  0.70452163  0.10863788  0.50029509  1
  Zr  Zr31  1  0.29142032  0.30157808  0.10590273  1
  Zr  Zr32  1  0.10204731  0.28974863  0.29985579  1
  Zr  Zr33  1  0.29817528  0.08992203  0.89875564  1
  Zr  Zr34  1  0.30827868  0.70297747  0.70855028  1
  Zr  Zr35  1  0.69635686  0.90016168  0.69386982  1
  Zr  Zr36  1  0.70446658  0.30214507  0.30658739  1
  Zr  Zr37  1  0.49964106  0.29910750  0.09772331  1
  Zr  Zr38  1  0.69913805  0.90040099  0.29970229  1
  Zr  Zr39  1  0.29359200  0.29934663  0.49642652  1
  Zr  Zr40  1  0.30314928  0.09850336  0.30506635  1
  Zr  Zr41  1  0.90794528  0.69594305  0.49721059  1
  Zr  Zr42  1  0.69898230  0.49313975  0.29680660  1
  Zr  Zr43  1  0.30348761  0.50777705  0.89951253  1
  Zr  Zr44  1  0.09044496  0.29732127  0.90239766  1
  Zr  Zr45  1  0.10407064  0.09766761  0.29837424  1
  Zr  Zr46  1  0.09465298  0.49469600  0.70090965  1
  Zr  Zr47  1  0.29390898  0.29999037  0.29762386  1
  Zr  Zr48  1  0.69983331  0.70510575  0.29379766  1
  Zr  Zr49  1  0.09191335  0.70586277  0.09425263  1
  Sc  Sc50  1  0.29240491  0.10260409  0.08958656  1
  Sc  Sc51  1  0.89645414  0.49239546  0.09287311  1
  Sc  Sc52  1  0.89267123  0.10755390  0.69755309  1
  Sc  Sc53  1  0.89230938  0.90012519  0.70112372  1
  Sc  Sc54  1  0.30064401  0.90576206  0.49687154  1
  Sc  Sc55  1  0.50867071  0.50079576  0.10430868  1
  Sc  Sc56  1  0.30002632  0.90247650  0.30114467  1
  Sc  Sc57  1  0.10488376  0.69736719  0.30398387  1
  Sc  Sc58  1  0.88792299  0.90502566  0.50182930  1
  Sc  Sc59  1  0.49299084  0.90612160  0.29232655  1
  Sc  Sc60  1  0.30130314  0.70356713  0.09822069  1
  Sc  Sc61  1  0.89770718  0.70048791  0.71044564  1
  Sc  Sc62  1  0.49933615  0.49626971  0.69699551  1
  Sc  Sc63  1  0.70195443  0.10289081  0.89325117  1
  Sc  Sc64  1  0.90069253  0.49425377  0.70216697  1
  Sc  Sc65  1  0.30394742  0.70537044  0.89783744  1
  Sc  Sc66  1  0.50165266  0.30303578  0.29894655  1
  Sc  Sc67  1  0.90247648  0.88728633  0.89502012  1
  Sc  Sc68  1  0.49642731  0.29970994  0.49971134  1
  Sc  Sc69  1  0.49737856  0.09836924  0.30191414  1
  Sc  Sc70  1  0.70114133  0.10154095  0.30633061  1
  Sc  Sc71  1  0.49686284  0.09845062  0.69192351  1
  Sc  Sc72  1  0.70001577  0.72433171  0.49788656  1
  Sc  Sc73  1  0.89542873  0.69739229  0.90774827  1
  Sc  Sc74  1  0.89714329  0.90092846  0.29224585  1
  Sc  Sc75  1  0.90208443  0.49484439  0.29981182  1
  Sc  Sc76  1  0.70276219  0.50410092  0.90357962  1
  Sc  Sc77  1  0.50369900  0.69710321  0.29605783  1
  Sc  Sc78  1  0.30030089  0.69205359  0.50517507  1
  Sc  Sc79  1  0.49569993  0.90044621  0.90516394  1
  Sc  Sc80  1  0.89658299  0.29721315  0.50115101  1
  Sc  Sc81  1  0.30375547  0.09862516  0.50320481  1
  Sc  Sc82  1  0.89285389  0.10075941  0.50156302  1
  Sc  Sc83  1  0.50813831  0.30263988  0.69498689  1
  Sc  Sc84  1  0.49526221  0.09657437  0.49530198  1
  Sc  Sc85  1  0.50481838  0.90325448  0.51116172  1
  Sc  Sc86  1  0.89608254  0.10261864  0.29508073  1
  Sc  Sc87  1  0.70055792  0.29921512  0.69504770  1
  Sc  Sc88  1  0.29238521  0.69839968  0.30799577  1
  Sc  Sc89  1  0.09311992  0.30035754  0.68949863  1
  Sc  Sc90  1  0.11031734  0.70295098  0.70201411  1
  Sc  Sc91  1  0.09284997  0.09089771  0.09702269  1
  Sc  Sc92  1  0.50470260  0.69943671  0.09970801  1
  Sc  Sc93  1  0.50258440  0.49898359  0.29593909  1
  Sc  Sc94  1  0.49294158  0.49763477  0.50375531  1
  Sc  Sc95  1  0.89410092  0.49785587  0.90148349  1
  Sc  Sc96  1  0.30310896  0.90676793  0.70259390  1
  Sc  Sc97  1  0.70028602  0.70432761  0.71086299  1
  Sc  Sc98  1  0.30271936  0.50277931  0.69343361  1
  Sc  Sc99  1  0.11288444  0.90822019  0.50580841  1
  Nb  Nb100  1  0.70275045  0.69652685  0.09903738  1
  Nb  Nb101  1  0.50042813  0.90491926  0.70079592  1
  Nb  Nb102  1  0.30043036  0.10004905  0.70332485  1
  Nb  Nb103  1  0.09856822  0.29862164  0.09847530  1
  Nb  Nb104  1  0.10433150  0.50557379  0.30188292  1
  Nb  Nb105  1  0.69710552  0.89675211  0.09970139  1
  Nb  Nb106  1  0.70170814  0.30953517  0.49773144  1
  Nb  Nb107  1  0.09827088  0.89907391  0.70218893  1
  Nb  Nb108  1  0.29651535  0.49331256  0.10613857  1
  Nb  Nb109  1  0.49751088  0.29881043  0.90153465  1
  Nb  Nb110  1  0.90221713  0.69950893  0.10180943  1
  Nb  Nb111  1  0.90814529  0.90246854  0.10451794  1
  Nb  Nb112  1  0.29939399  0.49569651  0.49256221  1
  Nb  Nb113  1  0.09282956  0.89940356  0.10191686  1
  Nb  Nb114  1  0.70514810  0.49317440  0.49658696  1
  Nb  Nb115  1  0.89763285  0.09345940  0.09830569  1
  Nb  Nb116  1  0.50724845  0.90860351  0.10459815  1
  Nb  Nb117  1  0.50024306  0.69981619  0.49851236  1
  Nb  Nb118  1  0.09756876  0.50059357  0.90188797  1
  Nb  Nb119  1  0.10245082  0.30098798  0.49501157  1
  Nb  Nb120  1  0.70022291  0.50822491  0.10105608  1
  Nb  Nb121  1  0.90188332  0.30262292  0.70734641  1
  Nb  Nb122  1  0.09960010  0.50132253  0.09829474  1
  Nb  Nb123  1  0.29394341  0.49758065  0.29445416  1
  Nb  Nb124  1  0.90312545  0.69719481  0.29991065  1
  Nb  Nb125  1  0.80357059  0.60546717  0.19830190  1
  Nb  Nb126  1  0.39703413  0.39270441  0.80940471  1
  Nb  Nb127  1  0.40558744  0.79512352  0.40517546  1
  Nb  Nb128  1  0.80258620  -0.00471197  0.00786258  1
  Nb  Nb129  1  0.20141593  0.39581113  0.80497660  1
  Nb  Nb130  1  0.39516619  0.20164813  0.19766802  1
  Nb  Nb131  1  0.39794585  0.40119759  0.00121842  1
  Nb  Nb132  1  0.00354956  -0.00215427  0.79503444  1
  Nb  Nb133  1  0.00378170  0.80268996  0.59759868  1
  Nb  Nb134  1  0.39727270  0.20184530  0.80097078  1
  Nb  Nb135  1  0.59781526  -0.00176571  0.79691292  1
  Nb  Nb136  1  0.79314423  0.59944522  0.59182946  1
  Nb  Nb137  1  0.19548104  0.59415964  0.00345002  1
  Nb  Nb138  1  0.60652992  0.60091494  0.40845436  1
  Nb  Nb139  1  0.01075702  0.39582296  0.39934236  1
  Nb  Nb140  1  0.00246167  0.80523836  0.40368533  1
  Nb  Nb141  1  0.60711211  0.60302067  0.59022760  1
  Nb  Nb142  1  0.00189831  -0.00260866  0.39957509  1
  Nb  Nb143  1  0.39011153  0.59164615  0.20078742  1
  Nb  Nb144  1  0.00000662  0.59965985  0.19578797  1
  Nb  Nb145  1  0.38836044  0.40527228  0.39472088  1
  Nb  Nb146  1  0.79573352  0.60099308  0.39963934  1
  Nb  Nb147  1  0.80178343  0.19394353  0.00626789  1
  Nb  Nb148  1  0.20284160  0.20038562  0.79530616  1
  Nb  Nb149  1  0.00504037  0.59767772  0.80718078  1
  Pd  Pd150  1  0.80127795  -0.00228818  0.80437303  1
  Pd  Pd151  1  0.59837818  0.59886052  0.79054548  1
  Pd  Pd152  1  0.20262238  0.79520654  0.19957150  1
  Pd  Pd153  1  0.00792557  0.19220604  0.78896690  1
  Pd  Pd154  1  0.59731621  0.40035722  0.79774263  1
  Pd  Pd155  1  -0.00251497  0.40251446  -0.00047952  1
  Pd  Pd156  1  0.79412066  0.39931480  0.80261449  1
  Pd  Pd157  1  -0.00815766  0.19732729  0.40235490  1
  Pd  Pd158  1  0.20368769  0.59773598  0.60324165  1
  Pd  Pd159  1  -0.00320388  0.60944545  0.61611257  1
  Pd  Pd160  1  0.40019887  -0.00224825  0.00321408  1
  Pd  Pd161  1  0.19834324  0.60811202  0.19219659  1
  Pd  Pd162  1  0.39932866  0.79029431  0.20846151  1
  Pd  Pd163  1  0.39479800  0.80841024  0.59379673  1
  Pd  Pd164  1  0.59479998  0.20058900  0.20889119  1
  Pd  Pd165  1  0.80183542  0.79890734  0.19277261  1
  Pd  Pd166  1  -0.00900355  -0.00710716  0.59866749  1
  Pd  Pd167  1  0.18465872  0.39922412  0.20301780  1
  Pd  Pd168  1  0.20333885  0.80389079  0.60327147  1
  Pd  Pd169  1  0.20061528  0.40444226  -0.00417232  1
  Pd  Pd170  1  0.39598932  0.59498619  0.01283375  1
  Pd  Pd171  1  0.40327986  0.19930892  0.60053330  1
  Pd  Pd172  1  0.80902158  0.80120726  0.39681647  1
  Pd  Pd173  1  0.80660852  0.39846609  0.60162847  1
  Pd  Pd174  1  0.59693708  0.20236412  0.40303667  1
  Pd  Pd175  1  0.60802220  -0.00042581  -0.00957355  1
  Pd  Pd176  1  0.40426704  0.59809965  0.60168328  1
  Pd  Pd177  1  0.40837948  0.80179010  0.00240264  1
  Pd  Pd178  1  0.79714116  -0.00100791  0.20070195  1
  Pd  Pd179  1  0.19964860  0.40279487  0.60415795  1
  Pd  Pd180  1  0.00312962  0.79614353  0.21026666  1
  Pd  Pd181  1  0.58709269  0.40536041  0.40582852  1
  Pd  Pd182  1  0.80665978  0.80445269  0.00935304  1
  Pd  Pd183  1  0.60137017  0.40447431  0.00398127  1
  Pd  Pd184  1  0.59264815  0.79701613  0.00262382  1
  Pd  Pd185  1  0.40390612  0.59821794  0.39085916  1
  Pd  Pd186  1  0.19592071  0.59720267  0.80411588  1
  Pd  Pd187  1  0.00259053  0.19083943  0.19355754  1
  Pd  Pd188  1  0.20223043  0.79846910  0.00206646  1
  Pd  Pd189  1  0.58950948  0.80476039  0.39783788  1
  Pd  Pd190  1  0.59755272  0.20214587  0.59175693  1
  Pd  Pd191  1  -0.00655905  -0.00937710  -0.00992798  1
  Pd  Pd192  1  0.80630139  0.79264734  0.60469090  1
  Pd  Pd193  1  -0.00627580  0.20377688  0.59871831  1
  Pd  Pd194  1  0.59456110  0.80558852  0.80326233  1
  Pd  Pd195  1  0.59513955  0.80300771  0.19671858  1
  Pd  Pd196  1  0.59330800  -0.00053114  0.39636553  1
  Pd  Pd197  1  0.20462991  0.00290312  0.19221583  1
  Pd  Pd198  1  0.00653432  0.40614174  0.20406896  1
  Pd  Pd199  1  0.60817838  0.19708214  0.00328291  1
  Rh  Rh200  1  0.20651131  0.80290622  0.79673677  1
  Rh  Rh201  1  0.19742643  0.00604024  0.40300290  1
  Rh  Rh202  1  0.80079252  0.40881054  0.19724440  1
  Rh  Rh203  1  -0.00297336  0.39041702  0.59096599  1
  Rh  Rh204  1  0.79778041  0.00728030  0.60404772  1
  Rh  Rh205  1  0.80189407  0.59898219  0.00847030  1
  Rh  Rh206  1  0.00059250  0.79800161  0.78990562  1
  Rh  Rh207  1  0.79821666  0.19583380  0.19632221  1
  Rh  Rh208  1  0.00054806  -0.00021917  0.20819329  1
  Rh  Rh209  1  0.79066012  0.39283609  -0.00172027  1
  Rh  Rh210  1  0.18440095  0.19623069  0.00349422  1
  Rh  Rh211  1  0.00235051  0.40400917  0.80389377  1
  Rh  Rh212  1  0.60113606  0.79938030  0.60009181  1
  Rh  Rh213  1  0.39733007  -0.00034981  0.60081472  1
  Rh  Rh214  1  0.60085505  0.00768458  0.60422609  1
  Rh  Rh215  1  0.80781112  0.59640193  0.79622435  1
  Rh  Rh216  1  0.39873146  0.21041098  0.39105016  1
  Rh  Rh217  1  0.41082638  0.00590309  0.79693944  1
  Rh  Rh218  1  0.20527774  0.59501983  0.40278736  1
  Rh  Rh219  1  0.79849599  0.21005487  0.80236355  1
  Rh  Rh220  1  0.19819375  0.19245350  0.19169407  1
  Rh  Rh221  1  0.60170662  0.39985347  0.19865503  1
  Rh  Rh222  1  0.60310259  -0.00331229  0.20726567  1
  Rh  Rh223  1  0.20521628  0.79986111  0.40492295  1
  Rh  Rh224  1  0.40361912  0.20197023  0.00617323  1
  Rh  Rh225  1  0.81239762  0.39921914  0.39897894  1
  Rh  Rh226  1  0.19257168  0.00103062  0.79317739  1
  Rh  Rh227  1  0.19650351  0.40520190  0.39613994  1
  Rh  Rh228  1  0.39400872  0.00890641  0.19506851  1
  Rh  Rh229  1  0.20984823  -0.00083738  0.60409877  1
  Rh  Rh230  1  -0.00253251  0.59652423  0.38720279  1
  Rh  Rh231  1  0.00075697  0.59632013  -0.00048949  1
  Rh  Rh232  1  0.60384389  0.60055836  0.20327158  1
  Rh  Rh233  1  0.80551323  0.00222419  0.39386099  1
  Rh  Rh234  1  0.40491264  -0.01192641  0.40337267  1
  Rh  Rh235  1  0.40875034  0.59553547  0.79111304  1
  Rh  Rh236  1  0.40556154  0.40042103  0.19915344  1
  Rh  Rh237  1  0.19847727  -0.01426705  0.00936160  1
  Rh  Rh238  1  0.60109858  0.60390198  0.00111177  1
  Rh  Rh239  1  0.79826855  0.79527913  0.80206896  1
  Rh  Rh240  1  -0.00274979  0.19781894  0.00806941  1
  Rh  Rh241  1  0.20110921  0.19880407  0.59917321  1
  Rh  Rh242  1  0.79958370  0.21092899  0.60076378  1
  Rh  Rh243  1  0.39986714  0.39873557  0.59454983  1
  Rh  Rh244  1  0.20543234  0.19332827  0.40471962  1
  Rh  Rh245  1  0.40403268  0.80657777  0.80016353  1
  Rh  Rh246  1  0.80026022  0.20422826  0.40085760  1
  Rh  Rh247  1  -0.00701717  0.80663611  0.00305248  1
  Rh  Rh248  1  0.58977806  0.19519333  0.79412202  1
  Rh  Rh249  1  0.60045492  0.40320765  0.59305855  1
