# generated using pymatgen
data_ZrScNbPdRh
_symmetry_space_group_name_H-M   'P 1'
_cell_length_a   16.54826315
_cell_length_b   16.55029876
_cell_length_c   16.54783912
_cell_angle_alpha   90.04161880
_cell_angle_beta   90.00055576
_cell_angle_gamma   89.99644754
_symmetry_Int_Tables_number   1
_chemical_formula_structural   ZrScNbPdRh
_chemical_formula_sum   'Zr50 Sc50 Nb50 Pd50 Rh50'
_cell_volume   4532.09944714
_cell_formula_units_Z   50
loop_
 _symmetry_equiv_pos_site_id
 _symmetry_equiv_pos_as_xyz
  1  'x, y, z'
loop_
 _atom_site_type_symbol
 _atom_site_label
 _atom_site_symmetry_multiplicity
 _atom_site_fract_x
 _atom_site_fract_y
 _atom_site_fract_z
 _atom_site_occupancy
  Zr  Zr0  1  0.29343287  0.29547153  0.29878486  1
  Zr  Zr1  1  0.10054634  0.29432475  0.70218591  1
  Zr  Zr2  1  0.49747142  0.29362631  0.10353277  1
  Zr  Zr3  1  0.50136407  0.09286541  0.30763412  1
  Zr  Zr4  1  0.09925915  0.69271046  0.49174092  1
  Zr  Zr5  1  0.70145444  0.29715084  0.88775467  1
  Zr  Zr6  1  0.71381753  0.69927663  0.50576532  1
  Zr  Zr7  1  0.49913908  0.09553757  0.10704314  1
  Zr  Zr8  1  0.49883332  0.70432390  0.90079473  1
  Zr  Zr9  1  0.69678887  0.69819920  0.30311493  1
  Zr  Zr10  1  0.69852738  0.50582723  0.49732177  1
  Zr  Zr11  1  0.89908284  0.29867732  0.70194613  1
  Zr  Zr12  1  0.10434159  0.70586454  0.09776799  1
  Zr  Zr13  1  0.09666352  0.29369989  0.29964176  1
  Zr  Zr14  1  0.09594506  0.90683260  0.69562334  1
  Zr  Zr15  1  0.49824525  0.30011392  0.29762403  1
  Zr  Zr16  1  0.49950301  0.69905964  0.10239940  1
  Zr  Zr17  1  0.90004929  0.90398481  0.69266429  1
  Zr  Zr18  1  0.89607926  0.49325536  0.10094801  1
  Zr  Zr19  1  0.09338421  0.89334411  0.91086986  1
  Zr  Zr20  1  0.70347747  0.09942139  0.09845049  1
  Zr  Zr21  1  0.89269359  0.09492728  0.70045134  1
  Zr  Zr22  1  0.30046002  0.70061966  0.70064976  1
  Zr  Zr23  1  0.51602794  0.69293876  0.49277592  1
  Zr  Zr24  1  0.29590833  0.69863924  0.90545207  1
  Zr  Zr25  1  0.10498533  0.69766337  0.69433030  1
  Zr  Zr26  1  0.50452033  0.09573670  0.68791927  1
  Zr  Zr27  1  0.49952982  0.09635883  0.89665419  1
  Zr  Zr28  1  0.90024713  0.50562730  0.49882176  1
  Zr  Zr29  1  0.29158613  0.69847867  0.50003678  1
  Zr  Zr30  1  0.70643221  0.30229254  0.09994984  1
  Zr  Zr31  1  0.90000242  0.10764100  0.90359283  1
  Zr  Zr32  1  0.49630221  0.90326504  0.89796059  1
  Zr  Zr33  1  0.29991129  0.10217784  0.10424299  1
  Zr  Zr34  1  0.90556666  0.10104210  0.09988676  1
  Zr  Zr35  1  0.89964738  0.91141372  0.10048967  1
  Zr  Zr36  1  0.89163332  0.69473101  0.10565414  1
  Zr  Zr37  1  0.10331554  0.49387197  0.90349695  1
  Zr  Zr38  1  0.30082497  0.49413894  0.50453006  1
  Zr  Zr39  1  0.30228412  0.89727778  0.29747291  1
  Zr  Zr40  1  0.29158400  0.09940547  0.30445528  1
  Zr  Zr41  1  0.09424508  0.29679150  0.89718599  1
  Zr  Zr42  1  0.69285277  0.90478443  0.90365233  1
  Zr  Zr43  1  0.50094885  0.49962609  0.11832654  1
  Zr  Zr44  1  0.50174113  0.91096840  0.49541045  1
  Zr  Zr45  1  0.69858984  0.90001999  0.10193155  1
  Zr  Zr46  1  0.50167969  0.30240568  0.89265544  1
  Zr  Zr47  1  0.08952846  0.49712178  0.10522177  1
  Zr  Zr48  1  0.30454195  0.90059872  0.90058104  1
  Zr  Zr49  1  0.90154597  0.90467687  0.89508873  1
  Sc  Sc50  1  0.90045867  0.49900110  0.29530294  1
  Sc  Sc51  1  0.69407149  0.10623246  0.49796644  1
  Sc  Sc52  1  0.10437562  0.29201571  0.50559614  1
  Sc  Sc53  1  0.69892283  0.69944357  0.90385839  1
  Sc  Sc54  1  0.89784528  0.90644620  0.49031181  1
  Sc  Sc55  1  0.29496888  0.70930788  0.30057817  1
  Sc  Sc56  1  0.70812575  0.90804964  0.30196531  1
  Sc  Sc57  1  0.69869996  0.29508150  0.69482636  1
  Sc  Sc58  1  0.90316676  0.49497721  0.70052996  1
  Sc  Sc59  1  0.09862225  0.09953210  0.69676984  1
  Sc  Sc60  1  0.29646708  0.70453579  0.10741651  1
  Sc  Sc61  1  0.30066983  0.49634900  0.10083189  1
  Sc  Sc62  1  0.89800814  0.10225467  0.49094422  1
  Sc  Sc63  1  0.49483419  0.48977313  0.89809107  1
  Sc  Sc64  1  0.29616050  0.09993324  0.68863407  1
  Sc  Sc65  1  0.50818388  0.30731257  0.70065985  1
  Sc  Sc66  1  0.09480190  0.10482540  0.30396912  1
  Sc  Sc67  1  0.10222625  0.90500934  0.30776577  1
  Sc  Sc68  1  0.89357488  0.69594972  0.69255986  1
  Sc  Sc69  1  0.50062769  0.69967930  0.69803568  1
  Sc  Sc70  1  0.70291791  0.29737685  0.30469804  1
  Sc  Sc71  1  0.70917311  0.49559928  0.89405797  1
  Sc  Sc72  1  0.88908823  0.29964490  0.49757266  1
  Sc  Sc73  1  0.10233000  0.09544923  0.49971956  1
  Sc  Sc74  1  0.10754923  0.49142858  0.69294032  1
  Sc  Sc75  1  0.09736252  0.10015521  0.10050432  1
  Sc  Sc76  1  0.70843317  0.91679607  0.69369265  1
  Sc  Sc77  1  0.29906570  0.29226028  0.50398194  1
  Sc  Sc78  1  0.29809230  0.30131276  0.90632375  1
  Sc  Sc79  1  0.90024235  0.49154826  0.89479016  1
  Sc  Sc80  1  0.30349856  0.90221394  0.69726751  1
  Sc  Sc81  1  0.90608101  0.09950173  0.30270033  1
  Sc  Sc82  1  0.69817464  0.10310139  0.30281312  1
  Sc  Sc83  1  0.29122830  0.90265414  0.49768434  1
  Sc  Sc84  1  0.29709725  0.30566610  0.69416545  1
  Sc  Sc85  1  0.29939064  0.09970009  0.91220192  1
  Sc  Sc86  1  0.31252361  0.49452255  0.29862893  1
  Sc  Sc87  1  0.29853045  0.49259942  0.90159423  1
  Sc  Sc88  1  0.29488451  0.90328551  0.10626539  1
  Sc  Sc89  1  0.09579999  0.30223450  0.10482515  1
  Sc  Sc90  1  0.49939969  0.29519637  0.50651184  1
  Sc  Sc91  1  0.10175103  0.70029977  0.29880488  1
  Sc  Sc92  1  0.90312443  0.30000166  0.90009206  1
  Sc  Sc93  1  0.70132784  0.49820259  0.69612120  1
  Sc  Sc94  1  0.09389860  0.50793093  0.29381872  1
  Sc  Sc95  1  0.90008157  0.29625189  0.30802021  1
  Sc  Sc96  1  0.90419056  0.69757377  0.30693086  1
  Sc  Sc97  1  0.70660243  0.90202054  0.49269908  1
  Sc  Sc98  1  0.90120316  0.70179919  0.89609881  1
  Sc  Sc99  1  0.49338586  0.69650375  0.30194187  1
  Nb  Nb100  1  0.50139728  0.50168844  0.50041269  1
  Nb  Nb101  1  0.49948902  0.89942958  0.10185132  1
  Nb  Nb102  1  0.90151425  0.70027136  0.50202733  1
  Nb  Nb103  1  0.10157048  0.10558455  0.89912687  1
  Nb  Nb104  1  0.90427874  0.29635708  0.09736190  1
  Nb  Nb105  1  0.09400399  0.89760484  0.10076769  1
  Nb  Nb106  1  0.70063261  0.70086593  0.69707537  1
  Nb  Nb107  1  0.69405192  0.49572439  0.29475562  1
  Nb  Nb108  1  0.50315853  0.49786774  0.30725052  1
  Nb  Nb109  1  0.69999924  0.50452326  0.10556296  1
  Nb  Nb110  1  0.09417319  0.89949494  0.50403892  1
  Nb  Nb111  1  0.70232398  0.11023068  0.70529273  1
  Nb  Nb112  1  0.30196168  0.29608625  0.11020294  1
  Nb  Nb113  1  0.49371377  0.09977576  0.50216547  1
  Nb  Nb114  1  0.10216099  0.50086107  0.49681403  1
  Nb  Nb115  1  0.70518129  0.30124754  0.49585861  1
  Nb  Nb116  1  0.49761418  0.89744244  0.29398697  1
  Nb  Nb117  1  0.10161003  0.69981964  0.90197351  1
  Nb  Nb118  1  0.90223042  0.91062223  0.29459161  1
  Nb  Nb119  1  0.69993679  0.10532258  0.89209019  1
  Nb  Nb120  1  0.30522677  0.10123165  0.50339108  1
  Nb  Nb121  1  0.69664958  0.69761974  0.10164385  1
  Nb  Nb122  1  0.49954885  0.49648760  0.69581858  1
  Nb  Nb123  1  0.49617123  0.89909120  0.69786240  1
  Nb  Nb124  1  0.30743238  0.49775834  0.69739787  1
  Nb  Nb125  1  0.79346941  0.80321969  0.79882123  1
  Nb  Nb126  1  0.40354951  0.80393958  0.00402036  1
  Nb  Nb127  1  0.19552271  -0.00234379  0.80616896  1
  Nb  Nb128  1  0.59652931  0.60132834  0.79934784  1
  Nb  Nb129  1  0.60353509  0.59190076  0.00441154  1
  Nb  Nb130  1  0.40173224  0.19909588  0.79786087  1
  Nb  Nb131  1  0.60207210  0.80371115  0.60304051  1
  Nb  Nb132  1  0.60292372  0.80244979  0.79015478  1
  Nb  Nb133  1  0.19434230  0.80216892  0.80343930  1
  Nb  Nb134  1  -0.00678507  0.19822086  0.60293738  1
  Nb  Nb135  1  0.59853885  0.80223975  0.20026123  1
  Nb  Nb136  1  0.00239836  0.60089716  -0.00289326  1
  Nb  Nb137  1  0.01047511  0.60154859  0.80420621  1
  Nb  Nb138  1  0.40871495  0.79830794  0.59509878  1
  Nb  Nb139  1  0.59812996  0.40426782  0.40220094  1
  Nb  Nb140  1  0.79652649  0.80096690  0.00179214  1
  Nb  Nb141  1  0.60447240  0.40139324  0.00638277  1
  Nb  Nb142  1  0.40460401  0.59738551  0.59840515  1
  Nb  Nb143  1  0.40083160  0.59456865  0.79411226  1
  Nb  Nb144  1  0.00652026  0.40316726  0.40574565  1
  Nb  Nb145  1  0.60233712  0.20137429  -0.00426303  1
  Nb  Nb146  1  -0.00191649  0.79773702  0.58961419  1
  Nb  Nb147  1  0.80551805  0.20068483  0.19379367  1
  Nb  Nb148  1  0.19459993  0.40142036  0.40073125  1
  Nb  Nb149  1  -0.00367136  0.80859657  0.19918308  1
  Pd  Pd150  1  0.80089492  0.60151672  -0.00644603  1
  Pd  Pd151  1  0.39992577  0.79977010  0.40734088  1
  Pd  Pd152  1  0.38921782  0.01162292  0.79111137  1
  Pd  Pd153  1  0.60360927  -0.00445299  0.20697079  1
  Pd  Pd154  1  0.79979210  0.00038900  -0.00635215  1
  Pd  Pd155  1  0.19146606  0.00059186  0.20118571  1
  Pd  Pd156  1  0.60842217  -0.00000188  0.59473548  1
  Pd  Pd157  1  -0.00289264  0.79035654  0.78767965  1
  Pd  Pd158  1  0.19785491  0.00122259  0.40444085  1
  Pd  Pd159  1  0.00128419  0.39136077  0.59243075  1
  Pd  Pd160  1  0.60311714  0.39233509  0.20347161  1
  Pd  Pd161  1  0.80002532  0.80120374  0.20268550  1
  Pd  Pd162  1  0.80561687  0.39203824  0.20707510  1
  Pd  Pd163  1  0.59692909  0.00835949  0.00134396  1
  Pd  Pd164  1  0.79871543  0.39841544  -0.00366074  1
  Pd  Pd165  1  0.59746229  0.20669964  0.40564600  1
  Pd  Pd166  1  0.40305914  0.20694124  0.60966341  1
  Pd  Pd167  1  0.39332912  0.60360589  0.20640281  1
  Pd  Pd168  1  0.19542465  0.20770530  0.00879429  1
  Pd  Pd169  1  0.40425480  0.39953054  0.00848084  1
  Pd  Pd170  1  0.60279079  0.80864837  0.39650876  1
  Pd  Pd171  1  -0.00111905  0.80491369  0.39719162  1
  Pd  Pd172  1  0.80284544  0.59583092  0.39185047  1
  Pd  Pd173  1  0.00012921  0.60072811  0.60610800  1
  Pd  Pd174  1  0.39975148  0.20047055  0.40005837  1
  Pd  Pd175  1  0.80687305  0.80241618  0.39488471  1
  Pd  Pd176  1  0.19785256  0.59460955  0.00909688  1
  Pd  Pd177  1  0.20693456  0.59041784  0.38838476  1
  Pd  Pd178  1  0.20364729  0.39675802  0.79839791  1
  Pd  Pd179  1  0.19493128  -0.00192547  -0.00005319  1
  Pd  Pd180  1  0.79782386  0.40265927  0.60072573  1
  Pd  Pd181  1  0.40063143  0.39106351  0.40664220  1
  Pd  Pd182  1  0.19923418  0.40428748  0.20645797  1
  Pd  Pd183  1  0.40374662  0.20162964  -0.00554239  1
  Pd  Pd184  1  0.39410951  0.60289541  0.40204242  1
  Pd  Pd185  1  0.19994754  0.39136821  0.01006299  1
  Pd  Pd186  1  0.21238374  0.19168685  0.79912287  1
  Pd  Pd187  1  0.80130151  0.60479365  0.79837581  1
  Pd  Pd188  1  -0.01324943  0.79235099  0.00825429  1
  Pd  Pd189  1  0.40461850  0.59783049  -0.00334678  1
  Pd  Pd190  1  0.19855047  0.80632806  0.60148310  1
  Pd  Pd191  1  0.60338216  -0.00168709  0.79158915  1
  Pd  Pd192  1  0.79584389  0.01024524  0.58678110  1
  Pd  Pd193  1  0.20550515  0.59602804  0.20157570  1
  Pd  Pd194  1  0.00652485  0.00852502  0.80525823  1
  Pd  Pd195  1  0.39399299  -0.00140951  0.40063715  1
  Pd  Pd196  1  0.60369123  0.39632631  0.59246466  1
  Pd  Pd197  1  0.20173021  0.59816481  0.79744469  1
  Pd  Pd198  1  0.39924105  0.19195104  0.21119668  1
  Pd  Pd199  1  0.79807869  0.59765145  0.20949747  1
  Rh  Rh200  1  0.20012138  0.39914781  0.59523395  1
  Rh  Rh201  1  0.40383483  0.39968174  0.59807274  1
  Rh  Rh202  1  0.00061677  0.20661204  0.41196439  1
  Rh  Rh203  1  0.59889919  0.60680087  0.20460128  1
  Rh  Rh204  1  0.19496988  0.80305137  0.39984277  1
  Rh  Rh205  1  0.00502134  0.40574698  0.79998325  1
  Rh  Rh206  1  0.39458655  0.39576299  0.79493003  1
  Rh  Rh207  1  0.20173094  0.20068238  0.40551907  1
  Rh  Rh208  1  0.80011103  0.00619713  0.39555311  1
  Rh  Rh209  1  0.79988081  0.19710452  0.59728842  1
  Rh  Rh210  1  0.79516820  0.20265957  -0.00023229  1
  Rh  Rh211  1  0.39450801  -0.00596962  0.59448646  1
  Rh  Rh212  1  0.19519789  0.19602794  0.19528485  1
  Rh  Rh213  1  0.39749592  0.00088440  0.20244966  1
  Rh  Rh214  1  0.19348399  0.19375517  0.59860032  1
  Rh  Rh215  1  -0.00429267  0.19503343  0.79391393  1
  Rh  Rh216  1  -0.00601274  0.20208455  0.19904603  1
  Rh  Rh217  1  0.40468875  0.80146342  0.19557737  1
  Rh  Rh218  1  0.79785586  0.19712378  0.39339508  1
  Rh  Rh219  1  0.79559796  0.00027856  0.80614411  1
  Rh  Rh220  1  0.20189361  0.00083575  0.59954844  1
  Rh  Rh221  1  0.79935218  0.39465845  0.79190805  1
  Rh  Rh222  1  0.59883217  0.79270251  0.00684000  1
  Rh  Rh223  1  0.00071409  0.61173613  0.19342102  1
  Rh  Rh224  1  0.80307851  0.80315807  0.60220084  1
  Rh  Rh225  1  0.20557022  0.59100563  0.60115052  1
  Rh  Rh226  1  -0.00185711  0.59467738  0.39884480  1
  Rh  Rh227  1  0.60501639  0.41190126  0.80246811  1
  Rh  Rh228  1  0.39847706  0.79395973  0.79980832  1
  Rh  Rh229  1  -0.00379205  0.40178840  -0.00108103  1
  Rh  Rh230  1  0.80350286  0.59384405  0.60299130  1
  Rh  Rh231  1  0.59174114  0.19334323  0.79634677  1
  Rh  Rh232  1  0.39807173  0.39772692  0.19989420  1
  Rh  Rh233  1  -0.00522682  0.00246802  0.59007761  1
  Rh  Rh234  1  0.40086947  -0.00525388  0.01038025  1
  Rh  Rh235  1  0.00784007  -0.00323321  0.20477412  1
  Rh  Rh236  1  0.59987388  -0.00023882  0.39924942  1
  Rh  Rh237  1  0.59754911  0.60422165  0.60790550  1
  Rh  Rh238  1  0.20919985  0.80641890  -0.00063848  1
  Rh  Rh239  1  0.18891031  0.80813101  0.20343202  1
  Rh  Rh240  1  0.00642358  0.00880090  -0.00412217  1
  Rh  Rh241  1  0.80118583  0.01376843  0.20613865  1
  Rh  Rh242  1  0.60398890  0.59295068  0.39138617  1
  Rh  Rh243  1  0.60258413  0.20013769  0.59672040  1
  Rh  Rh244  1  0.80569766  0.20201282  0.79842629  1
  Rh  Rh245  1  0.00215931  0.00050142  0.40068735  1
  Rh  Rh246  1  0.00745575  0.20195342  0.00078796  1
  Rh  Rh247  1  0.60972556  0.20123869  0.19452944  1
  Rh  Rh248  1  0.79655639  0.40612610  0.39821681  1
  Rh  Rh249  1  -0.00687555  0.39115804  0.20944020  1
