# generated using pymatgen
data_ZrScNbPdRh
_symmetry_space_group_name_H-M   'P 1'
_cell_length_a   16.55452825
_cell_length_b   16.55422346
_cell_length_c   16.55241606
_cell_angle_alpha   90.00161793
_cell_angle_beta   90.01118803
_cell_angle_gamma   89.97679675
_symmetry_Int_Tables_number   1
_chemical_formula_structural   ZrScNbPdRh
_chemical_formula_sum   'Zr50 Sc50 Nb50 Pd50 Rh50'
_cell_volume   4536.14546323
_cell_formula_units_Z   50
loop_
 _symmetry_equiv_pos_site_id
 _symmetry_equiv_pos_as_xyz
  1  'x, y, z'
loop_
 _atom_site_type_symbol
 _atom_site_label
 _atom_site_symmetry_multiplicity
 _atom_site_fract_x
 _atom_site_fract_y
 _atom_site_fract_z
 _atom_site_occupancy
  Zr  Zr0  1  0.49548150  0.30558507  0.50720555  1
  Zr  Zr1  1  0.29130790  0.09891954  0.69158468  1
  Zr  Zr2  1  0.71232464  0.49672555  0.30195968  1
  Zr  Zr3  1  0.50142813  0.69874952  0.10309161  1
  Zr  Zr4  1  0.90267968  0.49946337  0.71285485  1
  Zr  Zr5  1  0.51227994  0.89987504  0.29655497  1
  Zr  Zr6  1  0.30455171  0.69144312  0.28203963  1
  Zr  Zr7  1  0.50637018  0.09808115  0.30468414  1
  Zr  Zr8  1  0.29179764  0.70612785  0.09014030  1
  Zr  Zr9  1  0.30503834  0.69760671  0.69473932  1
  Zr  Zr10  1  0.29303805  0.30366798  0.30703527  1
  Zr  Zr11  1  0.50450820  0.90392974  0.50057109  1
  Zr  Zr12  1  0.09917759  0.11314504  0.09851988  1
  Zr  Zr13  1  0.70308868  0.09248917  0.50877823  1
  Zr  Zr14  1  0.29790974  0.51285031  0.10988167  1
  Zr  Zr15  1  0.89794523  0.49992220  0.90188268  1
  Zr  Zr16  1  0.09843691  0.90757972  0.89329577  1
  Zr  Zr17  1  0.89567745  0.70161198  0.70065819  1
  Zr  Zr18  1  0.09793259  0.09922648  0.90205850  1
  Zr  Zr19  1  0.30271378  0.29792004  0.89810646  1
  Zr  Zr20  1  0.50007833  0.89912404  0.69638970  1
  Zr  Zr21  1  0.70212797  0.70267550  0.49860881  1
  Zr  Zr22  1  0.51186495  0.70557924  0.50067964  1
  Zr  Zr23  1  0.10355193  0.09089750  0.70768780  1
  Zr  Zr24  1  0.89803372  0.49947780  0.30489569  1
  Zr  Zr25  1  0.09444087  0.50065072  0.90236569  1
  Zr  Zr26  1  0.29999625  0.49308831  0.50053955  1
  Zr  Zr27  1  0.49596699  0.29848521  0.09944954  1
  Zr  Zr28  1  0.69909073  0.30913159  0.29459450  1
  Zr  Zr29  1  0.90909627  0.10380009  0.10180409  1
  Zr  Zr30  1  0.69735332  0.91056900  0.70255632  1
  Zr  Zr31  1  0.29736414  0.89930324  0.90581202  1
  Zr  Zr32  1  0.49808649  0.09642530  0.49547314  1
  Zr  Zr33  1  0.09198323  0.69492556  0.10001172  1
  Zr  Zr34  1  0.10259042  0.10022557  0.51516087  1
  Zr  Zr35  1  0.70211770  0.50151580  0.70332634  1
  Zr  Zr36  1  0.51076006  0.49054900  0.30412564  1
  Zr  Zr37  1  0.09624926  0.29345875  0.69340561  1
  Zr  Zr38  1  0.89471211  0.70165136  0.49537070  1
  Zr  Zr39  1  0.89291796  0.50840781  0.10772601  1
  Zr  Zr40  1  0.09068533  0.90251773  0.49931955  1
  Zr  Zr41  1  0.29824962  0.90126753  0.09602733  1
  Zr  Zr42  1  0.50182042  0.50350129  0.09535359  1
  Zr  Zr43  1  0.29033856  0.89063396  0.29275895  1
  Zr  Zr44  1  0.70038703  0.29140030  0.70933351  1
  Zr  Zr45  1  0.50961344  0.10096339  0.69887954  1
  Zr  Zr46  1  0.89323360  0.90701409  0.49384077  1
  Zr  Zr47  1  0.28568253  0.09845864  0.89482326  1
  Zr  Zr48  1  0.10532514  0.29899395  0.91461222  1
  Zr  Zr49  1  0.89652033  0.69366452  0.28884185  1
  Sc  Sc50  1  0.71868119  0.10414258  0.10190171  1
  Sc  Sc51  1  0.10337240  0.49706511  0.29511469  1
  Sc  Sc52  1  0.90392981  0.89934107  0.89774327  1
  Sc  Sc53  1  0.29737223  0.69904045  0.50034209  1
  Sc  Sc54  1  0.49586264  0.69928733  0.89964365  1
  Sc  Sc55  1  0.89771484  0.89441244  0.10178656  1
  Sc  Sc56  1  0.70063056  0.29683695  0.50708387  1
  Sc  Sc57  1  0.70139192  0.90259787  0.29962459  1
  Sc  Sc58  1  0.89779819  0.09336774  0.90327651  1
  Sc  Sc59  1  0.89786069  0.30392670  0.30268705  1
  Sc  Sc60  1  0.09306117  0.49682325  0.49355009  1
  Sc  Sc61  1  0.09488417  0.69601123  0.69104177  1
  Sc  Sc62  1  0.90046854  0.89507299  0.30219267  1
  Sc  Sc63  1  0.09531799  0.70042915  0.91222015  1
  Sc  Sc64  1  0.29786261  0.09748953  0.09949080  1
  Sc  Sc65  1  0.49463311  0.50186459  0.89814883  1
  Sc  Sc66  1  0.90284077  0.89526836  0.70440669  1
  Sc  Sc67  1  0.31017685  0.90229391  0.50265793  1
  Sc  Sc68  1  0.10710972  0.11043463  0.29499124  1
  Sc  Sc69  1  0.09963313  0.69615396  0.49773255  1
  Sc  Sc70  1  0.49007860  0.09768790  0.10686625  1
  Sc  Sc71  1  0.70154743  0.89780616  0.10431718  1
  Sc  Sc72  1  0.50099610  0.48734504  0.69948414  1
  Sc  Sc73  1  0.09736219  0.70666549  0.29468475  1
  Sc  Sc74  1  0.70432784  0.70149906  0.09858893  1
  Sc  Sc75  1  0.89482023  0.30046086  0.70204479  1
  Sc  Sc76  1  0.88858056  0.10307538  0.70066207  1
  Sc  Sc77  1  0.50348986  0.89781072  0.89684664  1
  Sc  Sc78  1  0.10518245  0.89009864  0.09538167  1
  Sc  Sc79  1  0.30429080  0.50332521  0.69629635  1
  Sc  Sc80  1  0.49789648  0.10748976  0.89471565  1
  Sc  Sc81  1  0.89731839  0.09389278  0.29915517  1
  Sc  Sc82  1  0.30063649  0.50187879  0.90794611  1
  Sc  Sc83  1  0.30141610  0.10590777  0.29973162  1
  Sc  Sc84  1  0.30885701  0.89860158  0.69411363  1
  Sc  Sc85  1  0.89967671  0.70065368  0.90704198  1
  Sc  Sc86  1  0.29367218  0.30054712  0.09503342  1
  Sc  Sc87  1  0.70147090  0.70823763  0.69305581  1
  Sc  Sc88  1  0.10475534  0.50091964  0.09079360  1
  Sc  Sc89  1  0.89375658  0.29080553  0.09475947  1
  Sc  Sc90  1  0.49443892  0.70654472  0.70521859  1
  Sc  Sc91  1  0.70689762  0.49937815  0.90666575  1
  Sc  Sc92  1  0.30787030  0.29795947  0.69572613  1
  Sc  Sc93  1  0.69332673  0.70317072  0.91009733  1
  Sc  Sc94  1  0.70275348  0.90354009  0.89598396  1
  Sc  Sc95  1  0.29822137  0.29441181  0.49716201  1
  Sc  Sc96  1  0.89165138  0.30488722  0.90133443  1
  Sc  Sc97  1  0.10726823  0.29689537  0.29989453  1
  Sc  Sc98  1  0.49838959  0.90408903  0.10090550  1
  Sc  Sc99  1  0.90249450  0.30544271  0.50499498  1
  Nb  Nb100  1  0.69785205  0.49228403  0.10674736  1
  Nb  Nb101  1  0.50197346  0.30247059  0.89642270  1
  Nb  Nb102  1  0.69806864  0.10298499  0.30539659  1
  Nb  Nb103  1  0.30044737  0.70121386  0.88758244  1
  Nb  Nb104  1  0.89670979  0.10049676  0.49587479  1
  Nb  Nb105  1  0.50606408  0.50083119  0.50271844  1
  Nb  Nb106  1  0.70001956  0.10103929  0.71037437  1
  Nb  Nb107  1  0.70035608  0.89654239  0.50311206  1
  Nb  Nb108  1  0.89024460  0.50231700  0.49044911  1
  Nb  Nb109  1  0.70281987  0.29495959  0.90588513  1
  Nb  Nb110  1  0.30006600  0.49801263  0.30071606  1
  Nb  Nb111  1  0.70256073  0.30212615  0.09743154  1
  Nb  Nb112  1  0.10088333  0.90107921  0.69819214  1
  Nb  Nb113  1  0.09926466  0.50070649  0.69788912  1
  Nb  Nb114  1  0.69978773  0.10324132  0.88802772  1
  Nb  Nb115  1  0.50738688  0.70061259  0.29926491  1
  Nb  Nb116  1  0.10099367  0.29653280  0.49939373  1
  Nb  Nb117  1  0.50205025  0.30005647  0.70792043  1
  Nb  Nb118  1  0.90576652  0.70306197  0.10642057  1
  Nb  Nb119  1  0.70162675  0.50497497  0.50055838  1
  Nb  Nb120  1  0.50229247  0.29833999  0.29977787  1
  Nb  Nb121  1  0.69220367  0.70494596  0.29577666  1
  Nb  Nb122  1  0.09234514  0.29442317  0.10295194  1
  Nb  Nb123  1  0.29775924  0.09497968  0.49800557  1
  Nb  Nb124  1  0.09988029  0.90084188  0.29986820  1
  Nb  Nb125  1  -0.00152569  0.19665598  0.40789196  1
  Nb  Nb126  1  -0.01047586  0.59116110  0.59689031  1
  Nb  Nb127  1  0.19214765  0.39940500  0.60114055  1
  Nb  Nb128  1  0.00335466  0.19809532  0.80337840  1
  Nb  Nb129  1  0.79944958  0.41138688  0.59941921  1
  Nb  Nb130  1  0.79999446  0.19431918  0.40383461  1
  Nb  Nb131  1  0.20870671  0.59674477  0.39398260  1
  Nb  Nb132  1  0.60381367  0.59727018  0.20189583  1
  Nb  Nb133  1  0.19880458  0.79642087  0.79474966  1
  Nb  Nb134  1  0.40586434  0.59844087  0.39816122  1
  Nb  Nb135  1  0.60493675  0.20155912  0.00041310  1
  Nb  Nb136  1  0.19751120  -0.00198863  0.40072837  1
  Nb  Nb137  1  0.19511509  0.80409342  0.60211125  1
  Nb  Nb138  1  0.60281518  0.39183339  -0.00033042  1
  Nb  Nb139  1  0.19507596  0.40452579  0.79500143  1
  Nb  Nb140  1  0.00802343  -0.00275253  0.20178122  1
  Nb  Nb141  1  0.00159118  0.39473170  0.19359482  1
  Nb  Nb142  1  0.40997883  0.59581090  0.58973553  1
  Nb  Nb143  1  0.39999342  0.40016047  0.20658804  1
  Nb  Nb144  1  0.19835947  0.60078251  0.79806562  1
  Nb  Nb145  1  0.39837954  0.00282718  0.79729002  1
  Nb  Nb146  1  0.60036077  0.59856518  0.79986690  1
  Nb  Nb147  1  0.60560970  0.01291090  -0.00234554  1
  Nb  Nb148  1  0.60367524  0.20384001  0.19941860  1
  Nb  Nb149  1  0.40560165  0.79290555  0.39189545  1
  Pd  Pd150  1  0.40571029  0.80536099  0.19958758  1
  Pd  Pd151  1  0.39549966  0.60729082  -0.00401466  1
  Pd  Pd152  1  0.00536498  0.39128674  0.39188679  1
  Pd  Pd153  1  0.60375886  0.79289196  0.79925314  1
  Pd  Pd154  1  -0.00413663  0.40712864  0.59735189  1
  Pd  Pd155  1  -0.00109290  0.79457841  0.59599919  1
  Pd  Pd156  1  0.40268839  0.40007058  0.39869612  1
  Pd  Pd157  1  0.00883858  0.01139991  0.39011354  1
  Pd  Pd158  1  0.39927384  0.19462828  0.79518916  1
  Pd  Pd159  1  0.40842173  0.00648288  -0.00978864  1
  Pd  Pd160  1  0.59461018  0.60276302  0.61192174  1
  Pd  Pd161  1  0.39166286  0.40413995  0.79769278  1
  Pd  Pd162  1  0.60012866  0.20030354  0.59926283  1
  Pd  Pd163  1  0.79000434  0.61227059  0.80854988  1
  Pd  Pd164  1  0.60706953  0.39677196  0.60147821  1
  Pd  Pd165  1  0.80640514  -0.00487873  0.20383628  1
  Pd  Pd166  1  0.79818926  0.60307977  0.00497196  1
  Pd  Pd167  1  -0.01069451  0.19470984  0.60333049  1
  Pd  Pd168  1  0.00619763  0.61024234  0.79960367  1
  Pd  Pd169  1  0.39504164  -0.00249202  0.20852855  1
  Pd  Pd170  1  -0.01021893  0.39914569  0.01000754  1
  Pd  Pd171  1  0.00655891  0.38786104  0.80457785  1
  Pd  Pd172  1  0.59821248  0.81151101  0.00481006  1
  Pd  Pd173  1  0.00765183  0.79304615  0.80310664  1
  Pd  Pd174  1  -0.00335824  0.79433608  0.39555606  1
  Pd  Pd175  1  0.60942958  0.01278321  0.18860029  1
  Pd  Pd176  1  0.19466422  0.00309903  0.20050198  1
  Pd  Pd177  1  0.80117518  0.20268297  0.21017923  1
  Pd  Pd178  1  0.60553813  0.59831678  0.39460464  1
  Pd  Pd179  1  0.79533144  0.79783728  0.80512654  1
  Pd  Pd180  1  0.79597197  -0.00171087  -0.00271143  1
  Pd  Pd181  1  0.19786253  0.39745663  0.19170678  1
  Pd  Pd182  1  0.39904710  0.19384519  -0.00387415  1
  Pd  Pd183  1  0.80328594  0.80381116  -0.00117942  1
  Pd  Pd184  1  0.39747118  0.20624442  0.20506459  1
  Pd  Pd185  1  0.40561524  0.79677180  -0.00246556  1
  Pd  Pd186  1  0.80432700  0.59728322  0.60157425  1
  Pd  Pd187  1  0.40049600  0.20223936  0.40021247  1
  Pd  Pd188  1  0.80516294  -0.00373943  0.60792212  1
  Pd  Pd189  1  0.00274466  -0.00756964  0.01121207  1
  Pd  Pd190  1  0.39105518  -0.00939172  0.38795975  1
  Pd  Pd191  1  0.00718380  0.60258917  0.39734655  1
  Pd  Pd192  1  -0.01210622  0.00277735  0.60862554  1
  Pd  Pd193  1  0.60593711  0.40510707  0.81096360  1
  Pd  Pd194  1  0.40094366  0.19576650  0.59840934  1
  Pd  Pd195  1  0.39882127  0.40192379  0.00528488  1
  Pd  Pd196  1  0.60562704  0.20688564  0.40085420  1
  Pd  Pd197  1  0.60809559  0.39428740  0.41077912  1
  Pd  Pd198  1  0.20573172  0.79847396  0.40593884  1
  Pd  Pd199  1  0.79592447  0.79863740  0.39135004  1
  Rh  Rh200  1  0.60434687  0.80524827  0.60487009  1
  Rh  Rh201  1  0.19275997  0.00225580  0.00774919  1
  Rh  Rh202  1  0.79226821  0.60942129  0.39450261  1
  Rh  Rh203  1  -0.01004217  0.20415199  -0.01149187  1
  Rh  Rh204  1  -0.00449837  0.80319902  0.00049768  1
  Rh  Rh205  1  0.59704026  0.20370495  0.80537844  1
  Rh  Rh206  1  0.59201166  0.39815694  0.19120826  1
  Rh  Rh207  1  0.19265763  0.21305665  0.79842155  1
  Rh  Rh208  1  -0.01022109  0.59808434  0.00360933  1
  Rh  Rh209  1  0.79216187  0.00247121  0.39713489  1
  Rh  Rh210  1  0.41628924  0.58909388  0.20847599  1
  Rh  Rh211  1  0.20644415  0.19797116  0.00474476  1
  Rh  Rh212  1  0.39507680  0.81212665  0.80584303  1
  Rh  Rh213  1  -0.00881635  0.00653361  0.79312255  1
  Rh  Rh214  1  0.18907222  0.60243439  0.20381709  1
  Rh  Rh215  1  0.78914189  0.60666720  0.19840423  1
  Rh  Rh216  1  0.79816351  0.40350537  0.00559209  1
  Rh  Rh217  1  0.59297045  0.00267709  0.80710336  1
  Rh  Rh218  1  0.79888816  0.79783439  0.20163594  1
  Rh  Rh219  1  0.20487699  0.40321324  0.00017860  1
  Rh  Rh220  1  0.39698538  0.79013154  0.58609757  1
  Rh  Rh221  1  0.19319739  0.79482870  0.19374128  1
  Rh  Rh222  1  0.40329600  0.59417966  0.79278947  1
  Rh  Rh223  1  0.79350498  0.39067075  0.41309875  1
  Rh  Rh224  1  0.39829477  0.40057515  0.60199615  1
  Rh  Rh225  1  0.79912675  0.19279538  -0.00683305  1
  Rh  Rh226  1  -0.00003787  0.80810036  0.19919801  1
  Rh  Rh227  1  0.00458755  0.58918217  0.19993087  1
  Rh  Rh228  1  0.79989251  0.20510252  0.59609789  1
  Rh  Rh229  1  0.60935952  -0.00461475  0.40446369  1
  Rh  Rh230  1  0.80104690  0.80990411  0.59969674  1
  Rh  Rh231  1  0.20844075  0.20613702  0.19481097  1
  Rh  Rh232  1  0.81346682  0.39351168  0.19247258  1
  Rh  Rh233  1  0.60440830  0.58980082  -0.00091129  1
  Rh  Rh234  1  0.79382779  0.39542830  0.79761803  1
  Rh  Rh235  1  0.60297473  0.80851182  0.40100163  1
  Rh  Rh236  1  0.20995205  -0.01495928  0.79307329  1
  Rh  Rh237  1  0.60194065  0.00128820  0.59919216  1
  Rh  Rh238  1  0.20376168  0.60389914  -0.00823351  1
  Rh  Rh239  1  0.19638763  0.79707685  -0.00978755  1
  Rh  Rh240  1  0.19382395  0.18903557  0.40915798  1
  Rh  Rh241  1  0.80380963  -0.00171240  0.79979923  1
  Rh  Rh242  1  0.19171929  0.59551286  0.59477958  1
  Rh  Rh243  1  -0.00600362  0.20281078  0.21232085  1
  Rh  Rh244  1  0.20722770  0.20811601  0.59707875  1
  Rh  Rh245  1  0.80852627  0.19926381  0.80715949  1
  Rh  Rh246  1  0.40458863  0.01013535  0.60610691  1
  Rh  Rh247  1  0.19313736  0.40449065  0.40789754  1
  Rh  Rh248  1  0.60312365  0.79591223  0.19162646  1
  Rh  Rh249  1  0.20335882  -0.01220379  0.59179458  1
