# generated using pymatgen
data_ZrScNbPdRh
_symmetry_space_group_name_H-M   'P 1'
_cell_length_a   16.55818347
_cell_length_b   16.55772867
_cell_length_c   16.55757741
_cell_angle_alpha   89.99867355
_cell_angle_beta   90.00002079
_cell_angle_gamma   90.03834121
_symmetry_Int_Tables_number   1
_chemical_formula_structural   ZrScNbPdRh
_chemical_formula_sum   'Zr50 Sc50 Nb50 Pd50 Rh50'
_cell_volume   4539.52224804
_cell_formula_units_Z   50
loop_
 _symmetry_equiv_pos_site_id
 _symmetry_equiv_pos_as_xyz
  1  'x, y, z'
loop_
 _atom_site_type_symbol
 _atom_site_label
 _atom_site_symmetry_multiplicity
 _atom_site_fract_x
 _atom_site_fract_y
 _atom_site_fract_z
 _atom_site_occupancy
  Zr  Zr0  1  0.69808577  0.29551633  0.70070738  1
  Zr  Zr1  1  0.48993930  0.90354231  0.29179297  1
  Zr  Zr2  1  0.30384687  0.09059326  0.30692047  1
  Zr  Zr3  1  0.70468453  0.50224854  0.89879863  1
  Zr  Zr4  1  0.69573796  0.89908489  0.09991930  1
  Zr  Zr5  1  0.70147894  0.69931541  0.48667579  1
  Zr  Zr6  1  0.09793215  0.50208705  0.70507123  1
  Zr  Zr7  1  0.50799264  0.70483021  0.29727886  1
  Zr  Zr8  1  0.09533954  0.50271533  0.29323745  1
  Zr  Zr9  1  0.50514833  0.29236204  0.90397263  1
  Zr  Zr10  1  0.10085633  0.69730869  0.30370154  1
  Zr  Zr11  1  0.89893830  0.69477047  0.70361781  1
  Zr  Zr12  1  0.50329046  0.29695906  0.49798059  1
  Zr  Zr13  1  0.90317698  0.91141800  0.70157232  1
  Zr  Zr14  1  0.09977174  0.69504303  0.90063920  1
  Zr  Zr15  1  0.50066075  0.30399445  0.29644615  1
  Zr  Zr16  1  0.70102754  0.70700091  0.69804801  1
  Zr  Zr17  1  0.50345329  0.10078085  0.70199585  1
  Zr  Zr18  1  0.49999391  0.10377576  0.30446441  1
  Zr  Zr19  1  0.09401803  0.09531061  0.69722747  1
  Zr  Zr20  1  0.10142332  0.10014257  0.30433583  1
  Zr  Zr21  1  0.30504973  0.89349579  0.69966573  1
  Zr  Zr22  1  0.90256364  0.69546300  0.50609000  1
  Zr  Zr23  1  0.89366117  0.90435179  0.30872902  1
  Zr  Zr24  1  0.69006294  0.10489011  0.50510156  1
  Zr  Zr25  1  0.49584565  0.71038035  0.69544192  1
  Zr  Zr26  1  0.69911357  0.30140035  0.89334855  1
  Zr  Zr27  1  0.09884693  0.90129328  0.70613990  1
  Zr  Zr28  1  0.90431635  0.29674154  0.09721092  1
  Zr  Zr29  1  0.09799361  0.69444843  0.09374803  1
  Zr  Zr30  1  0.30458075  0.10142453  0.69866974  1
  Zr  Zr31  1  0.09448261  0.89719620  0.50180785  1
  Zr  Zr32  1  0.70242176  0.49334335  0.50731639  1
  Zr  Zr33  1  0.29634079  0.10682036  0.09931436  1
  Zr  Zr34  1  0.30527738  0.30316206  0.89274966  1
  Zr  Zr35  1  0.10106364  0.69951889  0.49710121  1
  Zr  Zr36  1  0.70597490  0.49313851  0.69975646  1
  Zr  Zr37  1  0.10142023  0.89853651  0.31031424  1
  Zr  Zr38  1  0.30541788  0.69840091  0.69929347  1
  Zr  Zr39  1  0.29445135  0.50240422  0.89853039  1
  Zr  Zr40  1  0.70215548  0.50961589  0.30245401  1
  Zr  Zr41  1  0.30406186  0.50049603  0.29720234  1
  Zr  Zr42  1  0.89988560  0.89972714  0.89660639  1
  Zr  Zr43  1  0.29958707  0.30224490  0.50781993  1
  Zr  Zr44  1  0.89618161  0.90435573  0.09085814  1
  Zr  Zr45  1  0.30068928  0.10450765  0.49766035  1
  Zr  Zr46  1  0.30880145  0.50270684  0.50251554  1
  Zr  Zr47  1  0.89385886  0.68870625  0.30531791  1
  Zr  Zr48  1  0.49584416  0.49235314  0.09969183  1
  Zr  Zr49  1  0.69763867  0.90228037  0.50129577  1
  Sc  Sc50  1  0.49809165  0.70162216  0.50389989  1
  Sc  Sc51  1  0.70134021  0.89975051  0.89571001  1
  Sc  Sc52  1  0.50304983  0.89793070  0.69886626  1
  Sc  Sc53  1  0.69496801  0.89938180  0.30447514  1
  Sc  Sc54  1  0.70141643  0.50693818  0.10404400  1
  Sc  Sc55  1  0.48936947  0.49377215  0.90178188  1
  Sc  Sc56  1  0.90229184  0.30152603  0.50580159  1
  Sc  Sc57  1  0.69760084  0.10717805  0.89498318  1
  Sc  Sc58  1  0.50382416  0.70985844  0.10468010  1
  Sc  Sc59  1  0.30014728  0.69573009  0.09520243  1
  Sc  Sc60  1  0.30307399  0.49118908  0.70118172  1
  Sc  Sc61  1  0.90271910  0.09736117  0.51029644  1
  Sc  Sc62  1  0.30398681  0.30085226  0.30106279  1
  Sc  Sc63  1  0.09947030  0.70295815  0.70171445  1
  Sc  Sc64  1  0.49807059  0.09866808  0.49878009  1
  Sc  Sc65  1  0.09136295  0.89283631  0.08487632  1
  Sc  Sc66  1  0.89652967  0.29302129  0.89761742  1
  Sc  Sc67  1  0.31260709  0.10310152  0.89889188  1
  Sc  Sc68  1  0.50830855  0.90632206  0.10036115  1
  Sc  Sc69  1  0.29654401  0.30472780  0.09889055  1
  Sc  Sc70  1  0.89617299  0.09832353  0.90774158  1
  Sc  Sc71  1  0.09285796  0.89620230  0.89640908  1
  Sc  Sc72  1  0.29948110  0.90187549  0.89360407  1
  Sc  Sc73  1  0.89943101  0.51160427  0.88909181  1
  Sc  Sc74  1  0.90060535  0.49461922  0.50502815  1
  Sc  Sc75  1  0.09967807  0.30490721  0.30021605  1
  Sc  Sc76  1  0.91021818  0.30623519  0.30622491  1
  Sc  Sc77  1  0.70398604  0.10194117  0.70066968  1
  Sc  Sc78  1  0.49423814  0.49536865  0.50286444  1
  Sc  Sc79  1  0.29406375  0.90281120  0.49276240  1
  Sc  Sc80  1  0.10557501  0.29985135  0.10160286  1
  Sc  Sc81  1  0.29954555  0.69416540  0.29485837  1
  Sc  Sc82  1  0.49469147  0.49763051  0.29608830  1
  Sc  Sc83  1  0.30947333  0.89727004  0.10592106  1
  Sc  Sc84  1  0.10329710  0.30754620  0.89970077  1
  Sc  Sc85  1  0.89841904  0.70329768  0.89777545  1
  Sc  Sc86  1  0.49128699  0.69786933  0.89537638  1
  Sc  Sc87  1  0.71171908  0.70291930  0.89711840  1
  Sc  Sc88  1  0.09843561  0.29928691  0.50584677  1
  Sc  Sc89  1  0.29873255  0.69316649  0.89921637  1
  Sc  Sc90  1  0.49515976  0.49254041  0.69427947  1
  Sc  Sc91  1  0.68725059  0.29884706  0.09920913  1
  Sc  Sc92  1  0.10059779  0.30663257  0.69054237  1
  Sc  Sc93  1  0.70393088  0.29978260  0.51083375  1
  Sc  Sc94  1  0.90393335  0.50072159  0.69484853  1
  Sc  Sc95  1  0.10168040  0.10545474  0.49996572  1
  Sc  Sc96  1  0.29816677  0.50461401  0.09826190  1
  Sc  Sc97  1  0.69055250  0.29636271  0.29469851  1
  Sc  Sc98  1  0.69532875  0.90546758  0.70352602  1
  Sc  Sc99  1  0.69249765  0.09153646  0.30095396  1
  Nb  Nb100  1  0.30177428  0.29391290  0.69990284  1
  Nb  Nb101  1  0.10006511  0.50542717  0.89906695  1
  Nb  Nb102  1  0.30195735  0.70161399  0.50023801  1
  Nb  Nb103  1  0.09418143  0.50143973  0.09815922  1
  Nb  Nb104  1  0.69895064  0.09765571  0.10415013  1
  Nb  Nb105  1  0.50051583  0.89576229  0.50461835  1
  Nb  Nb106  1  0.89595173  0.89665591  0.50182354  1
  Nb  Nb107  1  0.50815353  0.10585276  0.09253476  1
  Nb  Nb108  1  0.29797372  0.90088231  0.29913663  1
  Nb  Nb109  1  0.90211295  0.50233725  0.10490174  1
  Nb  Nb110  1  0.90215660  0.10365966  0.70317013  1
  Nb  Nb111  1  0.49974955  0.09944360  0.90658924  1
  Nb  Nb112  1  0.90023300  0.09875527  0.09905209  1
  Nb  Nb113  1  0.49900484  0.90471151  0.90410324  1
  Nb  Nb114  1  0.90078913  0.49205682  0.29126226  1
  Nb  Nb115  1  0.89839752  0.09954721  0.29750360  1
  Nb  Nb116  1  0.10509254  0.49784314  0.50982906  1
  Nb  Nb117  1  0.89836282  0.28916719  0.69751394  1
  Nb  Nb118  1  0.49775229  0.30017752  0.70361127  1
  Nb  Nb119  1  0.89219052  0.69642877  0.09848990  1
  Nb  Nb120  1  0.09641827  0.09897807  0.09535754  1
  Nb  Nb121  1  0.50619854  0.29800557  0.10719323  1
  Nb  Nb122  1  0.70101489  0.69903242  0.29500780  1
  Nb  Nb123  1  0.10000119  0.09793366  0.89968672  1
  Nb  Nb124  1  0.70091324  0.69848620  0.10281076  1
  Nb  Nb125  1  0.39686983  0.80198101  0.39732556  1
  Nb  Nb126  1  0.40495090  0.80534363  -0.00374933  1
  Nb  Nb127  1  0.60155224  0.40094201  0.40058662  1
  Nb  Nb128  1  0.80619932  0.40439368  0.00483143  1
  Nb  Nb129  1  -0.00106353  0.41115153  0.00019927  1
  Nb  Nb130  1  -0.00724522  0.79972195  0.19913877  1
  Nb  Nb131  1  0.60134017  0.60318037  -0.00290403  1
  Nb  Nb132  1  0.00453850  0.19615605  0.79832878  1
  Nb  Nb133  1  0.19799160  0.00529407  0.00195976  1
  Nb  Nb134  1  -0.00075414  0.00094619  0.19679075  1
  Nb  Nb135  1  0.40763686  0.19848316  0.19457874  1
  Nb  Nb136  1  0.20035473  0.40909983  0.40494955  1
  Nb  Nb137  1  0.19819640  0.19831684  0.79632942  1
  Nb  Nb138  1  0.80426037  0.19544493  0.20073764  1
  Nb  Nb139  1  0.20403876  0.60110913  0.59677107  1
  Nb  Nb140  1  0.60016911  0.59827731  0.79699655  1
  Nb  Nb141  1  0.19992488  -0.00078357  0.60388065  1
  Nb  Nb142  1  0.79932549  0.79277800  0.19999580  1
  Nb  Nb143  1  0.80204999  0.19639921  0.39398525  1
  Nb  Nb144  1  0.19323502  0.80438606  0.20118608  1
  Nb  Nb145  1  0.80310011  0.80508739  0.59560080  1
  Nb  Nb146  1  0.19254109  -0.00349256  0.19504663  1
  Nb  Nb147  1  -0.00256420  0.19057265  0.19823307  1
  Nb  Nb148  1  0.80511636  0.39866133  0.19870405  1
  Nb  Nb149  1  0.60263147  0.60067298  0.60457534  1
  Pd  Pd150  1  0.20130537  0.21255737  0.39813716  1
  Pd  Pd151  1  0.59690726  0.79662017  0.81014425  1
  Pd  Pd152  1  -0.00564822  0.39280116  0.80380797  1
  Pd  Pd153  1  0.39678883  -0.00579096  0.59517549  1
  Pd  Pd154  1  0.19978839  0.39514974  0.79383188  1
  Pd  Pd155  1  -0.00949836  0.79664122  0.39680626  1
  Pd  Pd156  1  0.21159929  0.80869680  0.00305973  1
  Pd  Pd157  1  0.20112470  0.40408447  0.20407676  1
  Pd  Pd158  1  0.40448332  0.60606690  0.19339663  1
  Pd  Pd159  1  0.00924868  0.40606277  0.40783248  1
  Pd  Pd160  1  0.19832321  0.19947657  -0.01137895  1
  Pd  Pd161  1  0.80756118  0.58892282  0.40678630  1
  Pd  Pd162  1  0.78907671  0.00409348  -0.00757385  1
  Pd  Pd163  1  0.20325038  0.59479271  0.40486829  1
  Pd  Pd164  1  0.40800366  0.20159189  0.59930699  1
  Pd  Pd165  1  0.59577738  0.79166472  -0.00918789  1
  Pd  Pd166  1  0.20396524  0.00633671  0.80303876  1
  Pd  Pd167  1  0.59852291  0.00356371  0.80367701  1
  Pd  Pd168  1  0.79858205  -0.00271080  0.20013227  1
  Pd  Pd169  1  -0.00643118  0.19923764  0.40064849  1
  Pd  Pd170  1  0.79841638  0.79858701  0.00210867  1
  Pd  Pd171  1  -0.00296983  0.00631669  0.40595005  1
  Pd  Pd172  1  0.81237372  0.39784511  0.80078214  1
  Pd  Pd173  1  0.79243915  0.38935732  0.39174413  1
  Pd  Pd174  1  0.20075800  0.79373156  0.80543673  1
  Pd  Pd175  1  -0.00246313  0.60706918  0.19914076  1
  Pd  Pd176  1  0.40599346  0.59286228  0.79430519  1
  Pd  Pd177  1  0.59024834  0.59176399  0.40813018  1
  Pd  Pd178  1  0.59352812  0.59690939  0.19247094  1
  Pd  Pd179  1  0.59131615  0.40594258  0.80060478  1
  Pd  Pd180  1  0.39940618  0.01005996  0.18969824  1
  Pd  Pd181  1  0.39477437  -0.00467942  0.00434755  1
  Pd  Pd182  1  0.40805659  0.60850928  0.39864353  1
  Pd  Pd183  1  -0.00971304  0.59871250  -0.00521282  1
  Pd  Pd184  1  0.40120076  0.20845055  0.00628006  1
  Pd  Pd185  1  0.79631506  0.00070809  0.60256008  1
  Pd  Pd186  1  0.59292985  0.80530388  0.39822292  1
  Pd  Pd187  1  0.20247563  0.80051830  0.59929977  1
  Pd  Pd188  1  0.39764542  0.39260150  0.00371275  1
  Pd  Pd189  1  0.19460388  0.40587640  0.00106798  1
  Pd  Pd190  1  -0.00447248  0.58660635  0.40575916  1
  Pd  Pd191  1  0.78927032  0.20434181  0.00675056  1
  Pd  Pd192  1  0.20026272  0.19675259  0.20621028  1
  Pd  Pd193  1  0.40695329  -0.00263239  0.79954409  1
  Pd  Pd194  1  0.60879925  0.00566123  -0.00597359  1
  Pd  Pd195  1  0.79755430  0.01051052  0.40819357  1
  Pd  Pd196  1  0.00745590  0.20670597  -0.00392285  1
  Pd  Pd197  1  -0.00566109  0.80016354  0.60722563  1
  Pd  Pd198  1  0.60679977  0.40741715  0.00126138  1
  Pd  Pd199  1  0.59172522  -0.00434679  0.40209994  1
  Rh  Rh200  1  0.59383021  0.19633359  0.79988696  1
  Rh  Rh201  1  -0.00017919  0.20198991  0.60466745  1
  Rh  Rh202  1  0.80742968  0.19549701  0.79870941  1
  Rh  Rh203  1  0.80012427  0.00601967  0.80222072  1
  Rh  Rh204  1  0.40338570  0.20149610  0.80019640  1
  Rh  Rh205  1  0.01057214  0.59886322  0.60046327  1
  Rh  Rh206  1  0.39531450  0.39251073  0.19345984  1
  Rh  Rh207  1  -0.00796809  0.00823925  0.81006298  1
  Rh  Rh208  1  0.40268152  0.39584999  0.79890507  1
  Rh  Rh209  1  0.59974511  0.18864954  0.19926837  1
  Rh  Rh210  1  0.41009505  0.60974073  0.00672678  1
  Rh  Rh211  1  0.80190478  0.79826382  0.39960719  1
  Rh  Rh212  1  0.59596314  0.20101118  0.60718677  1
  Rh  Rh213  1  0.00303858  0.60421305  0.79930166  1
  Rh  Rh214  1  0.39454939  0.80573661  0.58877558  1
  Rh  Rh215  1  -0.00025903  0.39100257  0.19226624  1
  Rh  Rh216  1  0.59557562  -0.00073536  0.60215932  1
  Rh  Rh217  1  0.39950309  0.39704493  0.40088102  1
  Rh  Rh218  1  0.20096715  0.60118458  0.79249904  1
  Rh  Rh219  1  0.39215758  0.79420562  0.20080514  1
  Rh  Rh220  1  -0.00122732  0.79616724  0.80017171  1
  Rh  Rh221  1  0.80427169  0.80804869  0.78885546  1
  Rh  Rh222  1  0.20572365  0.40592340  0.59987356  1
  Rh  Rh223  1  0.21146262  0.79273963  0.39303035  1
  Rh  Rh224  1  0.80170693  0.59850668  0.19812327  1
  Rh  Rh225  1  0.60929629  0.79679502  0.59415666  1
  Rh  Rh226  1  0.40402499  0.80725845  0.80934371  1
  Rh  Rh227  1  0.40144036  0.60246682  0.60443615  1
  Rh  Rh228  1  -0.00333948  0.39925026  0.60278775  1
  Rh  Rh229  1  0.60993120  0.80471330  0.20401001  1
  Rh  Rh230  1  0.59665464  0.00243190  0.19950441  1
  Rh  Rh231  1  0.40596463  -0.01046890  0.40830154  1
  Rh  Rh232  1  0.79729016  0.59688247  0.00263745  1
  Rh  Rh233  1  0.79598271  0.60053545  0.79326562  1
  Rh  Rh234  1  0.40129483  0.39084887  0.60489190  1
  Rh  Rh235  1  0.80235049  0.19762389  0.59509846  1
  Rh  Rh236  1  0.19914917  0.59273280  0.00062313  1
  Rh  Rh237  1  0.60546099  0.19820878  -0.00129660  1
  Rh  Rh238  1  0.60747246  0.41079388  0.20753649  1
  Rh  Rh239  1  0.19685676  0.00129419  0.40571217  1
  Rh  Rh240  1  0.00462552  -0.00005042  -0.00402622  1
  Rh  Rh241  1  0.59409681  0.40017745  0.59587774  1
  Rh  Rh242  1  0.19842781  0.19281388  0.60758780  1
  Rh  Rh243  1  0.39793874  0.20378248  0.39484721  1
  Rh  Rh244  1  0.80846878  0.39192359  0.60967146  1
  Rh  Rh245  1  -0.00915067  0.79166073  -0.00066776  1
  Rh  Rh246  1  0.79221815  0.60639126  0.59854313  1
  Rh  Rh247  1  0.00410534  -0.00136932  0.59420181  1
  Rh  Rh248  1  0.19634328  0.60318887  0.19360386  1
  Rh  Rh249  1  0.60950146  0.20845589  0.40392053  1
