# generated using pymatgen
data_ZrScNbPdRh
_symmetry_space_group_name_H-M   'P 1'
_cell_length_a   16.56228982
_cell_length_b   16.56363047
_cell_length_c   16.56175412
_cell_angle_alpha   90.02419365
_cell_angle_beta   90.00642113
_cell_angle_gamma   89.99901403
_symmetry_Int_Tables_number   1
_chemical_formula_structural   ZrScNbPdRh
_chemical_formula_sum   'Zr50 Sc50 Nb50 Pd50 Rh50'
_cell_volume   4543.41287180
_cell_formula_units_Z   50
loop_
 _symmetry_equiv_pos_site_id
 _symmetry_equiv_pos_as_xyz
  1  'x, y, z'
loop_
 _atom_site_type_symbol
 _atom_site_label
 _atom_site_symmetry_multiplicity
 _atom_site_fract_x
 _atom_site_fract_y
 _atom_site_fract_z
 _atom_site_occupancy
  Zr  Zr0  1  0.89094796  0.10168001  0.70059910  1
  Zr  Zr1  1  0.90021516  0.09400936  0.90883731  1
  Zr  Zr2  1  0.89211222  0.90288568  0.29358362  1
  Zr  Zr3  1  0.50085389  0.50202637  0.50444613  1
  Zr  Zr4  1  0.09839960  0.90216424  0.68935091  1
  Zr  Zr5  1  0.90023466  0.29728161  0.70012790  1
  Zr  Zr6  1  0.50225885  0.10475196  0.50663645  1
  Zr  Zr7  1  0.88942773  0.90392908  0.09662538  1
  Zr  Zr8  1  0.90088558  0.90028550  0.70802994  1
  Zr  Zr9  1  0.09896908  0.49267974  0.09103671  1
  Zr  Zr10  1  0.89642450  0.69679466  0.09579531  1
  Zr  Zr11  1  0.10336103  0.89562614  0.50306738  1
  Zr  Zr12  1  0.29897090  0.30578094  0.29577987  1
  Zr  Zr13  1  0.29798451  0.49258275  0.90153407  1
  Zr  Zr14  1  0.69759299  0.29193926  0.69999482  1
  Zr  Zr15  1  0.30118068  0.90603280  0.29697714  1
  Zr  Zr16  1  0.30644233  0.10350982  0.29554160  1
  Zr  Zr17  1  0.50122538  0.70326866  0.11310517  1
  Zr  Zr18  1  0.50209822  0.48681234  0.90411473  1
  Zr  Zr19  1  0.89833334  0.29564350  0.49716931  1
  Zr  Zr20  1  0.69602499  0.09956607  0.69419735  1
  Zr  Zr21  1  0.90011081  0.10371204  0.49907721  1
  Zr  Zr22  1  0.50100839  0.30622183  0.08671778  1
  Zr  Zr23  1  0.90740593  0.50243037  0.49817900  1
  Zr  Zr24  1  0.30871427  0.11226003  0.69210554  1
  Zr  Zr25  1  0.09779788  0.70432654  0.09955197  1
  Zr  Zr26  1  0.50281727  0.90729771  0.90379514  1
  Zr  Zr27  1  0.09861001  0.30446383  0.49966293  1
  Zr  Zr28  1  0.29919618  0.50133217  0.30520628  1
  Zr  Zr29  1  0.10212467  0.49797199  0.49894659  1
  Zr  Zr30  1  0.69020290  0.90176508  0.50951914  1
  Zr  Zr31  1  0.10440832  0.29659480  0.90260513  1
  Zr  Zr32  1  0.30390332  0.70378976  0.10545278  1
  Zr  Zr33  1  0.69829686  0.30026673  0.30357245  1
  Zr  Zr34  1  0.69458045  0.69272145  0.50038117  1
  Zr  Zr35  1  0.69124238  0.69382688  0.71280427  1
  Zr  Zr36  1  0.70540004  0.69966139  0.09532633  1
  Zr  Zr37  1  0.09855389  0.69664888  0.49506193  1
  Zr  Zr38  1  0.09673332  0.09767768  0.50331629  1
  Zr  Zr39  1  0.49628943  0.89997387  0.69181533  1
  Zr  Zr40  1  0.50277269  0.10500686  0.29759841  1
  Zr  Zr41  1  0.29758815  0.70379101  0.89478048  1
  Zr  Zr42  1  0.69627985  0.70057738  0.29685815  1
  Zr  Zr43  1  0.09705335  0.69112680  0.89782268  1
  Zr  Zr44  1  0.50089677  0.09158162  0.09734765  1
  Zr  Zr45  1  0.09743168  0.29876067  0.29819276  1
  Zr  Zr46  1  0.09894169  0.10320098  0.29680025  1
  Zr  Zr47  1  0.70222923  0.09629544  0.89800439  1
  Zr  Zr48  1  0.09845689  0.11091219  0.90394869  1
  Zr  Zr49  1  0.90359340  0.69230387  0.49652274  1
  Sc  Sc50  1  0.09627743  0.49441177  0.89357072  1
  Sc  Sc51  1  0.89597141  0.69661303  0.30104904  1
  Sc  Sc52  1  0.29860212  0.90362048  0.69939469  1
  Sc  Sc53  1  0.91330099  0.90353796  0.50581488  1
  Sc  Sc54  1  0.30015189  0.10152365  0.10260048  1
  Sc  Sc55  1  0.69460211  0.89118413  0.89893234  1
  Sc  Sc56  1  0.50749233  0.69963309  0.50189276  1
  Sc  Sc57  1  0.90374990  0.69141902  0.70836886  1
  Sc  Sc58  1  0.69396225  0.49495294  0.49184791  1
  Sc  Sc59  1  0.49121376  0.50691373  0.29665101  1
  Sc  Sc60  1  0.69972805  0.90577604  0.70718655  1
  Sc  Sc61  1  0.30001768  0.10532895  0.89725868  1
  Sc  Sc62  1  0.70455615  0.49799071  0.89844705  1
  Sc  Sc63  1  0.30625478  0.90945191  0.89357444  1
  Sc  Sc64  1  0.10338156  0.48836861  0.30905201  1
  Sc  Sc65  1  0.50478756  0.48779588  0.70515946  1
  Sc  Sc66  1  0.09983716  0.69950781  0.70120630  1
  Sc  Sc67  1  0.69901628  0.10718657  0.28762256  1
  Sc  Sc68  1  0.29995855  0.29688184  0.89853113  1
  Sc  Sc69  1  0.70625189  0.50560094  0.29826700  1
  Sc  Sc70  1  0.10598024  0.10465662  0.70359370  1
  Sc  Sc71  1  0.09983915  0.89596261  0.30239497  1
  Sc  Sc72  1  0.51103015  0.71184156  0.89183601  1
  Sc  Sc73  1  0.49642657  0.10272777  0.90270090  1
  Sc  Sc74  1  0.29551643  0.71230550  0.69972187  1
  Sc  Sc75  1  0.69713535  0.30013468  0.90618478  1
  Sc  Sc76  1  0.89801464  0.50080719  0.30290219  1
  Sc  Sc77  1  0.29622872  0.30907370  0.09747033  1
  Sc  Sc78  1  0.70723863  0.49940954  0.09727371  1
  Sc  Sc79  1  0.90358684  0.30120712  0.89335978  1
  Sc  Sc80  1  0.10075500  0.30118339  0.70234849  1
  Sc  Sc81  1  0.90049969  0.29504082  0.30018048  1
  Sc  Sc82  1  0.10048329  0.90067091  0.11339587  1
  Sc  Sc83  1  0.29878801  0.69632830  0.49170912  1
  Sc  Sc84  1  0.30368695  0.90967079  0.10810524  1
  Sc  Sc85  1  0.09296017  0.91015864  0.88689562  1
  Sc  Sc86  1  0.49168923  0.49616224  0.10283627  1
  Sc  Sc87  1  0.30182542  0.89801158  0.51324501  1
  Sc  Sc88  1  0.50098341  0.29276034  0.29969040  1
  Sc  Sc89  1  0.89201411  0.69301526  0.89880726  1
  Sc  Sc90  1  0.90579043  0.49747838  0.70788884  1
  Sc  Sc91  1  0.70812973  0.29506112  0.09689963  1
  Sc  Sc92  1  0.89756579  0.50036359  0.09457454  1
  Sc  Sc93  1  0.10038927  0.29704500  0.10131861  1
  Sc  Sc94  1  0.89849276  0.29772822  0.10375695  1
  Sc  Sc95  1  0.70064477  0.89989058  0.10323842  1
  Sc  Sc96  1  0.69430179  0.50083200  0.70762521  1
  Sc  Sc97  1  0.29939989  0.47993205  0.70187268  1
  Sc  Sc98  1  0.50810395  0.90276412  0.28374045  1
  Sc  Sc99  1  0.30518369  0.69615361  0.30249316  1
  Nb  Nb100  1  0.69892391  0.10256025  0.50485678  1
  Nb  Nb101  1  0.49907374  0.90310197  0.49997456  1
  Nb  Nb102  1  0.49522942  0.30272749  0.90014395  1
  Nb  Nb103  1  0.89252899  0.09952800  0.10014605  1
  Nb  Nb104  1  0.71824319  0.10176483  0.09202079  1
  Nb  Nb105  1  0.09453539  0.10194164  0.09859460  1
  Nb  Nb106  1  0.10152825  0.69671837  0.30050418  1
  Nb  Nb107  1  0.09874174  0.50208655  0.69567289  1
  Nb  Nb108  1  0.49966840  0.68929106  0.69965930  1
  Nb  Nb109  1  0.30072042  0.49984212  0.10518078  1
  Nb  Nb110  1  0.49478483  0.70148114  0.29985292  1
  Nb  Nb111  1  0.29895564  0.30100320  0.51326858  1
  Nb  Nb112  1  0.50965068  0.30335124  0.49920624  1
  Nb  Nb113  1  0.90162774  0.10281551  0.29954022  1
  Nb  Nb114  1  0.90039394  0.90382843  0.89760525  1
  Nb  Nb115  1  0.49364362  0.29287483  0.70340056  1
  Nb  Nb116  1  0.49746316  0.89847267  0.09181533  1
  Nb  Nb117  1  0.29894870  0.49772126  0.49864312  1
  Nb  Nb118  1  0.50091795  0.10992384  0.69820248  1
  Nb  Nb119  1  0.30267308  0.10647488  0.50133896  1
  Nb  Nb120  1  0.30259047  0.29416034  0.69652320  1
  Nb  Nb121  1  0.69425588  0.29540984  0.49758832  1
  Nb  Nb122  1  0.90437759  0.50547510  0.90014547  1
  Nb  Nb123  1  0.69403180  0.69385552  0.89968024  1
  Nb  Nb124  1  0.70470596  0.90349866  0.30490261  1
  Nb  Nb125  1  0.39571716  0.59619285  0.60646447  1
  Nb  Nb126  1  0.19869564  0.80545677  -0.00241095  1
  Nb  Nb127  1  0.40190789  0.59906343  0.79874735  1
  Nb  Nb128  1  0.40060694  0.80113790  0.00180947  1
  Nb  Nb129  1  0.79397255  0.00211326  0.40135883  1
  Nb  Nb130  1  0.79396119  0.80611080  0.40673845  1
  Nb  Nb131  1  0.19312890  0.00106205  0.00248187  1
  Nb  Nb132  1  0.20368990  0.59128053  0.59964559  1
  Nb  Nb133  1  0.79796422  0.59650498  0.60060093  1
  Nb  Nb134  1  0.40466339  -0.00053866  0.40528418  1
  Nb  Nb135  1  0.39889284  0.39509541  0.41142903  1
  Nb  Nb136  1  0.79948305  0.79223306  0.60048694  1
  Nb  Nb137  1  -0.00821661  0.00930654  0.19693334  1
  Nb  Nb138  1  0.60140759  0.39740403  0.19798958  1
  Nb  Nb139  1  0.59632545  0.60328358  -0.00097336  1
  Nb  Nb140  1  0.79765114  0.39915492  0.59749029  1
  Nb  Nb141  1  0.00880589  0.60062376  0.20001284  1
  Nb  Nb142  1  0.60187612  0.00180853  0.40200276  1
  Nb  Nb143  1  0.20852035  0.00721425  0.40404979  1
  Nb  Nb144  1  0.19606381  0.59774271  0.19843876  1
  Nb  Nb145  1  0.20681538  0.19936641  0.40621291  1
  Nb  Nb146  1  -0.00155347  0.80494040  -0.00443303  1
  Nb  Nb147  1  0.40128288  0.60534626  -0.00441022  1
  Nb  Nb148  1  0.20568134  0.60172879  0.00372529  1
  Nb  Nb149  1  0.41076033  0.80680789  0.39755414  1
  Pd  Pd150  1  -0.00807436  0.80126206  0.39343759  1
  Pd  Pd151  1  0.60192748  0.19623924  -0.00075312  1
  Pd  Pd152  1  0.20554662  0.79647751  0.20455649  1
  Pd  Pd153  1  0.19613072  0.39313654  0.79697945  1
  Pd  Pd154  1  0.00485074  0.19735649  0.60621068  1
  Pd  Pd155  1  0.59459626  0.20166291  0.80837246  1
  Pd  Pd156  1  0.80281786  0.40098273  0.40383095  1
  Pd  Pd157  1  0.80541468  0.39714396  -0.00480254  1
  Pd  Pd158  1  0.80003278  0.19993605  0.80775714  1
  Pd  Pd159  1  0.60813705  0.00282429  0.19500158  1
  Pd  Pd160  1  0.60265109  0.79629892  0.61034042  1
  Pd  Pd161  1  0.00043480  0.01152649  0.79324296  1
  Pd  Pd162  1  0.40484092  0.39978552  0.60010736  1
  Pd  Pd163  1  0.80546100  -0.00865660  0.59540333  1
  Pd  Pd164  1  -0.00595116  0.39325268  -0.00380190  1
  Pd  Pd165  1  0.40391214  0.00927934  0.79242440  1
  Pd  Pd166  1  -0.00535423  0.40039466  0.60387211  1
  Pd  Pd167  1  0.80022688  0.40157315  0.79647538  1
  Pd  Pd168  1  0.00647283  -0.00878154  0.00796593  1
  Pd  Pd169  1  0.79675172  0.39929026  0.20155011  1
  Pd  Pd170  1  0.60656644  0.39755730  0.60449542  1
  Pd  Pd171  1  0.40245951  0.20818685  0.18685728  1
  Pd  Pd172  1  0.59439635  0.59476298  0.39201927  1
  Pd  Pd173  1  0.40655108  0.79977301  0.80068299  1
  Pd  Pd174  1  0.61001760  0.00202139  0.00456295  1
  Pd  Pd175  1  0.21117595  0.80484260  0.39933342  1
  Pd  Pd176  1  0.19364004  0.81170664  0.80314874  1
  Pd  Pd177  1  0.79263874  0.19264302  0.39637332  1
  Pd  Pd178  1  0.59663511  0.80652132  0.39485161  1
  Pd  Pd179  1  0.39872741  0.20616410  0.40806413  1
  Pd  Pd180  1  0.00080176  -0.00297381  0.39261304  1
  Pd  Pd181  1  0.80244533  0.80232029  -0.01223875  1
  Pd  Pd182  1  0.20661234  0.00515142  0.59909631  1
  Pd  Pd183  1  -0.00278187  0.40686284  0.20190792  1
  Pd  Pd184  1  0.39930517  0.78765665  0.59211327  1
  Pd  Pd185  1  0.60328904  0.38922420  0.80269104  1
  Pd  Pd186  1  0.60201558  0.20544722  0.18370135  1
  Pd  Pd187  1  0.20816618  0.59297536  0.79129648  1
  Pd  Pd188  1  -0.00844026  0.79907589  0.19891477  1
  Pd  Pd189  1  -0.00578407  0.79010445  0.60585815  1
  Pd  Pd190  1  0.20150378  0.20203336  0.19679156  1
  Pd  Pd191  1  0.79845628  0.79613324  0.79950924  1
  Pd  Pd192  1  0.20210976  0.00614330  0.80259216  1
  Pd  Pd193  1  0.39433824  0.19948089  0.00245488  1
  Pd  Pd194  1  0.59298999  0.00195872  0.79594960  1
  Pd  Pd195  1  -0.00711264  0.20898605  0.00421845  1
  Pd  Pd196  1  0.59029287  0.40632708  0.38582821  1
  Pd  Pd197  1  0.60038438  0.58904095  0.19377891  1
  Pd  Pd198  1  0.00041220  0.79524015  0.80537486  1
  Pd  Pd199  1  0.60644567  0.80437872  0.19737589  1
  Rh  Rh200  1  0.59316341  0.00422636  0.60412115  1
  Rh  Rh201  1  0.19529976  0.40554491  0.19766277  1
  Rh  Rh202  1  0.00165684  0.60282896  0.00131704  1
  Rh  Rh203  1  -0.00726195  0.19506320  0.19423772  1
  Rh  Rh204  1  0.40129899  0.00527469  0.60140522  1
  Rh  Rh205  1  -0.00200009  0.19738512  0.79784109  1
  Rh  Rh206  1  0.19550512  0.59978202  0.39934491  1
  Rh  Rh207  1  0.80371710  0.20104180  0.20309946  1
  Rh  Rh208  1  0.20112479  0.40079357  -0.00086332  1
  Rh  Rh209  1  0.41038884  0.21005257  0.59417664  1
  Rh  Rh210  1  0.40742387  0.60396701  0.41091844  1
  Rh  Rh211  1  0.39021052  -0.00294095  0.00237992  1
  Rh  Rh212  1  0.40030661  0.39330431  0.80027067  1
  Rh  Rh213  1  0.58934597  0.59316539  0.81159260  1
  Rh  Rh214  1  0.81042413  0.59861364  0.19954556  1
  Rh  Rh215  1  0.40186595  0.20334423  0.80400051  1
  Rh  Rh216  1  0.00626222  0.59546855  0.38636118  1
  Rh  Rh217  1  0.40090901  0.80836951  0.20435406  1
  Rh  Rh218  1  0.79547219  0.79367103  0.20630385  1
  Rh  Rh219  1  0.00348097  0.59971499  0.60522401  1
  Rh  Rh220  1  0.79944432  0.01037856  0.20480652  1
  Rh  Rh221  1  0.79837813  -0.00103272  0.80477773  1
  Rh  Rh222  1  0.59736253  0.20623444  0.59988651  1
  Rh  Rh223  1  0.18895907  0.00735523  0.19864936  1
  Rh  Rh224  1  0.39252596  0.40114848  -0.00080792  1
  Rh  Rh225  1  0.00065488  0.59484000  0.80123842  1
  Rh  Rh226  1  0.59521794  0.80647077  0.79179016  1
  Rh  Rh227  1  0.19460051  0.20343579  0.59858743  1
  Rh  Rh228  1  -0.00793247  0.39657642  0.39553427  1
  Rh  Rh229  1  0.00628950  0.20280330  0.40053313  1
  Rh  Rh230  1  0.60061259  0.59252571  0.60485019  1
  Rh  Rh231  1  0.20278323  0.19340566  0.00530242  1
  Rh  Rh232  1  0.59568925  0.79373901  0.00660752  1
  Rh  Rh233  1  0.60502744  0.19307119  0.40406155  1
  Rh  Rh234  1  0.20567216  0.20395319  0.79607250  1
  Rh  Rh235  1  0.79188203  -0.00967309  -0.00927108  1
  Rh  Rh236  1  0.79565036  0.20656954  0.59605376  1
  Rh  Rh237  1  0.40762711  0.39640380  0.20783006  1
  Rh  Rh238  1  0.39307420  0.59804758  0.19974855  1
  Rh  Rh239  1  0.60693836  0.40600433  0.00807247  1
  Rh  Rh240  1  0.19697286  0.40142739  0.60423057  1
  Rh  Rh241  1  0.20912441  0.38831468  0.40545828  1
  Rh  Rh242  1  -0.00352216  0.00761030  0.60868638  1
  Rh  Rh243  1  0.40870897  0.00125160  0.20024323  1
  Rh  Rh244  1  0.80088741  0.59468925  0.79918882  1
  Rh  Rh245  1  0.00352888  0.40022996  0.80084887  1
  Rh  Rh246  1  0.19677787  0.79013175  0.59777277  1
  Rh  Rh247  1  0.79300529  0.59541856  -0.00757559  1
  Rh  Rh248  1  0.80586724  0.20304082  -0.00672319  1
  Rh  Rh249  1  0.79581417  0.60405096  0.40415688  1
