# generated using pymatgen
data_ZrScNbPdRh
_symmetry_space_group_name_H-M   'P 1'
_cell_length_a   16.55951668
_cell_length_b   16.56440371
_cell_length_c   16.56458002
_cell_angle_alpha   90.02671521
_cell_angle_beta   90.03042694
_cell_angle_gamma   90.02042217
_symmetry_Int_Tables_number   1
_chemical_formula_structural   ZrScNbPdRh
_chemical_formula_sum   'Zr50 Sc50 Nb50 Pd50 Rh50'
_cell_volume   4543.63835425
_cell_formula_units_Z   50
loop_
 _symmetry_equiv_pos_site_id
 _symmetry_equiv_pos_as_xyz
  1  'x, y, z'
loop_
 _atom_site_type_symbol
 _atom_site_label
 _atom_site_symmetry_multiplicity
 _atom_site_fract_x
 _atom_site_fract_y
 _atom_site_fract_z
 _atom_site_occupancy
  Zr  Zr0  1  0.90028832  0.89869594  0.70607702  1
  Zr  Zr1  1  0.09737256  0.90074564  0.70387987  1
  Zr  Zr2  1  0.29360658  0.48885482  0.09049663  1
  Zr  Zr3  1  0.70546316  0.09780478  0.90595048  1
  Zr  Zr4  1  0.10095136  0.88539791  0.10182585  1
  Zr  Zr5  1  0.70654949  0.10196606  0.30969962  1
  Zr  Zr6  1  0.69981427  0.50119423  0.70875893  1
  Zr  Zr7  1  0.10668624  0.09104900  0.71079760  1
  Zr  Zr8  1  0.90210114  0.10124866  0.48918071  1
  Zr  Zr9  1  0.69188380  0.29969743  0.49676022  1
  Zr  Zr10  1  0.89964406  0.69703811  0.50872526  1
  Zr  Zr11  1  0.91212893  0.90398571  0.09596216  1
  Zr  Zr12  1  0.69910103  0.70357134  0.29262633  1
  Zr  Zr13  1  0.49763340  0.10451856  0.29782429  1
  Zr  Zr14  1  0.70362606  0.30216215  0.70854467  1
  Zr  Zr15  1  0.09721781  0.10028304  0.31302937  1
  Zr  Zr16  1  0.50119828  0.10137441  0.10111116  1
  Zr  Zr17  1  0.30217162  0.68613727  0.89540429  1
  Zr  Zr18  1  0.50009169  0.90724719  0.70745806  1
  Zr  Zr19  1  0.29941423  0.69217119  0.69381238  1
  Zr  Zr20  1  0.50025960  0.49415840  0.49653044  1
  Zr  Zr21  1  0.29997979  0.70989188  0.09515282  1
  Zr  Zr22  1  0.49208090  0.89834162  0.09577719  1
  Zr  Zr23  1  0.49612566  0.70377880  0.90319180  1
  Zr  Zr24  1  0.89436868  0.50490162  0.09750065  1
  Zr  Zr25  1  0.30399643  0.29509740  0.09090625  1
  Zr  Zr26  1  0.89712540  0.50126550  0.70528185  1
  Zr  Zr27  1  0.29641042  0.08827751  0.50262976  1
  Zr  Zr28  1  0.69867889  0.69854679  0.50416695  1
  Zr  Zr29  1  0.48702985  0.69869126  0.49604052  1
  Zr  Zr30  1  0.69451848  0.89777027  0.70280382  1
  Zr  Zr31  1  0.89699349  0.69590521  0.70198854  1
  Zr  Zr32  1  0.69863376  0.90388433  0.30117327  1
  Zr  Zr33  1  0.69334043  0.90077901  0.89724266  1
  Zr  Zr34  1  0.29526167  0.91028892  0.69748292  1
  Zr  Zr35  1  0.89619837  0.50405002  0.29881821  1
  Zr  Zr36  1  0.30596295  0.70337585  0.30123675  1
  Zr  Zr37  1  0.90293340  0.30627074  0.71589432  1
  Zr  Zr38  1  0.90096792  0.09909862  0.29959735  1
  Zr  Zr39  1  0.29971647  0.30457955  0.49679255  1
  Zr  Zr40  1  0.50194065  0.49423013  0.29535484  1
  Zr  Zr41  1  0.89468303  0.49888422  0.89656377  1
  Zr  Zr42  1  0.90136128  0.29732684  0.30508308  1
  Zr  Zr43  1  0.49945324  0.50540542  0.89833044  1
  Zr  Zr44  1  0.11242997  0.49716351  0.49795721  1
  Zr  Zr45  1  0.10220909  0.30294565  0.50164221  1
  Zr  Zr46  1  0.89394477  0.69666833  0.30135295  1
  Zr  Zr47  1  0.89796216  0.09777911  0.71300707  1
  Zr  Zr48  1  0.89565017  0.09468464  0.09687737  1
  Zr  Zr49  1  0.70161992  0.50491445  0.29763125  1
  Sc  Sc50  1  0.29715086  0.50281755  0.69954852  1
  Sc  Sc51  1  0.49790476  0.29819948  0.30975018  1
  Sc  Sc52  1  0.09334198  0.69468716  0.70194927  1
  Sc  Sc53  1  0.89365193  0.29690258  0.09214841  1
  Sc  Sc54  1  0.50428645  0.29459355  0.10713121  1
  Sc  Sc55  1  0.49323216  0.31431004  0.89777174  1
  Sc  Sc56  1  0.49257867  0.70459165  0.28477432  1
  Sc  Sc57  1  0.70303227  0.08701422  0.70750995  1
  Sc  Sc58  1  0.31303058  0.09913373  0.10128762  1
  Sc  Sc59  1  0.30136573  0.49584724  0.30043692  1
  Sc  Sc60  1  0.30425809  0.09962804  0.30025757  1
  Sc  Sc61  1  0.70036196  0.69824030  0.09902770  1
  Sc  Sc62  1  0.90031564  0.30570783  0.49857444  1
  Sc  Sc63  1  0.49732069  0.30315066  0.70492773  1
  Sc  Sc64  1  0.70603197  0.89652006  0.09624955  1
  Sc  Sc65  1  0.10176338  0.49378918  0.69551684  1
  Sc  Sc66  1  0.29841639  0.51341299  0.50238982  1
  Sc  Sc67  1  0.90090870  0.90192586  0.90864183  1
  Sc  Sc68  1  0.30716652  0.88935168  0.89314426  1
  Sc  Sc69  1  0.50125343  0.49739099  0.09792664  1
  Sc  Sc70  1  0.89936426  0.70553096  0.10271881  1
  Sc  Sc71  1  0.10575938  0.30624454  0.31278440  1
  Sc  Sc72  1  0.69388747  0.69502744  0.90278412  1
  Sc  Sc73  1  0.89311745  0.50165165  0.49901116  1
  Sc  Sc74  1  0.09466576  0.08585152  0.10094362  1
  Sc  Sc75  1  0.69430789  0.50141919  0.09193000  1
  Sc  Sc76  1  0.69073908  0.29230062  0.30177034  1
  Sc  Sc77  1  0.90398510  0.90525131  0.50887214  1
  Sc  Sc78  1  0.49430075  0.90782451  0.49676783  1
  Sc  Sc79  1  0.70007118  0.49646975  0.50315644  1
  Sc  Sc80  1  0.90174402  0.90812077  0.29759107  1
  Sc  Sc81  1  0.69485308  0.69611090  0.69762302  1
  Sc  Sc82  1  0.69653908  0.91183871  0.50574531  1
  Sc  Sc83  1  0.11480316  0.50005030  0.89331644  1
  Sc  Sc84  1  0.09398437  0.89694826  0.89622973  1
  Sc  Sc85  1  0.11364595  0.30640575  0.09096583  1
  Sc  Sc86  1  0.49223299  0.10237789  0.49836116  1
  Sc  Sc87  1  0.90150345  0.69709519  0.90020539  1
  Sc  Sc88  1  0.50265801  0.69593855  0.70166594  1
  Sc  Sc89  1  0.09979383  0.70982509  0.28646183  1
  Sc  Sc90  1  0.10137929  0.90594311  0.29168177  1
  Sc  Sc91  1  0.50180516  0.08879229  0.90385345  1
  Sc  Sc92  1  0.30197470  0.29763095  0.70759071  1
  Sc  Sc93  1  0.69547022  0.50359681  0.90405182  1
  Sc  Sc94  1  0.10344103  0.70412882  0.89688716  1
  Sc  Sc95  1  0.30694429  0.29984817  0.30060699  1
  Sc  Sc96  1  0.50249386  0.50011835  0.70682836  1
  Sc  Sc97  1  0.30467482  0.90228217  0.29439782  1
  Sc  Sc98  1  0.29917577  0.11236394  0.90134897  1
  Sc  Sc99  1  0.30840635  0.09901255  0.70351409  1
  Nb  Nb100  1  0.31000460  0.49045329  0.89815676  1
  Nb  Nb101  1  0.09959762  0.50335812  0.29435623  1
  Nb  Nb102  1  0.70254575  0.10711319  0.50084711  1
  Nb  Nb103  1  0.10379378  0.69983230  0.49927629  1
  Nb  Nb104  1  0.09770429  0.49896674  0.10132504  1
  Nb  Nb105  1  0.09885933  0.09895554  0.50118185  1
  Nb  Nb106  1  0.69856929  0.28761610  0.09606177  1
  Nb  Nb107  1  0.10194546  0.09634248  0.90021825  1
  Nb  Nb108  1  0.29802471  0.89881645  0.50070698  1
  Nb  Nb109  1  0.29564048  0.90375000  0.09928253  1
  Nb  Nb110  1  0.50383677  0.89821581  0.29452735  1
  Nb  Nb111  1  0.69454263  0.11034711  0.10250477  1
  Nb  Nb112  1  0.29505085  0.31281690  0.90569457  1
  Nb  Nb113  1  0.09912899  0.29861110  0.69751692  1
  Nb  Nb114  1  0.10585648  0.91054325  0.49906389  1
  Nb  Nb115  1  0.50059155  0.10624901  0.70294391  1
  Nb  Nb116  1  0.29802647  0.70212368  0.49857857  1
  Nb  Nb117  1  0.49728133  0.70397334  0.09876720  1
  Nb  Nb118  1  0.49906410  0.30155766  0.49782779  1
  Nb  Nb119  1  0.50594648  0.89283199  0.89649122  1
  Nb  Nb120  1  0.10128566  0.70084494  0.09731614  1
  Nb  Nb121  1  0.90344594  0.29962026  0.89590139  1
  Nb  Nb122  1  0.10332319  0.29595913  0.89228439  1
  Nb  Nb123  1  0.70538506  0.29794461  0.90195510  1
  Nb  Nb124  1  0.90530219  0.09684400  0.90225989  1
  Nb  Nb125  1  0.79638879  0.80102986  0.79880097  1
  Nb  Nb126  1  0.40117749  0.39926065  0.59615934  1
  Nb  Nb127  1  0.19315087  0.19795057  0.60100235  1
  Nb  Nb128  1  0.00391618  0.79847173  0.40626910  1
  Nb  Nb129  1  0.19620116  0.59889668  0.19163138  1
  Nb  Nb130  1  0.19897552  0.80135473  0.59243238  1
  Nb  Nb131  1  0.79969665  0.80121604  0.40419362  1
  Nb  Nb132  1  0.00376598  0.20123030  -0.00736568  1
  Nb  Nb133  1  0.59853568  0.79882858  0.39698602  1
  Nb  Nb134  1  0.19975814  0.80203668  0.40652355  1
  Nb  Nb135  1  -0.00100775  0.39987325  0.19464198  1
  Nb  Nb136  1  0.79756113  0.39441669  0.19522969  1
  Nb  Nb137  1  0.00208503  0.19885839  0.60559768  1
  Nb  Nb138  1  0.80039490  0.19874483  0.60324526  1
  Nb  Nb139  1  0.00264126  0.39812430  -0.00597939  1
  Nb  Nb140  1  0.39158110  0.80276685  0.59681970  1
  Nb  Nb141  1  0.59764867  0.60595077  0.39534602  1
  Nb  Nb142  1  0.60068789  0.00396305  0.19814228  1
  Nb  Nb143  1  0.00828090  0.59523229  0.00558778  1
  Nb  Nb144  1  0.00872855  0.60508503  0.39876387  1
  Nb  Nb145  1  0.00574611  0.20627713  0.19503431  1
  Nb  Nb146  1  0.60157876  0.19766775  0.60428926  1
  Nb  Nb147  1  0.60144031  0.19790390  0.80070290  1
  Nb  Nb148  1  0.20323207  -0.00571738  -0.00013162  1
  Nb  Nb149  1  0.19520460  0.19935753  0.19929552  1
  Pd  Pd150  1  0.60433198  -0.00334891  0.00916842  1
  Pd  Pd151  1  0.58649480  0.80454506  0.59234163  1
  Pd  Pd152  1  0.39835230  0.20582062  0.59701313  1
  Pd  Pd153  1  0.80261865  0.00692765  0.59852503  1
  Pd  Pd154  1  0.20824146  0.19743588  0.40073795  1
  Pd  Pd155  1  0.59501194  0.59545998  0.59517678  1
  Pd  Pd156  1  0.00741660  0.59542201  0.80872952  1
  Pd  Pd157  1  0.40412848  0.59375066  0.39226330  1
  Pd  Pd158  1  0.19293384  0.18683859  0.00825231  1
  Pd  Pd159  1  0.00864700  0.80250940  0.59795966  1
  Pd  Pd160  1  0.59647931  0.00188843  0.39764716  1
  Pd  Pd161  1  0.40064217  0.79546387  0.78906273  1
  Pd  Pd162  1  0.79563692  0.80374999  0.60162262  1
  Pd  Pd163  1  -0.00575081  0.40036402  0.60070758  1
  Pd  Pd164  1  0.39178751  -0.00605319  -0.00993015  1
  Pd  Pd165  1  0.19761042  0.59693109  0.00029182  1
  Pd  Pd166  1  0.00417518  0.19609663  0.80181311  1
  Pd  Pd167  1  0.79077144  0.39534336  0.39287233  1
  Pd  Pd168  1  0.59014225  0.20719054  -0.01251406  1
  Pd  Pd169  1  0.20210276  0.80472699  -0.01038189  1
  Pd  Pd170  1  0.39816277  -0.00323634  0.39356413  1
  Pd  Pd171  1  0.00003459  0.00807322  0.60272697  1
  Pd  Pd172  1  0.80319972  0.39533613  0.60202833  1
  Pd  Pd173  1  0.20197121  0.39934100  0.79387710  1
  Pd  Pd174  1  0.80671221  0.80828565  0.20178450  1
  Pd  Pd175  1  0.39023785  0.59432633  0.18997725  1
  Pd  Pd176  1  0.41043359  0.20470539  -0.00866704  1
  Pd  Pd177  1  0.59281207  0.01048114  0.59969024  1
  Pd  Pd178  1  0.79282457  0.00000973  0.19249995  1
  Pd  Pd179  1  0.19531785  0.60743412  0.38546963  1
  Pd  Pd180  1  0.40165477  0.59663413  0.00766616  1
  Pd  Pd181  1  0.20257810  0.00759837  0.19670149  1
  Pd  Pd182  1  0.59636572  0.60305073  0.19623236  1
  Pd  Pd183  1  0.60123813  0.79673263  0.00589250  1
  Pd  Pd184  1  0.59901514  0.39317532  -0.00112912  1
  Pd  Pd185  1  0.60810883  0.39145969  0.19725410  1
  Pd  Pd186  1  0.40659728  0.20353285  0.81065213  1
  Pd  Pd187  1  0.80834278  0.19750455  -0.00682818  1
  Pd  Pd188  1  0.00297574  0.60201613  0.19919488  1
  Pd  Pd189  1  0.20432706  0.20028720  0.79686580  1
  Pd  Pd190  1  0.80153246  0.79506875  -0.00829063  1
  Pd  Pd191  1  0.39764052  0.00356562  0.80894502  1
  Pd  Pd192  1  0.59340148  0.39448932  0.60677067  1
  Pd  Pd193  1  0.00139819  0.41100524  0.39667203  1
  Pd  Pd194  1  0.80428770  0.20474415  0.20175873  1
  Pd  Pd195  1  0.40146146  0.39381530  0.19580301  1
  Pd  Pd196  1  0.79819241  0.39745007  0.00009442  1
  Pd  Pd197  1  0.19700065  0.39596447  0.20643220  1
  Pd  Pd198  1  0.19994577  0.79641429  0.79303955  1
  Pd  Pd199  1  0.00468268  0.58916026  0.59368154  1
  Rh  Rh200  1  0.40372899  0.59659329  0.60322432  1
  Rh  Rh201  1  0.39561638  0.40412202  0.40552874  1
  Rh  Rh202  1  0.40145370  0.80780212  0.40151699  1
  Rh  Rh203  1  0.59867408  0.60235634  0.80498300  1
  Rh  Rh204  1  0.60097958  0.19640627  0.20632848  1
  Rh  Rh205  1  0.59600671  0.00735751  0.80200585  1
  Rh  Rh206  1  0.40517985  -0.00350190  0.60393550  1
  Rh  Rh207  1  0.60265495  0.40719341  0.39481272  1
  Rh  Rh208  1  0.39614473  0.80638457  0.19435145  1
  Rh  Rh209  1  0.19278861  0.60485295  0.60428586  1
  Rh  Rh210  1  0.00984816  0.40423079  0.80609832  1
  Rh  Rh211  1  0.60337358  0.79401250  0.79974779  1
  Rh  Rh212  1  0.59134422  0.60589147  0.00447937  1
  Rh  Rh213  1  0.60584872  0.39476735  0.80898709  1
  Rh  Rh214  1  0.80169482  0.20776679  0.40748710  1
  Rh  Rh215  1  0.79264704  0.60846097  0.80082435  1
  Rh  Rh216  1  0.59322971  0.19386287  0.40816700  1
  Rh  Rh217  1  0.21218285  0.39126207  0.60555915  1
  Rh  Rh218  1  0.00048448  0.78931146  -0.00167237  1
  Rh  Rh219  1  0.40723429  -0.00334920  0.20178557  1
  Rh  Rh220  1  -0.01024610  0.79777167  0.80199023  1
  Rh  Rh221  1  0.79121634  0.59434856  0.18908796  1
  Rh  Rh222  1  0.39760947  0.80292323  -0.00248097  1
  Rh  Rh223  1  0.20893612  0.00069542  0.81594661  1
  Rh  Rh224  1  0.00101618  0.00607069  0.20382279  1
  Rh  Rh225  1  0.80224335  -0.00725006  0.40905665  1
  Rh  Rh226  1  0.19437423  0.40278196  -0.00920624  1
  Rh  Rh227  1  -0.00252627  -0.00418744  0.80720256  1
  Rh  Rh228  1  0.79255454  0.40401145  0.81064085  1
  Rh  Rh229  1  0.20641676  0.40700599  0.39612232  1
  Rh  Rh230  1  0.80442998  -0.00991993  0.81119725  1
  Rh  Rh231  1  0.20222996  -0.00504075  0.39408924  1
  Rh  Rh232  1  0.00079533  0.20446090  0.40297637  1
  Rh  Rh233  1  0.39372445  0.20455135  0.20163542  1
  Rh  Rh234  1  0.19710011  0.00360375  0.60248305  1
  Rh  Rh235  1  0.20803613  0.79539802  0.20473493  1
  Rh  Rh236  1  0.40045917  0.59585063  0.79740562  1
  Rh  Rh237  1  0.20103761  0.59795213  0.79670032  1
  Rh  Rh238  1  0.79677299  0.60818347  0.40797932  1
  Rh  Rh239  1  0.39432729  0.40374403  0.79157159  1
  Rh  Rh240  1  0.40676090  0.39809617  0.00618303  1
  Rh  Rh241  1  0.00109620  -0.00903678  0.39914971  1
  Rh  Rh242  1  0.39707116  0.19700459  0.40418891  1
  Rh  Rh243  1  0.80548898  0.60619690  -0.00022212  1
  Rh  Rh244  1  0.79518459  0.00189630  0.00307140  1
  Rh  Rh245  1  0.01021860  0.00150315  -0.00579774  1
  Rh  Rh246  1  0.59695904  0.80683851  0.19566300  1
  Rh  Rh247  1  -0.00682527  0.80119862  0.20340125  1
  Rh  Rh248  1  0.79677842  0.59112026  0.60423003  1
  Rh  Rh249  1  0.79541898  0.19717448  0.80419362  1
