# generated using pymatgen
data_ZrScNbPdRh
_symmetry_space_group_name_H-M   'P 1'
_cell_length_a   16.56648036
_cell_length_b   16.55976302
_cell_length_c   16.56307187
_cell_angle_alpha   89.97511264
_cell_angle_beta   90.00386874
_cell_angle_gamma   89.97208565
_symmetry_Int_Tables_number   1
_chemical_formula_structural   ZrScNbPdRh
_chemical_formula_sum   'Zr50 Sc50 Nb50 Pd50 Rh50'
_cell_volume   4543.86228463
_cell_formula_units_Z   50
loop_
 _symmetry_equiv_pos_site_id
 _symmetry_equiv_pos_as_xyz
  1  'x, y, z'
loop_
 _atom_site_type_symbol
 _atom_site_label
 _atom_site_symmetry_multiplicity
 _atom_site_fract_x
 _atom_site_fract_y
 _atom_site_fract_z
 _atom_site_occupancy
  Zr  Zr0  1  0.89805497  0.69872131  0.69895127  1
  Zr  Zr1  1  0.10037130  0.10020813  0.30105257  1
  Zr  Zr2  1  0.90359528  0.89809962  0.90688622  1
  Zr  Zr3  1  0.30122361  0.89649568  0.49098012  1
  Zr  Zr4  1  0.29557169  0.30026369  0.50727254  1
  Zr  Zr5  1  0.90246332  0.10081287  0.10065796  1
  Zr  Zr6  1  0.90578306  0.29376146  0.90714522  1
  Zr  Zr7  1  0.70714939  0.11749672  0.90765123  1
  Zr  Zr8  1  0.88208153  0.50793000  0.50675092  1
  Zr  Zr9  1  0.09730594  0.08757761  0.70282084  1
  Zr  Zr10  1  0.09873292  0.69878039  0.90139772  1
  Zr  Zr11  1  0.71431650  0.89951982  0.49694640  1
  Zr  Zr12  1  0.90802336  0.09749572  0.69793753  1
  Zr  Zr13  1  0.70337504  0.68564267  0.49282511  1
  Zr  Zr14  1  0.69968448  0.71349620  0.70454454  1
  Zr  Zr15  1  0.70359179  0.89661004  0.29235078  1
  Zr  Zr16  1  0.70449380  0.30395917  0.90242158  1
  Zr  Zr17  1  0.30418898  0.10026076  0.90613729  1
  Zr  Zr18  1  0.30088907  0.50564725  0.88352694  1
  Zr  Zr19  1  0.29716011  0.29901703  0.09501991  1
  Zr  Zr20  1  0.69866203  0.28994564  0.09869406  1
  Zr  Zr21  1  0.10073066  0.29962454  0.09410778  1
  Zr  Zr22  1  0.11072321  0.89462693  0.51509114  1
  Zr  Zr23  1  0.90513728  0.08929053  0.29887025  1
  Zr  Zr24  1  0.09883636  0.50170763  0.29261910  1
  Zr  Zr25  1  0.30239793  0.50036727  0.09992835  1
  Zr  Zr26  1  0.89806919  0.89929771  0.68803511  1
  Zr  Zr27  1  0.69983438  0.10160872  0.29576137  1
  Zr  Zr28  1  0.69789467  0.09718104  0.10479471  1
  Zr  Zr29  1  0.71541761  0.49374065  0.69594321  1
  Zr  Zr30  1  0.09380764  0.29990301  0.69176249  1
  Zr  Zr31  1  0.29732309  0.29965287  0.90662325  1
  Zr  Zr32  1  0.90911105  0.49737234  0.69725095  1
  Zr  Zr33  1  0.10360373  0.90564285  0.29756572  1
  Zr  Zr34  1  0.49940452  0.89030561  0.29701715  1
  Zr  Zr35  1  0.10385237  0.49916410  0.70552229  1
  Zr  Zr36  1  0.09683112  0.30606839  0.29991777  1
  Zr  Zr37  1  0.70117038  0.89873151  0.70341822  1
  Zr  Zr38  1  0.90726013  0.30370642  0.50751452  1
  Zr  Zr39  1  0.49469440  0.50099867  0.10370137  1
  Zr  Zr40  1  0.50094240  0.50893919  0.29247033  1
  Zr  Zr41  1  0.29840191  0.08722366  0.30503786  1
  Zr  Zr42  1  0.30696446  0.10457850  0.10557636  1
  Zr  Zr43  1  0.29687950  0.30822392  0.70254745  1
  Zr  Zr44  1  0.70220614  0.10384821  0.48904943  1
  Zr  Zr45  1  0.49194316  0.70259675  0.49814707  1
  Zr  Zr46  1  0.29119848  0.90504238  0.69354635  1
  Zr  Zr47  1  0.50538255  0.09823941  0.09977709  1
  Zr  Zr48  1  0.49668335  0.70562823  0.69542335  1
  Zr  Zr49  1  0.50336121  0.89952780  0.69946240  1
  Sc  Sc50  1  0.49979547  0.10134894  0.71217547  1
  Sc  Sc51  1  0.10621769  0.48834177  0.49042001  1
  Sc  Sc52  1  0.09734389  0.70239259  0.10556040  1
  Sc  Sc53  1  0.09517671  0.91130323  0.90298164  1
  Sc  Sc54  1  0.90487181  0.30855776  0.69924256  1
  Sc  Sc55  1  0.90376282  0.08780970  0.49664455  1
  Sc  Sc56  1  0.69801962  0.10103243  0.71014231  1
  Sc  Sc57  1  0.69743659  0.50218298  0.31348426  1
  Sc  Sc58  1  0.30390959  0.69028343  0.70119441  1
  Sc  Sc59  1  0.50159373  0.50064572  0.49307136  1
  Sc  Sc60  1  0.69336090  0.69619385  0.29928470  1
  Sc  Sc61  1  0.30190084  0.10673637  0.70346247  1
  Sc  Sc62  1  0.90588857  0.30374637  0.10751748  1
  Sc  Sc63  1  0.69417001  0.70449829  0.09328393  1
  Sc  Sc64  1  0.91089488  0.50218570  0.90564477  1
  Sc  Sc65  1  0.28561704  0.50052919  0.29045426  1
  Sc  Sc66  1  0.50629423  0.30129464  0.29658797  1
  Sc  Sc67  1  0.89690831  0.69973785  0.50637891  1
  Sc  Sc68  1  0.48856798  0.29923854  0.70417939  1
  Sc  Sc69  1  0.10420822  0.10256180  0.50017486  1
  Sc  Sc70  1  0.89761665  0.70342556  0.91012214  1
  Sc  Sc71  1  0.49247588  0.49837037  0.90885035  1
  Sc  Sc72  1  0.49510824  0.29993675  0.90373256  1
  Sc  Sc73  1  0.68639745  0.50390937  0.09886291  1
  Sc  Sc74  1  0.10075757  0.69623253  0.69267693  1
  Sc  Sc75  1  0.71090633  0.29925562  0.70688566  1
  Sc  Sc76  1  0.69703809  0.88411094  0.90251498  1
  Sc  Sc77  1  0.89998170  0.70302745  0.29165573  1
  Sc  Sc78  1  0.49321027  0.88826843  0.49559894  1
  Sc  Sc79  1  0.49413056  0.69535381  0.90221697  1
  Sc  Sc80  1  0.49648630  0.69744287  0.11054651  1
  Sc  Sc81  1  0.29346229  0.29433697  0.29017606  1
  Sc  Sc82  1  0.09800083  0.49671414  0.89941711  1
  Sc  Sc83  1  0.09733079  0.89432570  0.10231337  1
  Sc  Sc84  1  0.49890289  0.29711830  0.49120389  1
  Sc  Sc85  1  0.69648562  0.30441833  0.48455256  1
  Sc  Sc86  1  0.47835969  0.50156973  0.70679984  1
  Sc  Sc87  1  0.90495748  0.89260676  0.10930615  1
  Sc  Sc88  1  0.90294097  0.30174563  0.29802176  1
  Sc  Sc89  1  0.91025420  0.70082719  0.09746566  1
  Sc  Sc90  1  0.10089547  0.29749330  0.49756788  1
  Sc  Sc91  1  0.10994842  0.69983631  0.29008694  1
  Sc  Sc92  1  0.49536923  0.91135397  0.91005086  1
  Sc  Sc93  1  0.70040663  0.29988966  0.29934752  1
  Sc  Sc94  1  0.09571579  0.09828166  0.10369775  1
  Sc  Sc95  1  0.49793020  0.10570901  0.90188501  1
  Sc  Sc96  1  0.90051565  0.49525744  0.29546359  1
  Sc  Sc97  1  0.09386886  0.50334228  0.09990492  1
  Sc  Sc98  1  0.49164726  0.10410696  0.29873836  1
  Sc  Sc99  1  0.49671253  0.30150004  0.10219257  1
  Nb  Nb100  1  0.90171485  0.50302062  0.10074314  1
  Nb  Nb101  1  0.70297774  0.69503300  0.89674903  1
  Nb  Nb102  1  0.30051999  0.89904829  0.29529418  1
  Nb  Nb103  1  0.90404799  0.89766367  0.30821132  1
  Nb  Nb104  1  0.29354575  0.49620550  0.69462124  1
  Nb  Nb105  1  0.29929243  0.49679101  0.49709069  1
  Nb  Nb106  1  0.09855656  0.29419691  0.90600914  1
  Nb  Nb107  1  0.30032020  0.70290788  0.29068086  1
  Nb  Nb108  1  0.69489419  0.50014761  0.50205609  1
  Nb  Nb109  1  0.49937257  0.10066159  0.49314956  1
  Nb  Nb110  1  0.30017953  0.89938350  0.90724554  1
  Nb  Nb111  1  0.69872951  0.50338891  0.90294487  1
  Nb  Nb112  1  0.49616830  0.69612721  0.30354105  1
  Nb  Nb113  1  0.10650188  0.70054320  0.49609377  1
  Nb  Nb114  1  0.90668384  0.09379312  0.90546858  1
  Nb  Nb115  1  0.90138852  0.89844849  0.49329165  1
  Nb  Nb116  1  0.51272515  0.90306665  0.10195098  1
  Nb  Nb117  1  0.31266950  0.09953288  0.49219910  1
  Nb  Nb118  1  0.08874458  0.10004617  0.90393187  1
  Nb  Nb119  1  0.68236994  0.90354618  0.10371076  1
  Nb  Nb120  1  0.29703441  0.70627245  0.90154691  1
  Nb  Nb121  1  0.30872713  0.89755532  0.09469844  1
  Nb  Nb122  1  0.10083776  0.89918343  0.70267503  1
  Nb  Nb123  1  0.29453410  0.70792422  0.09868623  1
  Nb  Nb124  1  0.29608283  0.70366177  0.49772600  1
  Nb  Nb125  1  0.00433020  0.80490970  0.79565602  1
  Nb  Nb126  1  0.59692330  0.00496919  0.59105669  1
  Nb  Nb127  1  0.60530287  0.59594814  0.79855561  1
  Nb  Nb128  1  0.79812128  0.19816166  0.59576677  1
  Nb  Nb129  1  0.60067450  0.40121729  0.60453648  1
  Nb  Nb130  1  0.80485744  0.00032792  0.81101932  1
  Nb  Nb131  1  0.60244695  0.40918999  0.79869880  1
  Nb  Nb132  1  0.59816472  -0.00216660  0.40117856  1
  Nb  Nb133  1  0.20710266  0.60733866  -0.00202507  1
  Nb  Nb134  1  0.60220241  0.19918005  0.59734552  1
  Nb  Nb135  1  0.20708757  -0.00094463  0.00235939  1
  Nb  Nb136  1  0.20635786  0.59582583  0.59037298  1
  Nb  Nb137  1  0.18936254  0.19926200  0.80867197  1
  Nb  Nb138  1  0.38784979  0.60270285  0.39621186  1
  Nb  Nb139  1  0.39014606  0.80570877  0.80577523  1
  Nb  Nb140  1  0.79615840  0.60015782  0.80577206  1
  Nb  Nb141  1  0.80014116  0.59595786  0.19261130  1
  Nb  Nb142  1  0.79693833  -0.00238826  0.00242954  1
  Nb  Nb143  1  0.00433189  0.60627038  0.40162062  1
  Nb  Nb144  1  0.79995621  0.40651936  0.00465831  1
  Nb  Nb145  1  0.19947918  0.80335049  0.80304234  1
  Nb  Nb146  1  0.00399247  0.79985142  0.40434991  1
  Nb  Nb147  1  0.40451842  0.00530453  0.59255720  1
  Nb  Nb148  1  0.60061300  0.59448113  0.60605915  1
  Nb  Nb149  1  0.39154287  0.40636268  0.39627536  1
  Pd  Pd150  1  0.01340770  -0.00773842  0.40964242  1
  Pd  Pd151  1  -0.00441197  0.19764880  0.40084468  1
  Pd  Pd152  1  0.40790267  0.19457920  0.60183419  1
  Pd  Pd153  1  0.19112371  0.80394459  -0.00129887  1
  Pd  Pd154  1  0.39740883  -0.00408822  0.79474146  1
  Pd  Pd155  1  0.60948826  0.00538242  -0.01273909  1
  Pd  Pd156  1  0.79682599  0.80627187  0.01211396  1
  Pd  Pd157  1  0.80618615  0.78856008  0.39763712  1
  Pd  Pd158  1  0.79247844  0.00946913  0.60670895  1
  Pd  Pd159  1  0.60543870  0.80164421  0.40172558  1
  Pd  Pd160  1  0.80672061  0.20247990  0.20312273  1
  Pd  Pd161  1  0.80151770  0.59637796  0.00343466  1
  Pd  Pd162  1  0.20159603  -0.00537580  0.18783338  1
  Pd  Pd163  1  0.59987122  0.39710300  -0.00251655  1
  Pd  Pd164  1  0.59608604  0.21415009  0.79596763  1
  Pd  Pd165  1  0.00100937  0.20347202  0.79757589  1
  Pd  Pd166  1  0.81342267  0.20272531  0.40062315  1
  Pd  Pd167  1  0.80551892  -0.00813547  0.19557859  1
  Pd  Pd168  1  -0.00878643  0.41035405  0.40397128  1
  Pd  Pd169  1  0.80412601  0.40109115  0.40075136  1
  Pd  Pd170  1  0.58523571  0.79735639  0.81380551  1
  Pd  Pd171  1  0.20428397  0.20237650  0.39924151  1
  Pd  Pd172  1  0.19989663  0.19331114  0.60606657  1
  Pd  Pd173  1  0.80843506  0.40825195  0.81419482  1
  Pd  Pd174  1  0.58987550  0.79254120  -0.00274091  1
  Pd  Pd175  1  0.39605960  0.39555841  0.20734220  1
  Pd  Pd176  1  0.40587197  -0.00472675  0.19820027  1
  Pd  Pd177  1  0.60910187  0.00018229  0.80978029  1
  Pd  Pd178  1  0.39835437  0.59521812  0.59149579  1
  Pd  Pd179  1  0.19902891  0.41353752  -0.00133535  1
  Pd  Pd180  1  0.01356618  0.59165998  0.58710604  1
  Pd  Pd181  1  0.19720580  0.80167668  0.39013017  1
  Pd  Pd182  1  0.40118325  0.80009954  0.19542177  1
  Pd  Pd183  1  0.19165441  0.39093409  0.80445043  1
  Pd  Pd184  1  0.81405397  0.19552286  0.79341881  1
  Pd  Pd185  1  0.40910005  0.40122542  0.59052127  1
  Pd  Pd186  1  0.21053512  0.01403323  0.59204541  1
  Pd  Pd187  1  -0.00651016  0.60737538  0.80540911  1
  Pd  Pd188  1  0.00088168  0.79824734  0.59854125  1
  Pd  Pd189  1  0.79518128  0.79300310  0.19194930  1
  Pd  Pd190  1  0.41087160  0.79949913  0.00078721  1
  Pd  Pd191  1  0.39346995  0.60521475  0.00250070  1
  Pd  Pd192  1  0.20134719  0.00256291  0.81151393  1
  Pd  Pd193  1  0.59356088  0.60586168  -0.00224456  1
  Pd  Pd194  1  0.60730096  0.40124992  0.20306079  1
  Pd  Pd195  1  0.19444844  0.19729215  0.19925677  1
  Pd  Pd196  1  0.60737497  0.79987981  0.58634104  1
  Pd  Pd197  1  0.79042619  0.40851172  0.19286433  1
  Pd  Pd198  1  0.39564125  0.21234304  0.39089666  1
  Pd  Pd199  1  0.20018138  0.60025604  0.39992997  1
  Rh  Rh200  1  0.60637852  0.60381010  0.20061828  1
  Rh  Rh201  1  0.19211015  0.18561778  -0.00275153  1
  Rh  Rh202  1  0.81335646  0.59965946  0.38554560  1
  Rh  Rh203  1  0.00544586  0.80093446  -0.00458054  1
  Rh  Rh204  1  0.20518385  0.80722716  0.19797358  1
  Rh  Rh205  1  0.38991768  0.80747755  0.60905357  1
  Rh  Rh206  1  0.39927254  0.00104225  0.00967236  1
  Rh  Rh207  1  0.19387969  0.39830064  0.19239483  1
  Rh  Rh208  1  0.40717096  0.20166025  0.00520184  1
  Rh  Rh209  1  0.00279390  0.39503508  0.80472052  1
  Rh  Rh210  1  0.20117423  0.60658345  0.79636854  1
  Rh  Rh211  1  -0.00149798  -0.00489393  0.19924961  1
  Rh  Rh212  1  0.00089673  -0.00185959  0.01258798  1
  Rh  Rh213  1  0.20876582  0.38951904  0.39496591  1
  Rh  Rh214  1  -0.00489672  0.39886821  0.00159023  1
  Rh  Rh215  1  0.79768542  0.79537925  0.59225099  1
  Rh  Rh216  1  0.40671696  -0.00888668  0.40012424  1
  Rh  Rh217  1  -0.00742005  0.59958315  0.20654514  1
  Rh  Rh218  1  0.79030993  0.60975597  0.61063548  1
  Rh  Rh219  1  -0.00740268  -0.00942517  0.79751194  1
  Rh  Rh220  1  0.79688062  -0.00265257  0.38902397  1
  Rh  Rh221  1  0.40199547  0.60788189  0.80158232  1
  Rh  Rh222  1  0.38962026  0.20402608  0.80490178  1
  Rh  Rh223  1  0.20651848  0.78703730  0.61074913  1
  Rh  Rh224  1  0.59641242  0.19575858  0.39537028  1
  Rh  Rh225  1  -0.00030578  0.19869670  0.00773720  1
  Rh  Rh226  1  0.39072829  0.60512195  0.20236645  1
  Rh  Rh227  1  0.81345752  0.80003426  0.80499316  1
  Rh  Rh228  1  0.78967302  0.38339889  0.58792110  1
  Rh  Rh229  1  0.59137285  0.00193947  0.21333308  1
  Rh  Rh230  1  0.00343409  0.20114115  0.20441263  1
  Rh  Rh231  1  0.59652053  0.19935548  0.20116588  1
  Rh  Rh232  1  0.39630085  0.39993694  -0.00043909  1
  Rh  Rh233  1  0.00471822  -0.00471791  0.59317374  1
  Rh  Rh234  1  0.81019847  0.20200984  0.00892963  1
  Rh  Rh235  1  0.19990109  -0.00144269  0.40528208  1
  Rh  Rh236  1  0.40135419  0.20293815  0.20123220  1
  Rh  Rh237  1  0.00895160  0.60147727  0.00213552  1
  Rh  Rh238  1  -0.00410017  0.19412121  0.59560922  1
  Rh  Rh239  1  0.39052968  0.79294620  0.38815841  1
  Rh  Rh240  1  0.59073036  0.40224753  0.40004774  1
  Rh  Rh241  1  0.19413511  0.40476883  0.59911934  1
  Rh  Rh242  1  0.59793732  0.79144888  0.20071853  1
  Rh  Rh243  1  0.58810282  0.60162298  0.40456787  1
  Rh  Rh244  1  0.20353068  0.60293076  0.18479368  1
  Rh  Rh245  1  0.00480032  0.80088918  0.21264013  1
  Rh  Rh246  1  0.00625043  0.40936526  0.59371291  1
  Rh  Rh247  1  0.40117590  0.39708691  0.80552923  1
  Rh  Rh248  1  0.00477966  0.40046033  0.19560100  1
  Rh  Rh249  1  0.59225078  0.20419461  0.00138231  1
