# generated using pymatgen
data_ZrScNbPdRh
_symmetry_space_group_name_H-M   'P 1'
_cell_length_a   16.56032720
_cell_length_b   16.55598127
_cell_length_c   16.56431897
_cell_angle_alpha   90.00118751
_cell_angle_beta   89.99899157
_cell_angle_gamma   90.01189124
_symmetry_Int_Tables_number   1
_chemical_formula_structural   ZrScNbPdRh
_chemical_formula_sum   'Zr50 Sc50 Nb50 Pd50 Rh50'
_cell_volume   4541.48009425
_cell_formula_units_Z   50
loop_
 _symmetry_equiv_pos_site_id
 _symmetry_equiv_pos_as_xyz
  1  'x, y, z'
loop_
 _atom_site_type_symbol
 _atom_site_label
 _atom_site_symmetry_multiplicity
 _atom_site_fract_x
 _atom_site_fract_y
 _atom_site_fract_z
 _atom_site_occupancy
  Zr  Zr0  1  0.89607172  0.68902121  0.49917106  1
  Zr  Zr1  1  0.09950429  0.90547061  0.49976611  1
  Zr  Zr2  1  0.09801297  0.49485141  0.09648592  1
  Zr  Zr3  1  0.09110590  0.50245916  0.49764654  1
  Zr  Zr4  1  0.10192001  0.90435595  0.90608262  1
  Zr  Zr5  1  0.50341316  0.10091843  0.31193742  1
  Zr  Zr6  1  0.50430553  0.70498058  0.50676148  1
  Zr  Zr7  1  0.49956994  0.89615162  0.10085983  1
  Zr  Zr8  1  0.49694873  0.50077725  0.90471420  1
  Zr  Zr9  1  0.49411782  0.68691108  0.29459703  1
  Zr  Zr10  1  0.89944202  0.29391127  0.49643455  1
  Zr  Zr11  1  0.50299502  0.50665272  0.10077421  1
  Zr  Zr12  1  0.70220766  0.69803916  0.50427475  1
  Zr  Zr13  1  0.49677244  0.10566854  0.70135582  1
  Zr  Zr14  1  0.70023247  0.09718531  0.10119555  1
  Zr  Zr15  1  0.90739312  0.09997079  0.89965360  1
  Zr  Zr16  1  0.09456755  0.69191750  0.89510476  1
  Zr  Zr17  1  0.10941168  0.09885832  0.70452936  1
  Zr  Zr18  1  0.29405436  0.49683805  0.89620418  1
  Zr  Zr19  1  0.29891331  0.89917353  0.09758803  1
  Zr  Zr20  1  0.70569575  0.69474472  0.09738900  1
  Zr  Zr21  1  0.29665288  0.89655977  0.50566997  1
  Zr  Zr22  1  0.89960912  0.29798878  0.90035429  1
  Zr  Zr23  1  0.90468553  0.49766754  0.10352869  1
  Zr  Zr24  1  0.09229047  0.90725735  0.29941185  1
  Zr  Zr25  1  0.89521335  0.69504058  0.10408794  1
  Zr  Zr26  1  0.89577543  0.10065042  0.70723734  1
  Zr  Zr27  1  0.89374788  0.89546101  0.88490779  1
  Zr  Zr28  1  0.30401033  0.90405472  0.90160628  1
  Zr  Zr29  1  0.70407845  0.49579687  0.09337971  1
  Zr  Zr30  1  0.69987565  0.11340785  0.69786411  1
  Zr  Zr31  1  0.31131002  0.70577978  0.10437033  1
  Zr  Zr32  1  0.29785531  0.69630709  0.49568287  1
  Zr  Zr33  1  0.48590059  0.90385175  0.69201775  1
  Zr  Zr34  1  0.30088850  0.69763837  0.90304862  1
  Zr  Zr35  1  0.10228044  0.10122248  0.90181782  1
  Zr  Zr36  1  0.49988786  0.50176595  0.70018707  1
  Zr  Zr37  1  0.89663295  0.30459013  0.70419457  1
  Zr  Zr38  1  0.90203014  0.90118412  0.69457331  1
  Zr  Zr39  1  0.09622141  0.69678040  0.09417907  1
  Zr  Zr40  1  0.90139974  0.90041071  0.11579650  1
  Zr  Zr41  1  0.09573292  0.09581080  0.09830572  1
  Zr  Zr42  1  0.70479196  0.50166707  0.50347681  1
  Zr  Zr43  1  0.90086082  0.10784006  0.10194220  1
  Zr  Zr44  1  0.70577735  0.90058364  0.49997232  1
  Zr  Zr45  1  0.09611005  0.29212396  0.30169719  1
  Zr  Zr46  1  0.69757114  0.29550846  0.50741038  1
  Zr  Zr47  1  0.30377407  0.30323319  0.49780378  1
  Zr  Zr48  1  0.30414889  0.09364471  0.70167532  1
  Zr  Zr49  1  0.70589934  0.69673972  0.30564073  1
  Sc  Sc50  1  0.69230870  0.89672669  0.10199692  1
  Sc  Sc51  1  0.70062611  0.89089737  0.89766194  1
  Sc  Sc52  1  0.50723757  0.29832183  0.70077705  1
  Sc  Sc53  1  0.30842699  0.49464083  0.49802096  1
  Sc  Sc54  1  0.29683195  0.30736082  0.70504267  1
  Sc  Sc55  1  0.70071929  0.09801530  0.31029003  1
  Sc  Sc56  1  0.09550630  0.69771706  0.70176243  1
  Sc  Sc57  1  0.29362574  0.90643427  0.69251198  1
  Sc  Sc58  1  0.50996208  0.69475122  0.89795101  1
  Sc  Sc59  1  0.89867895  0.50089021  0.70091244  1
  Sc  Sc60  1  0.89850618  0.50574329  0.29729281  1
  Sc  Sc61  1  0.30863392  0.50750717  0.30739595  1
  Sc  Sc62  1  0.70929942  0.50194786  0.69861927  1
  Sc  Sc63  1  0.50740424  0.89740211  0.29877872  1
  Sc  Sc64  1  0.29138867  0.30256516  0.09621357  1
  Sc  Sc65  1  0.70638163  0.30027330  0.70339182  1
  Sc  Sc66  1  0.10027459  0.89802119  0.69209160  1
  Sc  Sc67  1  0.50164897  0.70151156  0.10068830  1
  Sc  Sc68  1  0.90354649  0.50066418  0.89395946  1
  Sc  Sc69  1  0.29972077  0.49482141  0.09378573  1
  Sc  Sc70  1  0.89335068  0.09716208  0.49905851  1
  Sc  Sc71  1  0.90288625  0.29219787  0.29564500  1
  Sc  Sc72  1  0.10026456  0.10295863  0.30116382  1
  Sc  Sc73  1  0.70656295  0.29792292  0.30570799  1
  Sc  Sc74  1  0.48775576  0.30236982  0.08240365  1
  Sc  Sc75  1  0.09925622  0.30247840  0.89449650  1
  Sc  Sc76  1  0.29795950  0.49550563  0.70467101  1
  Sc  Sc77  1  0.50639504  0.89699947  0.90190425  1
  Sc  Sc78  1  0.29185981  0.10915085  0.09512557  1
  Sc  Sc79  1  0.09801039  0.50114777  0.89791963  1
  Sc  Sc80  1  0.30001928  0.29901070  0.90270472  1
  Sc  Sc81  1  0.29637725  0.70239063  0.69258711  1
  Sc  Sc82  1  0.49229383  0.29538071  0.89582533  1
  Sc  Sc83  1  0.29269812  0.29313935  0.29727290  1
  Sc  Sc84  1  0.29684188  0.10568205  0.89233706  1
  Sc  Sc85  1  0.09123337  0.49243160  0.29234487  1
  Sc  Sc86  1  0.70366640  0.10119960  0.89216924  1
  Sc  Sc87  1  0.69474687  0.50148828  0.30407948  1
  Sc  Sc88  1  0.29242323  0.10148857  0.30628379  1
  Sc  Sc89  1  0.30292892  0.69682439  0.30146838  1
  Sc  Sc90  1  0.50187812  0.30118353  0.32331758  1
  Sc  Sc91  1  0.49353879  0.10786271  0.89469582  1
  Sc  Sc92  1  0.90250703  0.70310294  0.70828024  1
  Sc  Sc93  1  0.09581536  0.30017857  0.10612710  1
  Sc  Sc94  1  0.71138856  0.89751341  0.70142035  1
  Sc  Sc95  1  0.29987457  0.09116958  0.49396401  1
  Sc  Sc96  1  0.09352136  0.70286288  0.30849187  1
  Sc  Sc97  1  0.70474006  0.89874379  0.30314798  1
  Sc  Sc98  1  0.09801497  0.70453442  0.49955530  1
  Sc  Sc99  1  0.49971888  0.90571013  0.49866914  1
  Nb  Nb100  1  0.29976920  0.90221430  0.29995768  1
  Nb  Nb101  1  0.10195875  0.90130033  0.10011339  1
  Nb  Nb102  1  0.89546236  0.49948424  0.50569279  1
  Nb  Nb103  1  0.70608381  0.30009871  0.09811014  1
  Nb  Nb104  1  0.71068719  0.69641279  0.89673043  1
  Nb  Nb105  1  0.90186425  0.70572193  0.90044465  1
  Nb  Nb106  1  0.10207187  0.30523640  0.69518160  1
  Nb  Nb107  1  0.09706817  0.29643818  0.49565859  1
  Nb  Nb108  1  0.89214893  0.29752402  0.10086443  1
  Nb  Nb109  1  0.89086157  0.70825571  0.29324446  1
  Nb  Nb110  1  0.70153845  0.30703217  0.90431384  1
  Nb  Nb111  1  0.50006774  0.49395126  0.30218573  1
  Nb  Nb112  1  0.68929699  0.69679399  0.69998847  1
  Nb  Nb113  1  0.10265279  0.10840852  0.49563028  1
  Nb  Nb114  1  0.90081414  0.89987568  0.50272247  1
  Nb  Nb115  1  0.10283007  0.49525034  0.70516306  1
  Nb  Nb116  1  0.90233408  0.09493498  0.29631553  1
  Nb  Nb117  1  0.50074233  0.70182075  0.69684160  1
  Nb  Nb118  1  0.69501056  0.10476251  0.49968118  1
  Nb  Nb119  1  0.69741474  0.50287929  0.90153745  1
  Nb  Nb120  1  0.49825703  0.48055115  0.48899899  1
  Nb  Nb121  1  0.90164268  0.90141986  0.30355384  1
  Nb  Nb122  1  0.49890871  0.30407802  0.50310960  1
  Nb  Nb123  1  0.50504503  0.11027134  0.49642477  1
  Nb  Nb124  1  0.50325676  0.09914111  0.09960090  1
  Nb  Nb125  1  0.19944454  0.59310763  0.59736894  1
  Nb  Nb126  1  0.60664768  0.40454817  0.80935969  1
  Nb  Nb127  1  0.59600696  0.20807999  0.19434126  1
  Nb  Nb128  1  0.59849980  0.00201972  0.79001076  1
  Nb  Nb129  1  0.80450615  0.40258949  0.40810694  1
  Nb  Nb130  1  0.39970886  0.20244951  0.59442740  1
  Nb  Nb131  1  0.40346065  0.00318524  0.00684647  1
  Nb  Nb132  1  0.59663737  0.39137914  0.19604342  1
  Nb  Nb133  1  0.00375039  0.39693695  0.59827872  1
  Nb  Nb134  1  0.40413593  0.59775656  0.59832927  1
  Nb  Nb135  1  0.19300717  0.39715144  0.40283949  1
  Nb  Nb136  1  0.19837871  0.60418527  0.19731367  1
  Nb  Nb137  1  -0.00523838  0.80143813  0.00071950  1
  Nb  Nb138  1  0.39859924  0.79921727  0.39966210  1
  Nb  Nb139  1  0.19873012  0.20400032  0.59661169  1
  Nb  Nb140  1  0.60658061  0.20349749  0.00439868  1
  Nb  Nb141  1  0.60253901  0.00939929  0.59914092  1
  Nb  Nb142  1  0.20312979  0.79984048  0.80396423  1
  Nb  Nb143  1  0.00741563  0.20252178  0.60066026  1
  Nb  Nb144  1  0.40931236  0.19874768  0.20007940  1
  Nb  Nb145  1  0.39969091  0.79666509  0.79545173  1
  Nb  Nb146  1  0.40899020  0.39683689  0.20451767  1
  Nb  Nb147  1  0.80358889  -0.00162945  0.00084599  1
  Nb  Nb148  1  0.40127966  0.00520547  0.19860598  1
  Nb  Nb149  1  0.19739306  0.80207645  0.19920581  1
  Pd  Pd150  1  0.39982441  0.60105040  0.00265918  1
  Pd  Pd151  1  0.00265215  0.01045604  0.59704823  1
  Pd  Pd152  1  -0.00767139  0.60189436  0.39221039  1
  Pd  Pd153  1  0.59867551  0.00500612  0.20891850  1
  Pd  Pd154  1  0.19710026  0.40373975  0.59225877  1
  Pd  Pd155  1  0.21159875  0.40985699  0.21039193  1
  Pd  Pd156  1  0.79474084  0.00735721  0.59995792  1
  Pd  Pd157  1  0.59427720  0.58926169  0.59421237  1
  Pd  Pd158  1  0.80987305  0.40559399  -0.00490850  1
  Pd  Pd159  1  0.79459697  -0.00141634  0.20075695  1
  Pd  Pd160  1  0.60122923  0.00735231  -0.01458494  1
  Pd  Pd161  1  0.20307429  0.59709710  0.00514416  1
  Pd  Pd162  1  0.60393036  0.59601615  0.80084755  1
  Pd  Pd163  1  0.60665269  0.59502668  0.19907580  1
  Pd  Pd164  1  0.40597810  0.39482470  0.79875172  1
  Pd  Pd165  1  0.59474683  0.59639723  0.40661430  1
  Pd  Pd166  1  0.59517644  0.39420567  -0.00113270  1
  Pd  Pd167  1  0.00757213  -0.00534072  0.79435597  1
  Pd  Pd168  1  0.39536052  0.60797910  0.79091860  1
  Pd  Pd169  1  0.19247713  0.20659500  -0.00156811  1
  Pd  Pd170  1  0.79369419  0.19621841  0.20900834  1
  Pd  Pd171  1  0.80294795  0.60264879  0.79692384  1
  Pd  Pd172  1  0.59620733  0.80666602  0.79231992  1
  Pd  Pd173  1  0.80304571  0.00199355  0.39975777  1
  Pd  Pd174  1  0.60518400  0.81325799  0.60646638  1
  Pd  Pd175  1  0.00598902  0.79623391  0.19828045  1
  Pd  Pd176  1  0.80438476  0.80886115  0.00424644  1
  Pd  Pd177  1  0.80758052  0.59425084  -0.00653399  1
  Pd  Pd178  1  0.00450278  0.60458549  0.20671617  1
  Pd  Pd179  1  0.79713111  0.40281775  0.21123944  1
  Pd  Pd180  1  -0.01085459  0.80001989  0.40490975  1
  Pd  Pd181  1  0.19397603  0.79626704  -0.00140145  1
  Pd  Pd182  1  0.79638235  0.19362063  -0.00700912  1
  Pd  Pd183  1  0.60359101  0.40203332  0.60952695  1
  Pd  Pd184  1  -0.00565682  0.40056110  0.39907115  1
  Pd  Pd185  1  0.60239961  0.79007955  -0.00133982  1
  Pd  Pd186  1  -0.00244898  0.79570507  0.59475741  1
  Pd  Pd187  1  0.20458276  0.00175536  0.20068410  1
  Pd  Pd188  1  -0.01034606  -0.00896078  0.00300816  1
  Pd  Pd189  1  0.20348652  0.80479063  0.39187865  1
  Pd  Pd190  1  -0.00088425  0.39443921  0.00028495  1
  Pd  Pd191  1  0.40183698  -0.00603250  0.39749042  1
  Pd  Pd192  1  0.80793525  0.80173905  0.40353850  1
  Pd  Pd193  1  0.00310212  0.59523096  0.60911915  1
  Pd  Pd194  1  0.19271634  0.58990347  0.39606946  1
  Pd  Pd195  1  0.59541775  0.79919923  0.39707826  1
  Pd  Pd196  1  0.00582726  0.20436314  0.79495684  1
  Pd  Pd197  1  -0.00342693  0.00722682  0.40465381  1
  Pd  Pd198  1  0.60565064  0.79210724  0.20493828  1
  Pd  Pd199  1  0.80331745  0.79144315  0.60426392  1
  Rh  Rh200  1  0.39040210  0.20628385  0.78837463  1
  Rh  Rh201  1  0.80512043  0.59488109  0.39592159  1
  Rh  Rh202  1  0.40667810  0.39947409  0.60671658  1
  Rh  Rh203  1  0.79282134  0.78804234  0.79076103  1
  Rh  Rh204  1  0.80250922  0.19850273  0.39750073  1
  Rh  Rh205  1  0.79286727  0.80391807  0.20299134  1
  Rh  Rh206  1  0.39597087  0.79322182  0.59763491  1
  Rh  Rh207  1  0.19894831  0.60322478  0.78971868  1
  Rh  Rh208  1  0.19489711  0.00883272  0.59201529  1
  Rh  Rh209  1  0.60483380  -0.00369135  0.40899957  1
  Rh  Rh210  1  0.20200359  0.20536163  0.79332017  1
  Rh  Rh211  1  0.39250080  0.58719580  0.19364947  1
  Rh  Rh212  1  0.19699651  -0.00845221  0.80262909  1
  Rh  Rh213  1  0.39464594  0.20085109  0.40231098  1
  Rh  Rh214  1  0.79998667  0.60884517  0.61056883  1
  Rh  Rh215  1  0.20812164  0.00799547  -0.00106260  1
  Rh  Rh216  1  0.39426854  0.40282447  -0.00115455  1
  Rh  Rh217  1  0.00085398  0.00577629  0.20212255  1
  Rh  Rh218  1  0.19939707  0.19566718  0.19807491  1
  Rh  Rh219  1  0.01108117  0.80584909  0.80619150  1
  Rh  Rh220  1  0.79295822  0.00081388  0.80320218  1
  Rh  Rh221  1  0.40925831  -0.00835949  0.81267489  1
  Rh  Rh222  1  0.41088244  0.80143226  -0.01115300  1
  Rh  Rh223  1  0.19579423  0.39859913  0.80695110  1
  Rh  Rh224  1  0.79930912  0.20481433  0.80664591  1
  Rh  Rh225  1  0.80636376  0.39628824  0.59575368  1
  Rh  Rh226  1  0.38874632  0.39323501  0.38937155  1
  Rh  Rh227  1  0.60567619  0.60642843  -0.00118416  1
  Rh  Rh228  1  0.20349086  0.20462714  0.40458220  1
  Rh  Rh229  1  0.19205714  0.79105159  0.60513364  1
  Rh  Rh230  1  0.61275447  0.39735015  0.39878587  1
  Rh  Rh231  1  -0.00842811  0.18847318  0.39989399  1
  Rh  Rh232  1  0.41426322  0.60354286  0.41199793  1
  Rh  Rh233  1  0.40054913  0.19195084  0.00426149  1
  Rh  Rh234  1  0.60700278  0.20712390  0.81306917  1
  Rh  Rh235  1  0.79507848  0.59460616  0.20307517  1
  Rh  Rh236  1  -0.00913622  0.60336894  -0.00491725  1
  Rh  Rh237  1  0.19462351  0.39788662  -0.00504396  1
  Rh  Rh238  1  -0.01055594  0.39112578  0.19681688  1
  Rh  Rh239  1  0.59271501  0.20130769  0.59889340  1
  Rh  Rh240  1  0.00169748  0.40277737  0.79332699  1
  Rh  Rh241  1  0.79376811  0.40359849  0.80720872  1
  Rh  Rh242  1  0.00211168  0.20949600  0.00468555  1
  Rh  Rh243  1  0.60757313  0.20759016  0.39953623  1
  Rh  Rh244  1  0.19444122  -0.00325668  0.40090137  1
  Rh  Rh245  1  0.40771177  0.01371018  0.58621187  1
  Rh  Rh246  1  0.80781245  0.19754537  0.59941492  1
  Rh  Rh247  1  -0.00315112  0.59529133  0.79849383  1
  Rh  Rh248  1  0.39584348  0.80848724  0.21364633  1
  Rh  Rh249  1  -0.00016103  0.19801875  0.19810144  1
