# generated using pymatgen
data_ZrScNbPdRh
_symmetry_space_group_name_H-M   'P 1'
_cell_length_a   16.56242412
_cell_length_b   16.56701236
_cell_length_c   16.57460651
_cell_angle_alpha   90.04553050
_cell_angle_beta   89.99723474
_cell_angle_gamma   90.00461812
_symmetry_Int_Tables_number   1
_chemical_formula_structural   ZrScNbPdRh
_chemical_formula_sum   'Zr50 Sc50 Nb50 Pd50 Rh50'
_cell_volume   4547.90292056
_cell_formula_units_Z   50
loop_
 _symmetry_equiv_pos_site_id
 _symmetry_equiv_pos_as_xyz
  1  'x, y, z'
loop_
 _atom_site_type_symbol
 _atom_site_label
 _atom_site_symmetry_multiplicity
 _atom_site_fract_x
 _atom_site_fract_y
 _atom_site_fract_z
 _atom_site_occupancy
  Zr  Zr0  1  0.70223822  0.30458267  0.69964932  1
  Zr  Zr1  1  0.50133032  0.30021128  0.49297378  1
  Zr  Zr2  1  0.71021470  0.50648179  0.49634055  1
  Zr  Zr3  1  0.30226497  0.50443260  0.10498448  1
  Zr  Zr4  1  0.49800730  0.90003593  0.69526387  1
  Zr  Zr5  1  0.50282369  0.29444195  0.29811662  1
  Zr  Zr6  1  0.29882987  0.69911141  0.10439726  1
  Zr  Zr7  1  0.49823862  0.09504730  0.50415112  1
  Zr  Zr8  1  0.89979420  0.69497864  0.10242452  1
  Zr  Zr9  1  0.10393265  0.09995883  0.29789610  1
  Zr  Zr10  1  0.30092514  0.29713940  0.70609094  1
  Zr  Zr11  1  0.49739491  0.49891181  0.89561315  1
  Zr  Zr12  1  0.89770062  0.10076610  0.51410335  1
  Zr  Zr13  1  0.69316239  0.69168796  0.70156675  1
  Zr  Zr14  1  0.49165695  0.10227968  0.29732935  1
  Zr  Zr15  1  0.50548404  0.29601393  0.69516951  1
  Zr  Zr16  1  0.90861782  0.89968675  0.30175584  1
  Zr  Zr17  1  0.31016249  0.50104757  0.70107425  1
  Zr  Zr18  1  0.70304771  0.90239540  0.30728866  1
  Zr  Zr19  1  0.09438833  0.10043695  0.89149774  1
  Zr  Zr20  1  0.70124823  0.90454255  0.50579689  1
  Zr  Zr21  1  0.70366850  0.71786164  0.90185235  1
  Zr  Zr22  1  0.71076738  0.10162362  0.69360220  1
  Zr  Zr23  1  0.30135688  0.09767068  0.30825169  1
  Zr  Zr24  1  0.09780320  0.71319535  0.70693993  1
  Zr  Zr25  1  0.49613017  0.50391502  0.30754733  1
  Zr  Zr26  1  0.09981532  0.49127421  0.49626462  1
  Zr  Zr27  1  0.90938096  0.10046415  0.70363720  1
  Zr  Zr28  1  0.50000521  0.89961994  0.30848186  1
  Zr  Zr29  1  0.49625373  0.09707904  0.69877884  1
  Zr  Zr30  1  0.89857053  0.70275218  0.89298104  1
  Zr  Zr31  1  0.89933277  0.50193521  0.11044248  1
  Zr  Zr32  1  0.29697208  0.10025021  0.11149413  1
  Zr  Zr33  1  0.90126084  0.10557959  0.09711220  1
  Zr  Zr34  1  0.09990495  0.10312213  0.09620824  1
  Zr  Zr35  1  0.70134628  0.28974602  0.90072800  1
  Zr  Zr36  1  0.51090515  0.90846316  0.89459008  1
  Zr  Zr37  1  0.49768631  0.29392053  0.90363909  1
  Zr  Zr38  1  0.11066048  0.29640525  0.89668748  1
  Zr  Zr39  1  0.30012809  0.48625887  0.90343888  1
  Zr  Zr40  1  0.30544854  0.29807674  0.89951291  1
  Zr  Zr41  1  0.09517351  0.30620303  0.30741088  1
  Zr  Zr42  1  0.88562274  0.90080944  0.89718099  1
  Zr  Zr43  1  0.89815898  0.29831434  0.10441936  1
  Zr  Zr44  1  0.50681192  0.50459583  0.50217314  1
  Zr  Zr45  1  0.09329716  0.50487469  0.10581881  1
  Zr  Zr46  1  0.29643803  0.30062564  0.50262936  1
  Zr  Zr47  1  0.50475381  0.09772165  0.89875980  1
  Zr  Zr48  1  0.70160723  0.09369071  0.89963781  1
  Zr  Zr49  1  0.70266071  0.30136233  0.29930942  1
  Sc  Sc50  1  0.30083416  0.10233987  0.90144656  1
  Sc  Sc51  1  0.10023113  0.48114376  0.68844679  1
  Sc  Sc52  1  0.69993834  0.90031009  0.69883505  1
  Sc  Sc53  1  0.70376010  0.10433369  0.30308415  1
  Sc  Sc54  1  0.50202412  0.49001543  0.09723899  1
  Sc  Sc55  1  0.09788421  0.70651408  0.89756850  1
  Sc  Sc56  1  0.09663177  0.29346575  0.10537944  1
  Sc  Sc57  1  0.30145501  0.90252038  0.89995083  1
  Sc  Sc58  1  0.50087922  0.89695797  0.50162025  1
  Sc  Sc59  1  0.30072621  0.70818922  0.50034040  1
  Sc  Sc60  1  0.89853610  0.90933170  0.09849424  1
  Sc  Sc61  1  0.70150525  0.10516722  0.09917138  1
  Sc  Sc62  1  0.29399963  0.49822676  0.49362616  1
  Sc  Sc63  1  0.89832883  0.49512304  0.29854018  1
  Sc  Sc64  1  0.89860323  0.29029773  0.69475294  1
  Sc  Sc65  1  0.70519246  0.68945114  0.31004829  1
  Sc  Sc66  1  0.89801282  0.90390339  0.70115594  1
  Sc  Sc67  1  0.70058078  0.29901275  0.49645689  1
  Sc  Sc68  1  0.90748318  0.69585926  0.29796502  1
  Sc  Sc69  1  0.89422240  0.10377009  0.89948526  1
  Sc  Sc70  1  0.10081694  0.70216744  0.10803038  1
  Sc  Sc71  1  0.50371986  0.29443092  0.10070457  1
  Sc  Sc72  1  0.29687382  0.89718847  0.69581563  1
  Sc  Sc73  1  0.09663803  0.31025226  0.50731420  1
  Sc  Sc74  1  0.89488133  0.10024763  0.29166126  1
  Sc  Sc75  1  0.10230576  0.90418057  0.10333789  1
  Sc  Sc76  1  0.49839898  0.70054229  0.50207593  1
  Sc  Sc77  1  0.49997694  0.69287889  0.31382070  1
  Sc  Sc78  1  0.10300269  0.89656827  0.48496468  1
  Sc  Sc79  1  0.30317974  0.28926531  0.31113439  1
  Sc  Sc80  1  0.70508714  0.69703795  0.50626082  1
  Sc  Sc81  1  0.89641195  0.30336268  0.29711109  1
  Sc  Sc82  1  0.69446665  0.50008816  0.88171201  1
  Sc  Sc83  1  0.10677925  0.70613073  0.29978097  1
  Sc  Sc84  1  0.69403055  0.29852737  0.10339692  1
  Sc  Sc85  1  0.30102927  0.90353724  0.50153290  1
  Sc  Sc86  1  0.88686574  0.70691039  0.69976203  1
  Sc  Sc87  1  0.10202038  0.90078660  0.89421963  1
  Sc  Sc88  1  0.09818549  0.09133896  0.50195657  1
  Sc  Sc89  1  0.50014326  0.10270332  0.10253924  1
  Sc  Sc90  1  0.88257441  0.49403911  0.69628628  1
  Sc  Sc91  1  0.29994994  0.29867870  0.09050651  1
  Sc  Sc92  1  0.29917170  0.71061644  0.89489475  1
  Sc  Sc93  1  0.29850276  0.89984057  0.09549433  1
  Sc  Sc94  1  0.29884140  0.90251571  0.30580399  1
  Sc  Sc95  1  0.70064579  0.89788755  0.08063304  1
  Sc  Sc96  1  0.90013543  0.31054609  0.49937238  1
  Sc  Sc97  1  0.50070831  0.90068859  0.08737593  1
  Sc  Sc98  1  0.50286270  0.71017594  0.89073055  1
  Sc  Sc99  1  0.09800081  0.90822094  0.70776640  1
  Nb  Nb100  1  0.09307865  0.10709931  0.70103281  1
  Nb  Nb101  1  0.70544720  0.50027600  0.29492679  1
  Nb  Nb102  1  0.29748583  0.51023166  0.29763496  1
  Nb  Nb103  1  0.29834487  0.69916802  0.69825804  1
  Nb  Nb104  1  0.09559946  0.90048867  0.30523653  1
  Nb  Nb105  1  0.90268446  0.50535099  0.50001195  1
  Nb  Nb106  1  0.70383414  0.09494028  0.50289061  1
  Nb  Nb107  1  0.89826957  0.69626281  0.50105078  1
  Nb  Nb108  1  0.09630494  0.69967640  0.50164388  1
  Nb  Nb109  1  0.29789643  0.09741850  0.50238847  1
  Nb  Nb110  1  0.48781021  0.68892177  0.69574815  1
  Nb  Nb111  1  0.09862343  0.49968969  0.89934789  1
  Nb  Nb112  1  0.69964113  0.70147711  0.09948879  1
  Nb  Nb113  1  0.70419558  0.50243373  0.10248743  1
  Nb  Nb114  1  0.10424818  0.49966843  0.30507898  1
  Nb  Nb115  1  0.30077189  0.09554419  0.68826410  1
  Nb  Nb116  1  0.50266461  0.69820405  0.10053037  1
  Nb  Nb117  1  0.51107024  0.51063849  0.69836635  1
  Nb  Nb118  1  0.09562712  0.28946441  0.69973240  1
  Nb  Nb119  1  0.68311395  0.50042220  0.69152908  1
  Nb  Nb120  1  0.69694002  0.90569413  0.89763987  1
  Nb  Nb121  1  0.30688161  0.68556533  0.29153520  1
  Nb  Nb122  1  0.90198086  0.50194554  0.90236271  1
  Nb  Nb123  1  0.89615491  0.30350594  0.90073923  1
  Nb  Nb124  1  0.90147523  0.89429910  0.49924993  1
  Nb  Nb125  1  0.20431118  0.40595818  0.20867067  1
  Nb  Nb126  1  0.19423565  0.60652586  0.60543586  1
  Nb  Nb127  1  0.79374672  0.79965428  0.20215520  1
  Nb  Nb128  1  0.40190574  0.60312778  0.00094653  1
  Nb  Nb129  1  0.60093192  0.79670933  0.20033524  1
  Nb  Nb130  1  0.60083274  -0.00822790  0.20248685  1
  Nb  Nb131  1  -0.00535832  0.80075030  -0.00139793  1
  Nb  Nb132  1  0.60471512  0.60032203  0.19516496  1
  Nb  Nb133  1  0.00423186  0.59815468  0.40775460  1
  Nb  Nb134  1  0.40856474  0.40331258  0.60147480  1
  Nb  Nb135  1  0.80166025  0.40673854  -0.00180131  1
  Nb  Nb136  1  0.19673760  0.59594080  0.79752141  1
  Nb  Nb137  1  -0.00403761  0.40226536  -0.00625969  1
  Nb  Nb138  1  0.40595553  0.79283529  0.20178911  1
  Nb  Nb139  1  0.39462795  0.40221967  0.20745189  1
  Nb  Nb140  1  -0.00209911  0.79675258  0.59154302  1
  Nb  Nb141  1  -0.00028674  0.60223997  0.60080583  1
  Nb  Nb142  1  0.00237743  0.59006727  0.79531909  1
  Nb  Nb143  1  0.80869883  0.80111157  0.40235273  1
  Nb  Nb144  1  0.19691352  0.19358434  0.60681124  1
  Nb  Nb145  1  -0.00128247  0.19870415  0.40200512  1
  Nb  Nb146  1  0.60276266  0.60323048  0.00228793  1
  Nb  Nb147  1  0.20159250  0.59719644  -0.00587089  1
  Nb  Nb148  1  0.79426516  0.59677733  -0.00014761  1
  Nb  Nb149  1  -0.00282309  0.39886827  0.80546940  1
  Pd  Pd150  1  0.79701779  0.39840447  0.59554957  1
  Pd  Pd151  1  -0.00150860  -0.00744035  -0.00833948  1
  Pd  Pd152  1  0.39152399  0.00071380  0.79798211  1
  Pd  Pd153  1  0.59566031  0.79310062  0.60264092  1
  Pd  Pd154  1  0.20818384  0.18857984  0.79509552  1
  Pd  Pd155  1  0.19360014  0.80345993  0.59920255  1
  Pd  Pd156  1  0.78946025  -0.00544926  0.19202589  1
  Pd  Pd157  1  0.39963373  0.19243796  0.00543320  1
  Pd  Pd158  1  0.20002688  0.00387918  -0.00371434  1
  Pd  Pd159  1  0.59867033  0.79959924  0.78845728  1
  Pd  Pd160  1  0.60837512  0.40425306  -0.00493999  1
  Pd  Pd161  1  0.20764450  0.80708780  0.20820607  1
  Pd  Pd162  1  0.00051750  0.20700379  -0.00730196  1
  Pd  Pd163  1  0.60207367  0.19429307  0.79615752  1
  Pd  Pd164  1  -0.00588725  0.01064590  0.40046081  1
  Pd  Pd165  1  0.39791175  0.00488818  0.00293169  1
  Pd  Pd166  1  0.80939230  0.20093432  0.40531122  1
  Pd  Pd167  1  0.19438199  0.40235103  0.79304678  1
  Pd  Pd168  1  0.20477388  0.21180340  0.20198156  1
  Pd  Pd169  1  0.39441828  0.60452775  0.81065356  1
  Pd  Pd170  1  0.00650021  -0.01267033  0.59810070  1
  Pd  Pd171  1  0.19936746  -0.00787354  0.20593098  1
  Pd  Pd172  1  0.40471103  0.79627323  0.00076234  1
  Pd  Pd173  1  0.39296988  0.79574525  0.39548931  1
  Pd  Pd174  1  0.79878095  0.59615720  0.79839202  1
  Pd  Pd175  1  0.80076925  0.39884207  0.80164267  1
  Pd  Pd176  1  0.60775400  0.19745474  0.59394904  1
  Pd  Pd177  1  0.59825955  0.00906020  0.39757094  1
  Pd  Pd178  1  0.41313276  0.39695188  0.79114655  1
  Pd  Pd179  1  0.19098422  -0.00152712  0.60057694  1
  Pd  Pd180  1  0.00442826  0.00274750  0.19974948  1
  Pd  Pd181  1  0.39449928  0.40374689  0.39959759  1
  Pd  Pd182  1  0.20542127  0.00482797  0.79733533  1
  Pd  Pd183  1  0.61017226  0.79078445  0.40207086  1
  Pd  Pd184  1  0.80910948  0.00067176  0.40408489  1
  Pd  Pd185  1  0.59510087  0.39404976  0.80183622  1
  Pd  Pd186  1  0.60872048  0.40542470  0.39923781  1
  Pd  Pd187  1  0.59592106  0.40608458  0.20513352  1
  Pd  Pd188  1  0.39807103  0.80596940  0.79411240  1
  Pd  Pd189  1  0.40588829  -0.01344675  0.19525796  1
  Pd  Pd190  1  0.18992318  0.40109926  0.01291032  1
  Pd  Pd191  1  0.19014751  0.79670033  -0.00161920  1
  Pd  Pd192  1  0.60270492  0.19085265  0.40135468  1
  Pd  Pd193  1  0.39545280  0.20401998  0.59548311  1
  Pd  Pd194  1  0.20753640  0.79533777  0.39363243  1
  Pd  Pd195  1  0.39138559  0.59653480  0.58899608  1
  Pd  Pd196  1  -0.00403431  0.80378618  0.19248267  1
  Pd  Pd197  1  0.00215253  0.60621479  -0.00720506  1
  Pd  Pd198  1  0.18826582  0.19927926  0.41483210  1
  Pd  Pd199  1  0.19921572  0.60771045  0.40700159  1
  Rh  Rh200  1  0.60183582  0.18921553  0.20385072  1
  Rh  Rh201  1  0.60216715  0.00259323  0.60234368  1
  Rh  Rh202  1  0.20042435  -0.00237265  0.39796195  1
  Rh  Rh203  1  -0.00646988  0.20742334  0.80697726  1
  Rh  Rh204  1  0.39850212  0.00168966  0.40862009  1
  Rh  Rh205  1  0.39412432  0.21064500  0.19642022  1
  Rh  Rh206  1  0.79565113  0.60701555  0.20190034  1
  Rh  Rh207  1  0.79841975  0.00643425  0.00106712  1
  Rh  Rh208  1  0.81093420  0.60003496  0.39378955  1
  Rh  Rh209  1  0.80296246  0.19964708  0.79780871  1
  Rh  Rh210  1  0.80379509  -0.00448879  0.60233964  1
  Rh  Rh211  1  -0.00456728  0.00037905  0.80485448  1
  Rh  Rh212  1  0.79463640  0.39448703  0.19573979  1
  Rh  Rh213  1  0.41516398  0.59773471  0.19667041  1
  Rh  Rh214  1  0.79970993  0.59800977  0.60735603  1
  Rh  Rh215  1  0.40139576  0.79894634  0.60370388  1
  Rh  Rh216  1  0.00771564  0.59970321  0.21840724  1
  Rh  Rh217  1  -0.01228670  0.40103210  0.61054206  1
  Rh  Rh218  1  0.60222581  0.00533703  0.00663993  1
  Rh  Rh219  1  0.39217423  0.60304772  0.40874018  1
  Rh  Rh220  1  0.81092662  0.79701908  0.00823108  1
  Rh  Rh221  1  0.00680110  0.20400567  0.58927490  1
  Rh  Rh222  1  0.39983659  -0.00671757  0.59593888  1
  Rh  Rh223  1  0.59803425  0.60833974  0.80584772  1
  Rh  Rh224  1  0.40002590  0.19145808  0.79881927  1
  Rh  Rh225  1  -0.00330252  0.79253856  0.40212873  1
  Rh  Rh226  1  0.20009490  0.19391595  0.00058983  1
  Rh  Rh227  1  0.59411478  0.80001515  -0.00188383  1
  Rh  Rh228  1  -0.00748006  0.40199211  0.39759237  1
  Rh  Rh229  1  0.00771378  0.39964419  0.19980430  1
  Rh  Rh230  1  0.60539176  0.00352501  0.78997546  1
  Rh  Rh231  1  0.40545956  0.39882797  0.00723417  1
  Rh  Rh232  1  -0.00775457  0.80399614  0.80094365  1
  Rh  Rh233  1  0.79717949  0.20303508  0.19864943  1
  Rh  Rh234  1  0.19001048  0.59807324  0.19838690  1
  Rh  Rh235  1  0.79176465  0.80745361  0.79143170  1
  Rh  Rh236  1  0.59834442  0.40001856  0.59484136  1
  Rh  Rh237  1  0.79841841  0.20519524  0.00349977  1
  Rh  Rh238  1  0.20803993  0.39766912  0.39193249  1
  Rh  Rh239  1  0.20652793  0.80271697  0.79959735  1
  Rh  Rh240  1  0.40144686  0.19229174  0.40909629  1
  Rh  Rh241  1  0.21255845  0.39471734  0.60862924  1
  Rh  Rh242  1  0.60125120  0.60810498  0.59381321  1
  Rh  Rh243  1  0.79947601  0.40519311  0.39906385  1
  Rh  Rh244  1  0.80377870  0.80361292  0.59584394  1
  Rh  Rh245  1  -0.00118701  0.19759472  0.21117335  1
  Rh  Rh246  1  0.60011178  0.19610657  0.00092425  1
  Rh  Rh247  1  0.79821059  0.00164508  0.79569318  1
  Rh  Rh248  1  0.79674857  0.20589837  0.59424895  1
  Rh  Rh249  1  0.60601622  0.59762016  0.40016142  1
