# generated using pymatgen
data_ZrScNbPdRh
_symmetry_space_group_name_H-M   'P 1'
_cell_length_a   16.56335472
_cell_length_b   16.56325618
_cell_length_c   16.56013460
_cell_angle_alpha   90.01306306
_cell_angle_beta   90.05211009
_cell_angle_gamma   89.99973851
_symmetry_Int_Tables_number   1
_chemical_formula_structural   ZrScNbPdRh
_chemical_formula_sum   'Zr50 Sc50 Nb50 Pd50 Rh50'
_cell_volume   4543.15645844
_cell_formula_units_Z   50
loop_
 _symmetry_equiv_pos_site_id
 _symmetry_equiv_pos_as_xyz
  1  'x, y, z'
loop_
 _atom_site_type_symbol
 _atom_site_label
 _atom_site_symmetry_multiplicity
 _atom_site_fract_x
 _atom_site_fract_y
 _atom_site_fract_z
 _atom_site_occupancy
  Zr  Zr0  1  0.10366766  0.10564207  0.09952672  1
  Zr  Zr1  1  0.50424124  0.69533207  0.09990127  1
  Zr  Zr2  1  0.49867531  0.09670494  0.70246376  1
  Zr  Zr3  1  0.88751679  0.10378911  0.30261112  1
  Zr  Zr4  1  0.29941038  0.49074814  0.50489299  1
  Zr  Zr5  1  0.50704074  0.70039951  0.88671079  1
  Zr  Zr6  1  0.29951646  0.89993065  0.69864056  1
  Zr  Zr7  1  0.69828865  0.69277801  0.30279341  1
  Zr  Zr8  1  0.30133302  0.08924303  0.69865994  1
  Zr  Zr9  1  0.09656419  0.49412970  0.09969674  1
  Zr  Zr10  1  0.89999953  0.90160859  0.69304331  1
  Zr  Zr11  1  0.51314710  0.29600469  0.70734114  1
  Zr  Zr12  1  0.89169561  0.90166909  0.50361099  1
  Zr  Zr13  1  0.30010143  0.29472537  0.10336808  1
  Zr  Zr14  1  0.89847929  0.70181990  0.29919775  1
  Zr  Zr15  1  0.90623497  0.49047908  0.69872575  1
  Zr  Zr16  1  0.69538816  0.29960225  0.89145462  1
  Zr  Zr17  1  0.49735092  0.29806551  0.10570356  1
  Zr  Zr18  1  0.30056034  0.49387309  0.09996057  1
  Zr  Zr19  1  0.30362033  0.69171613  0.50599657  1
  Zr  Zr20  1  0.30666759  0.49806689  0.89534239  1
  Zr  Zr21  1  0.69797246  0.50068855  0.09645207  1
  Zr  Zr22  1  0.90345756  0.70030369  0.69480002  1
  Zr  Zr23  1  0.49937660  0.29873678  0.29730096  1
  Zr  Zr24  1  0.09595234  0.89346434  0.09849684  1
  Zr  Zr25  1  0.29664740  0.51006125  0.69790636  1
  Zr  Zr26  1  0.30639926  0.70165129  0.09685388  1
  Zr  Zr27  1  0.29960979  0.90460712  0.50588382  1
  Zr  Zr28  1  0.70422718  0.50487439  0.49575348  1
  Zr  Zr29  1  0.30486347  0.10692941  0.49864124  1
  Zr  Zr30  1  0.70343878  0.29649674  0.29636998  1
  Zr  Zr31  1  0.89869964  0.69758633  0.90397278  1
  Zr  Zr32  1  0.10306398  0.29482239  0.50628398  1
  Zr  Zr33  1  0.10166375  0.29519670  0.90427170  1
  Zr  Zr34  1  0.90262378  0.09936099  0.90149189  1
  Zr  Zr35  1  0.70499759  0.10378407  0.90221233  1
  Zr  Zr36  1  0.09965237  0.29099236  0.30296869  1
  Zr  Zr37  1  0.71154513  0.30519795  0.69810286  1
  Zr  Zr38  1  0.89096786  0.30119310  0.50357276  1
  Zr  Zr39  1  0.50096163  0.70003031  0.68866770  1
  Zr  Zr40  1  0.89711422  0.09550083  0.70346846  1
  Zr  Zr41  1  0.09210393  0.09803232  0.90258987  1
  Zr  Zr42  1  0.49996419  0.09707333  0.91071714  1
  Zr  Zr43  1  0.10227158  0.90840545  0.30237503  1
  Zr  Zr44  1  0.30060893  0.30789460  0.90678676  1
  Zr  Zr45  1  0.09204440  0.70373925  0.09584581  1
  Zr  Zr46  1  0.48337411  0.29646249  0.50623552  1
  Zr  Zr47  1  0.30614156  0.29719094  0.30949792  1
  Zr  Zr48  1  0.30447358  0.09107326  0.11000579  1
  Zr  Zr49  1  0.30437150  0.91570409  0.29882771  1
  Sc  Sc50  1  0.50829802  0.91520053  0.30852460  1
  Sc  Sc51  1  0.69536382  0.10529124  0.10712977  1
  Sc  Sc52  1  0.09215443  0.50189857  0.89902876  1
  Sc  Sc53  1  0.30536482  0.68515189  0.29566968  1
  Sc  Sc54  1  0.09755662  0.90483029  0.49759985  1
  Sc  Sc55  1  0.10999029  0.89800221  0.69124309  1
  Sc  Sc56  1  0.90063359  0.88915208  0.10458794  1
  Sc  Sc57  1  0.10253673  0.49185485  0.29862455  1
  Sc  Sc58  1  0.10137691  0.70030282  0.29705425  1
  Sc  Sc59  1  0.30383653  0.30344425  0.67928900  1
  Sc  Sc60  1  0.50044667  0.89588875  0.69670406  1
  Sc  Sc61  1  0.10646844  0.30292050  0.09951654  1
  Sc  Sc62  1  0.29838986  0.09010112  0.89605317  1
  Sc  Sc63  1  0.89113932  0.48887099  0.30220090  1
  Sc  Sc64  1  0.89712681  0.09968876  0.50227714  1
  Sc  Sc65  1  0.69470709  0.49512665  0.90261490  1
  Sc  Sc66  1  0.89755444  0.49382627  0.49758579  1
  Sc  Sc67  1  0.89856573  0.89555962  0.30556504  1
  Sc  Sc68  1  0.69916509  0.30184978  0.10205337  1
  Sc  Sc69  1  0.89918926  0.70320412  0.08967161  1
  Sc  Sc70  1  0.70447321  0.89682223  0.70023536  1
  Sc  Sc71  1  0.50057546  0.09296379  0.50287367  1
  Sc  Sc72  1  0.69783975  0.09661342  0.29967989  1
  Sc  Sc73  1  0.69718380  0.11130255  0.70422880  1
  Sc  Sc74  1  0.09836767  0.70083418  0.90137554  1
  Sc  Sc75  1  0.49756474  0.51382155  0.50806048  1
  Sc  Sc76  1  0.50482693  0.50174887  0.28837710  1
  Sc  Sc77  1  0.69693882  0.50042788  0.30128351  1
  Sc  Sc78  1  0.89726221  0.49929088  0.91223349  1
  Sc  Sc79  1  0.89360902  0.30435093  0.30192343  1
  Sc  Sc80  1  0.50445535  0.51074753  0.71337418  1
  Sc  Sc81  1  0.29647093  0.10067936  0.30171099  1
  Sc  Sc82  1  0.89782083  0.90461166  0.89023830  1
  Sc  Sc83  1  0.09406528  0.10333904  0.69562589  1
  Sc  Sc84  1  0.89462055  0.29968248  0.90316472  1
  Sc  Sc85  1  0.70364841  0.90607147  0.30329666  1
  Sc  Sc86  1  0.29961425  0.49840219  0.30223184  1
  Sc  Sc87  1  0.68661129  0.69959334  0.49679494  1
  Sc  Sc88  1  0.50524649  0.90261438  0.50307620  1
  Sc  Sc89  1  0.70491441  0.10227469  0.50077311  1
  Sc  Sc90  1  0.10231972  0.70004780  0.50649960  1
  Sc  Sc91  1  0.89629649  0.70439708  0.49744895  1
  Sc  Sc92  1  0.68488975  0.70456154  0.70540087  1
  Sc  Sc93  1  0.50487675  0.68895296  0.30048654  1
  Sc  Sc94  1  0.30493429  0.89290033  0.89412249  1
  Sc  Sc95  1  0.49542234  0.91232195  0.09146550  1
  Sc  Sc96  1  0.30327381  0.70545198  0.89207566  1
  Sc  Sc97  1  0.10420519  0.49898336  0.50441462  1
  Sc  Sc98  1  0.49865101  0.30738644  0.90282951  1
  Sc  Sc99  1  0.29445353  0.70498315  0.69804335  1
  Nb  Nb100  1  0.69387900  0.90452586  0.49587952  1
  Nb  Nb101  1  0.10078337  0.69146776  0.70027653  1
  Nb  Nb102  1  0.30167644  0.89775218  0.10270359  1
  Nb  Nb103  1  0.89726318  0.49447216  0.10250327  1
  Nb  Nb104  1  0.49798513  0.70505080  0.50159336  1
  Nb  Nb105  1  0.69919337  0.30079419  0.50169092  1
  Nb  Nb106  1  0.49938662  0.10305729  0.29844015  1
  Nb  Nb107  1  0.10099643  0.10444073  0.48033703  1
  Nb  Nb108  1  0.09425883  0.30560713  0.69855171  1
  Nb  Nb109  1  0.49685845  0.49979821  0.90138902  1
  Nb  Nb110  1  0.50375377  0.89798611  0.89979181  1
  Nb  Nb111  1  0.09901433  0.49914211  0.69881606  1
  Nb  Nb112  1  0.49732300  0.10658189  0.10894929  1
  Nb  Nb113  1  0.70255347  0.89883208  0.89974810  1
  Nb  Nb114  1  0.70468867  0.70246957  0.09291025  1
  Nb  Nb115  1  0.50483235  0.50089274  0.09758022  1
  Nb  Nb116  1  0.70366357  0.89535821  0.09683300  1
  Nb  Nb117  1  0.90013780  0.10209831  0.09971653  1
  Nb  Nb118  1  0.09961528  0.10048588  0.30023761  1
  Nb  Nb119  1  0.90807572  0.30191668  0.69076220  1
  Nb  Nb120  1  0.30148072  0.29962089  0.49744066  1
  Nb  Nb121  1  0.70040368  0.50180574  0.69918943  1
  Nb  Nb122  1  0.10052828  0.89411184  0.89921409  1
  Nb  Nb123  1  0.89471611  0.30922796  0.11064005  1
  Nb  Nb124  1  0.70722737  0.70409788  0.90304514  1
  Nb  Nb125  1  0.39954215  0.79844339  0.39799029  1
  Nb  Nb126  1  0.60608604  0.80274430  -0.00233281  1
  Nb  Nb127  1  0.19683581  -0.01024390  0.00178544  1
  Nb  Nb128  1  -0.00237563  0.59858410  0.39407824  1
  Nb  Nb129  1  0.20189377  0.20708239  0.79494164  1
  Nb  Nb130  1  0.60196792  0.80205020  0.19261675  1
  Nb  Nb131  1  0.21163043  0.80076324  0.39616449  1
  Nb  Nb132  1  0.79638806  0.59871173  0.60770069  1
  Nb  Nb133  1  -0.00841232  0.59434841  0.19927405  1
  Nb  Nb134  1  0.59674522  0.20513663  0.40139021  1
  Nb  Nb135  1  -0.00479161  0.19719611  0.19943398  1
  Nb  Nb136  1  0.19394510  0.39754922  0.79052979  1
  Nb  Nb137  1  0.40472303  0.80558292  0.20408329  1
  Nb  Nb138  1  0.79841242  -0.00070590  0.00482296  1
  Nb  Nb139  1  0.60540348  0.40201273  0.59906419  1
  Nb  Nb140  1  0.20560150  0.59873435  0.00094665  1
  Nb  Nb141  1  0.00507430  0.79787063  0.79345543  1
  Nb  Nb142  1  0.40543625  0.59599004  -0.00314128  1
  Nb  Nb143  1  0.60148762  -0.00421079  0.81033645  1
  Nb  Nb144  1  -0.00168412  0.00948312  0.20082633  1
  Nb  Nb145  1  0.80188468  0.60071904  0.19240058  1
  Nb  Nb146  1  0.39454307  0.20109524  0.79933755  1
  Nb  Nb147  1  0.59747405  0.39403876  0.40915132  1
  Nb  Nb148  1  0.20946102  0.80472361  0.20145488  1
  Nb  Nb149  1  0.79660605  0.59989455  0.79732353  1
  Pd  Pd150  1  0.60774512  -0.00146592  0.60966328  1
  Pd  Pd151  1  0.59988380  0.20317997  0.59211209  1
  Pd  Pd152  1  0.19174131  0.60427400  0.19384778  1
  Pd  Pd153  1  0.00823465  0.80113583  0.60024048  1
  Pd  Pd154  1  -0.01119211  0.20315756  0.39686774  1
  Pd  Pd155  1  -0.00278669  0.39328218  0.00038862  1
  Pd  Pd156  1  0.40013678  0.40418529  0.20146841  1
  Pd  Pd157  1  0.79975527  0.20126400  0.00798075  1
  Pd  Pd158  1  -0.00031972  0.39631306  0.80779589  1
  Pd  Pd159  1  0.18975645  0.01231916  0.59031667  1
  Pd  Pd160  1  0.19221741  0.60342877  0.40102493  1
  Pd  Pd161  1  0.39545936  0.39328152  0.78816290  1
  Pd  Pd162  1  0.40336469  0.79979490  0.79151588  1
  Pd  Pd163  1  0.80460894  0.40709593  0.80545446  1
  Pd  Pd164  1  0.59947373  0.20744984  0.00258656  1
  Pd  Pd165  1  0.01083901  -0.01051288  0.79163851  1
  Pd  Pd166  1  -0.00851131  0.21317856  0.01123433  1
  Pd  Pd167  1  0.20191453  0.39273189  0.20694921  1
  Pd  Pd168  1  0.80614821  0.79533893  0.79700906  1
  Pd  Pd169  1  0.19138271  0.00126614  0.80530200  1
  Pd  Pd170  1  -0.00607570  0.59442409  0.58866524  1
  Pd  Pd171  1  0.00576249  0.00655806  0.59386888  1
  Pd  Pd172  1  0.60853224  -0.00182106  0.00332612  1
  Pd  Pd173  1  0.19720252  0.59832962  0.80779602  1
  Pd  Pd174  1  0.19874315  0.19490588  0.60287336  1
  Pd  Pd175  1  0.78826065  0.00450104  0.60305548  1
  Pd  Pd176  1  0.59796365  0.39312688  0.00151886  1
  Pd  Pd177  1  0.79060890  0.80045369  0.40579374  1
  Pd  Pd178  1  -0.00474848  -0.00917926  0.00616686  1
  Pd  Pd179  1  0.20600299  0.79818184  -0.00127088  1
  Pd  Pd180  1  0.00346328  0.40160971  0.40377094  1
  Pd  Pd181  1  0.00990031  0.79427883  0.40170838  1
  Pd  Pd182  1  -0.00997474  0.00247589  0.39767293  1
  Pd  Pd183  1  0.59233919  0.80086787  0.39193976  1
  Pd  Pd184  1  0.39407861  0.19681107  -0.00434466  1
  Pd  Pd185  1  0.21122465  0.18796072  -0.00589292  1
  Pd  Pd186  1  0.80474662  -0.00347508  0.19364622  1
  Pd  Pd187  1  0.78565438  0.79027706  0.59497756  1
  Pd  Pd188  1  0.79365418  0.79452257  0.20317481  1
  Pd  Pd189  1  0.19652421  0.39616550  0.40232049  1
  Pd  Pd190  1  0.39000029  -0.00449778  -0.00463737  1
  Pd  Pd191  1  0.40466636  0.59693670  0.39808303  1
  Pd  Pd192  1  0.41461188  0.41144414  0.61203211  1
  Pd  Pd193  1  0.41018096  0.41275197  0.39969875  1
  Pd  Pd194  1  0.81019485  0.20433556  0.79521392  1
  Pd  Pd195  1  -0.00508832  0.60264861  0.80158910  1
  Pd  Pd196  1  -0.00341850  0.19367316  0.59520967  1
  Pd  Pd197  1  0.59967411  0.60459302  -0.00889447  1
  Pd  Pd198  1  -0.00170447  0.20630096  0.79725544  1
  Pd  Pd199  1  0.59833134  -0.00385391  0.19435144  1
  Rh  Rh200  1  0.80938091  0.60196953  0.40039600  1
  Rh  Rh201  1  -0.01051699  0.80725175  -0.01624358  1
  Rh  Rh202  1  0.18872016  -0.00407268  0.18999879  1
  Rh  Rh203  1  0.60238017  0.80612107  0.59496583  1
  Rh  Rh204  1  0.00490312  0.40075873  0.59240802  1
  Rh  Rh205  1  0.40588965  0.19187467  0.39873966  1
  Rh  Rh206  1  0.80345116  0.80969255  -0.00453028  1
  Rh  Rh207  1  0.79763348  0.59460799  -0.00037928  1
  Rh  Rh208  1  0.60207203  0.80807311  0.80387550  1
  Rh  Rh209  1  0.00803364  0.80270927  0.21024340  1
  Rh  Rh210  1  0.60493739  0.59859919  0.59771550  1
  Rh  Rh211  1  0.60947768  0.59620309  0.80804401  1
  Rh  Rh212  1  0.60145961  0.40002530  0.20173404  1
  Rh  Rh213  1  0.19958810  0.79558827  0.59529192  1
  Rh  Rh214  1  0.00432965  0.59594655  0.00836135  1
  Rh  Rh215  1  0.20103093  0.20285497  0.20492370  1
  Rh  Rh216  1  0.79030394  0.40788188  0.19938038  1
  Rh  Rh217  1  0.20354214  0.00086041  0.40684747  1
  Rh  Rh218  1  0.60032796  0.40667816  0.79596160  1
  Rh  Rh219  1  0.79303800  0.20116057  0.40332944  1
  Rh  Rh220  1  0.40011421  0.80123253  0.59484446  1
  Rh  Rh221  1  0.79155419  0.00409248  0.80293336  1
  Rh  Rh222  1  0.79736996  0.40641278  0.59911439  1
  Rh  Rh223  1  0.40948311  0.40422627  0.00977975  1
  Rh  Rh224  1  0.19754341  0.59885800  0.59915341  1
  Rh  Rh225  1  0.39969089  0.60080959  0.60597559  1
  Rh  Rh226  1  0.39867238  0.19369895  0.60750243  1
  Rh  Rh227  1  0.41152189  -0.00054818  0.80517872  1
  Rh  Rh228  1  0.79835353  -0.00237330  0.40412075  1
  Rh  Rh229  1  0.00065784  0.39585007  0.20168874  1
  Rh  Rh230  1  0.39514189  0.19603277  0.20510000  1
  Rh  Rh231  1  0.39977543  0.60769014  0.80135557  1
  Rh  Rh232  1  0.40325466  -0.00385036  0.59790005  1
  Rh  Rh233  1  0.61160443  0.60294612  0.19587857  1
  Rh  Rh234  1  0.20437499  0.20064796  0.39918407  1
  Rh  Rh235  1  0.41100678  0.79670025  0.00341158  1
  Rh  Rh236  1  0.41258762  -0.00068307  0.20212419  1
  Rh  Rh237  1  0.19563807  0.39992751  0.60202662  1
  Rh  Rh238  1  0.59980443  0.19759592  0.20654452  1
  Rh  Rh239  1  0.80367429  0.20129252  0.19574500  1
  Rh  Rh240  1  0.40170615  0.59560696  0.19255713  1
  Rh  Rh241  1  0.60467044  0.01203739  0.40478534  1
  Rh  Rh242  1  0.40285197  0.00185232  0.40344148  1
  Rh  Rh243  1  0.80586241  0.19841911  0.60483574  1
  Rh  Rh244  1  0.19471506  0.41054784  -0.01149502  1
  Rh  Rh245  1  0.79129497  0.39536545  0.39922136  1
  Rh  Rh246  1  0.58992847  0.18979544  0.81096331  1
  Rh  Rh247  1  0.59130413  0.59233201  0.40264135  1
  Rh  Rh248  1  0.79661590  0.39384382  0.00103790  1
  Rh  Rh249  1  0.19052175  0.79793559  0.79494902  1
