# generated using pymatgen
data_ZrScNbPdRh
_symmetry_space_group_name_H-M   'P 1'
_cell_length_a   16.55474991
_cell_length_b   16.55834535
_cell_length_c   16.56298752
_cell_angle_alpha   90.00042830
_cell_angle_beta   90.00689328
_cell_angle_gamma   89.98495140
_symmetry_Int_Tables_number   1
_chemical_formula_structural   ZrScNbPdRh
_chemical_formula_sum   'Zr50 Sc50 Nb50 Pd50 Rh50'
_cell_volume   4540.23379562
_cell_formula_units_Z   50
loop_
 _symmetry_equiv_pos_site_id
 _symmetry_equiv_pos_as_xyz
  1  'x, y, z'
loop_
 _atom_site_type_symbol
 _atom_site_label
 _atom_site_symmetry_multiplicity
 _atom_site_fract_x
 _atom_site_fract_y
 _atom_site_fract_z
 _atom_site_occupancy
  Zr  Zr0  1  0.50124901  0.30993105  0.90457531  1
  Zr  Zr1  1  0.89556177  0.30703937  0.30400643  1
  Zr  Zr2  1  0.10373963  0.49247257  0.90240045  1
  Zr  Zr3  1  0.50347663  0.89374737  0.70235678  1
  Zr  Zr4  1  0.09816034  0.09921474  0.50357627  1
  Zr  Zr5  1  0.29507583  0.09009231  0.89240540  1
  Zr  Zr6  1  0.29575518  0.28993690  0.69440849  1
  Zr  Zr7  1  0.09815620  0.90535254  0.10387374  1
  Zr  Zr8  1  0.10673132  0.49154948  0.30496481  1
  Zr  Zr9  1  0.30329227  0.69840040  0.10936080  1
  Zr  Zr10  1  0.10123801  0.89932537  0.49819376  1
  Zr  Zr11  1  0.90237364  0.69689917  0.89734408  1
  Zr  Zr12  1  0.30523077  0.69012339  0.89375466  1
  Zr  Zr13  1  0.89488889  0.30408749  0.50053451  1
  Zr  Zr14  1  0.90292992  0.09893550  0.09536486  1
  Zr  Zr15  1  0.30767167  0.29764346  0.49676939  1
  Zr  Zr16  1  0.30079975  0.50089727  0.49064759  1
  Zr  Zr17  1  0.50017535  0.49760040  0.49741635  1
  Zr  Zr18  1  0.89650428  0.49819950  0.09670409  1
  Zr  Zr19  1  0.49756784  0.50047081  0.10405321  1
  Zr  Zr20  1  0.50505964  0.29495940  0.29415609  1
  Zr  Zr21  1  0.89614337  0.29715399  0.09591715  1
  Zr  Zr22  1  0.49526262  0.70428905  0.30339614  1
  Zr  Zr23  1  0.90241162  0.09909216  0.28884767  1
  Zr  Zr24  1  0.70313523  0.30174691  0.91143370  1
  Zr  Zr25  1  0.49381613  0.69593033  0.49525203  1
  Zr  Zr26  1  0.90032839  0.90507304  0.89651381  1
  Zr  Zr27  1  0.30498250  0.49292398  0.90426117  1
  Zr  Zr28  1  0.29596098  0.30197671  0.90930613  1
  Zr  Zr29  1  0.88667477  0.69824056  0.50022817  1
  Zr  Zr30  1  0.69367354  0.70601380  0.69433217  1
  Zr  Zr31  1  0.69784208  0.89874598  0.08889956  1
  Zr  Zr32  1  0.10366105  0.70386660  0.10915080  1
  Zr  Zr33  1  0.10280845  0.10374218  0.90219411  1
  Zr  Zr34  1  0.30165001  0.69627026  0.69570301  1
  Zr  Zr35  1  0.29783991  0.09939610  0.51748814  1
  Zr  Zr36  1  0.11278231  0.70620108  0.50447343  1
  Zr  Zr37  1  0.49447537  0.49981264  0.29975942  1
  Zr  Zr38  1  0.89933327  0.69423711  0.09879085  1
  Zr  Zr39  1  0.10322966  0.50397503  0.49220555  1
  Zr  Zr40  1  0.89838680  0.90587054  0.30004544  1
  Zr  Zr41  1  0.30009897  0.90099007  0.09890207  1
  Zr  Zr42  1  0.11233097  0.10595262  0.70064742  1
  Zr  Zr43  1  0.70770612  0.09810354  0.89588055  1
  Zr  Zr44  1  0.90173525  0.90885234  0.10217948  1
  Zr  Zr45  1  0.49347604  0.10253276  0.91263770  1
  Zr  Zr46  1  0.69722904  0.30077800  0.49056905  1
  Zr  Zr47  1  0.69354372  0.69261313  0.09335544  1
  Zr  Zr48  1  0.10449188  0.69546728  0.69854431  1
  Zr  Zr49  1  0.49838463  0.69849377  0.69942754  1
  Sc  Sc50  1  0.29808337  0.90036161  0.49550789  1
  Sc  Sc51  1  0.69128595  0.90373449  0.31130892  1
  Sc  Sc52  1  0.49466074  0.89810122  0.48982462  1
  Sc  Sc53  1  0.50265545  0.49933299  0.70235038  1
  Sc  Sc54  1  0.69900454  0.49499168  0.10172820  1
  Sc  Sc55  1  0.90462715  0.29821948  0.90145199  1
  Sc  Sc56  1  0.69528013  0.48811568  0.29532209  1
  Sc  Sc57  1  0.10712919  0.70525974  0.30239208  1
  Sc  Sc58  1  0.91374882  0.49861923  0.90152603  1
  Sc  Sc59  1  0.50062266  0.09951746  0.49397828  1
  Sc  Sc60  1  0.69513985  0.69820855  0.30867678  1
  Sc  Sc61  1  0.50226215  0.90691640  0.09102969  1
  Sc  Sc62  1  0.69408887  0.50788740  0.69301047  1
  Sc  Sc63  1  0.90700543  0.70565557  0.70282347  1
  Sc  Sc64  1  0.49484518  0.09193508  0.69333855  1
  Sc  Sc65  1  0.69740787  0.29608702  0.68755695  1
  Sc  Sc66  1  0.68529125  0.49449014  0.90682029  1
  Sc  Sc67  1  0.30481092  0.11835356  0.30865167  1
  Sc  Sc68  1  0.69719671  0.10258384  0.50094107  1
  Sc  Sc69  1  0.09748285  0.29813637  0.49817542  1
  Sc  Sc70  1  0.30394356  0.49292199  0.10782532  1
  Sc  Sc71  1  0.69676084  0.09834058  0.09514290  1
  Sc  Sc72  1  0.50585306  0.69522256  0.89906078  1
  Sc  Sc73  1  0.68925190  0.09850712  0.30378868  1
  Sc  Sc74  1  0.10256346  0.10350669  0.29690871  1
  Sc  Sc75  1  0.10538156  0.90059184  0.30307763  1
  Sc  Sc76  1  0.30306615  0.29774084  0.10498144  1
  Sc  Sc77  1  0.89183350  0.89292242  0.69934979  1
  Sc  Sc78  1  0.30297391  0.70568160  0.29873804  1
  Sc  Sc79  1  0.29907591  0.50561782  0.70736638  1
  Sc  Sc80  1  0.09181521  0.68916869  0.89043288  1
  Sc  Sc81  1  0.50170193  0.90137406  0.89656859  1
  Sc  Sc82  1  0.09975823  0.50123561  0.71019594  1
  Sc  Sc83  1  0.89436820  0.50637642  0.69537226  1
  Sc  Sc84  1  0.09492141  0.10604916  0.10376175  1
  Sc  Sc85  1  0.89667071  0.49766600  0.31227671  1
  Sc  Sc86  1  0.10613529  0.29160229  0.09423198  1
  Sc  Sc87  1  0.69604467  0.90199711  0.88883303  1
  Sc  Sc88  1  0.09308437  0.88597154  0.69600776  1
  Sc  Sc89  1  0.89329504  0.09853875  0.49999285  1
  Sc  Sc90  1  0.89963583  0.11268652  0.70210332  1
  Sc  Sc91  1  0.50227062  0.30442297  0.69067361  1
  Sc  Sc92  1  0.70319227  0.50761252  0.50154508  1
  Sc  Sc93  1  0.31250910  0.91609782  0.70507609  1
  Sc  Sc94  1  0.09383911  0.29421310  0.70479291  1
  Sc  Sc95  1  0.30691114  0.10926061  0.09038595  1
  Sc  Sc96  1  0.89600232  0.10431856  0.90254255  1
  Sc  Sc97  1  0.70281185  0.09836987  0.70113007  1
  Sc  Sc98  1  0.89573615  0.69727795  0.30125042  1
  Sc  Sc99  1  0.10733469  0.29306546  0.29416595  1
  Nb  Nb100  1  0.69874567  0.70119620  0.90228702  1
  Nb  Nb101  1  0.29805501  0.90368493  0.90280752  1
  Nb  Nb102  1  0.71007834  0.89171122  0.50730034  1
  Nb  Nb103  1  0.69564580  0.70541763  0.50186073  1
  Nb  Nb104  1  0.90224589  0.30768472  0.69877153  1
  Nb  Nb105  1  0.50276386  0.09111929  0.29649216  1
  Nb  Nb106  1  0.29866479  0.69672716  0.50119036  1
  Nb  Nb107  1  0.89718686  0.89902061  0.50183280  1
  Nb  Nb108  1  0.09846412  0.50282347  0.09882235  1
  Nb  Nb109  1  0.49126619  0.49347599  0.90020178  1
  Nb  Nb110  1  0.69690709  0.89962340  0.69680130  1
  Nb  Nb111  1  0.51010282  0.29989312  0.50512273  1
  Nb  Nb112  1  0.90439989  0.50113647  0.49898718  1
  Nb  Nb113  1  0.49792544  0.90202799  0.30538257  1
  Nb  Nb114  1  0.49513239  0.10834438  0.10691803  1
  Nb  Nb115  1  0.50169372  0.29075649  0.09807733  1
  Nb  Nb116  1  0.70154277  0.30452176  0.29607995  1
  Nb  Nb117  1  0.10474322  0.90670057  0.90109466  1
  Nb  Nb118  1  0.49848544  0.70136488  0.10333590  1
  Nb  Nb119  1  0.30387439  0.48397644  0.30047777  1
  Nb  Nb120  1  0.30092868  0.10195998  0.70464724  1
  Nb  Nb121  1  0.70022892  0.30919536  0.10422240  1
  Nb  Nb122  1  0.30724010  0.89977423  0.29911026  1
  Nb  Nb123  1  0.30025672  0.30775729  0.29741640  1
  Nb  Nb124  1  0.10347261  0.30208486  0.89990644  1
  Nb  Nb125  1  0.00400727  0.59187110  0.20183059  1
  Nb  Nb126  1  0.79317377  0.60037518  0.80448836  1
  Nb  Nb127  1  0.20002992  0.59972430  0.00348181  1
  Nb  Nb128  1  -0.00302086  -0.00163860  0.60158496  1
  Nb  Nb129  1  0.80200807  0.79661535  -0.00094536  1
  Nb  Nb130  1  0.59626326  0.80043429  0.19819181  1
  Nb  Nb131  1  0.40058756  0.19957378  0.80094288  1
  Nb  Nb132  1  0.00158248  0.40384691  0.19715829  1
  Nb  Nb133  1  0.19981365  0.79706555  -0.00702727  1
  Nb  Nb134  1  0.59423864  0.20055426  0.80356000  1
  Nb  Nb135  1  0.00207180  0.80260621  -0.00182714  1
  Nb  Nb136  1  0.79209331  0.80125279  0.19447435  1
  Nb  Nb137  1  0.79243244  0.20700779  0.19982768  1
  Nb  Nb138  1  -0.00637876  0.80354199  0.40713174  1
  Nb  Nb139  1  -0.00109684  0.40515825  0.59738845  1
  Nb  Nb140  1  -0.00576915  0.19975674  0.39888011  1
  Nb  Nb141  1  0.20538015  0.80443922  0.80750680  1
  Nb  Nb142  1  0.39586070  0.79746517  -0.00097971  1
  Nb  Nb143  1  0.60614092  -0.01187215  0.59776020  1
  Nb  Nb144  1  0.00499606  0.00085156  0.79542867  1
  Nb  Nb145  1  0.19710359  0.40121042  0.59727946  1
  Nb  Nb146  1  0.21395337  0.00312177  0.20373885  1
  Nb  Nb147  1  0.00055320  0.59813272  0.59047782  1
  Nb  Nb148  1  0.79991348  0.40224978  0.79763694  1
  Nb  Nb149  1  0.40465794  0.00447268  0.20567206  1
  Pd  Pd150  1  0.79944998  0.59813359  0.20787097  1
  Pd  Pd151  1  0.19524541  -0.01021518  0.60960891  1
  Pd  Pd152  1  0.39243451  0.40657032  0.60430950  1
  Pd  Pd153  1  0.60063630  0.60390291  0.20532076  1
  Pd  Pd154  1  0.19467796  0.39418615  0.19186148  1
  Pd  Pd155  1  0.20058716  0.39292240  0.79127185  1
  Pd  Pd156  1  0.60623484  0.40509940  0.59593064  1
  Pd  Pd157  1  0.60120526  0.59802256  0.80386705  1
  Pd  Pd158  1  0.20903587  0.60501827  0.38888950  1
  Pd  Pd159  1  0.39784478  0.80183600  0.80676442  1
  Pd  Pd160  1  0.79980226  0.40444896  0.60171440  1
  Pd  Pd161  1  0.78508581  0.00223967  0.20174263  1
  Pd  Pd162  1  0.41100104  0.38910687  0.39935546  1
  Pd  Pd163  1  0.41025713  0.81086759  0.19442344  1
  Pd  Pd164  1  0.00210298  0.61222868  0.39822559  1
  Pd  Pd165  1  0.79927577  0.20045350  0.60055977  1
  Pd  Pd166  1  0.60352461  0.59453965  0.39972610  1
  Pd  Pd167  1  -0.00053584  0.19741028  0.80483577  1
  Pd  Pd168  1  0.20304229  0.59187120  0.20455695  1
  Pd  Pd169  1  0.59531235  0.00912454  0.79387913  1
  Pd  Pd170  1  0.79323424  0.21338880  0.79673010  1
  Pd  Pd171  1  0.59619832  0.20000103  0.39814889  1
  Pd  Pd172  1  0.79602211  0.59276519  -0.01086909  1
  Pd  Pd173  1  0.59186174  0.80294754  0.58884854  1
  Pd  Pd174  1  0.39938525  0.60217722  0.00420090  1
  Pd  Pd175  1  0.59097641  0.59329592  -0.00203601  1
  Pd  Pd176  1  0.21588216  0.81124319  0.61126359  1
  Pd  Pd177  1  0.41041479  0.19784363  0.60223108  1
  Pd  Pd178  1  0.60929757  0.39316172  0.79357699  1
  Pd  Pd179  1  0.60807448  0.19921608  0.19751992  1
  Pd  Pd180  1  -0.00106978  0.00217713  0.40236372  1
  Pd  Pd181  1  0.79225890  0.79547923  0.80271587  1
  Pd  Pd182  1  -0.00772986  0.79535201  0.20714576  1
  Pd  Pd183  1  0.40092932  0.59094960  0.60157599  1
  Pd  Pd184  1  0.79960092  0.80230590  0.39114670  1
  Pd  Pd185  1  0.79328796  0.00490177  0.40079117  1
  Pd  Pd186  1  0.59712081  -0.00761173  0.19700828  1
  Pd  Pd187  1  0.41098125  0.20442067  0.39979715  1
  Pd  Pd188  1  0.39486990  0.80575837  0.59402316  1
  Pd  Pd189  1  0.00511686  0.39041207  0.00570183  1
  Pd  Pd190  1  0.59904392  0.00467019  -0.00323421  1
  Pd  Pd191  1  0.80152604  0.00321630  0.60736137  1
  Pd  Pd192  1  0.20962646  0.00635223  0.39309359  1
  Pd  Pd193  1  0.80100375  0.19228762  0.39146168  1
  Pd  Pd194  1  0.19883347  0.00654769  0.01200802  1
  Pd  Pd195  1  0.19541429  0.20175363  0.40496547  1
  Pd  Pd196  1  0.39782666  0.39191010  0.79001383  1
  Pd  Pd197  1  0.79045173  0.59390166  0.39617542  1
  Pd  Pd198  1  0.60558471  0.19919888  -0.00018236  1
  Pd  Pd199  1  0.39296899  0.00726695  0.39943550  1
  Rh  Rh200  1  0.20261253  0.81299223  0.20299786  1
  Rh  Rh201  1  0.19667063  0.20808942  0.59435331  1
  Rh  Rh202  1  -0.00987098  0.21151950  0.20648817  1
  Rh  Rh203  1  0.39174536  0.79548197  0.40509112  1
  Rh  Rh204  1  0.20621882  0.20717943  0.80737334  1
  Rh  Rh205  1  0.40977957  0.59381446  0.79799125  1
  Rh  Rh206  1  0.60121910  0.80233348  0.40185698  1
  Rh  Rh207  1  0.39673823  0.59575544  0.20798432  1
  Rh  Rh208  1  0.19981403  0.60204674  0.80657568  1
  Rh  Rh209  1  0.80689467  0.39809960  0.19788277  1
  Rh  Rh210  1  0.79501348  0.19830998  0.00944649  1
  Rh  Rh211  1  0.00265386  0.20128596  -0.00614802  1
  Rh  Rh212  1  0.00063391  0.00259937  -0.00870869  1
  Rh  Rh213  1  0.80170183  0.40658518  -0.00965923  1
  Rh  Rh214  1  0.80164675  0.79407968  0.60530439  1
  Rh  Rh215  1  -0.00890010  0.79692061  0.58872119  1
  Rh  Rh216  1  0.59713650  0.18768435  0.60355162  1
  Rh  Rh217  1  0.01409402  0.00268536  0.20670757  1
  Rh  Rh218  1  0.39997868  0.19946068  0.20536891  1
  Rh  Rh219  1  0.78980299  0.40827318  0.40604269  1
  Rh  Rh220  1  0.21040691  0.19463620  0.19725227  1
  Rh  Rh221  1  0.40503546  0.39639019  0.01186350  1
  Rh  Rh222  1  0.59913233  0.40078654  0.40107750  1
  Rh  Rh223  1  0.20229950  0.38944936  0.40500819  1
  Rh  Rh224  1  0.60278656  -0.00613331  0.41395264  1
  Rh  Rh225  1  0.40614596  0.39038433  0.19829534  1
  Rh  Rh226  1  0.59209204  0.40230781  0.01159227  1
  Rh  Rh227  1  -0.00910090  0.59318153  0.78672223  1
  Rh  Rh228  1  0.80199725  0.60866854  0.60662814  1
  Rh  Rh229  1  -0.00681032  0.40116748  0.79412325  1
  Rh  Rh230  1  0.80894949  0.00014909  0.79327167  1
  Rh  Rh231  1  0.20414811  0.79999410  0.39715503  1
  Rh  Rh232  1  0.19131863  -0.01035591  0.78825916  1
  Rh  Rh233  1  0.40279197  -0.00324997  0.00383884  1
  Rh  Rh234  1  0.40770645  -0.00188210  0.59289772  1
  Rh  Rh235  1  0.60194996  0.79628155  0.80321136  1
  Rh  Rh236  1  0.01120564  0.80909306  0.81103037  1
  Rh  Rh237  1  0.79778099  -0.00354020  -0.00651064  1
  Rh  Rh238  1  0.01211378  0.60899181  0.01020453  1
  Rh  Rh239  1  0.00444362  0.38933910  0.39881017  1
  Rh  Rh240  1  0.39739423  0.20694457  -0.00467658  1
  Rh  Rh241  1  0.19767107  0.58973949  0.59960284  1
  Rh  Rh242  1  0.20102120  0.19791681  -0.00204971  1
  Rh  Rh243  1  0.19948410  0.40449517  0.00773805  1
  Rh  Rh244  1  -0.00560851  0.20174371  0.59279648  1
  Rh  Rh245  1  0.40836185  0.00562560  0.80513551  1
  Rh  Rh246  1  0.59580574  0.79640241  -0.00026312  1
  Rh  Rh247  1  0.59252875  0.39668656  0.19606623  1
  Rh  Rh248  1  0.59371774  0.60343614  0.59319800  1
  Rh  Rh249  1  0.39138229  0.60121424  0.39283750  1
