# generated using pymatgen
data_ZrScNbPdRh
_symmetry_space_group_name_H-M   'P 1'
_cell_length_a   16.55797838
_cell_length_b   16.55667258
_cell_length_c   16.56107368
_cell_angle_alpha   90.02689818
_cell_angle_beta   89.96809766
_cell_angle_gamma   90.02574501
_symmetry_Int_Tables_number   1
_chemical_formula_structural   ZrScNbPdRh
_chemical_formula_sum   'Zr50 Sc50 Nb50 Pd50 Rh50'
_cell_volume   4540.13432346
_cell_formula_units_Z   50
loop_
 _symmetry_equiv_pos_site_id
 _symmetry_equiv_pos_as_xyz
  1  'x, y, z'
loop_
 _atom_site_type_symbol
 _atom_site_label
 _atom_site_symmetry_multiplicity
 _atom_site_fract_x
 _atom_site_fract_y
 _atom_site_fract_z
 _atom_site_occupancy
  Zr  Zr0  1  0.09877633  0.29421799  0.30279172  1
  Zr  Zr1  1  0.29238470  0.69763400  0.28459815  1
  Zr  Zr2  1  0.49872424  0.30066151  0.09632977  1
  Zr  Zr3  1  0.70334372  0.89083624  0.50727777  1
  Zr  Zr4  1  0.09864441  0.51191824  0.49918532  1
  Zr  Zr5  1  0.91013468  0.29587408  0.50114970  1
  Zr  Zr6  1  0.29817245  0.90130818  0.50305459  1
  Zr  Zr7  1  0.69719311  0.89366460  0.89752722  1
  Zr  Zr8  1  0.49593800  0.90619767  0.89473296  1
  Zr  Zr9  1  0.89323696  0.29822262  0.70084415  1
  Zr  Zr10  1  0.50674114  0.70572280  0.30357524  1
  Zr  Zr11  1  0.49712820  0.70157617  0.90139325  1
  Zr  Zr12  1  0.10894474  0.70323367  0.11601261  1
  Zr  Zr13  1  0.68874283  0.88338493  0.29445435  1
  Zr  Zr14  1  0.70637693  0.29750914  0.30540946  1
  Zr  Zr15  1  0.50350826  0.30572061  0.50663719  1
  Zr  Zr16  1  0.90003213  0.29849584  0.30424586  1
  Zr  Zr17  1  0.90060132  0.10737553  0.30023423  1
  Zr  Zr18  1  0.10076353  0.30835627  0.08646428  1
  Zr  Zr19  1  0.70439854  0.89566906  0.69837515  1
  Zr  Zr20  1  0.29801768  0.10255337  0.69763849  1
  Zr  Zr21  1  0.89938717  0.69396739  0.30081031  1
  Zr  Zr22  1  0.09886213  0.90640588  0.49792575  1
  Zr  Zr23  1  0.70468533  0.50208849  0.30498495  1
  Zr  Zr24  1  0.49740765  0.09191222  0.70347083  1
  Zr  Zr25  1  0.50443804  0.50501954  0.09220283  1
  Zr  Zr26  1  0.29637506  0.50330599  0.10590470  1
  Zr  Zr27  1  0.49587608  0.10477157  0.08238698  1
  Zr  Zr28  1  0.10171399  0.91410449  0.89964193  1
  Zr  Zr29  1  0.49040427  0.90325101  0.10244674  1
  Zr  Zr30  1  0.90591164  0.29967003  0.89773809  1
  Zr  Zr31  1  0.29575571  0.10160997  0.49400484  1
  Zr  Zr32  1  0.69821859  0.10166339  0.09828811  1
  Zr  Zr33  1  0.70151838  0.10507310  0.30263404  1
  Zr  Zr34  1  0.50434138  0.69926609  0.50201478  1
  Zr  Zr35  1  0.71061708  0.50286849  0.08959152  1
  Zr  Zr36  1  0.90262831  0.89848886  0.50180617  1
  Zr  Zr37  1  0.70218113  0.69846250  0.10316340  1
  Zr  Zr38  1  0.50077461  0.70413790  0.70460176  1
  Zr  Zr39  1  0.89799391  0.69430646  0.10081802  1
  Zr  Zr40  1  0.29641903  0.89185580  0.09975814  1
  Zr  Zr41  1  0.09730016  0.90351767  0.30420963  1
  Zr  Zr42  1  0.29261149  0.69921526  0.71520577  1
  Zr  Zr43  1  0.49993965  0.89487942  0.70006880  1
  Zr  Zr44  1  0.29725428  0.50270025  0.89374718  1
  Zr  Zr45  1  0.09929887  0.11146842  0.50572839  1
  Zr  Zr46  1  0.48818397  0.30161006  0.30131704  1
  Zr  Zr47  1  0.50259243  0.29678327  0.91057071  1
  Zr  Zr48  1  0.29173829  0.50273923  0.70184035  1
  Zr  Zr49  1  0.90859553  0.89732477  0.90020922  1
  Sc  Sc50  1  0.10136853  0.51407842  0.29925849  1
  Sc  Sc51  1  0.48758159  0.50593636  0.30872683  1
  Sc  Sc52  1  0.50754313  0.50617260  0.89787781  1
  Sc  Sc53  1  0.70835280  0.10252891  0.69267329  1
  Sc  Sc54  1  0.70685909  0.49643090  0.70268031  1
  Sc  Sc55  1  0.90549534  0.49658371  0.50535044  1
  Sc  Sc56  1  0.69942835  0.69314585  0.89715943  1
  Sc  Sc57  1  0.69706277  0.69528179  0.50113761  1
  Sc  Sc58  1  0.10266737  0.48111429  0.89692466  1
  Sc  Sc59  1  0.69398029  0.09406797  0.89975582  1
  Sc  Sc60  1  0.89683977  0.90589562  0.69604259  1
  Sc  Sc61  1  0.90821295  0.30715107  0.10157792  1
  Sc  Sc62  1  0.10041744  0.90841831  0.09731001  1
  Sc  Sc63  1  0.69748647  0.50126420  0.50524503  1
  Sc  Sc64  1  0.90021756  0.69596209  0.89601828  1
  Sc  Sc65  1  0.69911836  0.30752252  0.08787899  1
  Sc  Sc66  1  0.29177924  0.69667310  0.51275714  1
  Sc  Sc67  1  0.70531456  0.70272543  0.69860697  1
  Sc  Sc68  1  0.30302732  0.09326570  0.10161993  1
  Sc  Sc69  1  0.28916196  0.30552298  0.90169334  1
  Sc  Sc70  1  0.10606671  0.69550533  0.69621871  1
  Sc  Sc71  1  0.29667482  0.30048058  0.10836502  1
  Sc  Sc72  1  0.10590049  0.89483007  0.70534868  1
  Sc  Sc73  1  0.10496385  0.10015082  0.30276372  1
  Sc  Sc74  1  0.50201003  0.30547479  0.69333728  1
  Sc  Sc75  1  0.30029088  0.91710389  0.29140496  1
  Sc  Sc76  1  0.89575089  0.49712824  0.89254947  1
  Sc  Sc77  1  0.90054888  0.09668794  0.50956992  1
  Sc  Sc78  1  0.49853219  0.50517422  0.50376676  1
  Sc  Sc79  1  0.29698100  0.09312774  0.90494775  1
  Sc  Sc80  1  0.90407338  0.69264126  0.50050122  1
  Sc  Sc81  1  0.09860847  0.71071257  0.89083795  1
  Sc  Sc82  1  0.30220876  0.29273624  0.50438239  1
  Sc  Sc83  1  0.49271309  0.10929326  0.49973369  1
  Sc  Sc84  1  0.48565772  0.09976394  0.30021680  1
  Sc  Sc85  1  0.70512990  0.30951213  0.89575283  1
  Sc  Sc86  1  0.90238410  0.69179746  0.70072775  1
  Sc  Sc87  1  0.30426551  0.50652863  0.50088939  1
  Sc  Sc88  1  0.49892267  0.49411232  0.69574548  1
  Sc  Sc89  1  0.30381807  0.30676787  0.69917541  1
  Sc  Sc90  1  0.70084263  0.28600198  0.50459446  1
  Sc  Sc91  1  0.89846930  0.49641855  0.29725363  1
  Sc  Sc92  1  0.09756423  0.28931997  0.70043929  1
  Sc  Sc93  1  0.91251519  0.09993346  0.88996888  1
  Sc  Sc94  1  0.48631742  0.69995699  0.09425631  1
  Sc  Sc95  1  0.90751442  0.10332159  0.10696082  1
  Sc  Sc96  1  0.69820973  0.30079478  0.69375241  1
  Sc  Sc97  1  0.70461266  0.50095754  0.90055767  1
  Sc  Sc98  1  0.90439592  0.09851999  0.69667886  1
  Sc  Sc99  1  0.30510976  0.89457607  0.70489746  1
  Nb  Nb100  1  0.29756724  0.89232204  0.90350172  1
  Nb  Nb101  1  0.49720323  0.89732162  0.29978786  1
  Nb  Nb102  1  0.09979661  0.09652893  0.70488704  1
  Nb  Nb103  1  0.30065020  0.70036825  0.90912236  1
  Nb  Nb104  1  0.90209201  0.90140229  0.30253520  1
  Nb  Nb105  1  0.29820211  0.70146490  0.09412903  1
  Nb  Nb106  1  0.10175478  0.30264741  0.49985162  1
  Nb  Nb107  1  0.90555725  0.50047762  0.09382026  1
  Nb  Nb108  1  0.09887610  0.70154468  0.49342267  1
  Nb  Nb109  1  0.29619417  0.30128121  0.29922256  1
  Nb  Nb110  1  0.70114035  0.90005083  0.10036791  1
  Nb  Nb111  1  0.29606561  0.11360185  0.30322106  1
  Nb  Nb112  1  0.29524017  0.49527184  0.30421433  1
  Nb  Nb113  1  0.09755102  0.49959498  0.09505016  1
  Nb  Nb114  1  0.10265515  0.10488416  0.08142516  1
  Nb  Nb115  1  0.90173033  0.89824848  0.10236654  1
  Nb  Nb116  1  0.09829224  0.70299811  0.30995188  1
  Nb  Nb117  1  0.50038612  0.89497382  0.49744033  1
  Nb  Nb118  1  0.69714795  0.09650633  0.49726218  1
  Nb  Nb119  1  0.90818563  0.49979619  0.70128514  1
  Nb  Nb120  1  0.69884455  0.69449323  0.29992182  1
  Nb  Nb121  1  0.09847412  0.50527916  0.69872477  1
  Nb  Nb122  1  0.49581030  0.10131211  0.90048073  1
  Nb  Nb123  1  0.09374146  0.28328585  0.90515866  1
  Nb  Nb124  1  0.10195822  0.10864335  0.89515996  1
  Nb  Nb125  1  0.00788774  0.59481466  0.00250658  1
  Nb  Nb126  1  0.80504610  0.19538119  -0.00327212  1
  Nb  Nb127  1  0.59970766  0.40229391  0.20480779  1
  Nb  Nb128  1  0.59945357  0.39694065  0.39598735  1
  Nb  Nb129  1  0.59845952  0.00120656  0.20179257  1
  Nb  Nb130  1  0.79447702  -0.00620273  0.39517132  1
  Nb  Nb131  1  0.19158219  0.40194536  0.59517932  1
  Nb  Nb132  1  0.79865901  -0.00926192  0.20079859  1
  Nb  Nb133  1  0.39740692  0.40441602  0.00082016  1
  Nb  Nb134  1  0.59861279  -0.00282287  0.59108903  1
  Nb  Nb135  1  0.80216993  0.80613267  0.00549530  1
  Nb  Nb136  1  0.40451605  0.19821917  0.80614363  1
  Nb  Nb137  1  0.59791168  -0.00550026  0.40002166  1
  Nb  Nb138  1  0.39654764  0.80292625  0.39818882  1
  Nb  Nb139  1  0.80397817  -0.00427479  0.00522326  1
  Nb  Nb140  1  0.59321984  0.19730800  0.80168617  1
  Nb  Nb141  1  0.19857372  0.00477252  0.60198312  1
  Nb  Nb142  1  0.20102495  0.79919457  0.39783302  1
  Nb  Nb143  1  0.20194187  0.39920456  0.40031884  1
  Nb  Nb144  1  0.60327347  0.59791258  0.20245842  1
  Nb  Nb145  1  0.00571017  0.79778266  0.59371521  1
  Nb  Nb146  1  -0.00267026  0.80322797  0.20660776  1
  Nb  Nb147  1  0.80059731  0.79929816  0.39376081  1
  Nb  Nb148  1  0.19715432  0.60261451  0.00173833  1
  Nb  Nb149  1  0.59726501  0.20239803  0.19873575  1
  Pd  Pd150  1  0.79815204  0.39919379  0.19394005  1
  Pd  Pd151  1  0.79962766  0.39907785  0.59643942  1
  Pd  Pd152  1  0.80371038  0.59810194  0.60261543  1
  Pd  Pd153  1  0.39868140  0.60339638  0.61032930  1
  Pd  Pd154  1  0.18916317  0.79834751  -0.00346463  1
  Pd  Pd155  1  0.79554610  0.39804049  0.41427583  1
  Pd  Pd156  1  0.00474695  0.39344404  0.79550784  1
  Pd  Pd157  1  0.40481424  0.60181356  0.20170676  1
  Pd  Pd158  1  0.00132837  0.60151031  0.19941462  1
  Pd  Pd159  1  -0.00431898  0.80141380  0.78522258  1
  Pd  Pd160  1  0.39517295  0.39752508  0.41065368  1
  Pd  Pd161  1  0.60448273  0.59820814  0.79357140  1
  Pd  Pd162  1  0.40004125  0.19511446  0.19548145  1
  Pd  Pd163  1  0.60077054  -0.00489511  0.00180793  1
  Pd  Pd164  1  0.80229743  0.00392345  0.80587844  1
  Pd  Pd165  1  0.40419058  0.59802672  0.79846398  1
  Pd  Pd166  1  0.00800406  0.40754002  0.39340009  1
  Pd  Pd167  1  0.00676268  0.40386631  0.20562104  1
  Pd  Pd168  1  0.60268746  0.59744976  0.60962855  1
  Pd  Pd169  1  0.80304619  0.60117012  0.40734791  1
  Pd  Pd170  1  0.00720030  0.59568324  0.80795150  1
  Pd  Pd171  1  0.79658149  0.20717412  0.18689484  1
  Pd  Pd172  1  0.19331944  0.19447834  0.19181030  1
  Pd  Pd173  1  0.58959676  0.19982542  0.39565701  1
  Pd  Pd174  1  0.00223813  0.79115862  0.00833558  1
  Pd  Pd175  1  -0.00472651  0.00868945  -0.00041034  1
  Pd  Pd176  1  0.19020234  0.40354499  0.20735032  1
  Pd  Pd177  1  0.40740908  0.39421026  0.80791264  1
  Pd  Pd178  1  0.38998709  0.61340320  0.39999285  1
  Pd  Pd179  1  0.80607397  0.79573368  0.80308739  1
  Pd  Pd180  1  0.01239917  0.20073839  0.19214775  1
  Pd  Pd181  1  0.40152399  -0.00270401  0.39864875  1
  Pd  Pd182  1  0.59921700  0.39581652  0.79887117  1
  Pd  Pd183  1  0.20702112  0.20435195  0.79888278  1
  Pd  Pd184  1  0.40228977  0.20325976  0.60706709  1
  Pd  Pd185  1  0.39981419  -0.00070778  0.59752822  1
  Pd  Pd186  1  0.00641904  0.39820072  0.60833066  1
  Pd  Pd187  1  0.19643669  0.00851467  0.19621708  1
  Pd  Pd188  1  -0.00500975  0.01307960  0.40263633  1
  Pd  Pd189  1  0.00166369  0.00125585  0.19786525  1
  Pd  Pd190  1  0.21098833  0.19890630  0.00325941  1
  Pd  Pd191  1  0.79149888  0.19563343  0.80596135  1
  Pd  Pd192  1  0.80726940  0.80041316  0.20229287  1
  Pd  Pd193  1  0.20661103  -0.00211835  0.79575232  1
  Pd  Pd194  1  0.58887116  0.79420681  0.18581423  1
  Pd  Pd195  1  0.39748123  0.79251590  0.59697432  1
  Pd  Pd196  1  0.60021609  0.79618270  0.00312547  1
  Pd  Pd197  1  0.60764961  0.00342554  0.79070413  1
  Pd  Pd198  1  0.40331493  0.40674258  0.19566190  1
  Pd  Pd199  1  0.18856375  0.38974674  0.79081446  1
  Rh  Rh200  1  0.39474852  0.20712436  0.40075922  1
  Rh  Rh201  1  0.19884427  0.20171653  0.60468171  1
  Rh  Rh202  1  0.81165304  0.19396801  0.41218087  1
  Rh  Rh203  1  0.81167983  0.39445010  -0.00353665  1
  Rh  Rh204  1  0.00005797  0.20120021  0.60557112  1
  Rh  Rh205  1  0.20609120  0.40609201  0.00183754  1
  Rh  Rh206  1  0.00021316  0.19861103  0.79295427  1
  Rh  Rh207  1  0.59917038  0.59116693  0.39682776  1
  Rh  Rh208  1  0.19816263  0.59461128  0.19807489  1
  Rh  Rh209  1  -0.00693089  0.59402824  0.39928485  1
  Rh  Rh210  1  0.00274015  0.60626948  0.60269836  1
  Rh  Rh211  1  0.19144551  0.80766556  0.59291610  1
  Rh  Rh212  1  0.59717279  0.40551438  -0.00186130  1
  Rh  Rh213  1  0.20171565  0.80204452  0.80720547  1
  Rh  Rh214  1  0.40052632  0.80571181  -0.00394472  1
  Rh  Rh215  1  0.19124033  0.60248100  0.81173645  1
  Rh  Rh216  1  0.19517465  0.81031097  0.20871378  1
  Rh  Rh217  1  0.81017956  0.60467488  -0.00686190  1
  Rh  Rh218  1  0.38653503  0.20893189  -0.00714567  1
  Rh  Rh219  1  0.20818408  0.60309632  0.39897519  1
  Rh  Rh220  1  0.60403919  0.60687915  0.00311370  1
  Rh  Rh221  1  0.19697429  0.59598863  0.60128270  1
  Rh  Rh222  1  0.80317276  0.40189724  0.79454251  1
  Rh  Rh223  1  -0.00288947  0.79506440  0.40021556  1
  Rh  Rh224  1  0.39579559  0.79886728  0.80805331  1
  Rh  Rh225  1  -0.00113158  0.19572067  0.40286115  1
  Rh  Rh226  1  0.39268510  -0.00791724  -0.00457041  1
  Rh  Rh227  1  0.60199684  0.79576165  0.79927501  1
  Rh  Rh228  1  0.38912446  0.40623728  0.59770686  1
  Rh  Rh229  1  0.39678089  0.79883687  0.20466265  1
  Rh  Rh230  1  0.01234591  -0.00738175  0.61060756  1
  Rh  Rh231  1  0.40176273  0.00732152  0.19979284  1
  Rh  Rh232  1  0.81288527  0.78967819  0.59427541  1
  Rh  Rh233  1  0.79303011  0.00280977  0.59470355  1
  Rh  Rh234  1  -0.00275910  0.40480081  -0.00737092  1
  Rh  Rh235  1  0.39018526  0.00119675  0.80674992  1
  Rh  Rh236  1  0.80358909  0.19822770  0.59688207  1
  Rh  Rh237  1  0.59769179  0.18908916  0.60908357  1
  Rh  Rh238  1  0.60517736  0.40193889  0.59272209  1
  Rh  Rh239  1  0.20313702  0.20919018  0.39997311  1
  Rh  Rh240  1  0.59937426  0.79976027  0.60353561  1
  Rh  Rh241  1  0.20134889  0.00085529  0.00016345  1
  Rh  Rh242  1  0.61447768  0.20228104  -0.00800123  1
  Rh  Rh243  1  0.00290430  -0.00031868  0.79546133  1
  Rh  Rh244  1  0.60037688  0.79857162  0.40717209  1
  Rh  Rh245  1  -0.00731137  0.19529155  0.00195600  1
  Rh  Rh246  1  0.38970808  0.59294762  -0.00373209  1
  Rh  Rh247  1  0.80083443  0.59590499  0.79568384  1
  Rh  Rh248  1  0.20246440  0.00115837  0.40193332  1
  Rh  Rh249  1  0.79717723  0.59014204  0.19920488  1
