# generated using pymatgen
data_ZrScNbPdRh
_symmetry_space_group_name_H-M   'P 1'
_cell_length_a   16.56227600
_cell_length_b   16.56041007
_cell_length_c   16.56472745
_cell_angle_alpha   90.01477434
_cell_angle_beta   90.00671181
_cell_angle_gamma   89.98570565
_symmetry_Int_Tables_number   1
_chemical_formula_structural   ZrScNbPdRh
_chemical_formula_sum   'Zr50 Sc50 Nb50 Pd50 Rh50'
_cell_volume   4543.34135330
_cell_formula_units_Z   50
loop_
 _symmetry_equiv_pos_site_id
 _symmetry_equiv_pos_as_xyz
  1  'x, y, z'
loop_
 _atom_site_type_symbol
 _atom_site_label
 _atom_site_symmetry_multiplicity
 _atom_site_fract_x
 _atom_site_fract_y
 _atom_site_fract_z
 _atom_site_occupancy
  Zr  Zr0  1  0.70149710  0.09374249  0.90843439  1
  Zr  Zr1  1  0.10185479  0.30071490  0.30351712  1
  Zr  Zr2  1  0.90033766  0.09970875  0.90051258  1
  Zr  Zr3  1  0.30632563  0.90328966  0.90006233  1
  Zr  Zr4  1  0.69844447  0.29685963  0.91132533  1
  Zr  Zr5  1  0.30522869  0.30468319  0.09809282  1
  Zr  Zr6  1  0.10196025  0.49591578  0.30742423  1
  Zr  Zr7  1  0.30257840  0.10539441  0.49985458  1
  Zr  Zr8  1  0.90325617  0.10225009  0.10010806  1
  Zr  Zr9  1  0.70624723  0.50162563  0.90997079  1
  Zr  Zr10  1  0.70125445  0.68975942  0.69805721  1
  Zr  Zr11  1  0.09301492  0.30236821  0.89731712  1
  Zr  Zr12  1  0.89146407  0.30054194  0.49424343  1
  Zr  Zr13  1  0.69341021  0.50573195  0.50554306  1
  Zr  Zr14  1  0.70090205  0.30798369  0.49596115  1
  Zr  Zr15  1  0.70630212  0.70854725  0.30976715  1
  Zr  Zr16  1  0.29701628  0.50659788  0.70438019  1
  Zr  Zr17  1  0.10333812  0.89518027  0.49479520  1
  Zr  Zr18  1  0.70375641  0.29611654  0.30793158  1
  Zr  Zr19  1  0.09188054  0.89785532  0.70131773  1
  Zr  Zr20  1  0.50317641  0.50870456  0.10440205  1
  Zr  Zr21  1  0.69685648  0.89786075  0.29396708  1
  Zr  Zr22  1  0.50542689  0.88991941  0.89452159  1
  Zr  Zr23  1  0.30053692  0.09908091  0.90418350  1
  Zr  Zr24  1  0.90201687  0.49842577  0.89653230  1
  Zr  Zr25  1  0.49607705  0.51111219  0.89706158  1
  Zr  Zr26  1  0.09984666  0.88931021  0.90150850  1
  Zr  Zr27  1  0.29860503  0.29570427  0.49907904  1
  Zr  Zr28  1  0.50094983  0.30336778  0.69539722  1
  Zr  Zr29  1  0.69171601  0.09187477  0.30076432  1
  Zr  Zr30  1  0.09946305  0.49593222  0.50338428  1
  Zr  Zr31  1  0.89592688  0.88628605  0.29818021  1
  Zr  Zr32  1  0.09888250  0.69925807  0.50058041  1
  Zr  Zr33  1  0.30509153  0.50253964  0.10577790  1
  Zr  Zr34  1  0.10019856  0.10426707  0.28500010  1
  Zr  Zr35  1  0.49787117  0.29731149  0.90559773  1
  Zr  Zr36  1  0.50492782  0.10061258  0.69277146  1
  Zr  Zr37  1  0.69947566  0.30785474  0.09778776  1
  Zr  Zr38  1  0.69316799  0.89988547  0.48117867  1
  Zr  Zr39  1  0.90477967  0.89652405  0.09640746  1
  Zr  Zr40  1  0.29922405  0.30122769  0.90197497  1
  Zr  Zr41  1  0.90327619  0.90206124  0.89448194  1
  Zr  Zr42  1  0.10374442  0.90035027  0.29495269  1
  Zr  Zr43  1  0.29410723  0.50249796  0.50435421  1
  Zr  Zr44  1  0.48998620  0.90820313  0.70107695  1
  Zr  Zr45  1  0.50599025  0.89787012  0.30842364  1
  Zr  Zr46  1  0.30873920  0.29829468  0.29919766  1
  Zr  Zr47  1  0.50531306  0.09597705  0.10373005  1
  Zr  Zr48  1  0.50090888  0.70139442  0.71052516  1
  Zr  Zr49  1  0.49717254  0.30252245  0.10709243  1
  Sc  Sc50  1  0.90631138  0.09478238  0.69948213  1
  Sc  Sc51  1  0.90677398  0.50006693  0.69692800  1
  Sc  Sc52  1  0.89962100  0.10046357  0.50607954  1
  Sc  Sc53  1  0.50546442  0.88837749  0.09766889  1
  Sc  Sc54  1  0.30233051  0.69811971  0.29777873  1
  Sc  Sc55  1  0.30157114  0.10781156  0.30641011  1
  Sc  Sc56  1  0.89874407  0.69110324  0.70588165  1
  Sc  Sc57  1  0.89391804  0.48901690  0.09813047  1
  Sc  Sc58  1  0.69974525  0.09684231  0.09621073  1
  Sc  Sc59  1  0.09073333  0.09938831  0.69260755  1
  Sc  Sc60  1  0.50496979  0.50112072  0.29584285  1
  Sc  Sc61  1  0.10073564  0.70546458  0.30252402  1
  Sc  Sc62  1  0.10210479  0.49041311  0.89069580  1
  Sc  Sc63  1  0.09778470  0.29032915  0.09917731  1
  Sc  Sc64  1  0.29956714  0.69863170  0.89248673  1
  Sc  Sc65  1  0.70090279  0.29903715  0.67889137  1
  Sc  Sc66  1  0.50646636  0.30513916  0.50650644  1
  Sc  Sc67  1  0.90639209  0.29859656  0.69149937  1
  Sc  Sc68  1  0.68120800  0.90759486  0.71066553  1
  Sc  Sc69  1  0.69985076  0.90268525  0.09647210  1
  Sc  Sc70  1  0.30680631  0.70013937  0.10604841  1
  Sc  Sc71  1  0.10199489  0.48858287  0.09672530  1
  Sc  Sc72  1  0.10142242  0.69317808  0.70474792  1
  Sc  Sc73  1  0.29198721  0.09614677  0.09733961  1
  Sc  Sc74  1  0.90213687  0.70569490  0.90068838  1
  Sc  Sc75  1  0.49794682  0.10648213  0.29846346  1
  Sc  Sc76  1  0.31121737  0.10253374  0.69501003  1
  Sc  Sc77  1  0.30634227  0.29872787  0.69439746  1
  Sc  Sc78  1  0.50144395  0.29912781  0.29856362  1
  Sc  Sc79  1  0.69784158  0.49411080  0.30683118  1
  Sc  Sc80  1  0.50304833  0.70667552  0.29134480  1
  Sc  Sc81  1  0.49814629  0.09848724  0.50073655  1
  Sc  Sc82  1  0.69679331  0.70126223  0.10071107  1
  Sc  Sc83  1  0.49510934  0.50399696  0.69261768  1
  Sc  Sc84  1  0.89447479  0.30736153  0.29470650  1
  Sc  Sc85  1  0.28782437  0.70093113  0.50467142  1
  Sc  Sc86  1  0.89536748  0.29713268  0.09835682  1
  Sc  Sc87  1  0.10469012  0.10517255  0.50068125  1
  Sc  Sc88  1  0.88991516  0.69761756  0.49365969  1
  Sc  Sc89  1  0.29022885  0.69810452  0.69859047  1
  Sc  Sc90  1  0.70059946  0.11009206  0.49894701  1
  Sc  Sc91  1  0.89856942  0.71214833  0.10205637  1
  Sc  Sc92  1  0.10622930  0.30378946  0.50308879  1
  Sc  Sc93  1  0.10324336  0.71959874  0.10395435  1
  Sc  Sc94  1  0.49613878  0.09524870  0.90585466  1
  Sc  Sc95  1  0.29762373  0.51008431  0.30197735  1
  Sc  Sc96  1  0.69906774  0.69596134  0.89594994  1
  Sc  Sc97  1  0.88975088  0.10381995  0.29221284  1
  Sc  Sc98  1  0.90136551  0.90136686  0.49367943  1
  Sc  Sc99  1  0.29671756  0.49643027  0.89861013  1
  Nb  Nb100  1  0.10968651  0.91028539  0.10258098  1
  Nb  Nb101  1  0.90368617  0.49330885  0.49230444  1
  Nb  Nb102  1  0.70330716  0.49976849  0.70748569  1
  Nb  Nb103  1  0.70305075  0.90413052  0.89994957  1
  Nb  Nb104  1  0.49547972  0.89609906  0.50002128  1
  Nb  Nb105  1  0.69496147  0.70083187  0.50457164  1
  Nb  Nb106  1  0.28878560  0.90526373  0.10437777  1
  Nb  Nb107  1  0.50658327  0.69633242  0.50739189  1
  Nb  Nb108  1  0.49779977  0.70383168  0.90604443  1
  Nb  Nb109  1  0.90149547  0.69847207  0.29646623  1
  Nb  Nb110  1  0.09572046  0.48980738  0.69889004  1
  Nb  Nb111  1  0.10075451  0.30035805  0.69990386  1
  Nb  Nb112  1  0.89616557  0.29885659  0.89725700  1
  Nb  Nb113  1  0.10224502  0.09968654  0.90123612  1
  Nb  Nb114  1  0.49911915  0.50253998  0.50091176  1
  Nb  Nb115  1  0.09975306  0.69916950  0.90307590  1
  Nb  Nb116  1  0.10244049  0.08940596  0.09910712  1
  Nb  Nb117  1  0.90292965  0.49751981  0.29894311  1
  Nb  Nb118  1  0.30559989  0.90337493  0.30571628  1
  Nb  Nb119  1  0.49855071  0.69651271  0.09516362  1
  Nb  Nb120  1  0.70043367  0.10277691  0.69942484  1
  Nb  Nb121  1  0.70391114  0.50024943  0.10193709  1
  Nb  Nb122  1  0.90290573  0.90214093  0.69852808  1
  Nb  Nb123  1  0.29780018  0.90349949  0.69614501  1
  Nb  Nb124  1  0.30229989  0.90229727  0.49778671  1
  Nb  Nb125  1  0.19187527  0.60337101  -0.00155229  1
  Nb  Nb126  1  0.40214997  0.40895464  0.40641206  1
  Nb  Nb127  1  0.80430049  0.59709021  0.20489119  1
  Nb  Nb128  1  0.79699637  0.80970407  0.79350171  1
  Nb  Nb129  1  0.00995861  -0.00008568  0.00214042  1
  Nb  Nb130  1  0.60656251  0.39900812  0.79957670  1
  Nb  Nb131  1  0.60596896  0.20264795  0.79870813  1
  Nb  Nb132  1  0.19410277  0.19769409  0.79961341  1
  Nb  Nb133  1  0.79592357  0.20285527  0.79886092  1
  Nb  Nb134  1  0.39498155  -0.00965170  0.20223471  1
  Nb  Nb135  1  0.19936852  0.00324611  0.79679989  1
  Nb  Nb136  1  -0.00447580  0.59872463  0.20042897  1
  Nb  Nb137  1  0.40775043  0.60148655  0.40940946  1
  Nb  Nb138  1  0.20426962  0.39806890  0.20196052  1
  Nb  Nb139  1  -0.00084659  0.19895877  0.39451214  1
  Nb  Nb140  1  -0.00775401  0.79913986  0.60192219  1
  Nb  Nb141  1  0.79359384  0.80648441  0.60351389  1
  Nb  Nb142  1  0.00233909  0.00425226  0.39197035  1
  Nb  Nb143  1  -0.00574818  0.59573086  0.39508651  1
  Nb  Nb144  1  0.20468319  -0.00578274  0.60011410  1
  Nb  Nb145  1  0.79473334  -0.00834605  0.60502931  1
  Nb  Nb146  1  0.79556892  0.39335904  0.79962678  1
  Nb  Nb147  1  0.40030208  0.80557696  0.59560803  1
  Nb  Nb148  1  0.59746002  0.80035073  0.59701215  1
  Nb  Nb149  1  0.00660163  0.60373082  0.00416094  1
  Pd  Pd150  1  0.00424098  0.39910141  0.19483030  1
  Pd  Pd151  1  0.21075640  0.79398010  0.00136711  1
  Pd  Pd152  1  0.59375844  0.01058170  0.80773820  1
  Pd  Pd153  1  0.80681359  0.59650683  0.59690743  1
  Pd  Pd154  1  0.60204622  0.60498434  0.00151195  1
  Pd  Pd155  1  -0.00681755  -0.00470483  0.20179689  1
  Pd  Pd156  1  -0.00103846  0.19983096  0.79657953  1
  Pd  Pd157  1  0.20749410  0.80071843  0.20645951  1
  Pd  Pd158  1  0.20752272  0.79527400  0.39372887  1
  Pd  Pd159  1  0.79334549  0.79898292  -0.00924889  1
  Pd  Pd160  1  -0.00272303  0.40125257  0.00163232  1
  Pd  Pd161  1  0.80760101  0.00710459  0.40347449  1
  Pd  Pd162  1  0.40599742  -0.00956309  0.01166515  1
  Pd  Pd163  1  0.59986463  0.59561803  0.80178980  1
  Pd  Pd164  1  0.80454409  0.40998629  0.60363928  1
  Pd  Pd165  1  0.39107401  0.79540492  0.79298378  1
  Pd  Pd166  1  0.59078436  0.40834681  -0.00148406  1
  Pd  Pd167  1  0.39996030  0.80524064  0.19641350  1
  Pd  Pd168  1  0.40495737  0.00580187  0.39579339  1
  Pd  Pd169  1  0.40543226  0.40233470  0.79788346  1
  Pd  Pd170  1  0.61022754  0.60608906  0.20486773  1
  Pd  Pd171  1  0.79072272  0.20061435  0.19741921  1
  Pd  Pd172  1  0.00137858  0.19575436  0.00190726  1
  Pd  Pd173  1  0.20697250  0.20374721  0.19378937  1
  Pd  Pd174  1  0.40268488  0.19611550  0.79854062  1
  Pd  Pd175  1  0.60708491  -0.00349166  0.59000990  1
  Pd  Pd176  1  0.80194096  0.59367478  0.39756019  1
  Pd  Pd177  1  0.19590700  0.00817219  0.39962177  1
  Pd  Pd178  1  0.59410006  0.20069820  0.40566560  1
  Pd  Pd179  1  0.39847700  0.78740458  0.40745050  1
  Pd  Pd180  1  0.19645758  0.20440111  -0.00163999  1
  Pd  Pd181  1  0.39540658  0.61081311  0.59920449  1
  Pd  Pd182  1  0.59456198  0.60456853  0.39333349  1
  Pd  Pd183  1  0.79866405  -0.00401098  0.19433867  1
  Pd  Pd184  1  0.00559464  0.59931243  0.80698013  1
  Pd  Pd185  1  0.20366294  0.39190262  0.79281480  1
  Pd  Pd186  1  -0.00434197  0.60480814  0.59271715  1
  Pd  Pd187  1  0.38845928  0.60335076  -0.00496716  1
  Pd  Pd188  1  0.00118850  0.20592312  0.58941836  1
  Pd  Pd189  1  0.60457711  0.39881520  0.20520999  1
  Pd  Pd190  1  0.39266567  0.79985567  0.00477849  1
  Pd  Pd191  1  0.40125672  0.19541015  0.00811524  1
  Pd  Pd192  1  0.79835795  0.00168266  0.79218458  1
  Pd  Pd193  1  0.18582799  0.59710559  0.19037873  1
  Pd  Pd194  1  0.20256578  0.80303402  0.79680606  1
  Pd  Pd195  1  0.40578570  0.40970503  -0.00122214  1
  Pd  Pd196  1  0.20438085  0.39820602  0.60816435  1
  Pd  Pd197  1  0.81180868  0.60614076  0.00974437  1
  Pd  Pd198  1  0.60699181  0.20204992  0.19722339  1
  Pd  Pd199  1  0.60826952  0.79647544  -0.00311375  1
  Rh  Rh200  1  0.39708883  0.60468607  0.80136568  1
  Rh  Rh201  1  0.00000883  0.39520617  0.59764776  1
  Rh  Rh202  1  0.39578017  0.41075984  0.21240266  1
  Rh  Rh203  1  0.59171533  -0.00632395  0.20068769  1
  Rh  Rh204  1  0.21408212  0.39660798  0.39319331  1
  Rh  Rh205  1  0.00528863  0.80251832  0.00526562  1
  Rh  Rh206  1  0.40703175  0.20378778  0.59494591  1
  Rh  Rh207  1  0.80174495  0.19859640  0.00055119  1
  Rh  Rh208  1  0.39593230  0.40120815  0.59433018  1
  Rh  Rh209  1  0.59296476  0.39967438  0.40150849  1
  Rh  Rh210  1  0.20385750  0.40291507  0.00702957  1
  Rh  Rh211  1  0.80431697  0.59645061  0.80380460  1
  Rh  Rh212  1  -0.00706670  0.78954649  0.79266030  1
  Rh  Rh213  1  0.39373582  -0.00298919  0.59333090  1
  Rh  Rh214  1  0.59184505  0.00823878  0.40230053  1
  Rh  Rh215  1  0.79215598  0.79551360  0.19679981  1
  Rh  Rh216  1  0.80892869  -0.00304773  0.00495069  1
  Rh  Rh217  1  0.80487344  0.18772418  0.60708198  1
  Rh  Rh218  1  0.59561064  -0.00845744  -0.00325923  1
  Rh  Rh219  1  0.79238515  0.40511661  0.20248667  1
  Rh  Rh220  1  0.19671074  0.60576620  0.40196809  1
  Rh  Rh221  1  0.40821299  0.21197654  0.40592437  1
  Rh  Rh222  1  0.00207709  -0.01058001  0.58530689  1
  Rh  Rh223  1  0.80333681  0.79933492  0.40675760  1
  Rh  Rh224  1  0.19896509  0.19220847  0.61204586  1
  Rh  Rh225  1  0.60754411  0.79528844  0.80098839  1
  Rh  Rh226  1  0.18951366  0.59374180  0.60693729  1
  Rh  Rh227  1  0.00859345  0.00226138  0.80961259  1
  Rh  Rh228  1  0.59384659  0.79059239  0.40451118  1
  Rh  Rh229  1  0.21258246  0.00316666  0.21119699  1
  Rh  Rh230  1  0.60190633  0.79727678  0.19493781  1
  Rh  Rh231  1  -0.00367811  0.39406606  0.40422242  1
  Rh  Rh232  1  -0.00906320  0.39516470  0.79266066  1
  Rh  Rh233  1  0.59865673  0.59767123  0.60710669  1
  Rh  Rh234  1  0.40941906  0.60354621  0.20818556  1
  Rh  Rh235  1  0.80555560  0.39779542  -0.00296892  1
  Rh  Rh236  1  0.60175661  0.41069708  0.60613112  1
  Rh  Rh237  1  -0.00518687  0.79661055  0.40556535  1
  Rh  Rh238  1  0.19738399  0.80741961  0.60303114  1
  Rh  Rh239  1  0.59440995  0.19610395  0.00248748  1
  Rh  Rh240  1  0.79721211  0.40733442  0.39990515  1
  Rh  Rh241  1  0.00569406  0.80140683  0.20028416  1
  Rh  Rh242  1  0.39680068  0.18391751  0.19255975  1
  Rh  Rh243  1  0.19298639  0.59372526  0.80324816  1
  Rh  Rh244  1  0.80483585  0.19627500  0.39666431  1
  Rh  Rh245  1  0.39607645  0.00610073  0.80111253  1
  Rh  Rh246  1  0.60048345  0.19886173  0.59850918  1
  Rh  Rh247  1  0.19546466  -0.00537601  -0.01098816  1
  Rh  Rh248  1  -0.00352239  0.20565230  0.20231620  1
  Rh  Rh249  1  0.19299911  0.19997304  0.39949911  1
