# generated using pymatgen
data_ZrScNbPdRh
_symmetry_space_group_name_H-M   'P 1'
_cell_length_a   16.56189109
_cell_length_b   16.56679703
_cell_length_c   16.56298902
_cell_angle_alpha   89.99158951
_cell_angle_beta   89.99769631
_cell_angle_gamma   90.00684066
_symmetry_Int_Tables_number   1
_chemical_formula_structural   ZrScNbPdRh
_chemical_formula_sum   'Zr50 Sc50 Nb50 Pd50 Rh50'
_cell_volume   4544.51123854
_cell_formula_units_Z   50
loop_
 _symmetry_equiv_pos_site_id
 _symmetry_equiv_pos_as_xyz
  1  'x, y, z'
loop_
 _atom_site_type_symbol
 _atom_site_label
 _atom_site_symmetry_multiplicity
 _atom_site_fract_x
 _atom_site_fract_y
 _atom_site_fract_z
 _atom_site_occupancy
  Zr  Zr0  1  0.69420040  0.28947158  0.69580411  1
  Zr  Zr1  1  0.69985558  0.49688432  0.29937297  1
  Zr  Zr2  1  0.30109925  0.49805623  0.50026868  1
  Zr  Zr3  1  0.89726952  0.70479090  0.89918600  1
  Zr  Zr4  1  0.90073869  0.28910976  0.49141217  1
  Zr  Zr5  1  0.70562936  0.10670887  0.50743390  1
  Zr  Zr6  1  0.69500159  0.90731507  0.70191895  1
  Zr  Zr7  1  0.30699834  0.90220987  0.70992166  1
  Zr  Zr8  1  0.30092940  0.29556022  0.29456081  1
  Zr  Zr9  1  0.49746981  0.49448784  0.29857878  1
  Zr  Zr10  1  0.90964168  0.89889042  0.10048516  1
  Zr  Zr11  1  0.30403917  0.10032323  0.49713672  1
  Zr  Zr12  1  0.48597430  0.70634844  0.10726737  1
  Zr  Zr13  1  0.09535768  0.91313496  0.69812314  1
  Zr  Zr14  1  0.69190984  0.30114178  0.30340421  1
  Zr  Zr15  1  0.49801064  0.91004214  0.89430506  1
  Zr  Zr16  1  0.10345787  0.49249962  0.69773929  1
  Zr  Zr17  1  0.49156652  0.49692130  0.50123282  1
  Zr  Zr18  1  0.49883686  0.49737256  0.09424860  1
  Zr  Zr19  1  0.70139504  0.30152300  0.50254028  1
  Zr  Zr20  1  0.50036294  0.29295140  0.49705885  1
  Zr  Zr21  1  0.50188952  0.69114030  0.49635750  1
  Zr  Zr22  1  0.29263149  0.90111577  0.49320019  1
  Zr  Zr23  1  0.50156735  0.91217213  0.50393915  1
  Zr  Zr24  1  0.90177058  0.09842231  0.09800571  1
  Zr  Zr25  1  0.90644354  0.09881008  0.69554491  1
  Zr  Zr26  1  0.09130436  0.70642221  0.48978549  1
  Zr  Zr27  1  0.30039501  0.50177344  0.10632651  1
  Zr  Zr28  1  0.30452949  0.69301834  0.49609291  1
  Zr  Zr29  1  0.30451705  0.69569523  0.29252175  1
  Zr  Zr30  1  0.08714125  0.29951931  0.29944476  1
  Zr  Zr31  1  0.69805535  0.50513417  0.91209797  1
  Zr  Zr32  1  0.70192153  0.50317226  0.49559569  1
  Zr  Zr33  1  0.90069704  0.50469444  0.29094844  1
  Zr  Zr34  1  0.29984120  0.90588340  0.09884266  1
  Zr  Zr35  1  0.50060267  0.09258822  0.69657467  1
  Zr  Zr36  1  0.70357818  0.70978161  0.69798783  1
  Zr  Zr37  1  0.10418712  0.09720378  0.51586686  1
  Zr  Zr38  1  0.10127134  0.09965916  0.30334102  1
  Zr  Zr39  1  0.49299692  0.48780594  0.70509666  1
  Zr  Zr40  1  0.90607880  0.30241780  0.11007680  1
  Zr  Zr41  1  0.91360978  0.69883161  0.30580586  1
  Zr  Zr42  1  0.09591619  0.70300245  0.90085272  1
  Zr  Zr43  1  0.89682062  0.30182226  0.29593857  1
  Zr  Zr44  1  0.50061721  0.90719212  0.29681902  1
  Zr  Zr45  1  0.70098344  0.89846714  0.50875244  1
  Zr  Zr46  1  0.70001707  0.69204568  0.31405104  1
  Zr  Zr47  1  0.89828774  0.90114521  0.89759348  1
  Zr  Zr48  1  0.29671163  0.29513738  0.90848097  1
  Zr  Zr49  1  0.90542699  0.11213463  0.30246476  1
  Sc  Sc50  1  0.09900360  0.88943032  0.30345197  1
  Sc  Sc51  1  0.71028334  0.48486744  0.69330411  1
  Sc  Sc52  1  0.29448951  0.70688696  0.10684303  1
  Sc  Sc53  1  0.90629806  0.50049695  0.89857011  1
  Sc  Sc54  1  0.10697726  0.10105743  0.89084847  1
  Sc  Sc55  1  0.49998675  0.09484085  0.90502003  1
  Sc  Sc56  1  0.10442274  0.90108094  0.89920232  1
  Sc  Sc57  1  0.90089871  0.50557489  0.50502530  1
  Sc  Sc58  1  0.30126594  0.10297759  0.09605194  1
  Sc  Sc59  1  0.50756218  0.71120641  0.90636012  1
  Sc  Sc60  1  0.70431042  0.69489339  0.50316761  1
  Sc  Sc61  1  0.09640477  0.49481483  0.89576014  1
  Sc  Sc62  1  0.69823285  0.89771624  0.90118957  1
  Sc  Sc63  1  0.70130223  0.09440649  0.89614778  1
  Sc  Sc64  1  0.08906317  0.50185881  0.09871781  1
  Sc  Sc65  1  0.29710323  0.48349964  0.89735725  1
  Sc  Sc66  1  0.89589983  0.89659871  0.70502769  1
  Sc  Sc67  1  0.29474648  0.91021926  0.90094282  1
  Sc  Sc68  1  0.50233977  0.29785380  0.30014600  1
  Sc  Sc69  1  0.90235320  0.29580611  0.89384687  1
  Sc  Sc70  1  0.69939016  0.09665313  0.09526489  1
  Sc  Sc71  1  0.10303001  0.49056070  0.49727965  1
  Sc  Sc72  1  0.49026209  0.30644078  0.10389952  1
  Sc  Sc73  1  0.30291903  0.09605507  0.29321325  1
  Sc  Sc74  1  0.70160240  0.50290314  0.10447107  1
  Sc  Sc75  1  0.70308707  0.29688256  0.89307761  1
  Sc  Sc76  1  0.09969390  0.50227978  0.30172952  1
  Sc  Sc77  1  0.29351346  0.89905875  0.29769436  1
  Sc  Sc78  1  0.49604390  0.09141396  0.10163339  1
  Sc  Sc79  1  0.90859791  0.89441748  0.51213489  1
  Sc  Sc80  1  0.90299331  0.49930484  0.69438125  1
  Sc  Sc81  1  0.30469543  0.49163908  0.69252656  1
  Sc  Sc82  1  0.89529598  0.10004650  0.89757361  1
  Sc  Sc83  1  0.49828821  0.70450236  0.70132780  1
  Sc  Sc84  1  0.70896759  0.69521013  0.08343039  1
  Sc  Sc85  1  0.10245060  0.69601407  0.29413015  1
  Sc  Sc86  1  0.49997966  0.90479033  0.09392108  1
  Sc  Sc87  1  0.50066632  0.31485101  0.90156766  1
  Sc  Sc88  1  0.29623917  0.50148811  0.30326698  1
  Sc  Sc89  1  0.69094450  0.10560332  0.29921113  1
  Sc  Sc90  1  0.10471020  0.30122364  0.89320849  1
  Sc  Sc91  1  0.69431173  0.90247558  0.30751047  1
  Sc  Sc92  1  0.29402741  0.10263227  0.69604241  1
  Sc  Sc93  1  0.10455539  0.08951953  0.10101659  1
  Sc  Sc94  1  0.29471148  0.72155541  0.89680641  1
  Sc  Sc95  1  0.08725905  0.70304395  0.70526492  1
  Sc  Sc96  1  0.29864446  0.30256561  0.50652245  1
  Sc  Sc97  1  0.89585693  0.30058378  0.69935318  1
  Sc  Sc98  1  0.70002821  0.30031404  0.11098152  1
  Sc  Sc99  1  0.10502139  0.29425267  0.69441806  1
  Nb  Nb100  1  0.49572468  0.10375204  0.31147411  1
  Nb  Nb101  1  0.49604421  0.29703066  0.70432154  1
  Nb  Nb102  1  0.90738956  0.69447174  0.10289220  1
  Nb  Nb103  1  0.10503139  0.90061777  0.49672074  1
  Nb  Nb104  1  0.10654433  0.30095419  0.49384522  1
  Nb  Nb105  1  0.10292359  0.89466502  0.09522170  1
  Nb  Nb106  1  0.29443107  0.30238301  0.09764675  1
  Nb  Nb107  1  0.89734866  0.69748421  0.50701087  1
  Nb  Nb108  1  0.70201432  0.89988939  0.10744972  1
  Nb  Nb109  1  0.30088561  0.70022507  0.69789914  1
  Nb  Nb110  1  0.50044473  0.70233573  0.29961295  1
  Nb  Nb111  1  0.70162453  0.09714103  0.70137789  1
  Nb  Nb112  1  0.30300670  0.09831195  0.89907068  1
  Nb  Nb113  1  0.90020965  0.10104518  0.49630656  1
  Nb  Nb114  1  0.70385473  0.69734994  0.89579943  1
  Nb  Nb115  1  0.49968193  0.90637773  0.69689493  1
  Nb  Nb116  1  0.90203727  0.89889670  0.30028385  1
  Nb  Nb117  1  0.09764008  0.10354751  0.70077785  1
  Nb  Nb118  1  0.09867646  0.70197126  0.09861909  1
  Nb  Nb119  1  0.89443365  0.70013285  0.69581325  1
  Nb  Nb120  1  0.89473214  0.50178222  0.10151551  1
  Nb  Nb121  1  0.49927025  0.50457979  0.90089127  1
  Nb  Nb122  1  0.49267801  0.09998624  0.49265735  1
  Nb  Nb123  1  0.30452966  0.30618776  0.70417608  1
  Nb  Nb124  1  0.09986646  0.29771627  0.09929177  1
  Nb  Nb125  1  0.19692180  0.39220918  0.19426814  1
  Nb  Nb126  1  0.59603635  0.60867545  0.20156681  1
  Nb  Nb127  1  0.00417605  0.20137985  0.00298284  1
  Nb  Nb128  1  -0.00101501  -0.00139021  0.40666829  1
  Nb  Nb129  1  0.59842860  0.59425104  0.60892838  1
  Nb  Nb130  1  0.19804639  0.20171074  0.40314710  1
  Nb  Nb131  1  0.20131006  0.60433488  -0.00519349  1
  Nb  Nb132  1  0.80360020  -0.00614296  0.20641492  1
  Nb  Nb133  1  0.40042190  0.20395465  0.79970603  1
  Nb  Nb134  1  0.20146935  0.79853364  0.60006214  1
  Nb  Nb135  1  0.20030710  0.60677989  0.60385914  1
  Nb  Nb136  1  0.20644303  0.60189934  0.79807015  1
  Nb  Nb137  1  0.80797818  0.80305009  0.39994715  1
  Nb  Nb138  1  0.59890628  0.20136997  0.00060609  1
  Nb  Nb139  1  0.80133839  0.39958370  0.39713089  1
  Nb  Nb140  1  0.80117362  0.80066661  0.20296520  1
  Nb  Nb141  1  0.80864295  -0.00085045  0.40011678  1
  Nb  Nb142  1  0.39299315  0.60146332  -0.00837451  1
  Nb  Nb143  1  0.80647994  0.40154044  0.00618392  1
  Nb  Nb144  1  0.40413162  0.79922277  0.40041467  1
  Nb  Nb145  1  0.79594843  0.60529576  0.79930688  1
  Nb  Nb146  1  0.39881887  0.60074154  0.80692820  1
  Nb  Nb147  1  0.60153655  0.59771918  0.80047370  1
  Nb  Nb148  1  0.60656044  0.79562588  0.19969800  1
  Nb  Nb149  1  0.39793079  0.80391548  0.59744350  1
  Pd  Pd150  1  0.19226934  0.19159748  0.00132080  1
  Pd  Pd151  1  0.20802377  -0.00485273  0.60662816  1
  Pd  Pd152  1  0.59050711  0.19475343  0.80915752  1
  Pd  Pd153  1  0.60365384  0.80262205  0.00743783  1
  Pd  Pd154  1  0.61017328  0.38992302  0.00555900  1
  Pd  Pd155  1  0.79580821  -0.00669965  0.00303882  1
  Pd  Pd156  1  0.19592650  0.80289231  0.19982334  1
  Pd  Pd157  1  -0.00804049  0.40802281  0.40243383  1
  Pd  Pd158  1  -0.00062954  0.00362803  0.80600391  1
  Pd  Pd159  1  0.59917808  0.80220744  0.40059608  1
  Pd  Pd160  1  0.59340116  0.19343363  0.59824024  1
  Pd  Pd161  1  0.40799609  0.79812880  0.80016673  1
  Pd  Pd162  1  0.80076117  0.80507535  0.00504682  1
  Pd  Pd163  1  0.39452713  0.39130980  0.39888713  1
  Pd  Pd164  1  0.00888487  0.00832691  -0.01054029  1
  Pd  Pd165  1  -0.00220279  0.39096131  0.59671350  1
  Pd  Pd166  1  0.80812975  -0.00168031  0.59946958  1
  Pd  Pd167  1  -0.00427205  0.39188054  -0.00214769  1
  Pd  Pd168  1  0.20625358  0.20066262  0.79500043  1
  Pd  Pd169  1  0.40660501  0.19565575  0.19700653  1
  Pd  Pd170  1  0.19085479  0.80086785  0.79139499  1
  Pd  Pd171  1  0.00264876  -0.00136113  0.20727186  1
  Pd  Pd172  1  0.00146829  0.80210589  -0.00151936  1
  Pd  Pd173  1  0.40904794  0.20221729  -0.00418041  1
  Pd  Pd174  1  0.79340165  0.19189930  0.19909727  1
  Pd  Pd175  1  0.39349448  -0.00504429  0.39211757  1
  Pd  Pd176  1  0.58891759  0.19568339  0.19167904  1
  Pd  Pd177  1  0.00000024  0.20703200  0.59894851  1
  Pd  Pd178  1  0.00457059  0.80209642  0.60551409  1
  Pd  Pd179  1  0.19306207  0.40842950  0.00540692  1
  Pd  Pd180  1  0.80022242  0.40709765  0.80912723  1
  Pd  Pd181  1  -0.00251722  0.59762521  0.79594176  1
  Pd  Pd182  1  0.59229132  0.79409524  0.59868912  1
  Pd  Pd183  1  0.60922873  0.00918493  0.40731240  1
  Pd  Pd184  1  0.59011241  0.60926645  0.00437240  1
  Pd  Pd185  1  0.60254497  0.00139814  0.19914734  1
  Pd  Pd186  1  0.59440151  0.40156253  0.59967176  1
  Pd  Pd187  1  0.39474585  0.80384277  -0.00273934  1
  Pd  Pd188  1  0.19507263  0.20083769  0.20195431  1
  Pd  Pd189  1  0.59721486  0.80121691  0.80041775  1
  Pd  Pd190  1  0.80280114  0.19415167  0.79474897  1
  Pd  Pd191  1  -0.00017335  0.39281980  0.79367139  1
  Pd  Pd192  1  0.39740444  0.20081109  0.60637668  1
  Pd  Pd193  1  0.19657590  -0.00679049  0.20071539  1
  Pd  Pd194  1  0.00049234  0.59980621  -0.00087490  1
  Pd  Pd195  1  0.60872499  0.40386618  0.80039764  1
  Pd  Pd196  1  0.79875692  0.21053515  0.00229516  1
  Pd  Pd197  1  0.79408933  0.61159861  0.19842303  1
  Pd  Pd198  1  0.19377541  0.60051168  0.40425803  1
  Pd  Pd199  1  0.00906572  0.59989464  0.59735253  1
  Rh  Rh200  1  0.60230582  0.40184948  0.40452762  1
  Rh  Rh201  1  0.60161581  0.00988263  0.59734919  1
  Rh  Rh202  1  0.39299293  0.20270421  0.39738891  1
  Rh  Rh203  1  0.20208974  0.40061945  0.60128202  1
  Rh  Rh204  1  0.19106876  0.59272885  0.18950700  1
  Rh  Rh205  1  0.80046089  0.79972755  0.80004890  1
  Rh  Rh206  1  0.20095776  0.39964093  0.79549715  1
  Rh  Rh207  1  0.19320024  0.00848785  0.39807225  1
  Rh  Rh208  1  0.81385747  0.59939141  0.40295929  1
  Rh  Rh209  1  0.79793943  0.00051504  0.79685647  1
  Rh  Rh210  1  0.19923031  0.00191318  -0.00137715  1
  Rh  Rh211  1  0.59721363  0.40756413  0.19552386  1
  Rh  Rh212  1  0.81251063  0.59392570  -0.00644678  1
  Rh  Rh213  1  0.20338481  0.20599237  0.59907534  1
  Rh  Rh214  1  0.39529347  0.40388755  -0.00030022  1
  Rh  Rh215  1  -0.00586455  0.80618119  0.40442009  1
  Rh  Rh216  1  0.20084372  0.00615129  0.79684062  1
  Rh  Rh217  1  0.40358467  0.38819451  0.59632472  1
  Rh  Rh218  1  0.00651804  0.40786605  0.19952686  1
  Rh  Rh219  1  0.20687311  0.79102977  0.39906932  1
  Rh  Rh220  1  0.60166950  0.00167521  0.80033146  1
  Rh  Rh221  1  0.80980424  0.39364974  0.58759648  1
  Rh  Rh222  1  0.19926809  0.79927619  0.00492062  1
  Rh  Rh223  1  0.00748420  0.19096995  0.18711160  1
  Rh  Rh224  1  0.00168908  0.19810447  0.80330968  1
  Rh  Rh225  1  0.00069370  0.59523589  0.40543493  1
  Rh  Rh226  1  0.79070002  0.20121982  0.39405444  1
  Rh  Rh227  1  0.01485907  0.19030801  0.41280638  1
  Rh  Rh228  1  0.80257899  0.80054941  0.59528843  1
  Rh  Rh229  1  0.40289658  0.60096484  0.38777798  1
  Rh  Rh230  1  0.40595883  0.59317552  0.19901316  1
  Rh  Rh231  1  0.60000195  0.19432125  0.40457534  1
  Rh  Rh232  1  0.40409748  0.60285908  0.61460704  1
  Rh  Rh233  1  0.20281422  0.39053018  0.38839871  1
  Rh  Rh234  1  -0.00283963  0.80561401  0.79717158  1
  Rh  Rh235  1  0.60506739  0.00386021  0.00008788  1
  Rh  Rh236  1  0.39442358  -0.00028782  -0.00057852  1
  Rh  Rh237  1  -0.00324543  -0.00048188  0.59781498  1
  Rh  Rh238  1  0.80509676  0.19924389  0.60785888  1
  Rh  Rh239  1  0.39594287  0.39587146  0.80693855  1
  Rh  Rh240  1  0.39487312  -0.00222369  0.60133277  1
  Rh  Rh241  1  0.79761694  0.40023917  0.20064396  1
  Rh  Rh242  1  0.59007258  0.58901335  0.40046100  1
  Rh  Rh243  1  0.00124925  0.79615520  0.19407825  1
  Rh  Rh244  1  0.39181817  0.39901982  0.20117668  1
  Rh  Rh245  1  0.79375152  0.60056866  0.60919174  1
  Rh  Rh246  1  0.39991425  0.00173154  0.20160112  1
  Rh  Rh247  1  0.00552062  0.60073569  0.19586869  1
  Rh  Rh248  1  0.39776050  0.01110237  0.79960227  1
  Rh  Rh249  1  0.40323952  0.81294291  0.20740968  1
