# generated using pymatgen
data_ZrScNbPdRh
_symmetry_space_group_name_H-M   'P 1'
_cell_length_a   16.56168222
_cell_length_b   16.56001106
_cell_length_c   16.55537836
_cell_angle_alpha   89.98990236
_cell_angle_beta   90.00411355
_cell_angle_gamma   90.06133629
_symmetry_Int_Tables_number   1
_chemical_formula_structural   ZrScNbPdRh
_chemical_formula_sum   'Zr50 Sc50 Nb50 Pd50 Rh50'
_cell_volume   4540.50254850
_cell_formula_units_Z   50
loop_
 _symmetry_equiv_pos_site_id
 _symmetry_equiv_pos_as_xyz
  1  'x, y, z'
loop_
 _atom_site_type_symbol
 _atom_site_label
 _atom_site_symmetry_multiplicity
 _atom_site_fract_x
 _atom_site_fract_y
 _atom_site_fract_z
 _atom_site_occupancy
  Zr  Zr0  1  0.49520603  0.49057638  0.70206900  1
  Zr  Zr1  1  0.10216771  0.49820726  0.51279475  1
  Zr  Zr2  1  0.30281712  0.30139531  0.68952144  1
  Zr  Zr3  1  0.10760479  0.69992651  0.69761131  1
  Zr  Zr4  1  0.10654455  0.28958060  0.49834771  1
  Zr  Zr5  1  0.28755321  0.49583636  0.69617624  1
  Zr  Zr6  1  0.29817205  0.70958330  0.89480140  1
  Zr  Zr7  1  0.09782389  0.90414647  0.89801687  1
  Zr  Zr8  1  0.30357466  0.50330227  0.30013768  1
  Zr  Zr9  1  0.90359988  0.50163922  0.29597006  1
  Zr  Zr10  1  0.29741468  0.49088910  0.49787824  1
  Zr  Zr11  1  0.30353090  0.30063790  0.10050247  1
  Zr  Zr12  1  0.09774471  0.11000217  0.89605397  1
  Zr  Zr13  1  0.69766223  0.90442458  0.68610739  1
  Zr  Zr14  1  0.70246317  0.49916018  0.49848861  1
  Zr  Zr15  1  0.49515795  0.90270951  0.90633237  1
  Zr  Zr16  1  0.90135075  0.70419289  0.49233042  1
  Zr  Zr17  1  0.49988808  0.70069263  0.29132734  1
  Zr  Zr18  1  0.49158768  0.09125555  0.89673548  1
  Zr  Zr19  1  0.69868672  0.68631361  0.10395704  1
  Zr  Zr20  1  0.90508639  0.29079016  0.29807195  1
  Zr  Zr21  1  0.90523323  0.11126776  0.49922933  1
  Zr  Zr22  1  0.90413292  0.70029396  0.30052494  1
  Zr  Zr23  1  0.69903144  0.90128504  0.10967932  1
  Zr  Zr24  1  0.29877801  0.70440014  0.69662550  1
  Zr  Zr25  1  0.08974890  0.50034504  0.70762983  1
  Zr  Zr26  1  0.90425232  0.89526764  0.30435711  1
  Zr  Zr27  1  0.49798650  0.70310484  0.90115827  1
  Zr  Zr28  1  0.89976808  0.29499975  0.90684169  1
  Zr  Zr29  1  0.49870088  0.09792306  0.10147697  1
  Zr  Zr30  1  0.89128305  0.29172892  0.69452000  1
  Zr  Zr31  1  0.90097606  0.10538718  0.10425578  1
  Zr  Zr32  1  0.10740407  0.90964697  0.50803464  1
  Zr  Zr33  1  0.91344610  0.50128336  0.89162950  1
  Zr  Zr34  1  0.28221945  0.89835611  0.69699193  1
  Zr  Zr35  1  0.09283642  0.69434640  0.89924457  1
  Zr  Zr36  1  0.49941679  0.29812334  0.10708121  1
  Zr  Zr37  1  0.70332517  0.49812976  0.70358318  1
  Zr  Zr38  1  0.69867745  0.69644574  0.29740312  1
  Zr  Zr39  1  0.29920622  0.90170807  0.29585114  1
  Zr  Zr40  1  0.69494467  0.50326547  0.29566338  1
  Zr  Zr41  1  0.29418038  0.49648678  0.09979643  1
  Zr  Zr42  1  0.70356269  0.29235051  0.09710709  1
  Zr  Zr43  1  0.29962625  0.28939024  0.30729944  1
  Zr  Zr44  1  0.09617557  0.70615078  0.10175003  1
  Zr  Zr45  1  0.69942615  0.29843011  0.29871607  1
  Zr  Zr46  1  0.90459897  0.49892281  0.09536621  1
  Zr  Zr47  1  0.70041115  0.69788933  0.89895146  1
  Zr  Zr48  1  0.30323400  0.90624204  0.89633435  1
  Zr  Zr49  1  0.10545825  0.49695175  0.90552553  1
  Sc  Sc50  1  0.70165784  0.91087082  0.30221668  1
  Sc  Sc51  1  0.49065131  0.30060326  0.70555519  1
  Sc  Sc52  1  0.90408384  0.10664846  0.90233940  1
  Sc  Sc53  1  0.49848252  0.90784644  0.29690412  1
  Sc  Sc54  1  0.89670262  0.70126594  0.90243270  1
  Sc  Sc55  1  0.90136991  0.89954805  0.90938895  1
  Sc  Sc56  1  0.09610818  0.10226302  0.10047206  1
  Sc  Sc57  1  0.09856804  0.50133436  0.09644640  1
  Sc  Sc58  1  0.49692009  0.49412250  0.10847001  1
  Sc  Sc59  1  0.48427003  0.30057027  0.49881763  1
  Sc  Sc60  1  0.89669052  0.10248175  0.30013937  1
  Sc  Sc61  1  0.49664467  0.90168144  0.10992167  1
  Sc  Sc62  1  0.70224924  0.50585881  0.89922874  1
  Sc  Sc63  1  0.90556944  0.90445175  0.09916484  1
  Sc  Sc64  1  0.09967185  0.29720899  0.90294453  1
  Sc  Sc65  1  0.70097441  0.09805301  0.10708179  1
  Sc  Sc66  1  0.29331214  0.29700942  0.90511486  1
  Sc  Sc67  1  0.30366550  0.10184116  0.70079848  1
  Sc  Sc68  1  0.50012653  0.49551691  0.30101217  1
  Sc  Sc69  1  0.49743669  0.30463937  0.29894212  1
  Sc  Sc70  1  0.89290442  0.69277560  0.70233513  1
  Sc  Sc71  1  0.50243787  0.91092896  0.68892813  1
  Sc  Sc72  1  0.70122952  0.10422047  0.91175185  1
  Sc  Sc73  1  0.70552152  0.70124408  0.70189757  1
  Sc  Sc74  1  0.88749281  0.89832139  0.68728233  1
  Sc  Sc75  1  0.49403058  0.49494768  0.48891268  1
  Sc  Sc76  1  0.09073842  0.90317607  0.10222503  1
  Sc  Sc77  1  0.29934844  0.70362240  0.11377091  1
  Sc  Sc78  1  0.10479910  0.89745058  0.29791700  1
  Sc  Sc79  1  0.49372049  0.09633186  0.30309971  1
  Sc  Sc80  1  0.30418603  0.90435027  0.10583238  1
  Sc  Sc81  1  0.10531904  0.29280274  0.70497676  1
  Sc  Sc82  1  0.30175346  0.10779025  0.10711648  1
  Sc  Sc83  1  0.48714063  0.08886270  0.49779987  1
  Sc  Sc84  1  0.09496575  0.29825140  0.09720417  1
  Sc  Sc85  1  0.49326370  0.70563129  0.49670697  1
  Sc  Sc86  1  0.50026328  0.70730794  0.69904165  1
  Sc  Sc87  1  0.30851297  0.90215640  0.49886011  1
  Sc  Sc88  1  0.88965719  0.89932556  0.49386495  1
  Sc  Sc89  1  0.70620018  0.90453487  0.90713322  1
  Sc  Sc90  1  0.10049600  0.70641895  0.29828193  1
  Sc  Sc91  1  0.10069090  0.69707446  0.49239303  1
  Sc  Sc92  1  0.29639791  0.70066013  0.30233929  1
  Sc  Sc93  1  0.49691473  0.30221884  0.89824347  1
  Sc  Sc94  1  0.10110218  0.50547465  0.29814181  1
  Sc  Sc95  1  0.70508670  0.70147245  0.49828615  1
  Sc  Sc96  1  0.70560346  0.09714899  0.29817569  1
  Sc  Sc97  1  0.71069434  0.29847214  0.50255771  1
  Sc  Sc98  1  0.70875692  0.08720229  0.49202710  1
  Sc  Sc99  1  0.50735278  0.49680357  0.89560320  1
  Nb  Nb100  1  0.29417268  0.11114462  0.49144725  1
  Nb  Nb101  1  0.09611552  0.09223044  0.68718040  1
  Nb  Nb102  1  0.29641938  0.50484392  0.90782833  1
  Nb  Nb103  1  0.70398979  0.29870650  0.89825747  1
  Nb  Nb104  1  0.70318674  0.10178201  0.70111329  1
  Nb  Nb105  1  0.89805085  0.49346211  0.69427925  1
  Nb  Nb106  1  0.90158226  0.30263426  0.49560028  1
  Nb  Nb107  1  0.30633229  0.69151737  0.49826379  1
  Nb  Nb108  1  0.90156159  0.70302480  0.10105418  1
  Nb  Nb109  1  0.50401533  0.70460733  0.10257581  1
  Nb  Nb110  1  0.29732566  0.29538712  0.50204050  1
  Nb  Nb111  1  0.90295937  0.30286642  0.10332483  1
  Nb  Nb112  1  0.50815940  0.90259491  0.49411599  1
  Nb  Nb113  1  0.09540117  0.30082136  0.29666100  1
  Nb  Nb114  1  0.90143101  0.49179616  0.51064417  1
  Nb  Nb115  1  0.69839021  0.29606397  0.70341900  1
  Nb  Nb116  1  0.70096918  0.89848076  0.49654378  1
  Nb  Nb117  1  0.89714709  0.10191988  0.69984613  1
  Nb  Nb118  1  0.70326968  0.49726857  0.10279101  1
  Nb  Nb119  1  0.09997250  0.90255666  0.69605479  1
  Nb  Nb120  1  0.10490695  0.10682098  0.30463142  1
  Nb  Nb121  1  0.10279193  0.09948805  0.50427908  1
  Nb  Nb122  1  0.29864722  0.09683888  0.90510942  1
  Nb  Nb123  1  0.50955229  0.10183436  0.70270554  1
  Nb  Nb124  1  0.29963877  0.09820257  0.30392583  1
  Nb  Nb125  1  0.39833818  0.60174414  -0.00264675  1
  Nb  Nb126  1  -0.00199823  0.39720032  0.40523479  1
  Nb  Nb127  1  0.60871617  0.39683068  0.00369471  1
  Nb  Nb128  1  0.59956505  0.19818601  0.60296108  1
  Nb  Nb129  1  0.19992308  0.80690063  -0.00164842  1
  Nb  Nb130  1  0.19917473  0.39454448  0.20362905  1
  Nb  Nb131  1  0.60178502  0.80741799  0.80589754  1
  Nb  Nb132  1  -0.00365124  0.00087221  0.78724366  1
  Nb  Nb133  1  0.80141549  0.39486911  0.79709819  1
  Nb  Nb134  1  0.80898707  0.40069122  0.39845021  1
  Nb  Nb135  1  0.00288944  0.80221061  0.60229581  1
  Nb  Nb136  1  0.80213569  0.79401044  0.19943472  1
  Nb  Nb137  1  0.20244631  0.00282695  -0.00370086  1
  Nb  Nb138  1  0.80219618  0.00868749  0.79432220  1
  Nb  Nb139  1  0.39332078  0.59665551  0.80083547  1
  Nb  Nb140  1  0.59838712  0.19707874  0.40809750  1
  Nb  Nb141  1  0.59925146  0.79605810  0.00373719  1
  Nb  Nb142  1  0.39807425  0.59747155  0.60197970  1
  Nb  Nb143  1  0.80297506  0.39972535  0.19743879  1
  Nb  Nb144  1  0.00120964  0.80736053  0.79018648  1
  Nb  Nb145  1  0.00953140  0.00918372  0.40353772  1
  Nb  Nb146  1  0.60185811  0.39531920  0.60359770  1
  Nb  Nb147  1  0.60033917  0.80743237  0.40108091  1
  Nb  Nb148  1  0.59475530  0.59321123  0.59932169  1
  Nb  Nb149  1  0.60293302  0.19658071  0.79680117  1
  Pd  Pd150  1  0.60455832  0.38761721  0.40984113  1
  Pd  Pd151  1  0.61150431  -0.00070689  0.80626490  1
  Pd  Pd152  1  0.20260465  0.39491494  0.80460992  1
  Pd  Pd153  1  0.19702004  0.00335556  0.19198586  1
  Pd  Pd154  1  0.59946422  -0.00563767  0.00609611  1
  Pd  Pd155  1  0.00384296  0.20607823  0.60444626  1
  Pd  Pd156  1  0.59317889  0.20382184  -0.00912120  1
  Pd  Pd157  1  0.19848516  0.60018018  0.39908566  1
  Pd  Pd158  1  0.19430745  0.01072308  0.80012602  1
  Pd  Pd159  1  0.59000293  0.59280370  0.00715367  1
  Pd  Pd160  1  0.40786286  0.40655765  -0.00521388  1
  Pd  Pd161  1  0.79807166  0.40386571  -0.00369813  1
  Pd  Pd162  1  0.79406563  0.79843925  0.01104396  1
  Pd  Pd163  1  0.59547562  0.19308310  0.21272499  1
  Pd  Pd164  1  0.39798677  -0.00482998  0.78651388  1
  Pd  Pd165  1  0.39312636  0.00314537  0.60148855  1
  Pd  Pd166  1  0.19553130  0.20408648  0.19714620  1
  Pd  Pd167  1  0.79245446  0.19322157  0.59203686  1
  Pd  Pd168  1  0.39676914  0.79761346  0.01318487  1
  Pd  Pd169  1  0.59343515  0.60834833  0.79057305  1
  Pd  Pd170  1  0.79751980  0.60391051  0.59753975  1
  Pd  Pd171  1  0.60262890  0.01141833  0.58840530  1
  Pd  Pd172  1  0.40216974  0.80176777  0.59855531  1
  Pd  Pd173  1  0.40406684  0.80394370  0.39326573  1
  Pd  Pd174  1  0.19309178  0.39858023  0.39353036  1
  Pd  Pd175  1  0.00559746  0.60147668  0.19663777  1
  Pd  Pd176  1  0.00167110  0.00516956  0.21164179  1
  Pd  Pd177  1  0.80599927  0.00672005  -0.00118717  1
  Pd  Pd178  1  0.40125909  0.19819983  -0.00318947  1
  Pd  Pd179  1  0.20222496  0.59851905  0.80053222  1
  Pd  Pd180  1  0.19813434  0.79361770  0.58551767  1
  Pd  Pd181  1  0.40189153  0.59972597  0.19531368  1
  Pd  Pd182  1  0.80723590  0.59581228  -0.00333846  1
  Pd  Pd183  1  -0.00518049  0.38557494  0.79713595  1
  Pd  Pd184  1  0.60148347  0.79203886  0.59642619  1
  Pd  Pd185  1  0.80550459  0.59364687  0.40223146  1
  Pd  Pd186  1  0.80031925  0.81277666  0.79957033  1
  Pd  Pd187  1  0.20230402  0.80056965  0.40512370  1
  Pd  Pd188  1  -0.01283260  -0.00599318  0.59481368  1
  Pd  Pd189  1  0.20538907  0.61381549  0.00854693  1
  Pd  Pd190  1  0.39966577  0.19965073  0.80405638  1
  Pd  Pd191  1  0.20413046  0.19543307  0.79460691  1
  Pd  Pd192  1  0.40668598  0.19242569  0.59846768  1
  Pd  Pd193  1  0.00750547  0.38653635  0.60141140  1
  Pd  Pd194  1  -0.00429058  0.60872025  0.60229423  1
  Pd  Pd195  1  0.40816826  0.81108924  0.78681508  1
  Pd  Pd196  1  0.00292769  0.58994484  0.40503692  1
  Pd  Pd197  1  0.59110371  0.60921671  0.40704213  1
  Pd  Pd198  1  0.38613822  0.40316251  0.81086352  1
  Pd  Pd199  1  0.20239450  0.00110749  0.40138808  1
  Rh  Rh200  1  0.80775990  0.58887667  0.80174453  1
  Rh  Rh201  1  0.40130435  0.40363989  0.59413230  1
  Rh  Rh202  1  0.79657032  0.19789335  0.80640329  1
  Rh  Rh203  1  0.20618074  0.60347121  0.59418856  1
  Rh  Rh204  1  -0.00370995  0.60296931  0.00222436  1
  Rh  Rh205  1  0.81177803  0.00174824  0.39776112  1
  Rh  Rh206  1  0.80156728  0.00637211  0.59821676  1
  Rh  Rh207  1  0.39263925  0.39559346  0.39575258  1
  Rh  Rh208  1  0.19754639  0.80446483  0.19366879  1
  Rh  Rh209  1  0.19627575  0.59514616  0.20007585  1
  Rh  Rh210  1  0.39565361  0.00603556  0.20292508  1
  Rh  Rh211  1  0.40340359  0.19762484  0.20674344  1
  Rh  Rh212  1  0.61047511  0.39007353  0.80455294  1
  Rh  Rh213  1  0.00534774  0.00911243  -0.00819697  1
  Rh  Rh214  1  0.40448742  0.19755896  0.40005317  1
  Rh  Rh215  1  0.79593409  0.39806622  0.60124754  1
  Rh  Rh216  1  0.40118440  0.59951027  0.40212508  1
  Rh  Rh217  1  0.80180458  0.20290303  0.19712993  1
  Rh  Rh218  1  0.78707412  0.80171843  0.38964443  1
  Rh  Rh219  1  0.60678196  0.80257342  0.20337927  1
  Rh  Rh220  1  0.00292923  0.39922118  0.20286571  1
  Rh  Rh221  1  0.80342510  0.19603980  0.00528001  1
  Rh  Rh222  1  0.20035815  0.19420155  0.00305444  1
  Rh  Rh223  1  0.39146373  0.00659355  0.01080596  1
  Rh  Rh224  1  -0.00210857  0.20235892  0.00637196  1
  Rh  Rh225  1  0.59881355  0.00169012  0.40036826  1
  Rh  Rh226  1  0.38964808  0.39625214  0.20733333  1
  Rh  Rh227  1  0.60662469  0.40146297  0.19240980  1
  Rh  Rh228  1  0.59749572  0.00634311  0.20255017  1
  Rh  Rh229  1  0.19246709  0.39126067  0.60300001  1
  Rh  Rh230  1  0.80918769  0.59939134  0.19507071  1
  Rh  Rh231  1  0.00502396  0.39769608  -0.00130044  1
  Rh  Rh232  1  -0.00621224  0.80143138  0.19910435  1
  Rh  Rh233  1  0.18962100  0.80124787  0.80626985  1
  Rh  Rh234  1  0.39323515  -0.00236945  0.39910270  1
  Rh  Rh235  1  0.00439113  0.19590387  0.20006165  1
  Rh  Rh236  1  0.21309323  0.01153989  0.59694766  1
  Rh  Rh237  1  0.79198580  0.20310027  0.40035455  1
  Rh  Rh238  1  0.01313994  0.81487065  0.41262016  1
  Rh  Rh239  1  0.00753099  0.19878453  0.39771096  1
  Rh  Rh240  1  0.80725343  -0.00754139  0.20062589  1
  Rh  Rh241  1  0.39957565  0.80142055  0.20525185  1
  Rh  Rh242  1  0.00080398  0.19572780  0.79099121  1
  Rh  Rh243  1  0.20404930  0.19381866  0.60351048  1
  Rh  Rh244  1  0.59098108  0.59157077  0.19737071  1
  Rh  Rh245  1  0.19610121  0.39386982  0.00655788  1
  Rh  Rh246  1  0.00318988  0.79718827  -0.00577410  1
  Rh  Rh247  1  -0.00501318  0.60737563  0.79188550  1
  Rh  Rh248  1  0.80396281  0.79339278  0.59438528  1
  Rh  Rh249  1  0.19630626  0.19940292  0.39756714  1
