# generated using pymatgen
data_ZrScNbPdRh
_symmetry_space_group_name_H-M   'P 1'
_cell_length_a   16.55898384
_cell_length_b   16.55416796
_cell_length_c   16.56110478
_cell_angle_alpha   90.00383127
_cell_angle_beta   90.00420493
_cell_angle_gamma   90.03287097
_symmetry_Int_Tables_number   1
_chemical_formula_structural   ZrScNbPdRh
_chemical_formula_sum   'Zr50 Sc50 Nb50 Pd50 Rh50'
_cell_volume   4539.73258026
_cell_formula_units_Z   50
loop_
 _symmetry_equiv_pos_site_id
 _symmetry_equiv_pos_as_xyz
  1  'x, y, z'
loop_
 _atom_site_type_symbol
 _atom_site_label
 _atom_site_symmetry_multiplicity
 _atom_site_fract_x
 _atom_site_fract_y
 _atom_site_fract_z
 _atom_site_occupancy
  Zr  Zr0  1  0.30485597  0.29948838  0.10478447  1
  Zr  Zr1  1  0.90343907  0.69655947  0.49753647  1
  Zr  Zr2  1  0.10450062  0.09728831  0.70180406  1
  Zr  Zr3  1  0.71128138  0.89898293  0.09420057  1
  Zr  Zr4  1  0.70758907  0.10328081  0.09430428  1
  Zr  Zr5  1  0.29747723  0.10076396  0.09547755  1
  Zr  Zr6  1  0.09844683  0.49736090  0.49660919  1
  Zr  Zr7  1  0.30093439  0.30293889  0.90014618  1
  Zr  Zr8  1  0.70061594  0.10382214  0.70751350  1
  Zr  Zr9  1  0.49551322  0.29451345  0.30484530  1
  Zr  Zr10  1  0.50535708  0.70026565  0.29561017  1
  Zr  Zr11  1  0.10274442  0.49851148  0.30131539  1
  Zr  Zr12  1  0.30414744  0.30175284  0.50832003  1
  Zr  Zr13  1  0.89515626  0.49417054  0.09675574  1
  Zr  Zr14  1  0.89830332  0.49680493  0.49312858  1
  Zr  Zr15  1  0.09469746  0.70340830  0.10239307  1
  Zr  Zr16  1  0.89929599  0.90127094  0.48911463  1
  Zr  Zr17  1  0.31255328  0.90305883  0.50899122  1
  Zr  Zr18  1  0.30629957  0.10237128  0.90000528  1
  Zr  Zr19  1  0.49328683  0.49611994  0.89995145  1
  Zr  Zr20  1  0.09621759  0.09486825  0.10044414  1
  Zr  Zr21  1  0.69901474  0.69663883  0.70400767  1
  Zr  Zr22  1  0.10481477  0.30170983  0.29946769  1
  Zr  Zr23  1  0.49565178  0.29708298  0.49745481  1
  Zr  Zr24  1  0.10285273  0.09610177  0.90641147  1
  Zr  Zr25  1  0.09514348  0.89753487  0.29518693  1
  Zr  Zr26  1  0.09831416  0.10421142  0.29467154  1
  Zr  Zr27  1  0.70660464  0.29095962  0.89565352  1
  Zr  Zr28  1  0.90294304  0.30874202  0.50257787  1
  Zr  Zr29  1  0.69800254  0.09142357  0.50456351  1
  Zr  Zr30  1  0.50169531  0.10015211  0.09442894  1
  Zr  Zr31  1  0.49531791  0.29951724  0.69726103  1
  Zr  Zr32  1  0.10266892  0.10307307  0.50349095  1
  Zr  Zr33  1  0.70717537  0.70282164  0.90252643  1
  Zr  Zr34  1  0.49447016  0.69648052  0.10115508  1
  Zr  Zr35  1  0.10571901  0.69225163  0.70673749  1
  Zr  Zr36  1  0.89366382  0.71162254  0.09673524  1
  Zr  Zr37  1  0.29596229  0.49756944  0.69629392  1
  Zr  Zr38  1  0.49541417  0.69875786  0.69909737  1
  Zr  Zr39  1  0.29027261  0.50168859  0.30115661  1
  Zr  Zr40  1  0.30922260  0.49450969  0.10541100  1
  Zr  Zr41  1  0.90113880  0.30007438  0.29659507  1
  Zr  Zr42  1  0.69720442  0.70458751  0.10838125  1
  Zr  Zr43  1  0.89777151  0.10375048  0.70054098  1
  Zr  Zr44  1  0.69748381  0.48659171  0.10601010  1
  Zr  Zr45  1  0.70287394  0.90705377  0.70582269  1
  Zr  Zr46  1  0.69391212  0.09487769  0.90554970  1
  Zr  Zr47  1  0.90447420  0.49535648  0.90437653  1
  Zr  Zr48  1  0.49481645  0.70035168  0.90438051  1
  Zr  Zr49  1  0.69919818  0.89077386  0.30399563  1
  Sc  Sc50  1  0.69437287  0.49780206  0.30982625  1
  Sc  Sc51  1  0.89521711  0.29649459  0.09271411  1
  Sc  Sc52  1  0.69503643  0.30233296  0.29324317  1
  Sc  Sc53  1  0.09748596  0.30427964  0.49820830  1
  Sc  Sc54  1  0.90230726  0.89995744  0.29962512  1
  Sc  Sc55  1  0.10366236  0.30999003  0.91099074  1
  Sc  Sc56  1  0.49302637  0.90941165  0.69661344  1
  Sc  Sc57  1  0.89129582  0.30168031  0.69541195  1
  Sc  Sc58  1  0.09526941  0.90080978  0.49232254  1
  Sc  Sc59  1  0.29009804  0.49910694  0.90320246  1
  Sc  Sc60  1  0.89504359  0.89890892  0.90647641  1
  Sc  Sc61  1  0.10705229  0.50311710  0.09384731  1
  Sc  Sc62  1  0.31082089  0.10510226  0.28827893  1
  Sc  Sc63  1  0.10478198  0.30645170  0.68945433  1
  Sc  Sc64  1  0.30724154  0.90136992  0.28970581  1
  Sc  Sc65  1  0.49980493  0.49714404  0.30586859  1
  Sc  Sc66  1  0.49997520  0.31198381  0.10123068  1
  Sc  Sc67  1  0.50041067  0.10510588  0.70385114  1
  Sc  Sc68  1  0.50197091  0.09598590  0.89574368  1
  Sc  Sc69  1  0.29271690  0.69715728  0.89251438  1
  Sc  Sc70  1  0.90414946  0.09994089  0.29478381  1
  Sc  Sc71  1  0.30218439  0.30419399  0.29531853  1
  Sc  Sc72  1  0.10395599  0.69713062  0.29796869  1
  Sc  Sc73  1  0.09625820  0.69146940  0.49742973  1
  Sc  Sc74  1  0.70022171  0.30176298  0.70576737  1
  Sc  Sc75  1  0.89922086  0.10190288  0.91063778  1
  Sc  Sc76  1  0.90286998  0.70595489  0.30688122  1
  Sc  Sc77  1  0.30641308  0.10053954  0.69647174  1
  Sc  Sc78  1  0.30156703  0.69402521  0.69771086  1
  Sc  Sc79  1  0.49477640  0.88984404  0.08976247  1
  Sc  Sc80  1  0.30034195  0.90324745  0.70281488  1
  Sc  Sc81  1  0.90127538  0.49838401  0.69462941  1
  Sc  Sc82  1  0.89874463  0.69103983  0.89872234  1
  Sc  Sc83  1  0.30635102  0.10194499  0.50643166  1
  Sc  Sc84  1  0.10330745  0.50278078  0.69831862  1
  Sc  Sc85  1  0.29707513  0.90271178  0.90085666  1
  Sc  Sc86  1  0.50205282  0.90349873  0.30357634  1
  Sc  Sc87  1  0.50644004  0.29755495  0.89467517  1
  Sc  Sc88  1  0.10083925  0.90683189  0.89690262  1
  Sc  Sc89  1  0.70276117  0.10694843  0.29118634  1
  Sc  Sc90  1  0.10203990  0.29372726  0.10412758  1
  Sc  Sc91  1  0.89330849  0.90137358  0.71146010  1
  Sc  Sc92  1  0.69904653  0.49307138  0.89120267  1
  Sc  Sc93  1  0.30410516  0.70068612  0.10942927  1
  Sc  Sc94  1  0.70020701  0.30718479  0.50147482  1
  Sc  Sc95  1  0.50107141  0.10393936  0.30445904  1
  Sc  Sc96  1  0.49724626  0.68860388  0.50572573  1
  Sc  Sc97  1  0.30146598  0.89744108  0.09844347  1
  Sc  Sc98  1  0.49850296  0.51057193  0.70167827  1
  Sc  Sc99  1  0.90379282  0.09975353  0.49819664  1
  Nb  Nb100  1  0.70380586  0.29506029  0.10395743  1
  Nb  Nb101  1  0.69378968  0.50550021  0.50086682  1
  Nb  Nb102  1  0.50466786  0.90497984  0.50027627  1
  Nb  Nb103  1  0.69658443  0.89759093  0.50144825  1
  Nb  Nb104  1  0.89650389  0.70374042  0.70051186  1
  Nb  Nb105  1  0.10135283  0.69289031  0.89635300  1
  Nb  Nb106  1  0.69720317  0.69839836  0.30066170  1
  Nb  Nb107  1  0.50111709  0.89844440  0.89736524  1
  Nb  Nb108  1  0.89819694  0.49886890  0.29806513  1
  Nb  Nb109  1  0.49921256  0.09759675  0.49882753  1
  Nb  Nb110  1  0.69761238  0.69781347  0.49624702  1
  Nb  Nb111  1  0.49780898  0.50145140  0.09471764  1
  Nb  Nb112  1  0.30332652  0.70135568  0.50307561  1
  Nb  Nb113  1  0.90536960  0.89933090  0.10102145  1
  Nb  Nb114  1  0.30266874  0.70247836  0.30443047  1
  Nb  Nb115  1  0.90475337  0.30145129  0.89585075  1
  Nb  Nb116  1  0.69339679  0.50089101  0.69415323  1
  Nb  Nb117  1  0.89606855  0.09609317  0.10103967  1
  Nb  Nb118  1  0.10263709  0.89571889  0.70336271  1
  Nb  Nb119  1  0.50059052  0.49619293  0.50058226  1
  Nb  Nb120  1  0.69279827  0.90284327  0.89984935  1
  Nb  Nb121  1  0.30485608  0.50525558  0.49996288  1
  Nb  Nb122  1  0.30041436  0.29986716  0.70057714  1
  Nb  Nb123  1  0.09272024  0.89602427  0.09705446  1
  Nb  Nb124  1  0.09717504  0.50813533  0.89561908  1
  Nb  Nb125  1  -0.00885706  0.59522699  0.19939943  1
  Nb  Nb126  1  0.00448477  0.20705791  0.80332668  1
  Nb  Nb127  1  -0.00288238  0.40452829  0.19903701  1
  Nb  Nb128  1  0.00426786  0.79395276  0.79779400  1
  Nb  Nb129  1  -0.00094184  0.80164468  0.60743630  1
  Nb  Nb130  1  0.80159859  0.20298330  0.40164127  1
  Nb  Nb131  1  0.59768072  0.59524761  0.00600957  1
  Nb  Nb132  1  0.40526121  0.80102016  0.80178888  1
  Nb  Nb133  1  0.00296948  0.39865618  0.80474278  1
  Nb  Nb134  1  0.60370868  0.80367401  0.59677103  1
  Nb  Nb135  1  0.79339432  0.60257655  0.59618691  1
  Nb  Nb136  1  0.39945284  0.79751458  0.40550251  1
  Nb  Nb137  1  0.79671519  0.79800625  0.59564245  1
  Nb  Nb138  1  0.59693255  0.40872273  0.59814191  1
  Nb  Nb139  1  0.39392420  0.39806871  0.79580519  1
  Nb  Nb140  1  0.00192438  -0.00699997  0.60684536  1
  Nb  Nb141  1  0.20389461  0.00123966  0.39564518  1
  Nb  Nb142  1  0.59858782  0.80511391  0.79979166  1
  Nb  Nb143  1  0.21053720  0.80170547  0.40314938  1
  Nb  Nb144  1  0.18994263  0.79707365  -0.00077654  1
  Nb  Nb145  1  0.79867972  0.60086875  0.20609276  1
  Nb  Nb146  1  0.19869129  0.20468996  0.79895217  1
  Nb  Nb147  1  0.20344702  0.19655889  0.39973330  1
  Nb  Nb148  1  0.19673620  0.79913844  0.59779338  1
  Nb  Nb149  1  0.60439608  -0.00157336  0.19194638  1
  Pd  Pd150  1  0.59967643  0.60294174  0.81138476  1
  Pd  Pd151  1  0.80973773  -0.00608091  0.59778366  1
  Pd  Pd152  1  0.79467372  0.00843215  0.39168522  1
  Pd  Pd153  1  0.80573111  0.40508615  0.79394607  1
  Pd  Pd154  1  0.40165457  -0.00480634  -0.00302574  1
  Pd  Pd155  1  0.58897790  0.79299101  0.40888061  1
  Pd  Pd156  1  0.20137634  -0.00172709  0.19990286  1
  Pd  Pd157  1  0.60284762  0.20693798  0.59821437  1
  Pd  Pd158  1  0.19959875  0.40326509  0.59284901  1
  Pd  Pd159  1  0.59735323  0.20860355  0.00176964  1
  Pd  Pd160  1  0.79242759  0.39506760  0.39542197  1
  Pd  Pd161  1  0.79921514  0.79711192  0.40045339  1
  Pd  Pd162  1  0.19907927  0.20214579  -0.00252349  1
  Pd  Pd163  1  0.60454642  0.39766981  -0.00509604  1
  Pd  Pd164  1  0.20049928  0.60598051  0.40555268  1
  Pd  Pd165  1  0.80434936  0.58953808  0.79342076  1
  Pd  Pd166  1  0.59477809  0.19721146  0.19492687  1
  Pd  Pd167  1  0.39323044  0.40176352  0.39710775  1
  Pd  Pd168  1  0.19978517  0.40221469  0.00656398  1
  Pd  Pd169  1  0.79293977  0.39218109  -0.00423805  1
  Pd  Pd170  1  -0.00114047  0.60084846  0.00601476  1
  Pd  Pd171  1  0.20223482  0.80088386  0.19926927  1
  Pd  Pd172  1  0.79825153  -0.00371145  0.20484792  1
  Pd  Pd173  1  0.20725855  0.60780045  0.00713590  1
  Pd  Pd174  1  -0.00022970  0.19982412  0.40116571  1
  Pd  Pd175  1  0.40381309  0.60258908  0.39735878  1
  Pd  Pd176  1  0.20903966  0.00613245  0.79964353  1
  Pd  Pd177  1  0.60588827  0.00614471  0.39063696  1
  Pd  Pd178  1  0.59173161  0.40055791  0.20608788  1
  Pd  Pd179  1  0.78780276  0.59579014  0.00827101  1
  Pd  Pd180  1  0.59444849  0.81119130  0.19589478  1
  Pd  Pd181  1  0.39637701  0.00026353  0.39835098  1
  Pd  Pd182  1  0.00123611  0.20070290  0.60721573  1
  Pd  Pd183  1  -0.00141557  0.20123882  0.00063035  1
  Pd  Pd184  1  0.59514377  0.00000352  0.60665003  1
  Pd  Pd185  1  -0.00554063  -0.00011023  0.80092319  1
  Pd  Pd186  1  -0.00528734  0.59990743  0.60428180  1
  Pd  Pd187  1  0.39250949  0.60111455  -0.00268016  1
  Pd  Pd188  1  0.39989209  0.59444338  0.20992310  1
  Pd  Pd189  1  0.00352359  0.80123560  -0.01463021  1
  Pd  Pd190  1  0.41057047  0.20718406  -0.00105852  1
  Pd  Pd191  1  0.41283741  -0.00249331  0.19329112  1
  Pd  Pd192  1  0.19558486  -0.00889674  0.59336282  1
  Pd  Pd193  1  0.79391244  0.20192755  0.59191224  1
  Pd  Pd194  1  0.80496177  0.00730383  0.81313113  1
  Pd  Pd195  1  0.79695443  0.60035065  0.39696940  1
  Pd  Pd196  1  0.61004995  0.19871883  0.40501718  1
  Pd  Pd197  1  -0.00418948  -0.00149203  0.19771385  1
  Pd  Pd198  1  0.60373687  0.59000608  0.19904546  1
  Pd  Pd199  1  0.60207682  0.79613358  -0.00226059  1
  Rh  Rh200  1  0.40628496  0.20325758  0.19511621  1
  Rh  Rh201  1  0.40514729  0.80128514  0.20771451  1
  Rh  Rh202  1  0.80385066  -0.00272617  -0.00117885  1
  Rh  Rh203  1  0.40019215  0.39689005  -0.00635385  1
  Rh  Rh204  1  0.80143544  0.80418594  -0.00595393  1
  Rh  Rh205  1  0.19715542  -0.01012261  0.00928885  1
  Rh  Rh206  1  0.19904382  0.60209056  0.19791658  1
  Rh  Rh207  1  -0.00501260  0.59725070  0.79827982  1
  Rh  Rh208  1  0.80430713  0.20298979  0.20101356  1
  Rh  Rh209  1  0.79013635  0.40993838  0.60047533  1
  Rh  Rh210  1  -0.00520586  0.79599487  0.20446690  1
  Rh  Rh211  1  0.19503007  0.40023914  0.19294289  1
  Rh  Rh212  1  0.20340618  0.60213286  0.59234276  1
  Rh  Rh213  1  0.00074287  0.40347872  0.60670747  1
  Rh  Rh214  1  0.01123765  0.79440275  0.40121863  1
  Rh  Rh215  1  0.59478864  0.60244181  0.40048479  1
  Rh  Rh216  1  0.00586270  0.40179616  0.00102134  1
  Rh  Rh217  1  0.39302490  0.19596504  0.40387894  1
  Rh  Rh218  1  0.39008174  0.59606105  0.80234311  1
  Rh  Rh219  1  0.40390876  0.19410012  0.60001910  1
  Rh  Rh220  1  0.80749207  0.19531131  0.80586955  1
  Rh  Rh221  1  0.80268654  0.20164483  -0.00185502  1
  Rh  Rh222  1  0.40525275  0.40428751  0.20723342  1
  Rh  Rh223  1  0.20388820  0.59121850  0.79956741  1
  Rh  Rh224  1  0.39400213  0.20498566  0.79988931  1
  Rh  Rh225  1  0.60218144  0.60018434  0.59515932  1
  Rh  Rh226  1  0.80526805  0.79720453  0.20847970  1
  Rh  Rh227  1  0.40665826  0.40897566  0.60611856  1
  Rh  Rh228  1  0.20363797  0.20385717  0.60007874  1
  Rh  Rh229  1  0.20114103  0.79947213  0.80097356  1
  Rh  Rh230  1  -0.00303964  -0.00272444  0.00435189  1
  Rh  Rh231  1  0.40874394  0.00938045  0.60203481  1
  Rh  Rh232  1  0.39879024  -0.00397813  0.80229303  1
  Rh  Rh233  1  0.20523562  0.19870870  0.20365367  1
  Rh  Rh234  1  0.19650242  0.39831335  0.80018259  1
  Rh  Rh235  1  0.79896238  0.80218916  0.80366437  1
  Rh  Rh236  1  0.00172112  0.59746654  0.39042889  1
  Rh  Rh237  1  0.59586554  -0.00128321  0.79816627  1
  Rh  Rh238  1  0.59882355  0.39724383  0.40722158  1
  Rh  Rh239  1  0.38338950  0.79864940  -0.01075788  1
  Rh  Rh240  1  0.20825656  0.39250496  0.40806408  1
  Rh  Rh241  1  0.59688892  -0.00588837  0.00574821  1
  Rh  Rh242  1  0.58995513  0.40209136  0.78844542  1
  Rh  Rh243  1  0.39606807  0.59275749  0.59930470  1
  Rh  Rh244  1  0.40271338  0.80134185  0.60258031  1
  Rh  Rh245  1  0.00105349  0.40237375  0.39291412  1
  Rh  Rh246  1  0.80177575  0.39993887  0.20380949  1
  Rh  Rh247  1  0.60126613  0.19720169  0.80016412  1
  Rh  Rh248  1  -0.00746741  0.20537809  0.18958812  1
  Rh  Rh249  1  0.00748758  0.00662970  0.40214596  1
