# generated using pymatgen
data_ZrScNbPdRh
_symmetry_space_group_name_H-M   'P 1'
_cell_length_a   16.55387381
_cell_length_b   16.55794117
_cell_length_c   16.55565174
_cell_angle_alpha   90.02427215
_cell_angle_beta   89.99084376
_cell_angle_gamma   89.97573698
_symmetry_Int_Tables_number   1
_chemical_formula_structural   ZrScNbPdRh
_chemical_formula_sum   'Zr50 Sc50 Nb50 Pd50 Rh50'
_cell_volume   4537.87129540
_cell_formula_units_Z   50
loop_
 _symmetry_equiv_pos_site_id
 _symmetry_equiv_pos_as_xyz
  1  'x, y, z'
loop_
 _atom_site_type_symbol
 _atom_site_label
 _atom_site_symmetry_multiplicity
 _atom_site_fract_x
 _atom_site_fract_y
 _atom_site_fract_z
 _atom_site_occupancy
  Zr  Zr0  1  0.69908020  0.69947630  0.90501654  1
  Zr  Zr1  1  0.69460404  0.50370174  0.50412112  1
  Zr  Zr2  1  0.70292023  0.68836820  0.69759778  1
  Zr  Zr3  1  0.10130765  0.30221561  0.30036945  1
  Zr  Zr4  1  0.48904900  0.49625184  0.29967942  1
  Zr  Zr5  1  0.90316960  0.49880052  0.29841973  1
  Zr  Zr6  1  0.10599393  0.10320029  0.09265120  1
  Zr  Zr7  1  0.50228981  0.29859909  0.49658901  1
  Zr  Zr8  1  0.50713799  0.10789802  0.70918085  1
  Zr  Zr9  1  0.89347077  0.49493735  0.70455482  1
  Zr  Zr10  1  0.70347256  0.90914317  0.49309981  1
  Zr  Zr11  1  0.70018463  0.90477716  0.70363082  1
  Zr  Zr12  1  0.69814279  0.10298115  0.10537674  1
  Zr  Zr13  1  0.09833821  0.49602560  0.10383025  1
  Zr  Zr14  1  0.89043226  0.69389411  0.90298895  1
  Zr  Zr15  1  0.30078203  0.49302289  0.69921158  1
  Zr  Zr16  1  0.50182977  0.48367816  0.90006587  1
  Zr  Zr17  1  0.69645272  0.89886326  0.89996357  1
  Zr  Zr18  1  0.10097606  0.30306812  0.50150825  1
  Zr  Zr19  1  0.70136636  0.50108832  0.09895412  1
  Zr  Zr20  1  0.89926779  0.69550282  0.30651883  1
  Zr  Zr21  1  0.30612599  0.10674702  0.90967091  1
  Zr  Zr22  1  0.89450093  0.69914868  0.10276747  1
  Zr  Zr23  1  0.90765954  0.50230522  0.49630310  1
  Zr  Zr24  1  0.28642182  0.90289699  0.29929799  1
  Zr  Zr25  1  0.90451320  0.90778830  0.69525753  1
  Zr  Zr26  1  0.70494289  0.69830909  0.49045244  1
  Zr  Zr27  1  0.09733609  0.69824944  0.50038165  1
  Zr  Zr28  1  0.29439209  0.69755816  0.50207993  1
  Zr  Zr29  1  0.90358853  0.29519735  0.50230612  1
  Zr  Zr30  1  0.90649787  0.50218401  0.09955118  1
  Zr  Zr31  1  0.49685643  0.89480034  0.70568729  1
  Zr  Zr32  1  0.90050219  0.10364036  0.69404978  1
  Zr  Zr33  1  0.10044492  0.49725920  0.30471189  1
  Zr  Zr34  1  0.49988021  0.70389214  0.29285701  1
  Zr  Zr35  1  0.29224790  0.10671216  0.70056389  1
  Zr  Zr36  1  0.49691407  0.70499224  0.90464964  1
  Zr  Zr37  1  0.89770678  0.29419269  0.29709340  1
  Zr  Zr38  1  0.29671587  0.49785438  0.90466779  1
  Zr  Zr39  1  0.29974812  0.69302287  0.90314205  1
  Zr  Zr40  1  0.70069438  0.70746458  0.29191029  1
  Zr  Zr41  1  0.70221369  0.49949318  0.29916148  1
  Zr  Zr42  1  0.09732241  0.90327827  0.90410629  1
  Zr  Zr43  1  0.09922709  0.90740337  0.29918117  1
  Zr  Zr44  1  0.90176630  0.91169847  0.49790926  1
  Zr  Zr45  1  0.29364800  0.10301791  0.49406968  1
  Zr  Zr46  1  0.49378088  0.69578160  0.69341824  1
  Zr  Zr47  1  0.89903391  0.90085445  0.90196219  1
  Zr  Zr48  1  0.49988466  0.10198067  0.48814111  1
  Zr  Zr49  1  0.69976872  0.90895347  0.29738116  1
  Sc  Sc50  1  0.49416935  0.69622934  0.50376394  1
  Sc  Sc51  1  0.29329150  0.30285639  0.70439636  1
  Sc  Sc52  1  0.10057315  0.29943094  0.69690201  1
  Sc  Sc53  1  0.90188923  0.90576126  0.29640933  1
  Sc  Sc54  1  0.29811386  0.90234577  0.10253503  1
  Sc  Sc55  1  0.70627256  0.28855647  0.10587832  1
  Sc  Sc56  1  0.10129812  0.70595005  0.30669172  1
  Sc  Sc57  1  0.29113566  0.90973112  0.49704710  1
  Sc  Sc58  1  0.89796589  0.10070887  0.49887235  1
  Sc  Sc59  1  0.09639718  0.91061031  0.69833358  1
  Sc  Sc60  1  0.49867925  0.29367465  0.30788881  1
  Sc  Sc61  1  0.30186762  0.70329562  0.70404185  1
  Sc  Sc62  1  0.10362316  0.69610987  0.69920329  1
  Sc  Sc63  1  0.30921275  0.89058189  0.90281776  1
  Sc  Sc64  1  0.70399160  0.90021999  0.10582661  1
  Sc  Sc65  1  0.50887090  0.90342932  0.29745897  1
  Sc  Sc66  1  0.70767994  0.10661592  0.49697143  1
  Sc  Sc67  1  0.10123727  0.49331639  0.90443963  1
  Sc  Sc68  1  0.30016694  0.29719804  0.89139430  1
  Sc  Sc69  1  0.09624865  0.10252151  0.69746687  1
  Sc  Sc70  1  0.29849605  0.29954824  0.30133558  1
  Sc  Sc71  1  0.49555729  0.11624597  0.09691554  1
  Sc  Sc72  1  0.50212260  0.89403684  0.90149355  1
  Sc  Sc73  1  0.90039652  0.10590622  0.10048386  1
  Sc  Sc74  1  0.09718265  0.90573484  0.10704842  1
  Sc  Sc75  1  0.89961722  0.09933591  0.30245788  1
  Sc  Sc76  1  0.50171446  0.70078191  0.09846952  1
  Sc  Sc77  1  0.09788443  0.90810086  0.49720398  1
  Sc  Sc78  1  0.30968105  0.49799059  0.09830698  1
  Sc  Sc79  1  0.10204047  0.50013989  0.50062332  1
  Sc  Sc80  1  0.10048897  0.09780649  0.29706770  1
  Sc  Sc81  1  0.69856194  0.10743974  0.89441832  1
  Sc  Sc82  1  0.29443331  0.50191102  0.50049817  1
  Sc  Sc83  1  0.10516022  0.49196724  0.69175308  1
  Sc  Sc84  1  0.90193106  0.90119052  0.10014827  1
  Sc  Sc85  1  0.29551619  0.70162419  0.29981703  1
  Sc  Sc86  1  0.49810970  0.89239336  0.09845384  1
  Sc  Sc87  1  0.10269488  0.10412720  0.50301759  1
  Sc  Sc88  1  0.70398833  0.49850704  0.90007868  1
  Sc  Sc89  1  0.09137455  0.69433132  0.10367750  1
  Sc  Sc90  1  0.49778713  0.49810367  0.09505593  1
  Sc  Sc91  1  0.70155583  0.29834771  0.89431969  1
  Sc  Sc92  1  0.48868824  0.50239518  0.50504866  1
  Sc  Sc93  1  0.90964776  0.10935505  0.90052607  1
  Sc  Sc94  1  0.10802009  0.69135933  0.89990041  1
  Sc  Sc95  1  0.89845087  0.69608820  0.69673698  1
  Sc  Sc96  1  0.09422248  0.29544716  0.89677415  1
  Sc  Sc97  1  0.49917745  0.29400954  0.89770897  1
  Sc  Sc98  1  0.50146769  0.90268285  0.49198216  1
  Sc  Sc99  1  0.70411468  0.11042083  0.70125383  1
  Nb  Nb100  1  0.50303592  0.10009684  0.30182548  1
  Nb  Nb101  1  0.10400584  0.09487256  0.89501283  1
  Nb  Nb102  1  0.70022117  0.30101565  0.49839979  1
  Nb  Nb103  1  0.29782500  0.29143732  0.50263962  1
  Nb  Nb104  1  0.50003555  0.30420763  0.10403181  1
  Nb  Nb105  1  0.90431189  0.30667595  0.89837284  1
  Nb  Nb106  1  0.69392417  0.10933396  0.29274026  1
  Nb  Nb107  1  0.69748416  0.69912464  0.09928478  1
  Nb  Nb108  1  0.50018438  0.30509109  0.70530049  1
  Nb  Nb109  1  0.90197120  0.70192392  0.49749394  1
  Nb  Nb110  1  0.29652047  0.50423433  0.29934253  1
  Nb  Nb111  1  0.29961381  0.90290273  0.70146880  1
  Nb  Nb112  1  0.89510534  0.29779707  0.70420996  1
  Nb  Nb113  1  0.90290224  0.49427189  0.90225952  1
  Nb  Nb114  1  0.30175513  0.10533185  0.10200382  1
  Nb  Nb115  1  0.10059133  0.29865221  0.10228413  1
  Nb  Nb116  1  0.91049421  0.29599545  0.09258844  1
  Nb  Nb117  1  0.50098168  0.09668445  0.89846867  1
  Nb  Nb118  1  0.30202061  0.28307436  0.09850845  1
  Nb  Nb119  1  0.70115786  0.29763433  0.69866061  1
  Nb  Nb120  1  0.29952165  0.69471592  0.09374658  1
  Nb  Nb121  1  0.30275784  0.10037574  0.30250282  1
  Nb  Nb122  1  0.50080545  0.49494634  0.70028341  1
  Nb  Nb123  1  0.69888070  0.29627659  0.30326798  1
  Nb  Nb124  1  0.69506960  0.49782797  0.69895774  1
  Nb  Nb125  1  0.59967997  0.39398203  0.20228763  1
  Nb  Nb126  1  0.80104311  0.80057194  0.59264125  1
  Nb  Nb127  1  0.20541906  0.00210534  0.80644023  1
  Nb  Nb128  1  0.60707143  0.80227190  0.59826934  1
  Nb  Nb129  1  0.20041691  0.80546343  0.60231203  1
  Nb  Nb130  1  0.40184927  0.00644298  0.60497333  1
  Nb  Nb131  1  -0.00123684  0.79592787  0.80327272  1
  Nb  Nb132  1  0.79458803  0.39559459  0.60136148  1
  Nb  Nb133  1  0.79596012  0.39507742  0.40356761  1
  Nb  Nb134  1  0.39471201  0.80264257  0.39684180  1
  Nb  Nb135  1  0.39690434  0.01181190  0.20234092  1
  Nb  Nb136  1  0.59787761  0.00595538  -0.00189311  1
  Nb  Nb137  1  0.40199711  0.20088826  0.60139438  1
  Nb  Nb138  1  0.80499434  0.00190535  0.80134574  1
  Nb  Nb139  1  0.59741655  0.60021495  0.39468435  1
  Nb  Nb140  1  0.20058672  0.79478326  0.00343401  1
  Nb  Nb141  1  -0.00549387  0.59588361  0.80296643  1
  Nb  Nb142  1  0.60147167  0.39574590  0.60590223  1
  Nb  Nb143  1  0.20022714  0.38786990  0.01121596  1
  Nb  Nb144  1  0.39798344  0.00355428  0.79932484  1
  Nb  Nb145  1  0.81284200  0.39488519  0.00066607  1
  Nb  Nb146  1  0.59639878  0.00099911  0.60206326  1
  Nb  Nb147  1  0.20345307  0.59426836  0.20083078  1
  Nb  Nb148  1  0.59562618  0.59247558  0.79599087  1
  Nb  Nb149  1  0.40617525  0.59113710  0.80161054  1
  Pd  Pd150  1  0.59432870  0.59189544  0.20138548  1
  Pd  Pd151  1  0.39887026  -0.00782524  0.39471125  1
  Pd  Pd152  1  0.19784016  0.78919332  0.19034957  1
  Pd  Pd153  1  0.40425258  0.20013275  0.20891010  1
  Pd  Pd154  1  0.59759992  0.20142811  -0.00330817  1
  Pd  Pd155  1  0.80545085  0.00668767  0.20104984  1
  Pd  Pd156  1  0.00225762  0.20111875  0.79641898  1
  Pd  Pd157  1  0.40020229  0.60779169  0.39812959  1
  Pd  Pd158  1  0.00252632  0.80028594  0.60479314  1
  Pd  Pd159  1  0.80890014  0.80853903  0.39848592  1
  Pd  Pd160  1  0.20724830  0.39861340  0.40620389  1
  Pd  Pd161  1  0.58669371  0.00402444  0.18779875  1
  Pd  Pd162  1  -0.00418816  0.00767175  0.00511047  1
  Pd  Pd163  1  0.39510732  0.60245055  0.19559504  1
  Pd  Pd164  1  0.61294665  0.38741097  0.00874716  1
  Pd  Pd165  1  0.80744768  0.80405523  0.79055411  1
  Pd  Pd166  1  0.00476119  0.19532942  0.40031298  1
  Pd  Pd167  1  0.39460453  0.81233007  0.58728101  1
  Pd  Pd168  1  0.39124855  0.38745856  0.00019721  1
  Pd  Pd169  1  0.20703792  -0.00837418  -0.00191794  1
  Pd  Pd170  1  -0.00289273  0.79946953  0.20426321  1
  Pd  Pd171  1  0.40781868  -0.00067705  0.00348897  1
  Pd  Pd172  1  0.59943351  0.40719204  0.39993806  1
  Pd  Pd173  1  0.79393844  0.00886224  -0.00569087  1
  Pd  Pd174  1  0.59107772  0.79356304  0.40470327  1
  Pd  Pd175  1  0.60020691  0.78745702  0.79313019  1
  Pd  Pd176  1  -0.00148242  0.80716742  0.39851347  1
  Pd  Pd177  1  0.00882326  0.40378555  0.79423000  1
  Pd  Pd178  1  0.21232526  0.40142828  0.19396656  1
  Pd  Pd179  1  0.19280051  0.80822623  0.80078387  1
  Pd  Pd180  1  0.19959769  0.19480738  0.20654584  1
  Pd  Pd181  1  0.19538855  0.20601958  -0.00792540  1
  Pd  Pd182  1  0.39490620  0.80782498  0.20222638  1
  Pd  Pd183  1  0.00239229  0.19483870  0.19922690  1
  Pd  Pd184  1  0.80716063  0.59815297  0.59483940  1
  Pd  Pd185  1  0.00102621  0.59613799  0.60810842  1
  Pd  Pd186  1  0.00371029  0.60162062  -0.00729614  1
  Pd  Pd187  1  0.19757358  0.59060867  0.79318386  1
  Pd  Pd188  1  0.00742344  0.79223447  -0.00373264  1
  Pd  Pd189  1  0.38967535  0.39714573  0.40428321  1
  Pd  Pd190  1  0.40015723  0.39150378  0.59727885  1
  Pd  Pd191  1  0.79837726  0.39181789  0.19605841  1
  Pd  Pd192  1  0.80000313  0.60234319  0.19951195  1
  Pd  Pd193  1  0.80358690  0.20366737  -0.00674775  1
  Pd  Pd194  1  0.79408057  0.39855914  0.80279684  1
  Pd  Pd195  1  -0.00267007  0.39423683  0.20138327  1
  Pd  Pd196  1  0.79541815  0.80242127  0.00839098  1
  Pd  Pd197  1  0.59590611  0.59659107  -0.00579394  1
  Pd  Pd198  1  0.59695070  0.19999043  0.59795187  1
  Pd  Pd199  1  0.39827155  0.39261575  0.20044017  1
  Rh  Rh200  1  0.59272206  0.20857623  0.20333929  1
  Rh  Rh201  1  0.60691992  0.80743180  0.00814131  1
  Rh  Rh202  1  0.60459631  0.80187339  0.19269788  1
  Rh  Rh203  1  0.39156683  0.59379839  0.60831527  1
  Rh  Rh204  1  0.19595183  0.39789223  0.80944717  1
  Rh  Rh205  1  0.00692628  0.20005554  -0.00243736  1
  Rh  Rh206  1  0.80221585  0.80037182  0.19888954  1
  Rh  Rh207  1  0.80638395  0.19774856  0.80183134  1
  Rh  Rh208  1  0.40143951  0.19907028  0.79643285  1
  Rh  Rh209  1  -0.00432401  0.39580586  0.39870146  1
  Rh  Rh210  1  0.00424625  0.01013124  0.59187054  1
  Rh  Rh211  1  0.79593830  0.20119120  0.39558858  1
  Rh  Rh212  1  0.20239864  0.39588407  0.59494135  1
  Rh  Rh213  1  0.00504084  0.60126897  0.39909216  1
  Rh  Rh214  1  0.20194648  0.60615501  0.60353746  1
  Rh  Rh215  1  0.39626122  0.40022753  0.80081225  1
  Rh  Rh216  1  0.60398158  0.39722716  0.79594409  1
  Rh  Rh217  1  0.79858517  0.59150606  0.00239731  1
  Rh  Rh218  1  0.79216149  0.00182907  0.60701615  1
  Rh  Rh219  1  0.19297280  0.19500623  0.80272176  1
  Rh  Rh220  1  0.00820784  0.60491453  0.21222045  1
  Rh  Rh221  1  0.79639422  0.01011377  0.38853645  1
  Rh  Rh222  1  0.20171548  -0.00401734  0.60692437  1
  Rh  Rh223  1  -0.00082988  0.00525486  0.19516730  1
  Rh  Rh224  1  0.20165651  0.80150420  0.41196805  1
  Rh  Rh225  1  0.20551627  0.01067663  0.19606971  1
  Rh  Rh226  1  0.40918029  0.59792658  -0.00484793  1
  Rh  Rh227  1  0.80519540  0.19849328  0.20146546  1
  Rh  Rh228  1  0.19540536  0.59575025  0.01438681  1
  Rh  Rh229  1  0.19650930  0.59951013  0.39311515  1
  Rh  Rh230  1  0.19648976  0.20119493  0.39415117  1
  Rh  Rh231  1  0.79806663  0.59249917  0.80529561  1
  Rh  Rh232  1  0.00372501  0.39424564  0.00173533  1
  Rh  Rh233  1  0.19207048  0.00770217  0.39663537  1
  Rh  Rh234  1  0.00138687  0.00618061  0.40022398  1
  Rh  Rh235  1  0.60834583  0.01044478  0.40074110  1
  Rh  Rh236  1  0.60758457  0.19539504  0.39825254  1
  Rh  Rh237  1  -0.00114112  0.20262933  0.60183451  1
  Rh  Rh238  1  0.39266275  0.79718682  0.00638983  1
  Rh  Rh239  1  0.00042863  -0.00306328  0.80408642  1
  Rh  Rh240  1  0.40597884  0.20642461  -0.00206106  1
  Rh  Rh241  1  0.60086927  0.20762886  0.80406374  1
  Rh  Rh242  1  0.79818569  0.59264975  0.39963929  1
  Rh  Rh243  1  0.80265199  0.20559553  0.60043582  1
  Rh  Rh244  1  0.20120508  0.20609262  0.60142026  1
  Rh  Rh245  1  0.59270079  0.59927998  0.59802264  1
  Rh  Rh246  1  -0.00656885  0.39605593  0.60324023  1
  Rh  Rh247  1  0.60231675  0.00404774  0.80444500  1
  Rh  Rh248  1  0.39496400  0.20293908  0.40088126  1
  Rh  Rh249  1  0.39856031  0.79626136  0.80293964  1
