# generated using pymatgen
data_ZrScNbPdRh
_symmetry_space_group_name_H-M   'P 1'
_cell_length_a   16.55505293
_cell_length_b   16.56012897
_cell_length_c   16.55543010
_cell_angle_alpha   89.98075997
_cell_angle_beta   89.99247438
_cell_angle_gamma   89.97660820
_symmetry_Int_Tables_number   1
_chemical_formula_structural   ZrScNbPdRh
_chemical_formula_sum   'Zr50 Sc50 Nb50 Pd50 Rh50'
_cell_volume   4538.73359116
_cell_formula_units_Z   50
loop_
 _symmetry_equiv_pos_site_id
 _symmetry_equiv_pos_as_xyz
  1  'x, y, z'
loop_
 _atom_site_type_symbol
 _atom_site_label
 _atom_site_symmetry_multiplicity
 _atom_site_fract_x
 _atom_site_fract_y
 _atom_site_fract_z
 _atom_site_occupancy
  Zr  Zr0  1  0.89647923  0.70051061  0.70617935  1
  Zr  Zr1  1  0.09454756  0.90921543  0.90339663  1
  Zr  Zr2  1  0.09589965  0.50173607  0.29785536  1
  Zr  Zr3  1  0.89854143  0.90382554  0.89678999  1
  Zr  Zr4  1  0.30157766  0.68811077  0.49713390  1
  Zr  Zr5  1  0.31073097  0.70788544  0.29397369  1
  Zr  Zr6  1  0.29399539  0.09176467  0.68905214  1
  Zr  Zr7  1  0.09634690  0.49613940  0.90159993  1
  Zr  Zr8  1  0.11366895  0.09650838  0.50102377  1
  Zr  Zr9  1  0.09304758  0.29927549  0.70525911  1
  Zr  Zr10  1  0.90151627  0.49910218  0.69559720  1
  Zr  Zr11  1  0.89837244  0.30395048  0.69871718  1
  Zr  Zr12  1  0.49880872  0.09718693  0.70108339  1
  Zr  Zr13  1  0.50360077  0.29087040  0.70033177  1
  Zr  Zr14  1  0.91230379  0.30720976  0.30745016  1
  Zr  Zr15  1  0.90849880  0.29717797  0.89406077  1
  Zr  Zr16  1  0.70055172  0.10240488  0.10024194  1
  Zr  Zr17  1  0.70936936  0.08925519  0.90008550  1
  Zr  Zr18  1  0.49868143  0.89319086  0.89576585  1
  Zr  Zr19  1  0.70482495  0.31170773  0.90035795  1
  Zr  Zr20  1  0.69758821  0.30841497  0.50531896  1
  Zr  Zr21  1  0.30923651  0.29837018  0.29129284  1
  Zr  Zr22  1  0.89375957  0.50718092  0.90175987  1
  Zr  Zr23  1  0.29670529  0.89417685  0.29879293  1
  Zr  Zr24  1  0.50143837  0.10186455  0.09808218  1
  Zr  Zr25  1  0.10219591  0.90261119  0.70059059  1
  Zr  Zr26  1  0.69870588  0.70293005  0.29495119  1
  Zr  Zr27  1  0.49876456  0.89902948  0.49883103  1
  Zr  Zr28  1  0.90544719  0.89789656  0.30127452  1
  Zr  Zr29  1  0.89985853  0.89777173  0.69234756  1
  Zr  Zr30  1  0.09817183  0.69773647  0.30319886  1
  Zr  Zr31  1  0.49981717  0.10569064  0.29598603  1
  Zr  Zr32  1  0.49334390  0.10328451  0.51105858  1
  Zr  Zr33  1  0.29560792  0.50106010  0.29924558  1
  Zr  Zr34  1  0.50231959  0.50104928  0.89978797  1
  Zr  Zr35  1  0.89903219  0.09805272  0.70805862  1
  Zr  Zr36  1  0.50659694  0.49660066  0.09198234  1
  Zr  Zr37  1  0.69753401  0.31167228  0.10166429  1
  Zr  Zr38  1  0.09719583  0.69955749  0.09943877  1
  Zr  Zr39  1  0.89866583  0.30440323  0.50394709  1
  Zr  Zr40  1  0.30101418  0.90093627  0.10001422  1
  Zr  Zr41  1  0.09315958  0.29895025  0.49294670  1
  Zr  Zr42  1  0.69933447  0.89552144  0.29650848  1
  Zr  Zr43  1  0.69322706  0.09631131  0.70254636  1
  Zr  Zr44  1  0.69846272  0.09820261  0.30027287  1
  Zr  Zr45  1  0.49724063  0.50560197  0.50017773  1
  Zr  Zr46  1  0.30338437  0.28709166  0.48971063  1
  Zr  Zr47  1  0.30281357  0.89583733  0.69955627  1
  Zr  Zr48  1  0.28875610  0.90132685  0.50093997  1
  Zr  Zr49  1  0.49644543  0.30115499  0.11032184  1
  Sc  Sc50  1  0.69465170  0.89578150  0.51099985  1
  Sc  Sc51  1  0.10221835  0.69443438  0.49920219  1
  Sc  Sc52  1  0.90281328  0.69714442  0.29238113  1
  Sc  Sc53  1  0.91148746  0.70159985  0.50668150  1
  Sc  Sc54  1  0.50629907  0.09687470  0.90154737  1
  Sc  Sc55  1  0.50415887  0.89286923  0.70332554  1
  Sc  Sc56  1  0.29833435  0.91094922  0.90147323  1
  Sc  Sc57  1  0.30590180  0.69158091  0.89324015  1
  Sc  Sc58  1  0.89598842  0.50800957  0.10311876  1
  Sc  Sc59  1  0.49943092  0.50570183  0.70113976  1
  Sc  Sc60  1  0.28974492  0.09843626  0.90407879  1
  Sc  Sc61  1  0.09569438  0.10212293  0.90316571  1
  Sc  Sc62  1  0.89636138  0.69793331  0.09989138  1
  Sc  Sc63  1  0.90472375  0.29952363  0.10852400  1
  Sc  Sc64  1  0.90462569  0.10745708  0.29171876  1
  Sc  Sc65  1  0.69845011  0.30326085  0.70442516  1
  Sc  Sc66  1  0.09026212  0.68994544  0.90223547  1
  Sc  Sc67  1  0.70026371  0.49818895  0.29851191  1
  Sc  Sc68  1  0.70239048  0.31069753  0.30018872  1
  Sc  Sc69  1  0.49796333  0.69849360  0.70884633  1
  Sc  Sc70  1  0.50522671  0.89941582  0.09509157  1
  Sc  Sc71  1  0.70556139  0.70549520  0.09834130  1
  Sc  Sc72  1  0.30163010  0.51111860  0.69910358  1
  Sc  Sc73  1  0.90565193  0.89824692  0.09382070  1
  Sc  Sc74  1  0.50611640  0.70002306  0.89709098  1
  Sc  Sc75  1  0.09587435  0.69590902  0.69634980  1
  Sc  Sc76  1  0.68720276  0.49885770  0.49891822  1
  Sc  Sc77  1  0.91059318  0.09554491  0.50440121  1
  Sc  Sc78  1  0.29285478  0.28872784  0.70862541  1
  Sc  Sc79  1  0.50152035  0.49568417  0.30478360  1
  Sc  Sc80  1  0.50356003  0.29914232  0.90154639  1
  Sc  Sc81  1  0.09619398  0.49937950  0.09882609  1
  Sc  Sc82  1  0.10029028  0.50179011  0.70056583  1
  Sc  Sc83  1  0.09722134  0.10041185  0.30197872  1
  Sc  Sc84  1  0.70081154  0.89432818  0.09626514  1
  Sc  Sc85  1  0.68849875  0.09183310  0.50741230  1
  Sc  Sc86  1  0.50278074  0.88900906  0.29952582  1
  Sc  Sc87  1  0.90545898  0.09425825  0.90181400  1
  Sc  Sc88  1  0.90814104  0.49742727  0.49876959  1
  Sc  Sc89  1  0.30351969  0.69565953  0.70034004  1
  Sc  Sc90  1  0.90342942  0.50565689  0.29729582  1
  Sc  Sc91  1  0.69660918  0.89408786  0.90062471  1
  Sc  Sc92  1  0.10260831  0.29896185  0.90138124  1
  Sc  Sc93  1  0.49663107  0.70179163  0.10263878  1
  Sc  Sc94  1  0.29916559  0.49877584  0.90167888  1
  Sc  Sc95  1  0.30662785  0.49521200  0.09393875  1
  Sc  Sc96  1  0.69340067  0.49489258  0.70360934  1
  Sc  Sc97  1  0.10043059  0.30439831  0.09456339  1
  Sc  Sc98  1  0.69925254  0.89843860  0.70141889  1
  Sc  Sc99  1  0.09847559  0.89586162  0.30272399  1
  Nb  Nb100  1  0.49741142  0.29944542  0.30753529  1
  Nb  Nb101  1  0.10233691  0.09862021  0.70438502  1
  Nb  Nb102  1  0.29990790  0.29989873  0.09642624  1
  Nb  Nb103  1  0.29765327  0.09959688  0.30106929  1
  Nb  Nb104  1  0.90097072  0.89819408  0.49767028  1
  Nb  Nb105  1  0.50556608  0.70026877  0.48651394  1
  Nb  Nb106  1  0.29689819  0.50132436  0.50361353  1
  Nb  Nb107  1  0.69616834  0.69987126  0.49888122  1
  Nb  Nb108  1  0.29938350  0.09299088  0.49427806  1
  Nb  Nb109  1  0.70740717  0.69605721  0.89542949  1
  Nb  Nb110  1  0.90179032  0.10309968  0.09722391  1
  Nb  Nb111  1  0.69534915  0.50169996  0.91585025  1
  Nb  Nb112  1  0.29947463  0.70644290  0.10534844  1
  Nb  Nb113  1  0.10310633  0.90062647  0.09885216  1
  Nb  Nb114  1  0.10915989  0.50936646  0.49491181  1
  Nb  Nb115  1  0.29935609  0.09783745  0.09702651  1
  Nb  Nb116  1  0.08978239  0.89798359  0.49597373  1
  Nb  Nb117  1  0.88981318  0.69551429  0.90032496  1
  Nb  Nb118  1  0.49898798  0.30189492  0.49777443  1
  Nb  Nb119  1  0.10524833  0.31022015  0.29251398  1
  Nb  Nb120  1  0.50443070  0.70172855  0.30358057  1
  Nb  Nb121  1  0.70476554  0.70522221  0.69470847  1
  Nb  Nb122  1  0.69789753  0.50100888  0.09877306  1
  Nb  Nb123  1  0.10021088  0.10134385  0.09279966  1
  Nb  Nb124  1  0.30010008  0.30138807  0.90646675  1
  Nb  Nb125  1  0.79958121  0.19980411  0.59893204  1
  Nb  Nb126  1  0.40177623  0.79315191  0.58993339  1
  Nb  Nb127  1  0.19969657  0.00486493  0.19462704  1
  Nb  Nb128  1  0.80254122  0.80044944  0.40731625  1
  Nb  Nb129  1  0.19711481  0.80140332  0.80715197  1
  Nb  Nb130  1  0.20485935  0.60581606  0.19772397  1
  Nb  Nb131  1  0.80202731  0.20090719  0.00241780  1
  Nb  Nb132  1  0.39215602  0.79987840  -0.00025221  1
  Nb  Nb133  1  0.20082890  0.79903691  -0.00088263  1
  Nb  Nb134  1  0.19991460  0.40106616  0.40088497  1
  Nb  Nb135  1  0.79329970  0.60477687  0.59768324  1
  Nb  Nb136  1  0.80336616  0.00106641  0.20013580  1
  Nb  Nb137  1  0.39386716  0.00319388  0.39720459  1
  Nb  Nb138  1  0.80268479  -0.00254925  0.39937649  1
  Nb  Nb139  1  0.39521630  0.00370189  0.20227985  1
  Nb  Nb140  1  0.39815850  0.39463697  0.79733143  1
  Nb  Nb141  1  0.79625329  0.19625666  0.40596690  1
  Nb  Nb142  1  0.79613487  0.60850729  0.40727218  1
  Nb  Nb143  1  0.59769507  0.20678663  0.40377387  1
  Nb  Nb144  1  0.39315398  0.20156142  0.00475554  1
  Nb  Nb145  1  0.20475993  0.19772290  0.19367062  1
  Nb  Nb146  1  0.39872897  0.00222180  0.79668159  1
  Nb  Nb147  1  0.39519111  0.39564493  0.59948945  1
  Nb  Nb148  1  0.20427790  0.40037380  0.59199676  1
  Nb  Nb149  1  0.60030015  0.59858480  0.19783489  1
  Pd  Pd150  1  0.60449192  0.61285355  0.00647780  1
  Pd  Pd151  1  0.00603194  0.00207424  0.60205201  1
  Pd  Pd152  1  0.60203783  -0.00649553  -0.00171660  1
  Pd  Pd153  1  0.19854900  0.20565757  0.59940159  1
  Pd  Pd154  1  0.59906675  -0.00713279  0.19661462  1
  Pd  Pd155  1  0.19605473  0.19527669  0.80651006  1
  Pd  Pd156  1  0.59960332  0.60682766  0.60485508  1
  Pd  Pd157  1  0.79660888  0.80633922  0.80105322  1
  Pd  Pd158  1  0.19629588  0.79431402  0.40349029  1
  Pd  Pd159  1  0.59040150  0.79229336  0.60388128  1
  Pd  Pd160  1  0.79877919  0.00392275  0.59476492  1
  Pd  Pd161  1  0.19607362  0.60485123  0.79953388  1
  Pd  Pd162  1  0.00037269  0.79482788  -0.00606649  1
  Pd  Pd163  1  -0.00249256  0.19287219  0.39998620  1
  Pd  Pd164  1  0.78899052  0.59152170  0.79402003  1
  Pd  Pd165  1  -0.00137575  0.19375623  0.60418644  1
  Pd  Pd166  1  -0.00759608  0.40139744  0.00353559  1
  Pd  Pd167  1  0.39214648  0.20447180  0.60348175  1
  Pd  Pd168  1  0.60623039  0.21202025  0.20857002  1
  Pd  Pd169  1  0.39978577  0.60786836  -0.00054851  1
  Pd  Pd170  1  0.39452854  0.19454308  0.81205537  1
  Pd  Pd171  1  0.60842828  0.60218555  0.79950450  1
  Pd  Pd172  1  0.00481169  0.79796381  0.59945494  1
  Pd  Pd173  1  0.40192996  0.59790647  0.39388359  1
  Pd  Pd174  1  0.80228772  0.80005812  -0.00204229  1
  Pd  Pd175  1  0.81208146  0.39630697  0.00559991  1
  Pd  Pd176  1  0.79883143  0.20185846  0.20210334  1
  Pd  Pd177  1  0.58911509  0.40158563  0.60608270  1
  Pd  Pd178  1  -0.00059486  0.59781887  0.79898963  1
  Pd  Pd179  1  0.19878036  0.40336152  0.00253085  1
  Pd  Pd180  1  0.40451695  0.59423941  0.19861176  1
  Pd  Pd181  1  0.20499941  0.60330176  0.00640201  1
  Pd  Pd182  1  0.00189445  0.00116332  0.19350299  1
  Pd  Pd183  1  0.20673958  0.40354188  0.79323649  1
  Pd  Pd184  1  0.39424175  0.40516661  0.40546408  1
  Pd  Pd185  1  -0.00034960  0.00538048  0.39874312  1
  Pd  Pd186  1  0.80801277  0.40559574  0.20198100  1
  Pd  Pd187  1  0.20229648  0.79166396  0.60497337  1
  Pd  Pd188  1  0.59551421  0.00057574  0.40203275  1
  Pd  Pd189  1  0.79736945  0.19938176  0.80192361  1
  Pd  Pd190  1  0.80086233  0.41010702  0.40240351  1
  Pd  Pd191  1  0.00394995  0.79733352  0.80547625  1
  Pd  Pd192  1  0.60752745  0.19932010  0.80986082  1
  Pd  Pd193  1  0.19512185  0.20526689  0.38703359  1
  Pd  Pd194  1  0.01300742  0.40857896  0.59665091  1
  Pd  Pd195  1  0.01246709  0.20514102  0.19532040  1
  Pd  Pd196  1  -0.00108314  0.79907034  0.19778837  1
  Pd  Pd197  1  0.60429895  0.20575933  -0.00420377  1
  Pd  Pd198  1  0.40337490  0.40855093  0.19952595  1
  Pd  Pd199  1  0.79933861  0.40984807  0.80036670  1
  Rh  Rh200  1  -0.00166278  0.00343865  0.00537570  1
  Rh  Rh201  1  -0.00223426  0.59646304  0.59923561  1
  Rh  Rh202  1  -0.00245322  0.40253501  0.19630471  1
  Rh  Rh203  1  -0.00831597  0.60074311  0.40200557  1
  Rh  Rh204  1  0.00016965  0.40509538  0.80300048  1
  Rh  Rh205  1  -0.00573963  0.20035112  0.00078735  1
  Rh  Rh206  1  0.40804537  0.00342909  -0.00322562  1
  Rh  Rh207  1  0.59366535  0.40291067  0.80490360  1
  Rh  Rh208  1  0.59407454  -0.00733362  0.60808755  1
  Rh  Rh209  1  0.19245570  -0.00551443  0.59840760  1
  Rh  Rh210  1  0.20103287  0.00017356  0.79937701  1
  Rh  Rh211  1  0.40287591  0.58907144  0.80363031  1
  Rh  Rh212  1  0.59516831  0.40527360  0.20514675  1
  Rh  Rh213  1  0.79674230  0.40616861  0.60127345  1
  Rh  Rh214  1  0.40088696  0.80252583  0.40527007  1
  Rh  Rh215  1  0.59610609  0.79130153  0.19380174  1
  Rh  Rh216  1  -0.00163897  0.79464730  0.40342281  1
  Rh  Rh217  1  0.80729978  0.80871060  0.20235494  1
  Rh  Rh218  1  0.80351625  0.00445732  0.00926550  1
  Rh  Rh219  1  0.20231937  0.40187605  0.19865063  1
  Rh  Rh220  1  0.00788838  0.40794494  0.40038260  1
  Rh  Rh221  1  0.79444465  0.60290249  0.00292206  1
  Rh  Rh222  1  0.78983615  0.59818842  0.20409248  1
  Rh  Rh223  1  0.18830624  0.79825347  0.19521810  1
  Rh  Rh224  1  0.00661798  0.59942590  0.19483314  1
  Rh  Rh225  1  0.60797923  0.20437081  0.59500040  1
  Rh  Rh226  1  0.39069589  0.80616390  0.80452715  1
  Rh  Rh227  1  0.59574742  0.79446605  -0.00460360  1
  Rh  Rh228  1  0.40185767  -0.01126273  0.59940538  1
  Rh  Rh229  1  -0.01025508  0.60073484  -0.00025400  1
  Rh  Rh230  1  0.40392608  0.39170445  -0.00821663  1
  Rh  Rh231  1  0.60493968  0.60053429  0.38872307  1
  Rh  Rh232  1  0.20178197  0.20395240  0.00218575  1
  Rh  Rh233  1  0.80055528  -0.00817113  0.79759519  1
  Rh  Rh234  1  0.19583318  0.59774377  0.60533161  1
  Rh  Rh235  1  0.40748745  0.19083795  0.40081776  1
  Rh  Rh236  1  0.19165004  -0.00254628  0.00385204  1
  Rh  Rh237  1  0.80286871  0.79450997  0.59613405  1
  Rh  Rh238  1  0.41180096  0.80811172  0.19339062  1
  Rh  Rh239  1  0.39568124  0.19467458  0.19279816  1
  Rh  Rh240  1  0.00092326  0.00265786  0.79509989  1
  Rh  Rh241  1  0.19722058  -0.00508726  0.39414427  1
  Rh  Rh242  1  0.40951100  0.60521456  0.59709973  1
  Rh  Rh243  1  0.60744033  0.80253731  0.40150080  1
  Rh  Rh244  1  0.61039508  0.79197092  0.80035702  1
  Rh  Rh245  1  0.00526090  0.19487665  0.80011846  1
  Rh  Rh246  1  0.59487060  -0.00470676  0.80005000  1
  Rh  Rh247  1  0.59681089  0.39444784  -0.00178379  1
  Rh  Rh248  1  0.59671813  0.39626889  0.39741516  1
  Rh  Rh249  1  0.20348522  0.60169106  0.38951055  1
