# generated using pymatgen
data_ZrScNbPdRh
_symmetry_space_group_name_H-M   'P 1'
_cell_length_a   16.56683836
_cell_length_b   16.56270071
_cell_length_c   16.56260739
_cell_angle_alpha   90.02536976
_cell_angle_beta   89.96957261
_cell_angle_gamma   89.96138894
_symmetry_Int_Tables_number   1
_chemical_formula_structural   ZrScNbPdRh
_chemical_formula_sum   'Zr50 Sc50 Nb50 Pd50 Rh50'
_cell_volume   4544.63798392
_cell_formula_units_Z   50
loop_
 _symmetry_equiv_pos_site_id
 _symmetry_equiv_pos_as_xyz
  1  'x, y, z'
loop_
 _atom_site_type_symbol
 _atom_site_label
 _atom_site_symmetry_multiplicity
 _atom_site_fract_x
 _atom_site_fract_y
 _atom_site_fract_z
 _atom_site_occupancy
  Zr  Zr0  1  0.09781568  0.89522308  0.30443875  1
  Zr  Zr1  1  0.30563538  0.30113489  0.30715781  1
  Zr  Zr2  1  0.70282913  0.29070257  0.49919385  1
  Zr  Zr3  1  0.89179334  0.49164873  0.10193026  1
  Zr  Zr4  1  0.09773408  0.29334827  0.29775570  1
  Zr  Zr5  1  0.69918374  0.30980702  0.90393008  1
  Zr  Zr6  1  0.69920327  0.89410455  0.49830062  1
  Zr  Zr7  1  0.09478550  0.49764896  0.30504676  1
  Zr  Zr8  1  0.49994847  0.90547050  0.10131647  1
  Zr  Zr9  1  0.50504125  0.89774847  0.50421405  1
  Zr  Zr10  1  0.89707674  0.70445468  0.70086169  1
  Zr  Zr11  1  0.29752147  0.90263532  0.50739752  1
  Zr  Zr12  1  0.70340760  0.90471300  0.10261909  1
  Zr  Zr13  1  0.90486581  0.89675486  0.29400961  1
  Zr  Zr14  1  0.10594515  0.50106221  0.68602840  1
  Zr  Zr15  1  0.09705262  0.10439388  0.89688420  1
  Zr  Zr16  1  0.69599617  0.10973999  0.69259032  1
  Zr  Zr17  1  0.70959185  0.10011448  0.10048260  1
  Zr  Zr18  1  0.89513774  0.90208493  0.89273109  1
  Zr  Zr19  1  0.30214895  0.10049062  0.90006392  1
  Zr  Zr20  1  0.70481930  0.69517526  0.69985163  1
  Zr  Zr21  1  0.89525231  0.10239128  0.49417749  1
  Zr  Zr22  1  0.69988814  0.49889827  0.29784379  1
  Zr  Zr23  1  0.50205397  0.50294946  0.30128483  1
  Zr  Zr24  1  0.49852861  0.29550411  0.69956801  1
  Zr  Zr25  1  0.30090565  0.30236009  0.09029177  1
  Zr  Zr26  1  0.90153088  0.10300010  0.70381360  1
  Zr  Zr27  1  0.50285954  0.50506581  0.69628285  1
  Zr  Zr28  1  0.69687463  0.69932758  0.50621709  1
  Zr  Zr29  1  0.70137747  0.30572471  0.69780899  1
  Zr  Zr30  1  0.90013750  0.09794943  0.29367505  1
  Zr  Zr31  1  0.89455797  0.70041004  0.89282821  1
  Zr  Zr32  1  0.50478276  0.30466088  0.31067765  1
  Zr  Zr33  1  0.89224737  0.50215394  0.68905906  1
  Zr  Zr34  1  0.50323482  0.10162581  0.09230282  1
  Zr  Zr35  1  0.69824305  0.29978078  0.10262977  1
  Zr  Zr36  1  0.09748984  0.48873188  0.90417861  1
  Zr  Zr37  1  0.29198479  0.89802694  0.30368775  1
  Zr  Zr38  1  0.31165867  0.90193503  0.90326090  1
  Zr  Zr39  1  0.09914687  0.10886418  0.70751877  1
  Zr  Zr40  1  0.50535550  0.89693810  0.30657184  1
  Zr  Zr41  1  0.29832364  0.50130523  0.29607441  1
  Zr  Zr42  1  0.89536008  0.28773166  0.09726766  1
  Zr  Zr43  1  0.29704068  0.69984021  0.29855741  1
  Zr  Zr44  1  0.10320185  0.70218420  0.09978222  1
  Zr  Zr45  1  0.89784959  0.30734641  0.49539643  1
  Zr  Zr46  1  0.10118982  0.10646047  0.49964001  1
  Zr  Zr47  1  0.69868276  0.50776937  0.09952675  1
  Zr  Zr48  1  0.30994905  0.29567343  0.50405696  1
  Zr  Zr49  1  0.30093326  0.89622960  0.70652085  1
  Sc  Sc50  1  0.10416212  0.48510049  0.10317618  1
  Sc  Sc51  1  0.10413131  0.89945180  0.70176516  1
  Sc  Sc52  1  0.90122351  0.10466310  0.90048689  1
  Sc  Sc53  1  0.09781150  0.09742863  0.30013482  1
  Sc  Sc54  1  0.10098051  0.89484608  0.49656543  1
  Sc  Sc55  1  0.49047409  0.70379179  0.90729656  1
  Sc  Sc56  1  0.50806845  0.69507169  0.69322614  1
  Sc  Sc57  1  0.09949410  0.70363094  0.69600831  1
  Sc  Sc58  1  0.30060439  0.09058653  0.10202119  1
  Sc  Sc59  1  0.30839498  0.29696721  0.89535709  1
  Sc  Sc60  1  0.09981178  0.29377700  0.69539002  1
  Sc  Sc61  1  0.90946659  0.69960306  0.50743880  1
  Sc  Sc62  1  0.70158176  0.50437637  0.89874339  1
  Sc  Sc63  1  0.29683536  0.69962599  0.50279544  1
  Sc  Sc64  1  0.70018150  0.91316358  0.89773535  1
  Sc  Sc65  1  0.29540752  0.71745982  0.90354883  1
  Sc  Sc66  1  0.09134442  0.29767073  0.89681872  1
  Sc  Sc67  1  0.70368596  0.10026618  0.30775196  1
  Sc  Sc68  1  0.69963278  0.29859343  0.30126126  1
  Sc  Sc69  1  0.29756700  0.90073754  0.09730689  1
  Sc  Sc70  1  0.70210010  0.89924342  0.69335541  1
  Sc  Sc71  1  0.10663614  0.89871370  0.10893922  1
  Sc  Sc72  1  0.89317231  0.30375292  0.29816940  1
  Sc  Sc73  1  0.50727208  0.09595598  0.30456859  1
  Sc  Sc74  1  0.29112723  0.10064813  0.30102606  1
  Sc  Sc75  1  0.50381096  0.10374851  0.50938027  1
  Sc  Sc76  1  0.50216890  0.50226685  0.49517829  1
  Sc  Sc77  1  0.29968089  0.10140330  0.69546779  1
  Sc  Sc78  1  0.30336625  0.50038268  0.68528788  1
  Sc  Sc79  1  0.49896009  0.69825285  0.10409103  1
  Sc  Sc80  1  0.49726228  0.29065950  0.90442366  1
  Sc  Sc81  1  0.69493450  0.89973809  0.29741654  1
  Sc  Sc82  1  0.50674920  0.70156307  0.49762546  1
  Sc  Sc83  1  0.50380053  0.49737514  0.89952131  1
  Sc  Sc84  1  0.90459084  0.90054213  0.49471874  1
  Sc  Sc85  1  0.09306028  0.29775888  0.09639932  1
  Sc  Sc86  1  0.11624079  0.89142318  0.90010489  1
  Sc  Sc87  1  0.09599622  0.10630741  0.10656608  1
  Sc  Sc88  1  0.88566647  0.69898982  0.10914698  1
  Sc  Sc89  1  0.70038883  0.10021211  0.49848415  1
  Sc  Sc90  1  0.89958613  0.30444106  0.69774158  1
  Sc  Sc91  1  0.10255875  0.70515361  0.30509141  1
  Sc  Sc92  1  0.30546749  0.48647577  0.90986565  1
  Sc  Sc93  1  0.29679153  0.50075899  0.50691696  1
  Sc  Sc94  1  0.49685600  0.51048580  0.09759665  1
  Sc  Sc95  1  0.89582177  0.89718767  0.70006486  1
  Sc  Sc96  1  0.50969992  0.69861224  0.30153936  1
  Sc  Sc97  1  0.69282530  0.09863182  0.90198383  1
  Sc  Sc98  1  0.30540646  0.69873097  0.10205453  1
  Sc  Sc99  1  0.69729987  0.69799857  0.28567688  1
  Nb  Nb100  1  0.49823343  0.90807839  0.70570850  1
  Nb  Nb101  1  0.89834922  0.09359884  0.09880403  1
  Nb  Nb102  1  0.09837960  0.69361195  0.90297784  1
  Nb  Nb103  1  0.70072686  0.70710396  0.89761886  1
  Nb  Nb104  1  0.69648162  0.50464123  0.68989227  1
  Nb  Nb105  1  0.09287016  0.50029433  0.50013289  1
  Nb  Nb106  1  0.49852278  0.08717445  0.89384165  1
  Nb  Nb107  1  0.50269078  0.30160313  0.49678446  1
  Nb  Nb108  1  0.09931944  0.30635586  0.49802438  1
  Nb  Nb109  1  0.89695247  0.69852159  0.29816303  1
  Nb  Nb110  1  0.89980462  0.31065216  0.90213560  1
  Nb  Nb111  1  0.30243458  0.69480576  0.69950657  1
  Nb  Nb112  1  0.89569462  0.90348589  0.09797378  1
  Nb  Nb113  1  0.69694199  0.70527156  0.09632419  1
  Nb  Nb114  1  0.89662374  0.49916489  0.30210560  1
  Nb  Nb115  1  0.50009918  0.90729238  0.89595995  1
  Nb  Nb116  1  0.71050239  0.50245375  0.50437608  1
  Nb  Nb117  1  0.09706343  0.69143028  0.50093104  1
  Nb  Nb118  1  0.29965339  0.49807857  0.10212434  1
  Nb  Nb119  1  0.50372214  0.09100328  0.70689022  1
  Nb  Nb120  1  0.90361179  0.49919707  0.49229953  1
  Nb  Nb121  1  0.49961610  0.29224795  0.10569974  1
  Nb  Nb122  1  0.30447557  0.09403727  0.50132089  1
  Nb  Nb123  1  0.90438366  0.49228506  0.90194599  1
  Nb  Nb124  1  0.29826664  0.30476303  0.69941209  1
  Nb  Nb125  1  -0.00362162  -0.00695890  0.00224841  1
  Nb  Nb126  1  0.60431869  0.80378136  -0.00352472  1
  Nb  Nb127  1  0.60430526  0.40061077  0.59713845  1
  Nb  Nb128  1  0.20416734  0.40056969  0.79249435  1
  Nb  Nb129  1  0.40174382  0.80525861  0.20810285  1
  Nb  Nb130  1  -0.00524057  0.59673455  0.20207659  1
  Nb  Nb131  1  0.80513532  0.59902401  0.39996817  1
  Nb  Nb132  1  0.20119990  0.19894892  -0.00402000  1
  Nb  Nb133  1  -0.00247025  0.59958823  0.00146809  1
  Nb  Nb134  1  0.39800051  0.60079998  0.39671444  1
  Nb  Nb135  1  0.40146421  0.39730701  0.19602925  1
  Nb  Nb136  1  0.39662208  -0.00139085  0.40809753  1
  Nb  Nb137  1  0.00153681  0.59396632  0.80422564  1
  Nb  Nb138  1  0.80401550  0.79053696  0.39482265  1
  Nb  Nb139  1  0.19776254  0.59542321  -0.00187056  1
  Nb  Nb140  1  0.79780965  0.20917682  0.80291906  1
  Nb  Nb141  1  0.39085101  0.60136645  0.79822685  1
  Nb  Nb142  1  0.40119782  0.80301294  0.60718591  1
  Nb  Nb143  1  0.40440687  0.20501433  0.19965780  1
  Nb  Nb144  1  0.59707582  0.80436574  0.80433012  1
  Nb  Nb145  1  -0.00669422  0.79956935  0.00106340  1
  Nb  Nb146  1  0.79715809  0.80183520  -0.00042414  1
  Nb  Nb147  1  0.00208128  0.00690967  0.60145317  1
  Nb  Nb148  1  0.20177765  0.59630230  0.80419235  1
  Nb  Nb149  1  0.19309709  0.39848242  0.40762323  1
  Pd  Pd150  1  0.80291715  0.58932630  0.80165166  1
  Pd  Pd151  1  0.79907409  -0.01141149  0.39564055  1
  Pd  Pd152  1  -0.00431640  0.60712164  0.39481699  1
  Pd  Pd153  1  0.20367706  0.00016394  0.79891286  1
  Pd  Pd154  1  0.60015234  0.19365767  0.20780099  1
  Pd  Pd155  1  0.39725298  0.00202940  0.21282602  1
  Pd  Pd156  1  -0.00659949  0.39817845  0.19994253  1
  Pd  Pd157  1  0.80307748  0.60391753  -0.00221367  1
  Pd  Pd158  1  0.20250698  0.20413280  0.40612099  1
  Pd  Pd159  1  0.00040078  0.80975219  0.59894742  1
  Pd  Pd160  1  0.20342258  0.39121720  0.20546902  1
  Pd  Pd161  1  0.40467471  0.19459962  0.60570327  1
  Pd  Pd162  1  0.60021349  0.19716368  -0.00614984  1
  Pd  Pd163  1  0.79955356  0.19903343  -0.01011559  1
  Pd  Pd164  1  0.59916802  0.60891429  -0.00581028  1
  Pd  Pd165  1  0.79192956  0.01102419  0.79528714  1
  Pd  Pd166  1  0.18903396  0.00654079  0.00444206  1
  Pd  Pd167  1  0.60324194  0.20073373  0.80664851  1
  Pd  Pd168  1  0.38804497  0.60225598  -0.00851581  1
  Pd  Pd169  1  0.40613526  0.18552728  0.39693414  1
  Pd  Pd170  1  0.19031909  0.00454196  0.60506946  1
  Pd  Pd171  1  0.60294155  0.00004300  0.59900190  1
  Pd  Pd172  1  0.59291031  0.40094332  0.00628220  1
  Pd  Pd173  1  0.41334733  0.39978789  0.00633034  1
  Pd  Pd174  1  0.00882764  0.79903898  0.80359895  1
  Pd  Pd175  1  0.20423951  0.20262470  0.59805340  1
  Pd  Pd176  1  0.61092724  0.40373115  0.41051456  1
  Pd  Pd177  1  -0.00361706  0.79247912  0.19329015  1
  Pd  Pd178  1  0.39732706  0.40761830  0.79499151  1
  Pd  Pd179  1  0.19069910  0.59724479  0.19275596  1
  Pd  Pd180  1  -0.00567526  0.20246532  0.39538667  1
  Pd  Pd181  1  -0.00543864  0.19963042  0.59618632  1
  Pd  Pd182  1  0.00634249  -0.00849949  0.80120322  1
  Pd  Pd183  1  0.79867207  0.40596428  0.79925727  1
  Pd  Pd184  1  0.80649398  -0.00162888  0.59838696  1
  Pd  Pd185  1  0.00549887  -0.00067288  0.19379635  1
  Pd  Pd186  1  0.20742644  0.20172218  0.19039232  1
  Pd  Pd187  1  0.59268217  0.40489495  0.19186485  1
  Pd  Pd188  1  0.59200146  0.60901370  0.80964228  1
  Pd  Pd189  1  0.20322196  0.59538740  0.40767967  1
  Pd  Pd190  1  0.20148241  0.79378586  0.60026095  1
  Pd  Pd191  1  0.41050403  0.79085901  0.79283973  1
  Pd  Pd192  1  0.59711348  0.40254091  0.79526578  1
  Pd  Pd193  1  0.41008921  0.40139593  0.59563857  1
  Pd  Pd194  1  0.40031260  0.19384422  0.79297339  1
  Pd  Pd195  1  -0.00091407  0.39886123  0.60138628  1
  Pd  Pd196  1  0.19859660  0.00180724  0.40142662  1
  Pd  Pd197  1  0.00647463  0.40113235  0.78650399  1
  Pd  Pd198  1  0.39902292  0.79666708  0.40485070  1
  Pd  Pd199  1  0.60587193  0.00764534  0.20178954  1
  Rh  Rh200  1  0.80245423  0.20127981  0.39532635  1
  Rh  Rh201  1  0.40296058  0.60173165  0.20769181  1
  Rh  Rh202  1  0.40466021  0.60948435  0.59432041  1
  Rh  Rh203  1  0.79716843  0.39878923  0.59399642  1
  Rh  Rh204  1  0.19995572  0.39221024  -0.00821790  1
  Rh  Rh205  1  0.19497183  0.60726244  0.59836770  1
  Rh  Rh206  1  0.80751291  0.60464219  0.59225246  1
  Rh  Rh207  1  0.80686384  0.20214012  0.60455789  1
  Rh  Rh208  1  -0.00254569  0.59915527  0.60540576  1
  Rh  Rh209  1  0.40330091  0.00175352  -0.00030353  1
  Rh  Rh210  1  0.60637090  -0.00277948  0.79334471  1
  Rh  Rh211  1  0.80498048  0.79933673  0.59135367  1
  Rh  Rh212  1  0.79607425  0.40148462  0.00293985  1
  Rh  Rh213  1  0.59275958  0.20623860  0.59815143  1
  Rh  Rh214  1  0.19972138  0.39009136  0.59580721  1
  Rh  Rh215  1  0.19845366  0.79629700  0.00445485  1
  Rh  Rh216  1  0.19474392  -0.00082493  0.20292693  1
  Rh  Rh217  1  -0.00669369  0.39715447  0.00880438  1
  Rh  Rh218  1  0.59940241  0.60076298  0.19420473  1
  Rh  Rh219  1  0.59879716  0.59240074  0.59119383  1
  Rh  Rh220  1  0.19351890  0.79318283  0.40999288  1
  Rh  Rh221  1  0.80715136  0.00052931  -0.00383180  1
  Rh  Rh222  1  0.00350162  0.39484043  0.39735389  1
  Rh  Rh223  1  0.39138870  0.41212239  0.40250803  1
  Rh  Rh224  1  0.79920512  0.19802267  0.20275943  1
  Rh  Rh225  1  -0.00686884  0.19895313  0.20081992  1
  Rh  Rh226  1  0.79593088  0.40467141  0.39967126  1
  Rh  Rh227  1  0.60621367  0.60021516  0.40204739  1
  Rh  Rh228  1  0.21035584  0.80122121  0.19702918  1
  Rh  Rh229  1  0.59611704  0.00263240  0.40769147  1
  Rh  Rh230  1  0.40693994  0.80713606  0.01201007  1
  Rh  Rh231  1  0.20595096  0.21093625  0.80406869  1
  Rh  Rh232  1  0.39572028  0.19042554  0.00514863  1
  Rh  Rh233  1  0.79529165  0.39591754  0.19876490  1
  Rh  Rh234  1  0.79771554  0.80513556  0.20039850  1
  Rh  Rh235  1  0.59967733  0.19760385  0.40255941  1
  Rh  Rh236  1  -0.01374880  0.21173860  0.80409849  1
  Rh  Rh237  1  0.79796343  -0.00046880  0.20717297  1
  Rh  Rh238  1  0.00575047  0.00385940  0.40699775  1
  Rh  Rh239  1  0.00116197  0.19344848  -0.00119046  1
  Rh  Rh240  1  0.59229307  0.80588262  0.61408855  1
  Rh  Rh241  1  0.79992132  0.59664099  0.20518885  1
  Rh  Rh242  1  0.59670480  -0.00157190  -0.00115087  1
  Rh  Rh243  1  0.19843403  0.79173317  0.79660299  1
  Rh  Rh244  1  0.59297046  0.79961535  0.19165149  1
  Rh  Rh245  1  0.78599436  0.80788372  0.80141048  1
  Rh  Rh246  1  0.40445104  -0.00307088  0.60042147  1
  Rh  Rh247  1  -0.00254243  0.79316964  0.40201230  1
  Rh  Rh248  1  0.39280685  0.00660264  0.79570572  1
  Rh  Rh249  1  0.61540159  0.79272320  0.39477102  1
