# generated using pymatgen
data_ZrScNbPdRh
_symmetry_space_group_name_H-M   'P 1'
_cell_length_a   16.56145028
_cell_length_b   16.55883552
_cell_length_c   16.55865302
_cell_angle_alpha   90.03601936
_cell_angle_beta   89.98663786
_cell_angle_gamma   90.02838168
_symmetry_Int_Tables_number   1
_chemical_formula_structural   ZrScNbPdRh
_chemical_formula_sum   'Zr50 Sc50 Nb50 Pd50 Rh50'
_cell_volume   4541.01579072
_cell_formula_units_Z   50
loop_
 _symmetry_equiv_pos_site_id
 _symmetry_equiv_pos_as_xyz
  1  'x, y, z'
loop_
 _atom_site_type_symbol
 _atom_site_label
 _atom_site_symmetry_multiplicity
 _atom_site_fract_x
 _atom_site_fract_y
 _atom_site_fract_z
 _atom_site_occupancy
  Zr  Zr0  1  0.49412310  0.90490645  0.70176149  1
  Zr  Zr1  1  0.70609282  0.49723044  0.90687120  1
  Zr  Zr2  1  0.28765942  0.49717372  0.49870932  1
  Zr  Zr3  1  0.30512783  0.30379881  0.49590211  1
  Zr  Zr4  1  0.30519677  0.31321036  0.30156302  1
  Zr  Zr5  1  0.89542368  0.69507472  0.69960687  1
  Zr  Zr6  1  0.69852963  0.89652284  0.90461152  1
  Zr  Zr7  1  0.70360885  0.08952272  0.30262696  1
  Zr  Zr8  1  0.10033823  0.70276729  0.90218991  1
  Zr  Zr9  1  0.49069211  0.69526479  0.90977505  1
  Zr  Zr10  1  0.70310168  0.69778449  0.70014364  1
  Zr  Zr11  1  0.10147610  0.49954849  0.68563459  1
  Zr  Zr12  1  0.09664957  0.09518039  0.89747624  1
  Zr  Zr13  1  0.49553872  0.09935615  0.09748234  1
  Zr  Zr14  1  0.49800352  0.10023947  0.68853663  1
  Zr  Zr15  1  0.30392895  0.90392759  0.89674363  1
  Zr  Zr16  1  0.89600685  0.70140263  0.10237703  1
  Zr  Zr17  1  0.29687280  0.50048894  0.10694191  1
  Zr  Zr18  1  0.30120617  0.10694116  0.49936042  1
  Zr  Zr19  1  0.49566493  0.29332891  0.50604552  1
  Zr  Zr20  1  0.69242192  0.89015010  0.70996420  1
  Zr  Zr21  1  0.70764411  0.30106540  0.49834215  1
  Zr  Zr22  1  0.48676330  0.30020677  0.89316314  1
  Zr  Zr23  1  0.70175021  0.89759925  0.29700508  1
  Zr  Zr24  1  0.90057864  0.89574648  0.69264431  1
  Zr  Zr25  1  0.08533486  0.90515218  0.29495747  1
  Zr  Zr26  1  0.88831246  0.50302768  0.09517799  1
  Zr  Zr27  1  0.89600216  0.69260608  0.90334441  1
  Zr  Zr28  1  0.49481898  0.89807933  0.50650089  1
  Zr  Zr29  1  0.69885938  0.09867900  0.91475833  1
  Zr  Zr30  1  0.30889018  0.50464667  0.89600693  1
  Zr  Zr31  1  0.70030729  0.50525227  0.50435435  1
  Zr  Zr32  1  0.69775445  0.49681238  0.10243781  1
  Zr  Zr33  1  0.08985960  0.10683219  0.10395103  1
  Zr  Zr34  1  0.09327110  0.30446383  0.90492033  1
  Zr  Zr35  1  0.70187283  0.69398100  0.10496621  1
  Zr  Zr36  1  0.09767601  0.30387337  0.69730464  1
  Zr  Zr37  1  0.09912437  0.10173227  0.29831058  1
  Zr  Zr38  1  0.49872366  0.89778835  0.29236054  1
  Zr  Zr39  1  0.29714544  0.88444863  0.50366392  1
  Zr  Zr40  1  0.69972255  0.90725222  0.09907028  1
  Zr  Zr41  1  0.29478556  0.70968283  0.31217559  1
  Zr  Zr42  1  0.90051432  0.49860203  0.89553256  1
  Zr  Zr43  1  0.11472083  0.69195638  0.50437322  1
  Zr  Zr44  1  0.10356097  0.70385707  0.09869751  1
  Zr  Zr45  1  0.49562680  0.70237445  0.50256457  1
  Zr  Zr46  1  0.30227168  0.90723649  0.09832654  1
  Zr  Zr47  1  0.10022363  0.08804229  0.69466937  1
  Zr  Zr48  1  0.69826683  0.30101991  0.69402039  1
  Zr  Zr49  1  0.50252636  0.50720218  0.09803894  1
  Sc  Sc50  1  0.89933889  0.89806559  0.10417335  1
  Sc  Sc51  1  0.30423981  0.30359167  0.10388450  1
  Sc  Sc52  1  0.70401185  0.09561512  0.49864022  1
  Sc  Sc53  1  0.50832989  0.49865654  0.50059618  1
  Sc  Sc54  1  0.49742452  0.30442049  0.10237491  1
  Sc  Sc55  1  0.10417187  0.31072765  0.50073832  1
  Sc  Sc56  1  0.49765665  0.90160791  0.10321418  1
  Sc  Sc57  1  0.50242817  0.49092019  0.70086156  1
  Sc  Sc58  1  0.29992270  0.11137659  0.28876618  1
  Sc  Sc59  1  0.50602788  0.71003232  0.69685720  1
  Sc  Sc60  1  0.89688329  0.10376586  0.90678825  1
  Sc  Sc61  1  0.70172973  0.50070854  0.69293173  1
  Sc  Sc62  1  0.90322882  0.08660140  0.30316659  1
  Sc  Sc63  1  0.49981556  0.49152125  0.29845625  1
  Sc  Sc64  1  0.49225028  0.09824661  0.90370977  1
  Sc  Sc65  1  0.69930233  0.10037073  0.69446130  1
  Sc  Sc66  1  0.50245157  0.30282678  0.69213791  1
  Sc  Sc67  1  0.30246377  0.70932730  0.08933334  1
  Sc  Sc68  1  0.70469855  0.90226283  0.49662540  1
  Sc  Sc69  1  0.70736182  0.69743167  0.29769109  1
  Sc  Sc70  1  0.29968443  0.70622726  0.90083093  1
  Sc  Sc71  1  0.89934397  0.10010748  0.69607610  1
  Sc  Sc72  1  0.50164400  0.90312465  0.89799945  1
  Sc  Sc73  1  0.49809358  0.49804993  0.90220845  1
  Sc  Sc74  1  0.91301306  0.29604629  0.09317015  1
  Sc  Sc75  1  0.29288127  0.70247185  0.70488007  1
  Sc  Sc76  1  0.09493910  0.90636119  0.09629834  1
  Sc  Sc77  1  0.89841401  0.09317491  0.50469273  1
  Sc  Sc78  1  0.70682405  0.29364540  0.90303570  1
  Sc  Sc79  1  0.89975032  0.89605223  0.49535299  1
  Sc  Sc80  1  0.50025268  0.09287821  0.29211276  1
  Sc  Sc81  1  0.90455086  0.49856236  0.50260152  1
  Sc  Sc82  1  0.10334450  0.48931306  0.10911052  1
  Sc  Sc83  1  0.09301110  0.49746646  0.89295090  1
  Sc  Sc84  1  0.89989512  0.90007833  0.91195317  1
  Sc  Sc85  1  0.91036143  0.49476462  0.31089848  1
  Sc  Sc86  1  0.09913128  0.90202492  0.51290334  1
  Sc  Sc87  1  0.09716380  0.90021250  0.89966736  1
  Sc  Sc88  1  0.49490333  0.30338989  0.29935575  1
  Sc  Sc89  1  0.69430505  0.49803827  0.30539017  1
  Sc  Sc90  1  0.89904167  0.69637333  0.49659638  1
  Sc  Sc91  1  0.10162133  0.90095602  0.70175659  1
  Sc  Sc92  1  0.31541481  0.30354598  0.69260596  1
  Sc  Sc93  1  0.09701451  0.30572550  0.29272743  1
  Sc  Sc94  1  0.70298581  0.30067289  0.08822604  1
  Sc  Sc95  1  0.10760707  0.49979168  0.30475163  1
  Sc  Sc96  1  0.09759607  0.70121098  0.30540698  1
  Sc  Sc97  1  0.89956848  0.30145145  0.68547024  1
  Sc  Sc98  1  0.90339999  0.50292754  0.69398790  1
  Sc  Sc99  1  0.09659711  0.70130344  0.70060805  1
  Nb  Nb100  1  0.10046726  0.50009765  0.50066393  1
  Nb  Nb101  1  0.89479621  0.29697985  0.31145392  1
  Nb  Nb102  1  0.70158172  0.70380226  0.89413248  1
  Nb  Nb103  1  0.70779664  0.29112226  0.30623687  1
  Nb  Nb104  1  0.68979903  0.68587831  0.50211914  1
  Nb  Nb105  1  0.49722930  0.70788017  0.29696275  1
  Nb  Nb106  1  0.29490498  0.09120435  0.70530278  1
  Nb  Nb107  1  0.29816709  0.90560623  0.30243240  1
  Nb  Nb108  1  0.89896910  0.30085062  0.48940256  1
  Nb  Nb109  1  0.10262000  0.10032483  0.50115493  1
  Nb  Nb110  1  0.30258381  0.50355111  0.30012147  1
  Nb  Nb111  1  0.50105775  0.10073375  0.49798377  1
  Nb  Nb112  1  0.90293741  0.30223851  0.89359237  1
  Nb  Nb113  1  0.30235745  0.10628502  0.90090012  1
  Nb  Nb114  1  0.30465231  0.10442405  0.09435473  1
  Nb  Nb115  1  0.29885966  0.29864103  0.89602675  1
  Nb  Nb116  1  0.89570937  0.09820422  0.09619854  1
  Nb  Nb117  1  0.90344273  0.71266833  0.29452991  1
  Nb  Nb118  1  0.30261165  0.70047555  0.50220865  1
  Nb  Nb119  1  0.30098513  0.49903954  0.69756658  1
  Nb  Nb120  1  0.29679060  0.90942936  0.69948290  1
  Nb  Nb121  1  0.70181862  0.10206658  0.09921833  1
  Nb  Nb122  1  0.89893014  0.88492334  0.30067344  1
  Nb  Nb123  1  0.50116838  0.70285149  0.10491016  1
  Nb  Nb124  1  0.10169295  0.29811847  0.09658534  1
  Nb  Nb125  1  0.80409273  0.39673223  0.79946067  1
  Nb  Nb126  1  0.00282014  0.20258579  0.79877082  1
  Nb  Nb127  1  0.39948635  0.60844215  0.20592809  1
  Nb  Nb128  1  0.60017229  0.79206065  0.00344751  1
  Nb  Nb129  1  0.20263238  0.20153205  0.79955056  1
  Nb  Nb130  1  0.80127870  0.19869357  0.20010272  1
  Nb  Nb131  1  0.61160686  0.19861665  0.20162884  1
  Nb  Nb132  1  0.39673699  0.60348780  0.39916946  1
  Nb  Nb133  1  0.20175053  0.19671237  0.60525208  1
  Nb  Nb134  1  0.20164086  0.00141614  0.39868136  1
  Nb  Nb135  1  -0.00357925  0.60408648  0.20157792  1
  Nb  Nb136  1  0.20120255  0.80859867  0.20359181  1
  Nb  Nb137  1  0.20797490  0.39716739  0.79751420  1
  Nb  Nb138  1  0.60420769  0.60360327  0.80521320  1
  Nb  Nb139  1  0.79532244  -0.00301706  0.80245554  1
  Nb  Nb140  1  0.39401821  0.60051765  0.59708897  1
  Nb  Nb141  1  0.39394136  -0.00209612  0.40052036  1
  Nb  Nb142  1  -0.00187703  0.20210707  0.40454582  1
  Nb  Nb143  1  0.59820456  0.79378461  0.39921145  1
  Nb  Nb144  1  0.20221600  0.20212652  -0.00219916  1
  Nb  Nb145  1  0.20511037  0.01299717  0.00030877  1
  Nb  Nb146  1  0.59971375  0.19998175  0.79955604  1
  Nb  Nb147  1  0.80226290  0.38831290  0.20729670  1
  Nb  Nb148  1  0.19939173  0.59643706  -0.00164464  1
  Nb  Nb149  1  0.60114898  0.19666520  0.39791355  1
  Pd  Pd150  1  0.79012695  0.79056944  0.40700058  1
  Pd  Pd151  1  0.59812790  0.38954977  0.40314126  1
  Pd  Pd152  1  0.18398841  0.81274930  0.39700085  1
  Pd  Pd153  1  0.80159857  0.19779057  0.59466354  1
  Pd  Pd154  1  0.60983824  0.80275075  0.59025531  1
  Pd  Pd155  1  0.40929576  0.19223198  0.38790947  1
  Pd  Pd156  1  0.60568116  0.60468642  -0.00514827  1
  Pd  Pd157  1  -0.01121271  0.20220662  0.20961308  1
  Pd  Pd158  1  0.00783713  0.79540998  0.41219340  1
  Pd  Pd159  1  0.38926445  0.79833560  0.19665769  1
  Pd  Pd160  1  0.39775932  0.40038381  0.00438609  1
  Pd  Pd161  1  0.01052126  0.59091684  0.01016015  1
  Pd  Pd162  1  0.59043024  0.60515693  0.39027723  1
  Pd  Pd163  1  0.59074309  -0.00404256  0.40327568  1
  Pd  Pd164  1  -0.01559444  0.00119159  0.79948403  1
  Pd  Pd165  1  0.20039802  0.61034659  0.19813023  1
  Pd  Pd166  1  0.39116885  0.00159876  0.59381224  1
  Pd  Pd167  1  0.79772719  0.41280351  0.39906399  1
  Pd  Pd168  1  0.00444885  0.20080208  0.59552111  1
  Pd  Pd169  1  0.00224889  0.79350197  0.59557191  1
  Pd  Pd170  1  0.59447036  0.39156088  -0.00687266  1
  Pd  Pd171  1  0.19521152  0.59389042  0.80313833  1
  Pd  Pd172  1  0.60846338  0.39776284  0.80561911  1
  Pd  Pd173  1  0.60771482  -0.00331333  0.59760387  1
  Pd  Pd174  1  0.00185498  0.00190475  0.40842938  1
  Pd  Pd175  1  0.80090643  0.19836481  0.79820142  1
  Pd  Pd176  1  0.40102552  0.79896537  0.79779664  1
  Pd  Pd177  1  0.20416559  0.40227989  -0.00607124  1
  Pd  Pd178  1  0.80626368  0.59986046  0.39629698  1
  Pd  Pd179  1  0.81213349  0.80669150  0.80510509  1
  Pd  Pd180  1  0.79368069  0.79335552  0.59003067  1
  Pd  Pd181  1  0.19065040  0.20404564  0.40275288  1
  Pd  Pd182  1  0.60953483  0.38784155  0.20198102  1
  Pd  Pd183  1  0.80806944  0.58668226  0.21743116  1
  Pd  Pd184  1  0.58999970  0.20646429  -0.00055135  1
  Pd  Pd185  1  0.40193029  0.19575617  0.78963835  1
  Pd  Pd186  1  0.20344826  0.20946824  0.19395576  1
  Pd  Pd187  1  0.79518854  -0.00605483  0.60677165  1
  Pd  Pd188  1  0.41175079  0.60230972  0.78667616  1
  Pd  Pd189  1  0.00141571  0.60349345  0.39788909  1
  Pd  Pd190  1  -0.00705718  0.40305108  0.20049647  1
  Pd  Pd191  1  -0.00592156  0.80055012  0.80264585  1
  Pd  Pd192  1  -0.00119675  0.80306234  0.00216403  1
  Pd  Pd193  1  0.20119371  0.00086014  0.19756690  1
  Pd  Pd194  1  0.00441548  0.59971178  0.79400092  1
  Pd  Pd195  1  0.60265955  0.01282725  0.80147361  1
  Pd  Pd196  1  0.80828062  -0.00112746  0.20050066  1
  Pd  Pd197  1  -0.00259939  0.40814333  0.00633528  1
  Pd  Pd198  1  0.59361664  0.60096984  0.21050497  1
  Pd  Pd199  1  0.19763038  0.80640446  0.79876794  1
  Rh  Rh200  1  0.20058227  0.79912893  0.61102441  1
  Rh  Rh201  1  0.00066140  0.19743342  -0.00614211  1
  Rh  Rh202  1  0.80388920  0.40240211  0.60080849  1
  Rh  Rh203  1  0.20603520  0.39309016  0.60579598  1
  Rh  Rh204  1  0.79397817  0.60496891  -0.00338106  1
  Rh  Rh205  1  0.81044620  0.20485785  0.00668140  1
  Rh  Rh206  1  0.20513826  0.60106300  0.60534561  1
  Rh  Rh207  1  0.40294925  0.41108216  0.40595841  1
  Rh  Rh208  1  0.60366215  0.19865955  0.59453222  1
  Rh  Rh209  1  0.20300619  0.59661150  0.39959073  1
  Rh  Rh210  1  -0.00658100  0.39642560  0.78873178  1
  Rh  Rh211  1  -0.00383630  -0.00389949  0.59750109  1
  Rh  Rh212  1  0.59132199  0.59723212  0.61341407  1
  Rh  Rh213  1  0.39072082  0.59871454  0.01292802  1
  Rh  Rh214  1  0.20576232  0.00240678  0.59080012  1
  Rh  Rh215  1  0.39809814  -0.00177291  -0.00384650  1
  Rh  Rh216  1  0.40811225  0.20217007  0.19840421  1
  Rh  Rh217  1  0.58702384  0.78967010  0.81380435  1
  Rh  Rh218  1  0.19758019  0.80738132  0.00264185  1
  Rh  Rh219  1  0.00166910  0.60393517  0.59461232  1
  Rh  Rh220  1  0.60253886  0.39794796  0.59200976  1
  Rh  Rh221  1  0.80304056  0.60193546  0.59532578  1
  Rh  Rh222  1  0.80418753  0.00053443  -0.00211711  1
  Rh  Rh223  1  0.80855627  0.39160063  -0.00214840  1
  Rh  Rh224  1  0.19716345  0.39981980  0.39517319  1
  Rh  Rh225  1  0.80410080  0.18532102  0.40063098  1
  Rh  Rh226  1  0.20147292  0.39376441  0.20425816  1
  Rh  Rh227  1  -0.01074235  -0.00149208  0.19674612  1
  Rh  Rh228  1  0.80934471  -0.00761462  0.39875627  1
  Rh  Rh229  1  0.41045640  0.80785844  -0.00030569  1
  Rh  Rh230  1  0.39687983  0.40277925  0.79660250  1
  Rh  Rh231  1  0.40233638  0.41008882  0.19620906  1
  Rh  Rh232  1  -0.00372212  0.40160212  0.59121185  1
  Rh  Rh233  1  0.38990905  0.79585383  0.61546364  1
  Rh  Rh234  1  0.60792478  0.79749376  0.19911236  1
  Rh  Rh235  1  0.59291729  -0.00696887  0.00459756  1
  Rh  Rh236  1  0.39417520  0.19405907  0.60444378  1
  Rh  Rh237  1  0.40052745  0.00463892  0.80029691  1
  Rh  Rh238  1  0.40775162  0.80455432  0.39857670  1
  Rh  Rh239  1  0.39735074  0.20867384  0.00399543  1
  Rh  Rh240  1  0.00050248  0.00317037  0.00589109  1
  Rh  Rh241  1  0.59932691  0.00692022  0.19104797  1
  Rh  Rh242  1  0.39479747  0.00577361  0.20452151  1
  Rh  Rh243  1  0.40223327  0.41208068  0.59290957  1
  Rh  Rh244  1  0.79362692  0.79446534  0.00535078  1
  Rh  Rh245  1  0.79598058  0.80482138  0.19617554  1
  Rh  Rh246  1  0.00718865  0.39474253  0.40475693  1
  Rh  Rh247  1  0.00644772  0.79585099  0.19491261  1
  Rh  Rh248  1  0.20359354  -0.00134202  0.80975415  1
  Rh  Rh249  1  0.79254613  0.58876920  0.79923262  1
