# generated using pymatgen
data_ZrScNbPdRh
_symmetry_space_group_name_H-M   'P 1'
_cell_length_a   16.54887489
_cell_length_b   16.55006426
_cell_length_c   16.54667492
_cell_angle_alpha   90.00795994
_cell_angle_beta   90.00326198
_cell_angle_gamma   89.99583202
_symmetry_Int_Tables_number   1
_chemical_formula_structural   ZrScNbPdRh
_chemical_formula_sum   'Zr50 Sc50 Nb50 Pd50 Rh50'
_cell_volume   4531.88505226
_cell_formula_units_Z   50
loop_
 _symmetry_equiv_pos_site_id
 _symmetry_equiv_pos_as_xyz
  1  'x, y, z'
loop_
 _atom_site_type_symbol
 _atom_site_label
 _atom_site_symmetry_multiplicity
 _atom_site_fract_x
 _atom_site_fract_y
 _atom_site_fract_z
 _atom_site_occupancy
  Zr  Zr0  1  0.10021930  0.30519461  0.50411532  1
  Zr  Zr1  1  0.50277401  0.90208918  0.70185021  1
  Zr  Zr2  1  0.30061151  0.09529891  0.50405618  1
  Zr  Zr3  1  0.30505248  0.30640904  0.50023409  1
  Zr  Zr4  1  0.09136416  0.90266033  0.50987915  1
  Zr  Zr5  1  0.29330648  0.29606249  0.89443561  1
  Zr  Zr6  1  0.69058889  0.90092379  0.49585145  1
  Zr  Zr7  1  0.90009444  0.89760362  0.70215070  1
  Zr  Zr8  1  0.50263146  0.49783523  0.69784972  1
  Zr  Zr9  1  0.90129781  0.09597505  0.09134576  1
  Zr  Zr10  1  0.29406287  0.10520169  0.10175580  1
  Zr  Zr11  1  0.49888864  0.69783102  0.50197208  1
  Zr  Zr12  1  0.30102708  0.69865202  0.89930445  1
  Zr  Zr13  1  0.09154667  0.30636899  0.30195843  1
  Zr  Zr14  1  0.49788891  0.69763050  0.69992936  1
  Zr  Zr15  1  0.70629815  0.10446964  0.69684675  1
  Zr  Zr16  1  0.10121834  0.09758600  0.49871497  1
  Zr  Zr17  1  0.29295165  0.69874189  0.30059342  1
  Zr  Zr18  1  0.50142338  0.89957891  0.30772636  1
  Zr  Zr19  1  0.90215337  0.50362137  0.69964681  1
  Zr  Zr20  1  0.49785164  0.49914411  0.49263327  1
  Zr  Zr21  1  0.69833841  0.30058838  0.70075502  1
  Zr  Zr22  1  0.09403865  0.50816618  0.50032159  1
  Zr  Zr23  1  0.90225321  0.70295512  0.48982045  1
  Zr  Zr24  1  0.10036309  0.89108872  0.70657353  1
  Zr  Zr25  1  0.10576665  0.08724859  0.69131603  1
  Zr  Zr26  1  0.49285082  0.49595966  0.10073991  1
  Zr  Zr27  1  0.29855755  0.70282886  0.10410724  1
  Zr  Zr28  1  0.68902445  0.10500025  0.10484322  1
  Zr  Zr29  1  0.70061360  0.50483060  0.30326498  1
  Zr  Zr30  1  0.30826998  0.49713863  0.29362150  1
  Zr  Zr31  1  0.29582074  0.49338084  0.90628073  1
  Zr  Zr32  1  0.09292364  0.88997412  0.29187474  1
  Zr  Zr33  1  0.69379412  0.30246444  0.89873805  1
  Zr  Zr34  1  0.89435914  0.10084921  0.29378157  1
  Zr  Zr35  1  0.10093974  0.10690479  0.91636429  1
  Zr  Zr36  1  0.29514748  0.70085156  0.50103468  1
  Zr  Zr37  1  0.70935709  0.69912571  0.29664274  1
  Zr  Zr38  1  0.70526715  0.69463696  0.49769933  1
  Zr  Zr39  1  0.30127933  0.90100502  0.90061422  1
  Zr  Zr40  1  0.89359876  0.90256869  0.90097870  1
  Zr  Zr41  1  0.51305166  0.70313137  0.09345305  1
  Zr  Zr42  1  0.09249993  0.69850105  0.10785742  1
  Zr  Zr43  1  0.50743235  0.29604853  0.09039653  1
  Zr  Zr44  1  0.71432257  0.29785419  0.30097000  1
  Zr  Zr45  1  0.70771715  0.90113876  0.89775194  1
  Zr  Zr46  1  0.29801574  0.50756934  0.49417832  1
  Zr  Zr47  1  0.50360779  0.30339725  0.70358711  1
  Zr  Zr48  1  0.90914231  0.30464267  0.48994091  1
  Zr  Zr49  1  0.70197867  0.28893165  0.50148286  1
  Sc  Sc50  1  0.29573815  0.70161201  0.69775259  1
  Sc  Sc51  1  0.90147105  0.50727238  0.09464018  1
  Sc  Sc52  1  0.30646301  0.49484804  0.70236157  1
  Sc  Sc53  1  0.08880359  0.69570066  0.29902643  1
  Sc  Sc54  1  0.69658283  0.50624578  0.49616509  1
  Sc  Sc55  1  0.49445751  0.90162222  0.49812699  1
  Sc  Sc56  1  0.90224387  0.29981327  0.70089229  1
  Sc  Sc57  1  0.31256781  0.89147883  0.29902023  1
  Sc  Sc58  1  0.89265914  0.31080671  0.10170938  1
  Sc  Sc59  1  0.89723076  0.69561510  0.89836648  1
  Sc  Sc60  1  0.10145399  0.30758172  0.90065745  1
  Sc  Sc61  1  0.09352110  0.09787201  0.10050904  1
  Sc  Sc62  1  0.50386019  0.69981227  0.29625951  1
  Sc  Sc63  1  0.09809385  0.50256242  0.09513658  1
  Sc  Sc64  1  0.10056214  0.70635954  0.69469756  1
  Sc  Sc65  1  0.29722059  0.89928034  0.69721514  1
  Sc  Sc66  1  0.10934081  0.30700211  0.70451537  1
  Sc  Sc67  1  0.89264898  0.70011010  0.69602145  1
  Sc  Sc68  1  0.49665370  0.49519982  0.89631886  1
  Sc  Sc69  1  0.70881130  0.50617534  0.10299121  1
  Sc  Sc70  1  0.90402643  0.29910769  0.90887704  1
  Sc  Sc71  1  0.69755972  0.89255688  0.29365439  1
  Sc  Sc72  1  0.70183964  0.89791790  0.09552082  1
  Sc  Sc73  1  0.29479274  0.30703163  0.10370771  1
  Sc  Sc74  1  0.69798405  0.30079959  0.09481910  1
  Sc  Sc75  1  0.30524896  0.09779034  0.71159043  1
  Sc  Sc76  1  0.31261962  0.10538912  0.29917663  1
  Sc  Sc77  1  0.49796776  0.09798440  0.70071545  1
  Sc  Sc78  1  0.71176488  0.10054790  0.90447865  1
  Sc  Sc79  1  0.29453344  0.49670316  0.10170925  1
  Sc  Sc80  1  0.10458919  0.29783948  0.09712542  1
  Sc  Sc81  1  0.50154891  0.09969102  0.29632645  1
  Sc  Sc82  1  0.70233176  0.70514374  0.90877349  1
  Sc  Sc83  1  0.70646818  0.50789373  0.90414280  1
  Sc  Sc84  1  0.48700431  0.29814444  0.31000331  1
  Sc  Sc85  1  0.69924592  0.50561082  0.69548548  1
  Sc  Sc86  1  0.50369786  0.30389273  0.89808150  1
  Sc  Sc87  1  0.89681854  0.89330480  0.29576751  1
  Sc  Sc88  1  0.91111684  0.09663376  0.49571772  1
  Sc  Sc89  1  0.89957495  0.49233754  0.29493847  1
  Sc  Sc90  1  0.09399497  0.70311339  0.89611369  1
  Sc  Sc91  1  0.50797973  0.89408293  0.90978550  1
  Sc  Sc92  1  0.50428886  0.09236711  0.49298375  1
  Sc  Sc93  1  0.70372820  0.88949843  0.69943047  1
  Sc  Sc94  1  0.90275125  0.50720862  0.50418804  1
  Sc  Sc95  1  0.50753159  0.89912365  0.10726924  1
  Sc  Sc96  1  0.08937989  0.49488610  0.70000105  1
  Sc  Sc97  1  0.09236904  0.09836527  0.30077920  1
  Sc  Sc98  1  0.49576850  0.09785296  0.89122357  1
  Sc  Sc99  1  0.50142197  0.30295082  0.50011591  1
  Nb  Nb100  1  0.91324088  0.50105296  0.89482733  1
  Nb  Nb101  1  0.90137949  0.30018849  0.30091915  1
  Nb  Nb102  1  0.09637383  0.90081414  0.10167337  1
  Nb  Nb103  1  0.89938821  0.09856755  0.70371562  1
  Nb  Nb104  1  0.10261355  0.69818743  0.49544685  1
  Nb  Nb105  1  0.50526978  0.49651187  0.29988941  1
  Nb  Nb106  1  0.90594599  0.90439252  0.10287409  1
  Nb  Nb107  1  0.49780132  0.10389032  0.09723938  1
  Nb  Nb108  1  0.29911056  0.89917544  0.49382944  1
  Nb  Nb109  1  0.89774093  0.70288238  0.29511807  1
  Nb  Nb110  1  0.09444905  0.50124514  0.89601874  1
  Nb  Nb111  1  0.70147097  0.10098879  0.30627944  1
  Nb  Nb112  1  0.49969250  0.69831602  0.90148181  1
  Nb  Nb113  1  0.89423896  0.90130934  0.49819859  1
  Nb  Nb114  1  0.70939208  0.69548813  0.10212289  1
  Nb  Nb115  1  0.90218382  0.09699730  0.89923851  1
  Nb  Nb116  1  0.69556541  0.69558557  0.69593547  1
  Nb  Nb117  1  0.30322573  0.29861612  0.69917656  1
  Nb  Nb118  1  0.29207382  0.30048344  0.30342446  1
  Nb  Nb119  1  0.10293998  0.49950266  0.29848749  1
  Nb  Nb120  1  0.69802085  0.09520403  0.49853011  1
  Nb  Nb121  1  0.30275670  0.09997916  0.90150795  1
  Nb  Nb122  1  0.29653749  0.89795047  0.10350747  1
  Nb  Nb123  1  0.09690720  0.89782413  0.90204735  1
  Nb  Nb124  1  0.89672143  0.69705280  0.10516108  1
  Nb  Nb125  1  0.60748809  -0.00319738  0.79879685  1
  Nb  Nb126  1  0.79454136  0.00059266  0.40135442  1
  Nb  Nb127  1  0.59763281  0.60761748  0.80000789  1
  Nb  Nb128  1  0.19362881  0.80210674  0.40442708  1
  Nb  Nb129  1  0.19665810  0.59454095  0.80441834  1
  Nb  Nb130  1  0.80489594  0.40495840  0.80023224  1
  Nb  Nb131  1  0.40496884  0.79664979  0.80332126  1
  Nb  Nb132  1  0.20103348  0.20290741  0.40024145  1
  Nb  Nb133  1  0.00067443  0.19027513  0.79844926  1
  Nb  Nb134  1  0.39755516  0.19557099  -0.00083151  1
  Nb  Nb135  1  0.20241749  -0.00574616  0.39546720  1
  Nb  Nb136  1  0.59827986  0.40189301  0.20700666  1
  Nb  Nb137  1  0.19966459  0.40285612  0.39534326  1
  Nb  Nb138  1  0.00369399  0.19674046  0.60592529  1
  Nb  Nb139  1  -0.00187827  0.80440468  0.00681550  1
  Nb  Nb140  1  0.00122768  0.00283046  0.80639608  1
  Nb  Nb141  1  0.39742575  0.20470249  0.60455326  1
  Nb  Nb142  1  -0.00873924  0.20609789  0.20240236  1
  Nb  Nb143  1  0.40103211  0.60307874  0.00006594  1
  Nb  Nb144  1  0.80003263  0.39641608  0.60081009  1
  Nb  Nb145  1  0.19416864  -0.00089296  0.81200452  1
  Nb  Nb146  1  0.39750762  0.00419409  0.00710681  1
  Nb  Nb147  1  0.19382708  0.80566413  0.00552184  1
  Nb  Nb148  1  0.20133069  -0.00697568  0.20074650  1
  Nb  Nb149  1  0.80125429  0.00118679  0.59386829  1
  Pd  Pd150  1  0.39783801  0.80258374  0.00136869  1
  Pd  Pd151  1  0.40424389  0.60577493  0.39282270  1
  Pd  Pd152  1  0.79791678  0.80105156  0.59560589  1
  Pd  Pd153  1  0.60071116  0.18916995  0.80404240  1
  Pd  Pd154  1  0.39763433  0.80367630  0.60383441  1
  Pd  Pd155  1  0.20276076  -0.00371575  0.00440465  1
  Pd  Pd156  1  -0.00679946  0.59656441  0.39090373  1
  Pd  Pd157  1  0.18907436  0.19324826  0.20768236  1
  Pd  Pd158  1  0.59862270  0.79942738  0.59494549  1
  Pd  Pd159  1  0.59702863  0.20108439  0.39548038  1
  Pd  Pd160  1  -0.00437067  0.79308370  0.59657617  1
  Pd  Pd161  1  0.60741801  0.40421540  0.59348313  1
  Pd  Pd162  1  0.80626315  0.79774935  0.00645927  1
  Pd  Pd163  1  0.60249221  0.00011208  0.20412674  1
  Pd  Pd164  1  0.79932680  0.20100984  0.00340795  1
  Pd  Pd165  1  0.40827513  0.79687480  0.19889520  1
  Pd  Pd166  1  0.80238072  0.20255946  0.18898455  1
  Pd  Pd167  1  0.19538952  0.59567958  0.20055992  1
  Pd  Pd168  1  0.40515154  0.60608470  0.19471772  1
  Pd  Pd169  1  0.39877955  0.00288690  0.60213271  1
  Pd  Pd170  1  0.20300343  0.41098841  0.59970649  1
  Pd  Pd171  1  0.80728288  0.19108213  0.40837749  1
  Pd  Pd172  1  0.19697418  0.60649199  -0.00400755  1
  Pd  Pd173  1  0.59759649  0.59338258  -0.00546072  1
  Pd  Pd174  1  0.79284812  0.60117281  0.80084169  1
  Pd  Pd175  1  0.60426176  0.39057076  0.39577988  1
  Pd  Pd176  1  -0.00456806  -0.00864420  0.39084759  1
  Pd  Pd177  1  0.80135190  0.40769049  -0.00659133  1
  Pd  Pd178  1  0.00603649  0.61065399  0.79163032  1
  Pd  Pd179  1  0.58804125  0.19218018  0.59735237  1
  Pd  Pd180  1  0.00343154  0.39881640  0.00461438  1
  Pd  Pd181  1  0.80213013  0.40839421  0.40842671  1
  Pd  Pd182  1  0.60006911  0.79279013  0.39953446  1
  Pd  Pd183  1  0.40540829  0.38869567  0.19936928  1
  Pd  Pd184  1  0.00125018  0.40006440  0.19097621  1
  Pd  Pd185  1  0.20388546  0.20046971  0.60093736  1
  Pd  Pd186  1  0.60680927  0.41283198  0.00491724  1
  Pd  Pd187  1  0.81452380  0.19778381  0.59047021  1
  Pd  Pd188  1  0.60099912  0.59616922  0.19894490  1
  Pd  Pd189  1  0.19618714  0.59395194  0.61376788  1
  Pd  Pd190  1  0.79238890  -0.00442436  0.20004146  1
  Pd  Pd191  1  0.40303409  0.20947161  0.19339840  1
  Pd  Pd192  1  0.80823014  0.21004091  0.80739546  1
  Pd  Pd193  1  0.39766178  -0.00236246  0.19702209  1
  Pd  Pd194  1  0.39911254  0.39624948  0.80281279  1
  Pd  Pd195  1  0.19300818  0.19230268  0.79797111  1
  Pd  Pd196  1  0.39559498  0.59624230  0.60170205  1
  Pd  Pd197  1  0.60075027  0.79821565  0.80447210  1
  Pd  Pd198  1  0.59681936  0.21109389  0.21201877  1
  Pd  Pd199  1  0.59590830  0.00613010  -0.00677518  1
  Rh  Rh200  1  -0.00165029  0.60755584  -0.00159172  1
  Rh  Rh201  1  -0.01142018  0.79659874  0.19444873  1
  Rh  Rh202  1  0.80760558  0.59756606  0.39597972  1
  Rh  Rh203  1  0.59450611  0.19066943  -0.01023673  1
  Rh  Rh204  1  -0.00394096  0.20671174  0.00490741  1
  Rh  Rh205  1  0.59587436  0.60582974  0.39905450  1
  Rh  Rh206  1  0.20020289  0.80457337  0.59053933  1
  Rh  Rh207  1  0.79547725  0.00426864  0.00938930  1
  Rh  Rh208  1  0.79821192  0.00004789  0.79024380  1
  Rh  Rh209  1  0.39837608  0.00102433  0.39555268  1
  Rh  Rh210  1  0.60349501  0.00064892  0.38983212  1
  Rh  Rh211  1  0.40376883  -0.01236070  0.80748292  1
  Rh  Rh212  1  0.39660910  0.79287972  0.40198990  1
  Rh  Rh213  1  0.39447018  0.19671241  0.41101971  1
  Rh  Rh214  1  -0.00395148  -0.00738533  -0.00358562  1
  Rh  Rh215  1  0.19509461  0.40507958  0.20298580  1
  Rh  Rh216  1  0.79875280  0.78944039  0.79806326  1
  Rh  Rh217  1  0.60985157  0.79925952  0.00294901  1
  Rh  Rh218  1  0.79997567  0.80506283  0.39796019  1
  Rh  Rh219  1  0.39899070  0.60433630  0.80579910  1
  Rh  Rh220  1  0.20026925  0.80366915  0.20270517  1
  Rh  Rh221  1  0.20747048  0.79818989  0.80753512  1
  Rh  Rh222  1  0.60789433  0.00134336  0.61024410  1
  Rh  Rh223  1  0.40396618  0.39695055  0.60038622  1
  Rh  Rh224  1  -0.01024989  0.80149545  0.80701411  1
  Rh  Rh225  1  0.00330378  0.41204409  0.39776040  1
  Rh  Rh226  1  0.19991818  0.40960079  0.79685893  1
  Rh  Rh227  1  0.00267459  0.00662777  0.20199381  1
  Rh  Rh228  1  -0.00501365  0.59405139  0.20367682  1
  Rh  Rh229  1  0.00078189  0.61040783  0.60184115  1
  Rh  Rh230  1  0.80821702  0.59829376  0.20398214  1
  Rh  Rh231  1  -0.01162847  0.00125291  0.60820599  1
  Rh  Rh232  1  0.20650027  0.20692769  0.00199437  1
  Rh  Rh233  1  0.60721426  0.79598002  0.19633178  1
  Rh  Rh234  1  0.79295096  0.40141895  0.20008485  1
  Rh  Rh235  1  0.80101321  0.80035345  0.19313447  1
  Rh  Rh236  1  0.00130752  0.80191545  0.40278990  1
  Rh  Rh237  1  -0.00573750  0.39002181  0.80385981  1
  Rh  Rh238  1  0.19528375  0.60025482  0.39224525  1
  Rh  Rh239  1  0.39497987  0.39470382  -0.00179532  1
  Rh  Rh240  1  -0.00692426  0.39282841  0.60364817  1
  Rh  Rh241  1  0.59886664  0.59885969  0.60073841  1
  Rh  Rh242  1  0.80065263  0.59786593  0.59527702  1
  Rh  Rh243  1  0.80938079  0.60054993  -0.00233577  1
  Rh  Rh244  1  0.00402923  0.19966862  0.39694000  1
  Rh  Rh245  1  0.40235376  0.20772653  0.79945694  1
  Rh  Rh246  1  0.20917889  -0.00925775  0.60087746  1
  Rh  Rh247  1  0.61256758  0.41551971  0.80476609  1
  Rh  Rh248  1  0.39523897  0.40361630  0.39830444  1
  Rh  Rh249  1  0.19379428  0.39990425  -0.00006077  1
