# generated using pymatgen
data_ZrScNbPdRh
_symmetry_space_group_name_H-M   'P 1'
_cell_length_a   16.55963425
_cell_length_b   16.56084563
_cell_length_c   16.56175217
_cell_angle_alpha   90.03761433
_cell_angle_beta   89.98563149
_cell_angle_gamma   90.01746684
_symmetry_Int_Tables_number   1
_chemical_formula_structural   ZrScNbPdRh
_chemical_formula_sum   'Zr50 Sc50 Nb50 Pd50 Rh50'
_cell_volume   4541.91919564
_cell_formula_units_Z   50
loop_
 _symmetry_equiv_pos_site_id
 _symmetry_equiv_pos_as_xyz
  1  'x, y, z'
loop_
 _atom_site_type_symbol
 _atom_site_label
 _atom_site_symmetry_multiplicity
 _atom_site_fract_x
 _atom_site_fract_y
 _atom_site_fract_z
 _atom_site_occupancy
  Zr  Zr0  1  0.49778055  0.10629179  0.50940319  1
  Zr  Zr1  1  0.90078594  0.89755946  0.30310086  1
  Zr  Zr2  1  0.70230435  0.50315752  0.70429662  1
  Zr  Zr3  1  0.29858607  0.89957612  0.50262249  1
  Zr  Zr4  1  0.29349975  0.49880858  0.30997288  1
  Zr  Zr5  1  0.29404232  0.90246446  0.30510186  1
  Zr  Zr6  1  0.10057605  0.29347858  0.89574954  1
  Zr  Zr7  1  0.50569941  0.49722558  0.69509203  1
  Zr  Zr8  1  0.68880693  0.09476623  0.10400021  1
  Zr  Zr9  1  0.69723573  0.90520172  0.70238754  1
  Zr  Zr10  1  0.29497302  0.10427447  0.89972391  1
  Zr  Zr11  1  0.11229649  0.50574216  0.69957743  1
  Zr  Zr12  1  0.50400315  0.70226029  0.70085840  1
  Zr  Zr13  1  0.29575959  0.08696246  0.69436577  1
  Zr  Zr14  1  0.90662591  0.10706391  0.50159896  1
  Zr  Zr15  1  0.70566173  0.90670186  0.90408607  1
  Zr  Zr16  1  0.90568063  0.30838301  0.69755364  1
  Zr  Zr17  1  0.89300821  0.88798852  0.10045903  1
  Zr  Zr18  1  0.49842052  0.09524074  0.70622727  1
  Zr  Zr19  1  0.30389108  0.70096894  0.30705449  1
  Zr  Zr20  1  0.29894770  0.29526777  0.90173319  1
  Zr  Zr21  1  0.09842213  0.90150153  0.30628368  1
  Zr  Zr22  1  0.50794888  0.29857888  0.31227970  1
  Zr  Zr23  1  0.70326655  0.49864734  0.30300978  1
  Zr  Zr24  1  0.90727572  0.70183717  0.90464415  1
  Zr  Zr25  1  0.69751982  0.30780889  0.48859836  1
  Zr  Zr26  1  0.50010048  0.89906396  0.30688660  1
  Zr  Zr27  1  0.50092002  0.10269112  0.29703523  1
  Zr  Zr28  1  0.49457514  0.90529197  0.89260240  1
  Zr  Zr29  1  0.50134969  0.29675307  0.69950020  1
  Zr  Zr30  1  0.09578690  0.29269292  0.49703549  1
  Zr  Zr31  1  0.70450856  0.29770695  0.10731361  1
  Zr  Zr32  1  0.50018119  0.29650405  0.50407291  1
  Zr  Zr33  1  0.90385477  0.50490525  0.69606163  1
  Zr  Zr34  1  0.31239200  0.49843386  0.11131942  1
  Zr  Zr35  1  0.28935228  0.69372595  0.70287954  1
  Zr  Zr36  1  0.09883641  0.69980369  0.69567355  1
  Zr  Zr37  1  0.09850876  0.10087814  0.89362884  1
  Zr  Zr38  1  0.70614688  0.69393215  0.30521678  1
  Zr  Zr39  1  0.90394557  0.70002800  0.50848623  1
  Zr  Zr40  1  0.90685662  0.30262248  0.90117710  1
  Zr  Zr41  1  0.50159408  0.91043121  0.10361360  1
  Zr  Zr42  1  0.89855407  0.50675782  0.30421375  1
  Zr  Zr43  1  0.90074237  0.69995590  0.10206834  1
  Zr  Zr44  1  0.69741204  0.09342267  0.89370608  1
  Zr  Zr45  1  0.89806405  0.70476991  0.30176126  1
  Zr  Zr46  1  0.70092362  0.69125836  0.69074779  1
  Zr  Zr47  1  0.49279620  0.90062838  0.69906810  1
  Zr  Zr48  1  0.49583808  0.50308313  0.28777127  1
  Zr  Zr49  1  0.89454775  0.09817130  0.89208739  1
  Sc  Sc50  1  0.09836363  0.69775299  0.50032943  1
  Sc  Sc51  1  0.09885717  0.09695553  0.09604159  1
  Sc  Sc52  1  0.69835009  0.31357985  0.89006193  1
  Sc  Sc53  1  0.10134572  0.90231697  0.90029959  1
  Sc  Sc54  1  0.49418147  0.10620702  0.11000725  1
  Sc  Sc55  1  0.90046884  0.10195826  0.69563987  1
  Sc  Sc56  1  0.70686717  0.69388513  0.10812218  1
  Sc  Sc57  1  0.90250260  0.49062755  0.89118796  1
  Sc  Sc58  1  0.29564149  0.70972522  0.89767834  1
  Sc  Sc59  1  0.09724041  0.09732411  0.30082097  1
  Sc  Sc60  1  0.50563900  0.70566255  0.50195088  1
  Sc  Sc61  1  0.90016489  0.29595912  0.09939159  1
  Sc  Sc62  1  0.29301895  0.48912780  0.50550513  1
  Sc  Sc63  1  0.29010509  0.90541046  0.09824732  1
  Sc  Sc64  1  0.51528605  0.49363677  0.90490638  1
  Sc  Sc65  1  0.50083206  0.89369412  0.50706273  1
  Sc  Sc66  1  0.30178943  0.70773074  0.09530377  1
  Sc  Sc67  1  0.89887438  0.90158384  0.90763858  1
  Sc  Sc68  1  0.70555617  0.89288058  0.30960702  1
  Sc  Sc69  1  0.29799781  0.89508165  0.70063487  1
  Sc  Sc70  1  0.09120842  0.49751767  0.89944791  1
  Sc  Sc71  1  0.70507969  0.30775586  0.69642783  1
  Sc  Sc72  1  0.08564442  0.28909402  0.09077088  1
  Sc  Sc73  1  0.10471688  0.70478933  0.90076776  1
  Sc  Sc74  1  0.49766636  0.70740651  0.89711772  1
  Sc  Sc75  1  0.90079845  0.29911068  0.50281602  1
  Sc  Sc76  1  0.69239744  0.69483710  0.88710633  1
  Sc  Sc77  1  0.51177922  0.48879712  0.49743229  1
  Sc  Sc78  1  0.70488218  0.89603328  0.49877839  1
  Sc  Sc79  1  0.50656191  0.69926314  0.30664318  1
  Sc  Sc80  1  0.09437021  0.90004390  0.09778290  1
  Sc  Sc81  1  0.29693634  0.70619923  0.50489175  1
  Sc  Sc82  1  0.69015206  0.49867396  0.10277832  1
  Sc  Sc83  1  0.90121545  0.49254427  0.09118346  1
  Sc  Sc84  1  0.30871651  0.29458266  0.09773697  1
  Sc  Sc85  1  0.90267985  0.90544615  0.68066761  1
  Sc  Sc86  1  0.70736457  0.11020866  0.49791260  1
  Sc  Sc87  1  0.90004097  0.10581216  0.30277434  1
  Sc  Sc88  1  0.09870431  0.50372087  0.48732924  1
  Sc  Sc89  1  0.29512921  0.89506401  0.89508101  1
  Sc  Sc90  1  0.29385248  0.49987555  0.89725237  1
  Sc  Sc91  1  0.49574358  0.31486588  0.09966026  1
  Sc  Sc92  1  0.90381494  0.89947324  0.49327457  1
  Sc  Sc93  1  0.70567909  0.09732567  0.70182836  1
  Sc  Sc94  1  0.29591424  0.09680845  0.29511991  1
  Sc  Sc95  1  0.90626306  0.10617965  0.10501851  1
  Sc  Sc96  1  0.10567025  0.10168414  0.50328642  1
  Sc  Sc97  1  0.90291318  0.49860482  0.50246948  1
  Sc  Sc98  1  0.30317524  0.29838245  0.30988515  1
  Sc  Sc99  1  0.29755603  0.29403480  0.50471388  1
  Nb  Nb100  1  0.30119494  0.09254411  0.50176446  1
  Nb  Nb101  1  0.09731956  0.69835463  0.09898657  1
  Nb  Nb102  1  0.09939625  0.90826784  0.69802793  1
  Nb  Nb103  1  0.30147162  0.49930311  0.69888084  1
  Nb  Nb104  1  0.09909669  0.69202004  0.30445339  1
  Nb  Nb105  1  0.70911440  0.29172943  0.29960301  1
  Nb  Nb106  1  0.69764016  0.11092215  0.29632191  1
  Nb  Nb107  1  0.09806535  0.30022481  0.30346383  1
  Nb  Nb108  1  0.50190229  0.69636183  0.10516157  1
  Nb  Nb109  1  0.10180470  0.49959679  0.30354073  1
  Nb  Nb110  1  0.29425061  0.31887362  0.69643692  1
  Nb  Nb111  1  0.70618267  0.50581398  0.50154850  1
  Nb  Nb112  1  0.89859199  0.29393895  0.29387156  1
  Nb  Nb113  1  0.70012178  0.69134723  0.49629285  1
  Nb  Nb114  1  0.09831553  0.09146149  0.69931261  1
  Nb  Nb115  1  0.09656063  0.90180242  0.50308174  1
  Nb  Nb116  1  0.70368536  0.50192295  0.89542946  1
  Nb  Nb117  1  0.49956363  0.51211953  0.10201639  1
  Nb  Nb118  1  0.90387559  0.70145051  0.69639151  1
  Nb  Nb119  1  0.10371508  0.29588316  0.69857543  1
  Nb  Nb120  1  0.10096461  0.49733046  0.10377814  1
  Nb  Nb121  1  0.49693905  0.29461346  0.89444345  1
  Nb  Nb122  1  0.29461820  0.10501837  0.10254707  1
  Nb  Nb123  1  0.69860921  0.90162056  0.09977800  1
  Nb  Nb124  1  0.49362654  0.10698421  0.89173063  1
  Nb  Nb125  1  0.00667818  0.59698674  0.20145247  1
  Nb  Nb126  1  0.00531063  0.40032296  0.20737578  1
  Nb  Nb127  1  0.79534699  -0.00133141  0.20150703  1
  Nb  Nb128  1  0.19746881  0.40133558  0.00904975  1
  Nb  Nb129  1  0.19632343  0.20586656  0.19850473  1
  Nb  Nb130  1  0.59818326  0.00771428  0.39951510  1
  Nb  Nb131  1  0.60038056  0.80417970  0.00730222  1
  Nb  Nb132  1  0.39965088  0.59448147  0.60159989  1
  Nb  Nb133  1  0.59522242  0.20298066  -0.00943114  1
  Nb  Nb134  1  0.40038563  0.59289264  0.79867893  1
  Nb  Nb135  1  0.39688011  0.00979552  -0.00292575  1
  Nb  Nb136  1  -0.00413245  0.80181612  0.79041343  1
  Nb  Nb137  1  0.40176354  0.00295903  0.40628007  1
  Nb  Nb138  1  0.40230489  0.80117305  0.20010944  1
  Nb  Nb139  1  0.19265893  0.39652237  0.20092133  1
  Nb  Nb140  1  0.39908696  0.39836700  0.79759254  1
  Nb  Nb141  1  0.40286166  0.59881122  0.00139367  1
  Nb  Nb142  1  0.20045543  0.59551631  0.01009743  1
  Nb  Nb143  1  0.19543795  0.79215077  0.20387165  1
  Nb  Nb144  1  0.19550880  0.60036862  0.20056132  1
  Nb  Nb145  1  0.79616695  0.59435117  -0.00817988  1
  Nb  Nb146  1  0.79014669  0.19886237  -0.00411278  1
  Nb  Nb147  1  0.60019244  0.80185205  0.19615217  1
  Nb  Nb148  1  0.39983920  0.59661912  0.40750410  1
  Nb  Nb149  1  0.80724283  0.79745040  0.79150843  1
  Pd  Pd150  1  -0.00607438  -0.00151743  0.19843951  1
  Pd  Pd151  1  0.60901605  0.39857797  0.60000732  1
  Pd  Pd152  1  -0.00170570  0.19908348  0.79191146  1
  Pd  Pd153  1  0.61190386  0.19906321  0.60551354  1
  Pd  Pd154  1  0.20276437  0.19347904  0.39389687  1
  Pd  Pd155  1  0.00514607  0.60435381  0.80129427  1
  Pd  Pd156  1  0.18704477  0.40036019  0.59083270  1
  Pd  Pd157  1  0.79369099  0.00962740  0.39480626  1
  Pd  Pd158  1  0.00294565  0.00605557  0.40530872  1
  Pd  Pd159  1  0.39806827  0.40990236  -0.01092246  1
  Pd  Pd160  1  0.39635401  0.38959464  0.21018355  1
  Pd  Pd161  1  0.20497184  0.19813585  0.78542188  1
  Pd  Pd162  1  0.40585701  0.80445850  0.00624622  1
  Pd  Pd163  1  0.60114003  0.60951730  -0.00388462  1
  Pd  Pd164  1  0.60684159  0.80749108  0.80503788  1
  Pd  Pd165  1  0.60820397  0.80025339  0.59629339  1
  Pd  Pd166  1  0.38543945  0.20551951  0.78552394  1
  Pd  Pd167  1  -0.00827507  0.39436043  0.39695237  1
  Pd  Pd168  1  0.80834263  0.60498970  0.80401697  1
  Pd  Pd169  1  0.58687393  0.00598771  -0.00690009  1
  Pd  Pd170  1  0.20175991  0.19804456  0.60535668  1
  Pd  Pd171  1  0.00771724  0.79655199  0.20450978  1
  Pd  Pd172  1  0.80769990  0.01088031  0.01270073  1
  Pd  Pd173  1  0.80824199  0.39711341  0.40069507  1
  Pd  Pd174  1  0.78656136  0.78547190  -0.00886544  1
  Pd  Pd175  1  0.39323361  0.19162194  0.39996461  1
  Pd  Pd176  1  0.38806652  0.20315081  0.60993846  1
  Pd  Pd177  1  0.59277633  0.59449831  0.40220314  1
  Pd  Pd178  1  0.80778391  0.40379004  0.19988631  1
  Pd  Pd179  1  0.61002580  0.20269147  0.79840066  1
  Pd  Pd180  1  0.38923668  -0.00344865  0.19974435  1
  Pd  Pd181  1  0.60562107  0.00372325  0.59219888  1
  Pd  Pd182  1  0.79875477  0.20794147  0.59970326  1
  Pd  Pd183  1  0.79381238  0.39980619  -0.00132645  1
  Pd  Pd184  1  0.40025103  0.40436067  0.40802993  1
  Pd  Pd185  1  0.79587903  0.80014461  0.59933664  1
  Pd  Pd186  1  0.60318742  0.39386878  0.00101653  1
  Pd  Pd187  1  0.60029418  0.39684692  0.20497766  1
  Pd  Pd188  1  0.40790049  0.19618723  0.00446773  1
  Pd  Pd189  1  -0.00870527  -0.00919189  0.79665658  1
  Pd  Pd190  1  0.59021112  0.21275769  0.19254091  1
  Pd  Pd191  1  0.19734976  0.40209735  0.80836784  1
  Pd  Pd192  1  0.19466103  0.80457849  0.60146512  1
  Pd  Pd193  1  0.79907220  0.00308364  0.59236452  1
  Pd  Pd194  1  0.01092564  0.40537483  0.59942123  1
  Pd  Pd195  1  -0.00567729  0.00104696  0.00240049  1
  Pd  Pd196  1  0.79833932  0.20974531  0.80199028  1
  Pd  Pd197  1  0.19108413  0.79656631  0.40145227  1
  Pd  Pd198  1  -0.00093680  0.59407637  0.00197989  1
  Pd  Pd199  1  0.20188900  0.00094030  -0.00278591  1
  Rh  Rh200  1  0.79839964  0.40559984  0.59747246  1
  Rh  Rh201  1  0.80786222  0.58730431  0.18613091  1
  Rh  Rh202  1  0.19379018  -0.00465941  0.59633244  1
  Rh  Rh203  1  0.18743035  0.80734225  0.79461073  1
  Rh  Rh204  1  0.19261904  0.00277877  0.19741289  1
  Rh  Rh205  1  0.20262084  0.60000804  0.81220990  1
  Rh  Rh206  1  -0.00267085  0.20055301  0.39747391  1
  Rh  Rh207  1  0.39453237  0.20603979  0.20447994  1
  Rh  Rh208  1  0.79071554  0.80706207  0.20290808  1
  Rh  Rh209  1  0.60585298  0.60396304  0.20530723  1
  Rh  Rh210  1  0.80274147  0.59673783  0.59661707  1
  Rh  Rh211  1  0.59710245  0.59766704  0.59117897  1
  Rh  Rh212  1  0.20853122  0.60421548  0.40520844  1
  Rh  Rh213  1  0.20083300  -0.00294010  0.80153547  1
  Rh  Rh214  1  -0.01008134  0.18972768  -0.00996898  1
  Rh  Rh215  1  0.80443489  0.40203004  0.79531330  1
  Rh  Rh216  1  0.19776519  0.20613654  0.01009367  1
  Rh  Rh217  1  0.00724519  0.80493750  -0.00733675  1
  Rh  Rh218  1  0.01033616  0.39924896  0.78897542  1
  Rh  Rh219  1  0.60643094  0.40460312  0.39162838  1
  Rh  Rh220  1  0.40372385  0.79896319  0.40168297  1
  Rh  Rh221  1  -0.00597577  0.60554052  0.39882247  1
  Rh  Rh222  1  0.59104900  0.59543486  0.80268941  1
  Rh  Rh223  1  0.00304638  0.79621526  0.40383920  1
  Rh  Rh224  1  0.00749570  0.20438721  0.20695190  1
  Rh  Rh225  1  0.39705237  0.61219242  0.20324768  1
  Rh  Rh226  1  0.80740057  0.60210830  0.41145877  1
  Rh  Rh227  1  0.19419120  0.79630877  0.00737158  1
  Rh  Rh228  1  0.00492784  0.39792461  0.00151250  1
  Rh  Rh229  1  0.61466190  -0.00929090  0.21812753  1
  Rh  Rh230  1  0.20184791  0.00406189  0.40710105  1
  Rh  Rh231  1  0.40264816  0.39916789  0.60009668  1
  Rh  Rh232  1  0.00676838  0.19739544  0.60771106  1
  Rh  Rh233  1  0.59575369  0.40084632  0.79777850  1
  Rh  Rh234  1  0.00582014  0.59379534  0.59819053  1
  Rh  Rh235  1  0.80298287  0.79122877  0.41035495  1
  Rh  Rh236  1  0.38962123  0.00011446  0.80612060  1
  Rh  Rh237  1  0.00301705  0.00516444  0.59252369  1
  Rh  Rh238  1  0.20303431  0.59588921  0.58995980  1
  Rh  Rh239  1  0.80108953  0.19096994  0.19336648  1
  Rh  Rh240  1  0.00765857  0.80620481  0.60144913  1
  Rh  Rh241  1  0.80863037  -0.01267575  0.79037084  1
  Rh  Rh242  1  0.39502283  0.79158131  0.79163166  1
  Rh  Rh243  1  0.19755927  0.38994338  0.40347848  1
  Rh  Rh244  1  0.80541261  0.20428267  0.39941522  1
  Rh  Rh245  1  0.39645770  0.79046838  0.60599723  1
  Rh  Rh246  1  0.60629233  0.80191344  0.40030032  1
  Rh  Rh247  1  0.59684916  -0.00096649  0.79880009  1
  Rh  Rh248  1  0.60417722  0.19593933  0.40329396  1
  Rh  Rh249  1  0.40122052  -0.00513476  0.59571943  1
