# generated using pymatgen
data_ZrScNbPdRh
_symmetry_space_group_name_H-M   'P 1'
_cell_length_a   16.55699776
_cell_length_b   16.55732659
_cell_length_c   16.55771860
_cell_angle_alpha   89.97714025
_cell_angle_beta   90.02294190
_cell_angle_gamma   89.98321527
_symmetry_Int_Tables_number   1
_chemical_formula_structural   ZrScNbPdRh
_chemical_formula_sum   'Zr50 Sc50 Nb50 Pd50 Rh50'
_cell_volume   4539.12575254
_cell_formula_units_Z   50
loop_
 _symmetry_equiv_pos_site_id
 _symmetry_equiv_pos_as_xyz
  1  'x, y, z'
loop_
 _atom_site_type_symbol
 _atom_site_label
 _atom_site_symmetry_multiplicity
 _atom_site_fract_x
 _atom_site_fract_y
 _atom_site_fract_z
 _atom_site_occupancy
  Zr  Zr0  1  0.70520789  0.69713563  0.29737078  1
  Zr  Zr1  1  0.10196337  0.29753571  0.70226501  1
  Zr  Zr2  1  0.28970256  0.10001928  0.30216845  1
  Zr  Zr3  1  0.11056970  0.09507045  0.49900133  1
  Zr  Zr4  1  0.69714540  0.29846717  0.70337918  1
  Zr  Zr5  1  0.69703002  0.90300107  0.70322952  1
  Zr  Zr6  1  0.29999319  0.70294675  0.70988088  1
  Zr  Zr7  1  0.09922361  0.10009705  0.70553553  1
  Zr  Zr8  1  0.70232145  0.70417765  0.09966257  1
  Zr  Zr9  1  0.08648714  0.70222927  0.50217502  1
  Zr  Zr10  1  0.69703911  0.50229013  0.69189079  1
  Zr  Zr11  1  0.69962484  0.50399204  0.09787876  1
  Zr  Zr12  1  0.70928452  0.28897962  0.30109967  1
  Zr  Zr13  1  0.50102643  0.90719687  0.71273539  1
  Zr  Zr14  1  0.69193409  0.70172765  0.70601041  1
  Zr  Zr15  1  0.89917086  0.30089560  0.10612966  1
  Zr  Zr16  1  0.69322490  0.09889169  0.49654983  1
  Zr  Zr17  1  0.49755441  0.29593108  0.71387803  1
  Zr  Zr18  1  0.29777229  0.69967368  0.51585995  1
  Zr  Zr19  1  0.29599427  0.30123693  0.29571295  1
  Zr  Zr20  1  0.69846054  0.09148478  0.08766356  1
  Zr  Zr21  1  0.49869725  0.30356773  0.09180617  1
  Zr  Zr22  1  0.29980667  0.10134924  0.10311132  1
  Zr  Zr23  1  0.30409743  0.28973003  0.09854869  1
  Zr  Zr24  1  0.51461648  0.49780031  0.50022150  1
  Zr  Zr25  1  0.10130718  0.90617916  0.29877055  1
  Zr  Zr26  1  0.70475777  0.50443865  0.50191355  1
  Zr  Zr27  1  0.30093253  0.49303887  0.29925845  1
  Zr  Zr28  1  0.30136923  0.09776849  0.49924414  1
  Zr  Zr29  1  0.90273122  0.30320552  0.91226424  1
  Zr  Zr30  1  0.50138647  0.71331994  0.89452180  1
  Zr  Zr31  1  0.49549139  0.09951990  0.09360414  1
  Zr  Zr32  1  0.29146177  0.69826468  0.09393687  1
  Zr  Zr33  1  0.49405506  0.09989794  0.50616956  1
  Zr  Zr34  1  0.11105660  0.08993329  0.09294440  1
  Zr  Zr35  1  0.70528052  0.89528814  0.49964795  1
  Zr  Zr36  1  0.09934501  0.89651252  0.69965542  1
  Zr  Zr37  1  0.09775756  0.89792005  0.09192916  1
  Zr  Zr38  1  0.90379590  0.90941509  0.70108122  1
  Zr  Zr39  1  0.89782102  0.09516642  0.50010241  1
  Zr  Zr40  1  0.09591210  0.50028376  0.69669632  1
  Zr  Zr41  1  0.09429854  0.30105898  0.50063073  1
  Zr  Zr42  1  0.49539663  0.50135808  0.29469477  1
  Zr  Zr43  1  0.70143422  0.69751945  0.49721530  1
  Zr  Zr44  1  0.49960804  0.70619364  0.70420152  1
  Zr  Zr45  1  0.70022156  0.10276947  0.29985475  1
  Zr  Zr46  1  0.29586365  0.29670873  0.70397174  1
  Zr  Zr47  1  0.29319480  0.51330103  0.69724481  1
  Zr  Zr48  1  0.30668509  0.29796785  0.89741440  1
  Zr  Zr49  1  0.90069767  0.69785380  0.10557576  1
  Sc  Sc50  1  0.49947452  0.29520782  0.49899543  1
  Sc  Sc51  1  0.09169475  0.30109292  0.30079736  1
  Sc  Sc52  1  0.29745915  0.89755014  0.69508590  1
  Sc  Sc53  1  0.50280780  0.48936015  0.90493132  1
  Sc  Sc54  1  0.51258147  0.09758595  0.31177633  1
  Sc  Sc55  1  0.89724930  0.10458548  0.09261279  1
  Sc  Sc56  1  0.49537245  0.09032986  0.88945916  1
  Sc  Sc57  1  0.49935046  0.49563918  0.09932984  1
  Sc  Sc58  1  0.50684728  0.50151415  0.70125649  1
  Sc  Sc59  1  0.89494067  0.50282732  0.91439690  1
  Sc  Sc60  1  0.30085058  0.50232289  0.10852605  1
  Sc  Sc61  1  0.30688263  0.69244913  0.29646132  1
  Sc  Sc62  1  0.51370107  0.90211841  0.09191864  1
  Sc  Sc63  1  0.09810952  0.49089224  0.29775026  1
  Sc  Sc64  1  0.30051889  0.90514423  0.50316146  1
  Sc  Sc65  1  0.29516069  0.91093775  0.09147500  1
  Sc  Sc66  1  0.69908525  0.29777816  0.89722143  1
  Sc  Sc67  1  0.49614222  0.69805016  0.30191179  1
  Sc  Sc68  1  0.50348913  0.30036625  0.29601588  1
  Sc  Sc69  1  0.70127596  0.29841837  0.09921413  1
  Sc  Sc70  1  0.90320021  0.69806863  0.29901527  1
  Sc  Sc71  1  0.89694411  0.09420070  0.89491262  1
  Sc  Sc72  1  0.90034966  0.50569554  0.68787496  1
  Sc  Sc73  1  0.49844150  0.70274529  0.50240375  1
  Sc  Sc74  1  0.90254433  0.70357846  0.69621677  1
  Sc  Sc75  1  0.89877716  0.30468220  0.49271838  1
  Sc  Sc76  1  0.70044391  0.51247734  0.90456131  1
  Sc  Sc77  1  0.10862089  0.70113697  0.69479987  1
  Sc  Sc78  1  0.69840109  0.30863636  0.50195411  1
  Sc  Sc79  1  0.08480845  0.49662792  0.49858647  1
  Sc  Sc80  1  0.11112713  0.29539037  0.89093694  1
  Sc  Sc81  1  0.29424514  0.50487153  0.89289499  1
  Sc  Sc82  1  0.10978937  0.71730195  0.90541089  1
  Sc  Sc83  1  0.09717515  0.09834616  0.30016047  1
  Sc  Sc84  1  0.29981316  0.10018052  0.68669789  1
  Sc  Sc85  1  0.30368892  0.90181591  0.31533011  1
  Sc  Sc86  1  0.90962548  0.89835965  0.29881740  1
  Sc  Sc87  1  0.90930677  0.90509371  0.09516671  1
  Sc  Sc88  1  0.29905796  0.28755544  0.49395975  1
  Sc  Sc89  1  0.29800673  0.09785538  0.91544332  1
  Sc  Sc90  1  0.10232320  0.49753942  0.10326176  1
  Sc  Sc91  1  0.09601417  0.30538811  0.10414631  1
  Sc  Sc92  1  0.69981788  0.50089427  0.30924935  1
  Sc  Sc93  1  0.49995504  0.70412096  0.09765465  1
  Sc  Sc94  1  0.89970736  0.49488366  0.29816716  1
  Sc  Sc95  1  0.49159864  0.90739000  0.49521650  1
  Sc  Sc96  1  0.10306059  0.49557486  0.90553366  1
  Sc  Sc97  1  0.90207528  0.49320307  0.10182136  1
  Sc  Sc98  1  0.69246759  0.89984238  0.29201366  1
  Sc  Sc99  1  0.89702204  0.29615958  0.69511178  1
  Nb  Nb100  1  0.90017006  0.70827154  0.49610618  1
  Nb  Nb101  1  0.49441396  0.89729588  0.30501976  1
  Nb  Nb102  1  0.70278472  0.09979593  0.89974827  1
  Nb  Nb103  1  0.29881663  0.49905917  0.50131068  1
  Nb  Nb104  1  0.70814846  0.70184352  0.90113666  1
  Nb  Nb105  1  0.50093669  0.29534758  0.89926067  1
  Nb  Nb106  1  0.09278280  0.90564332  0.89914888  1
  Nb  Nb107  1  0.10038880  0.10089302  0.89822732  1
  Nb  Nb108  1  0.90755399  0.88861646  0.49937399  1
  Nb  Nb109  1  0.89018582  0.11134983  0.29933742  1
  Nb  Nb110  1  0.10170863  0.70118123  0.29958381  1
  Nb  Nb111  1  0.09540660  0.89638157  0.49791401  1
  Nb  Nb112  1  0.70489798  0.90450546  0.09561210  1
  Nb  Nb113  1  0.49664969  0.90301930  0.89726141  1
  Nb  Nb114  1  0.30197694  0.70418914  0.90154254  1
  Nb  Nb115  1  0.89815930  0.28654641  0.29559828  1
  Nb  Nb116  1  0.10345724  0.70004440  0.09940317  1
  Nb  Nb117  1  0.30031174  0.89364898  0.89898575  1
  Nb  Nb118  1  0.90342975  0.50572937  0.50200713  1
  Nb  Nb119  1  0.50579970  0.09802060  0.70012467  1
  Nb  Nb120  1  0.90943863  0.89401448  0.90109264  1
  Nb  Nb121  1  0.89666279  0.09982174  0.69742243  1
  Nb  Nb122  1  0.70523186  0.10037376  0.70614657  1
  Nb  Nb123  1  0.89815245  0.70031321  0.90324349  1
  Nb  Nb124  1  0.69883975  0.90961152  0.90842535  1
  Nb  Nb125  1  0.39434993  0.59213092  0.40888167  1
  Nb  Nb126  1  0.20072423  0.79926104  0.20251537  1
  Nb  Nb127  1  0.00768115  0.19817773  -0.00452896  1
  Nb  Nb128  1  0.19978094  0.60026989  0.40301058  1
  Nb  Nb129  1  0.59883566  0.80031956  0.39763564  1
  Nb  Nb130  1  -0.00242597  0.60237418  0.80966501  1
  Nb  Nb131  1  0.20656342  0.39530983  0.00087249  1
  Nb  Nb132  1  0.80000915  0.80321676  0.81023293  1
  Nb  Nb133  1  0.60109075  0.19380109  0.61158042  1
  Nb  Nb134  1  0.80004739  0.00339885  0.20104001  1
  Nb  Nb135  1  0.20469828  0.40160996  0.59823836  1
  Nb  Nb136  1  0.19524864  -0.00315078  0.80636271  1
  Nb  Nb137  1  0.80048224  0.80487579  -0.00360669  1
  Nb  Nb138  1  0.80421267  -0.00070295  0.39623013  1
  Nb  Nb139  1  0.39501564  0.60795283  -0.00629449  1
  Nb  Nb140  1  0.80373886  0.40581356  0.79851436  1
  Nb  Nb141  1  0.40442670  -0.00382514  0.20470598  1
  Nb  Nb142  1  -0.00645992  0.40478480  0.80138932  1
  Nb  Nb143  1  0.39463091  0.40154973  0.60018539  1
  Nb  Nb144  1  0.59671422  0.19651791  -0.01046214  1
  Nb  Nb145  1  0.19552219  0.79191058  0.39982713  1
  Nb  Nb146  1  0.60283106  0.60184431  0.19974460  1
  Nb  Nb147  1  0.00512843  0.60943324  0.00069396  1
  Nb  Nb148  1  -0.00263597  0.19101154  0.60157283  1
  Nb  Nb149  1  0.39633146  0.80882157  0.19929182  1
  Pd  Pd150  1  -0.00599705  0.00292286  0.39775373  1
  Pd  Pd151  1  0.80751862  0.59885313  0.79575819  1
  Pd  Pd152  1  0.00602531  0.19101597  0.19010681  1
  Pd  Pd153  1  0.39701549  0.41077175  0.79417518  1
  Pd  Pd154  1  0.59515857  0.59698651  0.80821418  1
  Pd  Pd155  1  0.80066484  -0.00537491  0.80576767  1
  Pd  Pd156  1  0.19421590  0.40219005  0.40691649  1
  Pd  Pd157  1  0.79738288  0.20237993  0.59417986  1
  Pd  Pd158  1  0.38304098  0.00314308  0.79660648  1
  Pd  Pd159  1  0.80539977  0.40097450  0.39780844  1
  Pd  Pd160  1  -0.00073988  0.79149938  0.79671909  1
  Pd  Pd161  1  0.60714272  0.40345110  0.20337080  1
  Pd  Pd162  1  0.80735260  0.81280242  0.19586081  1
  Pd  Pd163  1  0.00455060  0.59364883  0.19721499  1
  Pd  Pd164  1  0.00496686  0.00166488  0.59679874  1
  Pd  Pd165  1  0.80595820  0.39939435  0.60259392  1
  Pd  Pd166  1  0.79622826  0.40096503  0.20554735  1
  Pd  Pd167  1  0.19436024  0.59972040  0.20733699  1
  Pd  Pd168  1  0.40596860  0.80910071  0.60462308  1
  Pd  Pd169  1  0.39777419  0.80441044  0.00771394  1
  Pd  Pd170  1  0.59702682  -0.00023648  0.20101847  1
  Pd  Pd171  1  -0.00861883  0.01109735  0.19693992  1
  Pd  Pd172  1  0.58917989  0.60485877  0.00164078  1
  Pd  Pd173  1  0.78867984  0.40010057  -0.00417444  1
  Pd  Pd174  1  0.00564921  0.80008194  0.19954905  1
  Pd  Pd175  1  0.18748785  0.20368549  0.20092101  1
  Pd  Pd176  1  0.60190832  0.39401906  0.39306509  1
  Pd  Pd177  1  0.59943601  -0.00025457  0.59984515  1
  Pd  Pd178  1  0.40837423  0.59573610  0.80809520  1
  Pd  Pd179  1  0.60664920  0.80141297  -0.00578668  1
  Pd  Pd180  1  0.39031726  0.41104461  -0.00036905  1
  Pd  Pd181  1  -0.00068440  0.59726817  0.39412151  1
  Pd  Pd182  1  0.41196999  0.59382620  0.59841412  1
  Pd  Pd183  1  0.80323959  0.61084253  0.60036796  1
  Pd  Pd184  1  0.18636576  0.60725321  0.80955686  1
  Pd  Pd185  1  0.80625985  0.20580853  0.80565434  1
  Pd  Pd186  1  0.00150316  0.19635796  0.40508539  1
  Pd  Pd187  1  0.59170526  0.80616736  0.59209171  1
  Pd  Pd188  1  0.40377139  0.39940558  0.40670985  1
  Pd  Pd189  1  0.60006825  0.19919826  0.18851833  1
  Pd  Pd190  1  0.80287975  0.79795010  0.60977333  1
  Pd  Pd191  1  0.61027794  0.40773909  0.80680733  1
  Pd  Pd192  1  0.81239105  0.59860462  0.39960626  1
  Pd  Pd193  1  0.40315394  0.19799209  0.39040406  1
  Pd  Pd194  1  0.59133850  0.79644550  0.20506410  1
  Pd  Pd195  1  0.40969417  0.19108339  0.21136306  1
  Pd  Pd196  1  0.79997035  -0.00331879  0.59476194  1
  Pd  Pd197  1  0.79918450  0.80726829  0.38882354  1
  Pd  Pd198  1  -0.01082097  0.20418172  0.80132672  1
  Pd  Pd199  1  0.39279641  0.18482152  0.80169180  1
  Rh  Rh200  1  0.39779720  0.01113762  0.39502202  1
  Rh  Rh201  1  0.59281788  0.60752464  0.39514894  1
  Rh  Rh202  1  0.79483384  0.19369999  0.18687571  1
  Rh  Rh203  1  0.41219047  0.60676086  0.19115858  1
  Rh  Rh204  1  0.60713006  0.00289928  0.80563768  1
  Rh  Rh205  1  0.19313676  0.20636642  0.59525542  1
  Rh  Rh206  1  0.20262643  0.39388664  0.19361312  1
  Rh  Rh207  1  0.39523421  0.80675034  0.79732930  1
  Rh  Rh208  1  0.00230118  0.79941652  0.39492354  1
  Rh  Rh209  1  0.40222750  -0.00287521  0.60640921  1
  Rh  Rh210  1  0.40977804  0.19527758  -0.00948748  1
  Rh  Rh211  1  0.01340228  0.39629109  -0.00567879  1
  Rh  Rh212  1  0.60951137  0.80962385  0.81073247  1
  Rh  Rh213  1  0.19623456  0.40545844  0.79773881  1
  Rh  Rh214  1  0.79485502  0.59140432  0.20005197  1
  Rh  Rh215  1  0.20171009  0.80829165  0.00152650  1
  Rh  Rh216  1  -0.00429898  0.79264448  0.00363332  1
  Rh  Rh217  1  0.40925515  0.20713507  0.60653518  1
  Rh  Rh218  1  -0.00020795  0.39024607  0.60548557  1
  Rh  Rh219  1  0.80959330  -0.00661182  0.00033415  1
  Rh  Rh220  1  0.20056585  0.59327461  -0.00291642  1
  Rh  Rh221  1  0.40497028  -0.00737701  0.00250656  1
  Rh  Rh222  1  0.60663603  -0.01341215  0.40208083  1
  Rh  Rh223  1  0.79803962  0.20062546  -0.00242989  1
  Rh  Rh224  1  0.19393859  0.20334912  0.39546630  1
  Rh  Rh225  1  0.59935909  0.60861347  0.60091252  1
  Rh  Rh226  1  0.19251740  0.20917621  0.00096410  1
  Rh  Rh227  1  0.39747721  0.78764894  0.39693235  1
  Rh  Rh228  1  0.20216825  0.80702433  0.80240631  1
  Rh  Rh229  1  0.60478650  0.39002229  -0.00549548  1
  Rh  Rh230  1  0.21302167  0.18216556  0.80340692  1
  Rh  Rh231  1  0.19820991  -0.00816537  -0.01169265  1
  Rh  Rh232  1  -0.00470647  0.60787228  0.60160755  1
  Rh  Rh233  1  0.19653797  0.80619782  0.59079025  1
  Rh  Rh234  1  0.79820609  0.19879029  0.41017714  1
  Rh  Rh235  1  -0.00266971  0.80057238  0.60642485  1
  Rh  Rh236  1  0.19887093  -0.00899485  0.40410122  1
  Rh  Rh237  1  0.00088540  0.00340724  0.80262400  1
  Rh  Rh238  1  0.60313499  0.20884594  0.40997409  1
  Rh  Rh239  1  0.59215437  0.00502508  -0.01133948  1
  Rh  Rh240  1  -0.00218579  0.01014356  -0.00592388  1
  Rh  Rh241  1  0.58627831  0.38467993  0.60599830  1
  Rh  Rh242  1  0.39880881  0.39212963  0.19678908  1
  Rh  Rh243  1  0.80722309  0.60616082  0.00905797  1
  Rh  Rh244  1  0.19529011  -0.00688973  0.60398283  1
  Rh  Rh245  1  -0.00534050  0.39728586  0.20522880  1
  Rh  Rh246  1  0.21050599  -0.00917653  0.20627126  1
  Rh  Rh247  1  -0.01112882  0.39847168  0.39464975  1
  Rh  Rh248  1  0.60233350  0.18834887  0.80202348  1
  Rh  Rh249  1  0.18478124  0.59157291  0.58824645  1
