# generated using pymatgen
data_ZrScNbPdRh
_symmetry_space_group_name_H-M   'P 1'
_cell_length_a   16.55448902
_cell_length_b   16.55734360
_cell_length_c   16.55581169
_cell_angle_alpha   90.02681166
_cell_angle_beta   90.00030229
_cell_angle_gamma   90.02189348
_symmetry_Int_Tables_number   1
_chemical_formula_structural   ZrScNbPdRh
_chemical_formula_sum   'Zr50 Sc50 Nb50 Pd50 Rh50'
_cell_volume   4537.92005187
_cell_formula_units_Z   50
loop_
 _symmetry_equiv_pos_site_id
 _symmetry_equiv_pos_as_xyz
  1  'x, y, z'
loop_
 _atom_site_type_symbol
 _atom_site_label
 _atom_site_symmetry_multiplicity
 _atom_site_fract_x
 _atom_site_fract_y
 _atom_site_fract_z
 _atom_site_occupancy
  Zr  Zr0  1  0.69543248  0.69836601  0.48997773  1
  Zr  Zr1  1  0.69435328  0.30059726  0.09703777  1
  Zr  Zr2  1  0.90136248  0.69473050  0.70446750  1
  Zr  Zr3  1  0.30852744  0.90254036  0.30011988  1
  Zr  Zr4  1  0.49654902  0.71186640  0.50696624  1
  Zr  Zr5  1  0.30032222  0.09533407  0.89143159  1
  Zr  Zr6  1  0.30464753  0.90244627  0.70563325  1
  Zr  Zr7  1  0.49528927  0.89714629  0.10367055  1
  Zr  Zr8  1  0.10116656  0.90759352  0.30926733  1
  Zr  Zr9  1  0.10039967  0.10470413  0.29800238  1
  Zr  Zr10  1  0.10984809  0.89275367  0.49615910  1
  Zr  Zr11  1  0.70114705  0.29894218  0.70391746  1
  Zr  Zr12  1  0.50430966  0.88993270  0.69580163  1
  Zr  Zr13  1  0.89938809  0.48825374  0.50128099  1
  Zr  Zr14  1  0.09913387  0.69821796  0.10349127  1
  Zr  Zr15  1  0.69617815  0.90425360  0.90542400  1
  Zr  Zr16  1  0.90100034  0.10447345  0.49616044  1
  Zr  Zr17  1  0.69900666  0.29173389  0.90065090  1
  Zr  Zr18  1  0.50167923  0.29434211  0.70938926  1
  Zr  Zr19  1  0.10281940  0.49687490  0.69784865  1
  Zr  Zr20  1  0.70053133  0.10157325  0.09470706  1
  Zr  Zr21  1  0.70618742  0.10791011  0.29757372  1
  Zr  Zr22  1  0.11330218  0.11058686  0.70401959  1
  Zr  Zr23  1  0.29306560  0.69840413  0.88594780  1
  Zr  Zr24  1  0.90018848  0.30768004  0.90202552  1
  Zr  Zr25  1  0.10886719  0.30265534  0.09392629  1
  Zr  Zr26  1  0.69612177  0.30680816  0.29445887  1
  Zr  Zr27  1  0.10611859  0.70442572  0.50942725  1
  Zr  Zr28  1  0.89710998  0.49456397  0.29303069  1
  Zr  Zr29  1  0.10138276  0.49776376  0.89568949  1
  Zr  Zr30  1  0.49622651  0.10223641  0.09838977  1
  Zr  Zr31  1  0.50199051  0.90148366  0.48380600  1
  Zr  Zr32  1  0.30465945  0.69181648  0.10564325  1
  Zr  Zr33  1  0.29680868  0.09570628  0.51589901  1
  Zr  Zr34  1  0.29593352  0.48938439  0.49598612  1
  Zr  Zr35  1  0.90445055  0.90209929  0.90379403  1
  Zr  Zr36  1  0.68820611  0.89938700  0.30440506  1
  Zr  Zr37  1  0.69802974  0.49763613  0.48991914  1
  Zr  Zr38  1  0.69819077  0.70192183  0.90329955  1
  Zr  Zr39  1  0.10464191  0.70305464  0.30661904  1
  Zr  Zr40  1  0.69862076  0.50621579  0.30100797  1
  Zr  Zr41  1  0.90982645  0.90586824  0.50101090  1
  Zr  Zr42  1  0.69585843  0.70680457  0.70098326  1
  Zr  Zr43  1  0.70560606  0.49324612  0.69888100  1
  Zr  Zr44  1  0.09690675  0.89043061  0.89648535  1
  Zr  Zr45  1  0.10570306  0.69450474  0.71210852  1
  Zr  Zr46  1  0.90427762  0.09717769  0.29753926  1
  Zr  Zr47  1  0.10121379  0.49198602  0.50524587  1
  Zr  Zr48  1  0.70106237  0.29916658  0.49555726  1
  Zr  Zr49  1  0.49248727  0.49694370  0.09858106  1
  Sc  Sc50  1  0.49494297  0.09681297  0.70615672  1
  Sc  Sc51  1  0.30784780  0.70111561  0.69661528  1
  Sc  Sc52  1  0.89673563  0.68507945  0.29833385  1
  Sc  Sc53  1  0.69674382  0.10315574  0.49462842  1
  Sc  Sc54  1  0.09777420  0.89324972  0.69777777  1
  Sc  Sc55  1  0.50190075  0.69851817  0.09795208  1
  Sc  Sc56  1  0.09968622  0.49056159  0.29833626  1
  Sc  Sc57  1  0.30042885  0.29944616  0.90315564  1
  Sc  Sc58  1  0.50419297  0.90773917  0.90087033  1
  Sc  Sc59  1  0.49629704  0.29946225  0.09728722  1
  Sc  Sc60  1  0.89459320  0.10051500  0.90141271  1
  Sc  Sc61  1  0.10029367  0.08827874  0.49614200  1
  Sc  Sc62  1  0.30539951  0.70043042  0.29988907  1
  Sc  Sc63  1  0.89777467  0.09635070  0.10500162  1
  Sc  Sc64  1  0.70164230  0.49486725  0.90566610  1
  Sc  Sc65  1  0.90059080  0.29521548  0.30425229  1
  Sc  Sc66  1  0.09892052  0.48935818  0.10378891  1
  Sc  Sc67  1  0.10325004  0.30620432  0.89377926  1
  Sc  Sc68  1  0.49831437  0.69853639  0.90214985  1
  Sc  Sc69  1  0.09352243  0.91040434  0.09489542  1
  Sc  Sc70  1  0.69211829  0.68872999  0.09861951  1
  Sc  Sc71  1  0.29528794  0.09892890  0.29247167  1
  Sc  Sc72  1  0.30269177  0.70804406  0.50053257  1
  Sc  Sc73  1  0.69911898  0.09953963  0.70769256  1
  Sc  Sc74  1  0.10561060  0.10363157  0.90040848  1
  Sc  Sc75  1  0.89773250  0.31128261  0.70740272  1
  Sc  Sc76  1  0.30025274  0.30804995  0.29706166  1
  Sc  Sc77  1  0.29649876  0.10526790  0.09540895  1
  Sc  Sc78  1  0.31085973  0.49754099  0.29851125  1
  Sc  Sc79  1  0.29443301  0.28889809  0.70137063  1
  Sc  Sc80  1  0.89876470  0.49775828  0.89843459  1
  Sc  Sc81  1  0.89874005  0.91279824  0.10058983  1
  Sc  Sc82  1  0.90170184  0.90434855  0.70553106  1
  Sc  Sc83  1  0.50169844  0.10229538  0.50386360  1
  Sc  Sc84  1  0.70065344  0.90162717  0.71002701  1
  Sc  Sc85  1  0.90391431  0.09539627  0.70116451  1
  Sc  Sc86  1  0.49768088  0.30571592  0.29486546  1
  Sc  Sc87  1  0.30406542  0.49418993  0.89629017  1
  Sc  Sc88  1  0.89787806  0.31607914  0.10142202  1
  Sc  Sc89  1  0.90601251  0.69862968  0.89459585  1
  Sc  Sc90  1  0.09747771  0.30145869  0.29343310  1
  Sc  Sc91  1  0.69605265  0.90529407  0.09480335  1
  Sc  Sc92  1  0.49517070  0.50010185  0.48626688  1
  Sc  Sc93  1  0.48826344  0.48863915  0.89441739  1
  Sc  Sc94  1  0.49319634  0.09733013  0.30533081  1
  Sc  Sc95  1  0.50089234  0.70935970  0.29720553  1
  Sc  Sc96  1  0.70104609  0.49622886  0.10188097  1
  Sc  Sc97  1  0.50078539  0.10170482  0.89813652  1
  Sc  Sc98  1  0.90700349  0.69836829  0.50016324  1
  Sc  Sc99  1  0.10510633  0.10729683  0.10486112  1
  Nb  Nb100  1  0.50309560  0.49055064  0.29865234  1
  Nb  Nb101  1  0.69732801  0.89819216  0.49869601  1
  Nb  Nb102  1  0.49385670  0.49955462  0.69985402  1
  Nb  Nb103  1  0.29898187  0.30478667  0.49952328  1
  Nb  Nb104  1  0.29652915  0.30483882  0.09755880  1
  Nb  Nb105  1  0.89910206  0.69698036  0.10390739  1
  Nb  Nb106  1  0.10113751  0.69593563  0.90039205  1
  Nb  Nb107  1  0.30172312  0.49468323  0.09504756  1
  Nb  Nb108  1  0.30008286  0.90018457  0.10014767  1
  Nb  Nb109  1  0.49791515  0.90471140  0.29582924  1
  Nb  Nb110  1  0.10404051  0.31365387  0.50390653  1
  Nb  Nb111  1  0.49917710  0.69455762  0.69559778  1
  Nb  Nb112  1  0.89713863  0.90324233  0.29586041  1
  Nb  Nb113  1  0.69354826  0.09724023  0.90622399  1
  Nb  Nb114  1  0.30213482  0.09771721  0.70653249  1
  Nb  Nb115  1  0.90020161  0.50449506  0.10012582  1
  Nb  Nb116  1  0.70623347  0.69707196  0.29965403  1
  Nb  Nb117  1  0.89870830  0.49963887  0.70029439  1
  Nb  Nb118  1  0.29772833  0.89793492  0.49965734  1
  Nb  Nb119  1  0.09810865  0.30293737  0.69859663  1
  Nb  Nb120  1  0.31053066  0.50042039  0.70250573  1
  Nb  Nb121  1  0.49919730  0.29899083  0.50491163  1
  Nb  Nb122  1  0.90527356  0.30024404  0.50292483  1
  Nb  Nb123  1  0.29704335  0.89895215  0.90272563  1
  Nb  Nb124  1  0.49853302  0.29746736  0.89701101  1
  Nb  Nb125  1  0.00703608  0.59367284  0.40358824  1
  Nb  Nb126  1  0.20224862  0.79768207  0.00168055  1
  Nb  Nb127  1  0.60287707  -0.00724635  0.59608560  1
  Nb  Nb128  1  0.79638177  0.60070026  0.59976747  1
  Nb  Nb129  1  0.59303094  0.40171240  0.60015667  1
  Nb  Nb130  1  0.19833825  0.80530418  0.19590827  1
  Nb  Nb131  1  0.80102941  0.79713622  0.20009086  1
  Nb  Nb132  1  0.20302989  0.20765936  0.40773040  1
  Nb  Nb133  1  0.59616434  0.59510987  0.60272207  1
  Nb  Nb134  1  0.00236510  0.59993717  0.00401072  1
  Nb  Nb135  1  0.59439872  0.59648533  0.79166414  1
  Nb  Nb136  1  0.00353568  0.20965847  0.59939433  1
  Nb  Nb137  1  0.80721882  0.20436546  0.59716855  1
  Nb  Nb138  1  0.79715527  0.80147280  0.59379833  1
  Nb  Nb139  1  0.59468163  0.00155464  0.20313106  1
  Nb  Nb140  1  0.80054179  0.80309356  0.39674164  1
  Nb  Nb141  1  0.80024950  -0.00572535  0.39889789  1
  Nb  Nb142  1  0.19824051  0.59980592  0.00021536  1
  Nb  Nb143  1  0.80454158  0.79642614  0.00599395  1
  Nb  Nb144  1  0.00019549  0.20774349  -0.00005943  1
  Nb  Nb145  1  0.39239270  0.20673754  0.40955152  1
  Nb  Nb146  1  0.40225748  0.39578473  0.60185946  1
  Nb  Nb147  1  0.19740095  0.59744914  0.40320411  1
  Nb  Nb148  1  -0.00390302  0.80175903  0.20186613  1
  Nb  Nb149  1  0.38843006  0.80328157  -0.00086565  1
  Pd  Pd150  1  -0.00501866  0.20712539  0.18770666  1
  Pd  Pd151  1  0.60674481  0.80172830  0.19439004  1
  Pd  Pd152  1  0.39945709  -0.00241533  -0.00224977  1
  Pd  Pd153  1  0.19622492  -0.00112159  -0.00108586  1
  Pd  Pd154  1  0.79749689  0.00419986  0.80648160  1
  Pd  Pd155  1  0.39468302  0.60284491  -0.00975660  1
  Pd  Pd156  1  0.41063863  0.59677955  0.20778020  1
  Pd  Pd157  1  0.59421492  0.59601059  0.20208293  1
  Pd  Pd158  1  -0.00993288  0.79240610  0.39137761  1
  Pd  Pd159  1  0.58534656  0.60668898  0.39631684  1
  Pd  Pd160  1  -0.00473026  0.59613382  0.59801772  1
  Pd  Pd161  1  0.00481716  0.59808530  0.20321715  1
  Pd  Pd162  1  0.80543626  0.19521977  0.79526714  1
  Pd  Pd163  1  0.79163807  0.00218142  0.59563980  1
  Pd  Pd164  1  0.60658132  0.19475019  0.60484239  1
  Pd  Pd165  1  0.40822512  0.80102820  0.80646489  1
  Pd  Pd166  1  0.58890278  0.20376163  0.39345921  1
  Pd  Pd167  1  0.80708328  0.20869125  0.19254051  1
  Pd  Pd168  1  0.59456982  0.40006218  -0.00244160  1
  Pd  Pd169  1  0.20051977  0.59434808  0.20424902  1
  Pd  Pd170  1  0.80386260  0.39322588  0.39354704  1
  Pd  Pd171  1  0.39419504  0.20284674  0.20645013  1
  Pd  Pd172  1  0.80653549  0.60205640  0.00013298  1
  Pd  Pd173  1  -0.00271200  0.79512712  0.00783195  1
  Pd  Pd174  1  0.59179133  0.79581364  0.80835498  1
  Pd  Pd175  1  0.39774882  0.20181888  -0.00488558  1
  Pd  Pd176  1  0.21242873  0.60073631  0.59835054  1
  Pd  Pd177  1  0.40979617  -0.00563897  0.60034688  1
  Pd  Pd178  1  0.20890168  0.39749030  0.79518481  1
  Pd  Pd179  1  0.80934346  0.20176639  0.00731367  1
  Pd  Pd180  1  0.00871051  0.00645788  0.79962076  1
  Pd  Pd181  1  0.39973387  0.59275156  0.59076942  1
  Pd  Pd182  1  -0.00227432  0.20158160  0.80177242  1
  Pd  Pd183  1  0.00304071  0.01685453  -0.00041338  1
  Pd  Pd184  1  -0.00588480  0.79944176  0.60848144  1
  Pd  Pd185  1  0.60042542  0.40499735  0.80064638  1
  Pd  Pd186  1  0.39898640  0.60375992  0.39845928  1
  Pd  Pd187  1  0.01426902  0.20797853  0.40733021  1
  Pd  Pd188  1  0.59129944  0.19556238  0.20395966  1
  Pd  Pd189  1  0.39902497  0.20255593  0.60286415  1
  Pd  Pd190  1  0.80612136  0.80519266  0.80458076  1
  Pd  Pd191  1  0.19795649  -0.00312593  0.19616085  1
  Pd  Pd192  1  0.19313168  0.20575915  0.59300694  1
  Pd  Pd193  1  0.39182666  0.01111217  0.40399864  1
  Pd  Pd194  1  0.59143244  0.58885657  -0.01073144  1
  Pd  Pd195  1  0.20690723  0.40418612  0.20242263  1
  Pd  Pd196  1  0.19305609  -0.00679050  0.79815678  1
  Pd  Pd197  1  0.01035186  0.00771455  0.60650216  1
  Pd  Pd198  1  0.79312155  0.59649576  0.80051283  1
  Pd  Pd199  1  0.19578067  -0.00801756  0.60858726  1
  Rh  Rh200  1  0.19703695  0.39905063  0.39189288  1
  Rh  Rh201  1  0.39434526  0.38921789  0.79275489  1
  Rh  Rh202  1  0.60024524  0.19335341  0.80676658  1
  Rh  Rh203  1  -0.00055505  0.40598674  0.79493719  1
  Rh  Rh204  1  0.20897580  0.00834710  0.40154318  1
  Rh  Rh205  1  -0.00327098  0.00147635  0.39750374  1
  Rh  Rh206  1  0.59473592  0.00518173  0.00767627  1
  Rh  Rh207  1  0.59793659  0.79377644  0.39375890  1
  Rh  Rh208  1  0.39561063  0.19885190  0.80446798  1
  Rh  Rh209  1  0.00788385  -0.00191305  0.20218831  1
  Rh  Rh210  1  0.39863003  0.39919807  0.19234279  1
  Rh  Rh211  1  0.78468936  -0.00531209  0.20517496  1
  Rh  Rh212  1  0.40348253  -0.00427196  0.80175746  1
  Rh  Rh213  1  0.80110797  0.19901362  0.40402482  1
  Rh  Rh214  1  0.79687453  0.39666663  0.59832223  1
  Rh  Rh215  1  -0.00209567  0.79710487  0.79623921  1
  Rh  Rh216  1  0.79611685  0.40190970  0.20037821  1
  Rh  Rh217  1  0.59404001  0.39323997  0.40107690  1
  Rh  Rh218  1  0.20313583  0.20449797  0.80556328  1
  Rh  Rh219  1  0.20567620  0.59012298  0.79844815  1
  Rh  Rh220  1  0.20560654  0.40613283  -0.00243610  1
  Rh  Rh221  1  -0.00368169  0.39656225  0.19943541  1
  Rh  Rh222  1  0.19745038  0.20200051  -0.00374044  1
  Rh  Rh223  1  0.00005426  0.40349077  0.00134845  1
  Rh  Rh224  1  0.59920563  0.79969977  0.00090213  1
  Rh  Rh225  1  0.59376507  0.20221472  -0.00504703  1
  Rh  Rh226  1  0.60505664  0.80232495  0.59921524  1
  Rh  Rh227  1  0.79248699  0.59933610  0.19388392  1
  Rh  Rh228  1  0.40797176  0.39222941  0.40187477  1
  Rh  Rh229  1  0.19955540  0.80388679  0.79805991  1
  Rh  Rh230  1  0.40282215  0.00542343  0.19505925  1
  Rh  Rh231  1  0.39558095  0.80017408  0.19587468  1
  Rh  Rh232  1  0.79801244  0.40238451  0.00158522  1
  Rh  Rh233  1  0.39895039  0.80241254  0.39733849  1
  Rh  Rh234  1  0.39555541  0.80978111  0.59819532  1
  Rh  Rh235  1  0.81293268  0.60315458  0.40893633  1
  Rh  Rh236  1  0.39799465  0.39249138  0.00187335  1
  Rh  Rh237  1  0.80162787  -0.00346162  -0.00426188  1
  Rh  Rh238  1  -0.00102466  0.40009152  0.39491261  1
  Rh  Rh239  1  0.20614976  0.20667750  0.20519893  1
  Rh  Rh240  1  0.21146634  0.39933440  0.61401313  1
  Rh  Rh241  1  0.59742169  0.40471845  0.19474181  1
  Rh  Rh242  1  0.40486911  0.60293656  0.80220793  1
  Rh  Rh243  1  0.79857464  0.40152496  0.80843814  1
  Rh  Rh244  1  0.59921085  0.00428865  0.79367556  1
  Rh  Rh245  1  0.00004520  0.59302645  0.80456849  1
  Rh  Rh246  1  0.20811439  0.80174906  0.60811164  1
  Rh  Rh247  1  0.60447925  0.00860790  0.39820976  1
  Rh  Rh248  1  -0.00409983  0.39596190  0.60966091  1
  Rh  Rh249  1  0.21255227  0.79734635  0.39377288  1
