# generated using pymatgen
data_ZrScNbPdRh
_symmetry_space_group_name_H-M   'P 1'
_cell_length_a   16.55947389
_cell_length_b   16.55664799
_cell_length_c   16.55992243
_cell_angle_alpha   89.99293165
_cell_angle_beta   89.99714925
_cell_angle_gamma   90.02161857
_symmetry_Int_Tables_number   1
_chemical_formula_structural   ZrScNbPdRh
_chemical_formula_sum   'Zr50 Sc50 Nb50 Pd50 Rh50'
_cell_volume   4540.22330309
_cell_formula_units_Z   50
loop_
 _symmetry_equiv_pos_site_id
 _symmetry_equiv_pos_as_xyz
  1  'x, y, z'
loop_
 _atom_site_type_symbol
 _atom_site_label
 _atom_site_symmetry_multiplicity
 _atom_site_fract_x
 _atom_site_fract_y
 _atom_site_fract_z
 _atom_site_occupancy
  Zr  Zr0  1  0.09466483  0.90646995  0.69965080  1
  Zr  Zr1  1  0.49461309  0.09433482  0.30026725  1
  Zr  Zr2  1  0.10434151  0.89258299  0.10589361  1
  Zr  Zr3  1  0.89482621  0.09856016  0.10378772  1
  Zr  Zr4  1  0.69563262  0.09539217  0.69887908  1
  Zr  Zr5  1  0.70411666  0.30220705  0.89195621  1
  Zr  Zr6  1  0.29925956  0.88935845  0.50348045  1
  Zr  Zr7  1  0.11327045  0.69393429  0.50309363  1
  Zr  Zr8  1  0.10487298  0.28866398  0.69837022  1
  Zr  Zr9  1  0.30913968  0.09524664  0.49486389  1
  Zr  Zr10  1  0.89451882  0.08740575  0.50096751  1
  Zr  Zr11  1  0.29727386  0.50354897  0.10655388  1
  Zr  Zr12  1  0.90562397  0.70251788  0.10160446  1
  Zr  Zr13  1  0.49777651  0.70675045  0.70206819  1
  Zr  Zr14  1  0.29719446  0.69567653  0.10371139  1
  Zr  Zr15  1  0.09886033  0.90121935  0.89879314  1
  Zr  Zr16  1  0.30212850  0.29588469  0.89450382  1
  Zr  Zr17  1  0.10117915  0.69752892  0.09479813  1
  Zr  Zr18  1  0.89909190  0.49612642  0.89406695  1
  Zr  Zr19  1  0.29584841  0.90785906  0.89938139  1
  Zr  Zr20  1  0.30280973  0.69982873  0.90034276  1
  Zr  Zr21  1  0.89276699  0.10380181  0.30583047  1
  Zr  Zr22  1  0.70708849  0.89724432  0.51262295  1
  Zr  Zr23  1  0.50217939  0.90047831  0.69639035  1
  Zr  Zr24  1  0.49474352  0.10405221  0.10200537  1
  Zr  Zr25  1  0.49452292  0.49055084  0.50000577  1
  Zr  Zr26  1  0.49076018  0.29926141  0.29773946  1
  Zr  Zr27  1  0.48996274  0.89754892  0.49580281  1
  Zr  Zr28  1  0.69896207  0.90318796  0.70886862  1
  Zr  Zr29  1  0.30242060  0.89615391  0.69817772  1
  Zr  Zr30  1  0.11356505  0.10767285  0.29789757  1
  Zr  Zr31  1  0.69619728  0.49461750  0.70313291  1
  Zr  Zr32  1  0.91546608  0.88854997  0.31572561  1
  Zr  Zr33  1  0.50508293  0.89653142  0.11091276  1
  Zr  Zr34  1  0.70319902  0.50205313  0.29912988  1
  Zr  Zr35  1  0.90433757  0.10145126  0.90241868  1
  Zr  Zr36  1  0.70120934  0.10523098  0.30681793  1
  Zr  Zr37  1  0.49879545  0.09942571  0.49771482  1
  Zr  Zr38  1  0.90810502  0.30092153  0.90333218  1
  Zr  Zr39  1  0.70107128  0.10095839  0.49694344  1
  Zr  Zr40  1  0.49772187  0.10573506  0.69813111  1
  Zr  Zr41  1  0.70420792  0.29654415  0.10877529  1
  Zr  Zr42  1  0.09282073  0.89673179  0.49201699  1
  Zr  Zr43  1  0.49078929  0.50839054  0.30008333  1
  Zr  Zr44  1  0.90066916  0.50488752  0.69759666  1
  Zr  Zr45  1  0.69856731  0.69377884  0.29993168  1
  Zr  Zr46  1  0.30432775  0.68758451  0.30812537  1
  Zr  Zr47  1  0.10377341  0.50289198  0.10774357  1
  Zr  Zr48  1  0.30329044  0.89849537  0.09335165  1
  Zr  Zr49  1  0.69394642  0.30064073  0.49642453  1
  Sc  Sc50  1  0.90554404  0.30567275  0.30644751  1
  Sc  Sc51  1  0.09628429  0.71290002  0.29389749  1
  Sc  Sc52  1  0.49734336  0.29998920  0.50031330  1
  Sc  Sc53  1  0.09750505  0.50112942  0.49755448  1
  Sc  Sc54  1  0.30655813  0.89515574  0.29807755  1
  Sc  Sc55  1  0.30058841  0.10198179  0.09587551  1
  Sc  Sc56  1  0.91296998  0.50705534  0.10281975  1
  Sc  Sc57  1  0.50694755  0.69936199  0.90029942  1
  Sc  Sc58  1  0.89520061  0.89655077  0.89862046  1
  Sc  Sc59  1  0.29401408  0.50638504  0.48708340  1
  Sc  Sc60  1  0.09084251  0.51012560  0.68836909  1
  Sc  Sc61  1  0.90313684  0.30159410  0.71282518  1
  Sc  Sc62  1  0.31120303  0.49469108  0.69724993  1
  Sc  Sc63  1  0.68958301  0.89565319  0.28944350  1
  Sc  Sc64  1  0.89550825  0.90427537  0.70313395  1
  Sc  Sc65  1  0.09372326  0.49821777  0.90556522  1
  Sc  Sc66  1  0.70529499  0.29390311  0.30714408  1
  Sc  Sc67  1  0.90065253  0.50016671  0.50201296  1
  Sc  Sc68  1  0.10468797  0.30470702  0.31084855  1
  Sc  Sc69  1  0.48706401  0.49991853  0.10255996  1
  Sc  Sc70  1  0.69794299  0.71190621  0.69998485  1
  Sc  Sc71  1  0.69942706  0.70383793  0.09193970  1
  Sc  Sc72  1  0.71095194  0.89241191  0.90327183  1
  Sc  Sc73  1  0.09538622  0.11096528  0.50741871  1
  Sc  Sc74  1  0.30836780  0.49854026  0.90382022  1
  Sc  Sc75  1  0.70196471  0.51649891  0.10033623  1
  Sc  Sc76  1  0.91140004  0.30125481  0.09773926  1
  Sc  Sc77  1  0.49973695  0.49240403  0.69921297  1
  Sc  Sc78  1  0.50005123  0.70369812  0.10489774  1
  Sc  Sc79  1  0.09247717  0.69414612  0.69307109  1
  Sc  Sc80  1  0.29791296  0.09837617  0.90028635  1
  Sc  Sc81  1  0.70095905  0.09607937  0.88956592  1
  Sc  Sc82  1  0.49147238  0.90011965  0.90450056  1
  Sc  Sc83  1  0.49117927  0.10059810  0.90121014  1
  Sc  Sc84  1  0.30378456  0.10941104  0.29693820  1
  Sc  Sc85  1  0.50010818  0.50499511  0.89289500  1
  Sc  Sc86  1  0.30316072  0.30291687  0.49172568  1
  Sc  Sc87  1  0.11240291  0.10263174  0.09682906  1
  Sc  Sc88  1  0.69595182  0.49744284  0.49567050  1
  Sc  Sc89  1  0.10410271  0.30334694  0.09499605  1
  Sc  Sc90  1  0.90506613  0.09290866  0.70286147  1
  Sc  Sc91  1  0.30415631  0.30696096  0.09808455  1
  Sc  Sc92  1  0.68665327  0.29618164  0.70584418  1
  Sc  Sc93  1  0.09595404  0.29163769  0.90150240  1
  Sc  Sc94  1  0.29625298  0.49587006  0.29804064  1
  Sc  Sc95  1  0.30607613  0.29279724  0.70138582  1
  Sc  Sc96  1  0.09788012  0.09996499  0.70739000  1
  Sc  Sc97  1  0.70854823  0.09558732  0.11684498  1
  Sc  Sc98  1  0.91251564  0.29969148  0.49722328  1
  Sc  Sc99  1  0.49395195  0.29322780  0.89303813  1
  Nb  Nb100  1  0.10474851  0.30577399  0.49964147  1
  Nb  Nb101  1  0.49256048  0.30494468  0.69695649  1
  Nb  Nb102  1  0.09395353  0.50377530  0.30210796  1
  Nb  Nb103  1  0.29147171  0.70129912  0.68823529  1
  Nb  Nb104  1  0.29359870  0.09763451  0.70049093  1
  Nb  Nb105  1  0.10077946  0.09430981  0.90096657  1
  Nb  Nb106  1  0.29365983  0.29857356  0.30360646  1
  Nb  Nb107  1  0.70022506  0.50222207  0.90161282  1
  Nb  Nb108  1  0.89636193  0.69804714  0.29894031  1
  Nb  Nb109  1  0.10138344  0.90573341  0.29906799  1
  Nb  Nb110  1  0.90181657  0.69191838  0.69755627  1
  Nb  Nb111  1  0.90213597  0.50866218  0.29488001  1
  Nb  Nb112  1  0.69784089  0.70027921  0.50322442  1
  Nb  Nb113  1  0.49926543  0.88839601  0.29899551  1
  Nb  Nb114  1  0.71015024  0.90158719  0.09562799  1
  Nb  Nb115  1  0.89344070  0.90365236  0.09826585  1
  Nb  Nb116  1  0.90173158  0.89833458  0.50320054  1
  Nb  Nb117  1  0.29951292  0.69940990  0.50674073  1
  Nb  Nb118  1  0.50507991  0.30186220  0.09820644  1
  Nb  Nb119  1  0.50065131  0.70361022  0.49348355  1
  Nb  Nb120  1  0.09675809  0.70047186  0.89294337  1
  Nb  Nb121  1  0.50136931  0.71286969  0.30265350  1
  Nb  Nb122  1  0.70837849  0.69365697  0.90194632  1
  Nb  Nb123  1  0.90239185  0.70176708  0.89254430  1
  Nb  Nb124  1  0.88701685  0.70845939  0.49496178  1
  Nb  Nb125  1  0.19762673  0.79233293  0.79705902  1
  Nb  Nb126  1  0.79662050  0.20308996  -0.00060623  1
  Nb  Nb127  1  0.19845965  0.40333356  0.79442777  1
  Nb  Nb128  1  0.79719157  0.39303224  0.60278970  1
  Nb  Nb129  1  0.60580296  0.00147077  0.00823286  1
  Nb  Nb130  1  0.59574087  0.60698992  0.59422111  1
  Nb  Nb131  1  0.00496743  0.19393120  0.20225272  1
  Nb  Nb132  1  -0.00993068  0.79750000  0.59343479  1
  Nb  Nb133  1  0.19794190  0.39560122  0.60066019  1
  Nb  Nb134  1  0.00023966  -0.00223324  0.00777404  1
  Nb  Nb135  1  -0.00781150  0.60686582  0.39446404  1
  Nb  Nb136  1  0.40155880  0.60810703  0.59372319  1
  Nb  Nb137  1  0.20228185  -0.00007085  0.59666679  1
  Nb  Nb138  1  0.20043530  -0.00132165  0.40145724  1
  Nb  Nb139  1  0.60136654  0.40102431  0.19725558  1
  Nb  Nb140  1  0.59523371  -0.00591247  0.39865801  1
  Nb  Nb141  1  0.79910947  0.20259617  0.60063488  1
  Nb  Nb142  1  0.80160028  0.40744665  0.19958173  1
  Nb  Nb143  1  0.79589865  0.40167066  0.00239658  1
  Nb  Nb144  1  0.79882985  0.60396716  0.80188906  1
  Nb  Nb145  1  0.60507044  0.20026952  0.00318981  1
  Nb  Nb146  1  0.80512101  0.80066822  0.19827301  1
  Nb  Nb147  1  0.00255015  -0.00130554  0.20200632  1
  Nb  Nb148  1  0.60416799  0.39791819  0.00328639  1
  Nb  Nb149  1  0.19968196  0.60098686  0.79801235  1
  Pd  Pd150  1  0.39428552  0.79811329  0.80161512  1
  Pd  Pd151  1  0.58961457  0.39683104  0.80762927  1
  Pd  Pd152  1  -0.00044971  0.59964917  -0.00556913  1
  Pd  Pd153  1  0.00984925  0.01390789  0.39739570  1
  Pd  Pd154  1  0.80528047  0.79964666  0.61163367  1
  Pd  Pd155  1  0.78874534  -0.01703136  0.39273281  1
  Pd  Pd156  1  -0.00009858  0.39364543  0.60274034  1
  Pd  Pd157  1  -0.01055738  0.20023977  0.60520186  1
  Pd  Pd158  1  0.60895841  0.80673984  0.40578870  1
  Pd  Pd159  1  0.19749567  0.39602779  0.20566139  1
  Pd  Pd160  1  0.19931166  0.59459250  -0.00985672  1
  Pd  Pd161  1  0.39482374  0.60274833  0.79051912  1
  Pd  Pd162  1  0.39312975  -0.00371042  0.20019389  1
  Pd  Pd163  1  0.39519785  0.20268951  0.59768761  1
  Pd  Pd164  1  0.40394433  0.79645828  0.00236935  1
  Pd  Pd165  1  0.59486111  0.39782704  0.38820299  1
  Pd  Pd166  1  0.60206440  0.80395630  0.81401677  1
  Pd  Pd167  1  0.40672303  0.60400133  0.00156313  1
  Pd  Pd168  1  0.60336624  0.80725356  -0.00257376  1
  Pd  Pd169  1  0.60039953  0.00144434  0.20140709  1
  Pd  Pd170  1  0.60027809  0.20462567  0.60011469  1
  Pd  Pd171  1  0.60647313  0.60539329  0.79181825  1
  Pd  Pd172  1  0.80471401  0.19492849  0.79560162  1
  Pd  Pd173  1  -0.00090691  0.79943906  0.78886804  1
  Pd  Pd174  1  0.59430862  -0.00495949  0.81438192  1
  Pd  Pd175  1  0.20381391  0.20219986  -0.00286465  1
  Pd  Pd176  1  0.40887321  0.39810689  -0.00551676  1
  Pd  Pd177  1  0.81036249  0.59890988  -0.00238968  1
  Pd  Pd178  1  0.00288776  0.19704283  0.39722938  1
  Pd  Pd179  1  0.20693181  -0.00036486  0.20335501  1
  Pd  Pd180  1  0.19973975  0.40165645  -0.00927183  1
  Pd  Pd181  1  0.00054522  0.39272562  0.20322820  1
  Pd  Pd182  1  0.59256700  0.60048217  0.19570672  1
  Pd  Pd183  1  0.39074345  0.20739682  0.19444914  1
  Pd  Pd184  1  0.59500989  0.59889461  0.40420416  1
  Pd  Pd185  1  0.80795061  0.40048964  0.40236050  1
  Pd  Pd186  1  0.78796810  0.80521920  0.39152980  1
  Pd  Pd187  1  0.59577922  -0.00317176  0.59228328  1
  Pd  Pd188  1  0.79007859  0.59484978  0.60191264  1
  Pd  Pd189  1  0.19987863  0.79755040  -0.00778335  1
  Pd  Pd190  1  0.01437091  0.40314067  0.79299677  1
  Pd  Pd191  1  -0.00485311  0.80572981  -0.00196066  1
  Pd  Pd192  1  0.40079316  0.00439090  0.79612855  1
  Pd  Pd193  1  0.59065976  0.59402119  0.00386507  1
  Pd  Pd194  1  0.20894309  0.79632043  0.20705934  1
  Pd  Pd195  1  0.20407960  0.80074503  0.39194436  1
  Pd  Pd196  1  0.80871667  -0.01447045  0.21777404  1
  Pd  Pd197  1  0.80253655  0.59617552  0.40602256  1
  Pd  Pd198  1  0.20925363  0.19940671  0.59235596  1
  Pd  Pd199  1  0.59828760  0.20256986  0.20406287  1
  Rh  Rh200  1  0.40032274  0.20564373  0.39905972  1
  Rh  Rh201  1  0.79742373  0.01010431  -0.00646721  1
  Rh  Rh202  1  0.80659465  0.79243876  0.00311041  1
  Rh  Rh203  1  0.40627828  0.60464217  0.40537468  1
  Rh  Rh204  1  0.19922554  0.19969632  0.80719100  1
  Rh  Rh205  1  0.79956883  0.40660610  0.79668740  1
  Rh  Rh206  1  0.18506001  0.80839421  0.60720869  1
  Rh  Rh207  1  0.00782766  0.60667254  0.20681235  1
  Rh  Rh208  1  0.80271650  0.79192842  0.79789404  1
  Rh  Rh209  1  0.21306412  0.58289291  0.60718864  1
  Rh  Rh210  1  0.80176330  0.00379527  0.60825271  1
  Rh  Rh211  1  0.00369165  0.19526556  0.80048912  1
  Rh  Rh212  1  0.39160878  0.40233000  0.59350198  1
  Rh  Rh213  1  -0.00171596  0.40566078  0.00464657  1
  Rh  Rh214  1  0.59051566  0.19435764  0.39503392  1
  Rh  Rh215  1  0.39879518  -0.00659550  0.39036833  1
  Rh  Rh216  1  0.00118123  0.41211268  0.39971579  1
  Rh  Rh217  1  -0.01187325  0.61334496  0.58026547  1
  Rh  Rh218  1  0.39682663  0.39777400  0.80151888  1
  Rh  Rh219  1  0.58889312  0.19889643  0.80162977  1
  Rh  Rh220  1  0.20028420  0.21220920  0.19584733  1
  Rh  Rh221  1  0.20429656  0.19725763  0.40712751  1
  Rh  Rh222  1  0.00365388  -0.00467598  0.59585646  1
  Rh  Rh223  1  0.40733336  0.79352616  0.59782673  1
  Rh  Rh224  1  0.40258699  0.20243373  0.00231434  1
  Rh  Rh225  1  0.81802444  0.21559828  0.20043477  1
  Rh  Rh226  1  0.40701106  -0.00058710  0.00721275  1
  Rh  Rh227  1  0.40301716  0.60718084  0.20187269  1
  Rh  Rh228  1  0.39298593  0.79337617  0.39878821  1
  Rh  Rh229  1  0.39761416  0.19364493  0.79447565  1
  Rh  Rh230  1  0.20073312  -0.00156960  0.79326894  1
  Rh  Rh231  1  0.39424771  0.39877208  0.39461162  1
  Rh  Rh232  1  -0.00408275  -0.00016446  0.81228752  1
  Rh  Rh233  1  -0.00018192  0.59872458  0.80540261  1
  Rh  Rh234  1  0.59634175  0.79906557  0.59491798  1
  Rh  Rh235  1  0.39573616  0.79363839  0.20070572  1
  Rh  Rh236  1  0.19550740  -0.00057898  0.00106441  1
  Rh  Rh237  1  0.19415556  0.60376098  0.20654599  1
  Rh  Rh238  1  0.39905717  0.39677824  0.20259311  1
  Rh  Rh239  1  0.00419904  0.78534445  0.40978086  1
  Rh  Rh240  1  0.00077066  0.18727024  0.00909926  1
  Rh  Rh241  1  0.61040040  0.79311690  0.19430227  1
  Rh  Rh242  1  -0.00596297  0.80671827  0.19629068  1
  Rh  Rh243  1  0.80169941  -0.00024424  0.80123362  1
  Rh  Rh244  1  0.19733627  0.40305922  0.40307044  1
  Rh  Rh245  1  0.18807229  0.60026464  0.38981764  1
  Rh  Rh246  1  0.60155796  0.40148906  0.60175848  1
  Rh  Rh247  1  0.80222123  0.60514162  0.19428173  1
  Rh  Rh248  1  0.39470659  0.00278367  0.60879008  1
  Rh  Rh249  1  0.80710045  0.20870629  0.41316459  1
