# generated using pymatgen
data_ZrScNbPdRh
_symmetry_space_group_name_H-M   'P 1'
_cell_length_a   16.56211948
_cell_length_b   16.56215318
_cell_length_c   16.55818612
_cell_angle_alpha   90.05633074
_cell_angle_beta   90.01233750
_cell_angle_gamma   90.00113621
_symmetry_Int_Tables_number   1
_chemical_formula_structural   ZrScNbPdRh
_chemical_formula_sum   'Zr50 Sc50 Nb50 Pd50 Rh50'
_cell_volume   4541.98034297
_cell_formula_units_Z   50
loop_
 _symmetry_equiv_pos_site_id
 _symmetry_equiv_pos_as_xyz
  1  'x, y, z'
loop_
 _atom_site_type_symbol
 _atom_site_label
 _atom_site_symmetry_multiplicity
 _atom_site_fract_x
 _atom_site_fract_y
 _atom_site_fract_z
 _atom_site_occupancy
  Zr  Zr0  1  0.10383439  0.70454144  0.70504257  1
  Zr  Zr1  1  0.09375974  0.69811523  0.30306561  1
  Zr  Zr2  1  0.10202463  0.71009431  0.50265270  1
  Zr  Zr3  1  0.70127662  0.29197408  0.30008366  1
  Zr  Zr4  1  0.90829060  0.29903667  0.70597200  1
  Zr  Zr5  1  0.69828772  0.49507879  0.09314146  1
  Zr  Zr6  1  0.49711163  0.89672416  0.10082088  1
  Zr  Zr7  1  0.10362117  0.29881987  0.09422827  1
  Zr  Zr8  1  0.09342533  0.09421100  0.29886238  1
  Zr  Zr9  1  0.50015040  0.49297217  0.09540643  1
  Zr  Zr10  1  0.70061919  0.89769762  0.29776065  1
  Zr  Zr11  1  0.89563481  0.30266942  0.89521205  1
  Zr  Zr12  1  0.11271315  0.10468748  0.70041167  1
  Zr  Zr13  1  0.29869571  0.10014725  0.51249515  1
  Zr  Zr14  1  0.50883627  0.90189997  0.69521748  1
  Zr  Zr15  1  0.09261601  0.30584304  0.50881545  1
  Zr  Zr16  1  0.50032626  0.09031857  0.50929384  1
  Zr  Zr17  1  0.89023969  0.49924039  0.71163306  1
  Zr  Zr18  1  0.09928308  0.09105040  0.49754215  1
  Zr  Zr19  1  0.90565198  0.90027604  0.50426844  1
  Zr  Zr20  1  0.09421210  0.70156824  0.89772079  1
  Zr  Zr21  1  0.70029906  0.30067045  0.49761273  1
  Zr  Zr22  1  0.49500724  0.70398536  0.29531323  1
  Zr  Zr23  1  0.09732557  0.50817786  0.30085076  1
  Zr  Zr24  1  0.49880261  0.50371723  0.49339419  1
  Zr  Zr25  1  0.68844197  0.90246212  0.89522091  1
  Zr  Zr26  1  0.29828630  0.70421527  0.30299640  1
  Zr  Zr27  1  0.70472297  0.51222636  0.50556642  1
  Zr  Zr28  1  0.90195530  0.09104956  0.50562723  1
  Zr  Zr29  1  0.29993657  0.50709580  0.30237661  1
  Zr  Zr30  1  0.89813887  0.09993821  0.89728896  1
  Zr  Zr31  1  0.69505947  0.90128658  0.51036120  1
  Zr  Zr32  1  0.10151518  0.50576165  0.09696288  1
  Zr  Zr33  1  0.50529628  0.10098462  0.89621120  1
  Zr  Zr34  1  0.29332529  0.70829703  0.90420569  1
  Zr  Zr35  1  0.49155877  0.29867852  0.90879631  1
  Zr  Zr36  1  0.09097051  0.29387728  0.30516478  1
  Zr  Zr37  1  0.11019674  0.49245367  0.69811668  1
  Zr  Zr38  1  0.29753110  0.70344860  0.69222064  1
  Zr  Zr39  1  0.89989205  0.09496264  0.29868365  1
  Zr  Zr40  1  0.30599907  0.70324058  0.50159348  1
  Zr  Zr41  1  0.70532040  0.68656521  0.69522894  1
  Zr  Zr42  1  0.29885768  0.09468531  0.29879211  1
  Zr  Zr43  1  0.50532342  0.70326990  0.90370781  1
  Zr  Zr44  1  0.50421622  0.10447520  0.09320946  1
  Zr  Zr45  1  0.29821494  0.50608716  0.50531951  1
  Zr  Zr46  1  0.90078791  0.28670337  0.29716773  1
  Zr  Zr47  1  0.70084853  0.10212158  0.90043848  1
  Zr  Zr48  1  0.50002732  0.89419685  0.30008161  1
  Zr  Zr49  1  0.50142601  0.30044660  0.49536706  1
  Sc  Sc50  1  0.50170492  0.49907656  0.29779451  1
  Sc  Sc51  1  0.90120475  0.69720170  0.50490071  1
  Sc  Sc52  1  0.10267677  0.50041450  0.89844318  1
  Sc  Sc53  1  0.71466470  0.30434495  0.70413319  1
  Sc  Sc54  1  0.30799579  0.30188249  0.08940696  1
  Sc  Sc55  1  0.90399661  0.90387766  0.69614633  1
  Sc  Sc56  1  0.50158333  0.70144766  0.69632474  1
  Sc  Sc57  1  0.49154765  0.10243931  0.70384926  1
  Sc  Sc58  1  0.09785590  0.89463600  0.69846732  1
  Sc  Sc59  1  0.49808153  0.70268492  0.09633534  1
  Sc  Sc60  1  0.49873736  0.09426030  0.29331875  1
  Sc  Sc61  1  0.11130978  0.30538304  0.89296207  1
  Sc  Sc62  1  0.50527738  0.29938955  0.29255973  1
  Sc  Sc63  1  0.90313282  0.09570338  0.10724447  1
  Sc  Sc64  1  0.50742428  0.49514219  0.90259622  1
  Sc  Sc65  1  0.49738619  0.70886812  0.49761873  1
  Sc  Sc66  1  0.29524739  0.70227203  0.09363326  1
  Sc  Sc67  1  0.49428416  0.29859890  0.71534498  1
  Sc  Sc68  1  0.30985770  0.30378763  0.29817281  1
  Sc  Sc69  1  0.70645741  0.09467796  0.70165555  1
  Sc  Sc70  1  0.10620409  0.09215158  0.90311124  1
  Sc  Sc71  1  0.88771966  0.29184916  0.09606147  1
  Sc  Sc72  1  0.10720622  0.90243111  0.89638109  1
  Sc  Sc73  1  0.50914378  0.50405667  0.71141535  1
  Sc  Sc74  1  0.69815704  0.29369025  0.09444525  1
  Sc  Sc75  1  0.69796913  0.89650974  0.10878510  1
  Sc  Sc76  1  0.90486881  0.51545220  0.29900838  1
  Sc  Sc77  1  0.70274766  0.09507103  0.49907693  1
  Sc  Sc78  1  0.69690131  0.69405214  0.10455396  1
  Sc  Sc79  1  0.89468656  0.50835573  0.09724706  1
  Sc  Sc80  1  0.30796592  0.90354422  0.29436427  1
  Sc  Sc81  1  0.29935081  0.09259269  0.10162859  1
  Sc  Sc82  1  0.69142619  0.50900218  0.29533084  1
  Sc  Sc83  1  0.90247993  0.29502941  0.50335411  1
  Sc  Sc84  1  0.89265489  0.69272624  0.10432893  1
  Sc  Sc85  1  0.10007281  0.09516802  0.09975048  1
  Sc  Sc86  1  0.09768800  0.69108816  0.09663828  1
  Sc  Sc87  1  0.90331492  0.50357714  0.49799044  1
  Sc  Sc88  1  0.90023097  0.09787643  0.70429202  1
  Sc  Sc89  1  0.29374882  0.29694570  0.70666121  1
  Sc  Sc90  1  0.29627192  0.49415202  0.90618358  1
  Sc  Sc91  1  0.29545844  0.90034209  0.70186849  1
  Sc  Sc92  1  0.30191984  0.89895040  0.50191479  1
  Sc  Sc93  1  0.70382649  0.09794802  0.29446692  1
  Sc  Sc94  1  0.70338183  0.29909387  0.90563889  1
  Sc  Sc95  1  0.29475466  0.09859467  0.88845492  1
  Sc  Sc96  1  0.09591403  0.91575013  0.09458612  1
  Sc  Sc97  1  0.90769564  0.90750842  0.88883862  1
  Sc  Sc98  1  0.69586971  0.69850652  0.29257421  1
  Sc  Sc99  1  0.29695032  0.89997282  0.10037985  1
  Nb  Nb100  1  0.70211068  0.70061146  0.89620408  1
  Nb  Nb101  1  0.70674966  0.89607747  0.70071158  1
  Nb  Nb102  1  0.50072344  0.30144853  0.09104219  1
  Nb  Nb103  1  0.09230363  0.90003579  0.49860408  1
  Nb  Nb104  1  0.30059314  0.89878249  0.90254955  1
  Nb  Nb105  1  0.50069576  0.89951185  0.89885015  1
  Nb  Nb106  1  0.30349969  0.30088274  0.49882240  1
  Nb  Nb107  1  0.29998236  0.30185737  0.89908062  1
  Nb  Nb108  1  0.70958461  0.70090455  0.50041838  1
  Nb  Nb109  1  0.89754846  0.70356197  0.29770483  1
  Nb  Nb110  1  0.70064875  0.09654051  0.09055350  1
  Nb  Nb111  1  0.09499795  0.30543753  0.70625154  1
  Nb  Nb112  1  0.89697575  0.50095393  0.90498855  1
  Nb  Nb113  1  0.50333081  0.90096814  0.50189845  1
  Nb  Nb114  1  0.29321699  0.50317832  0.10216878  1
  Nb  Nb115  1  0.29840239  0.10312284  0.70196947  1
  Nb  Nb116  1  0.69877551  0.50086160  0.70222546  1
  Nb  Nb117  1  0.09387818  0.90136733  0.30431758  1
  Nb  Nb118  1  0.89307711  0.89867107  0.28988564  1
  Nb  Nb119  1  0.90893582  0.70053648  0.70828335  1
  Nb  Nb120  1  0.90159357  0.69454357  0.89596803  1
  Nb  Nb121  1  0.70513977  0.50309209  0.89024899  1
  Nb  Nb122  1  0.30209735  0.50684308  0.69785421  1
  Nb  Nb123  1  0.89552842  0.89888083  0.09901806  1
  Nb  Nb124  1  0.09763983  0.50261274  0.50285911  1
  Nb  Nb125  1  0.39522614  0.59707794  0.19497212  1
  Nb  Nb126  1  0.19691546  0.39931750  0.40308290  1
  Nb  Nb127  1  0.80246083  0.79953614  -0.00857794  1
  Nb  Nb128  1  0.60040627  0.40086986  0.60226868  1
  Nb  Nb129  1  -0.00244646  0.39878120  0.19437621  1
  Nb  Nb130  1  0.80039081  0.79460270  0.80068257  1
  Nb  Nb131  1  0.40280776  0.80215076  0.80608669  1
  Nb  Nb132  1  0.39613349  0.60554009  0.80307478  1
  Nb  Nb133  1  -0.00006736  0.20299082  -0.00447025  1
  Nb  Nb134  1  0.80263584  0.39932829  0.20578168  1
  Nb  Nb135  1  0.19650115  0.39941399  0.20367292  1
  Nb  Nb136  1  0.79979693  0.40116918  0.39349305  1
  Nb  Nb137  1  0.79882599  -0.00735768  0.00077648  1
  Nb  Nb138  1  0.39635530  0.19595101  0.40541480  1
  Nb  Nb139  1  0.40494598  -0.00559874  -0.00985845  1
  Nb  Nb140  1  0.40132684  0.40252114  0.60267387  1
  Nb  Nb141  1  -0.00377416  0.80438379  0.19821993  1
  Nb  Nb142  1  0.60023666  0.20615339  0.60085657  1
  Nb  Nb143  1  0.00492590  0.59932629  0.60816098  1
  Nb  Nb144  1  0.18595419  0.80460308  0.20476977  1
  Nb  Nb145  1  -0.01087113  0.80175521  0.00147398  1
  Nb  Nb146  1  0.20391285  0.20468952  0.40294993  1
  Nb  Nb147  1  -0.00510018  0.39900281  -0.00082556  1
  Nb  Nb148  1  0.79930253  0.79819906  0.40047860  1
  Nb  Nb149  1  0.20023418  0.20398793  0.20569357  1
  Pd  Pd150  1  0.20095029  0.19357080  0.00177782  1
  Pd  Pd151  1  0.60827749  0.20510522  0.79316523  1
  Pd  Pd152  1  0.80154802  0.40409860  0.59310353  1
  Pd  Pd153  1  0.40211328  -0.00006596  0.40370783  1
  Pd  Pd154  1  0.60778363  0.79385024  0.40219734  1
  Pd  Pd155  1  0.60000787  0.00107135  0.19777842  1
  Pd  Pd156  1  0.01062541  0.00337758  0.79426760  1
  Pd  Pd157  1  0.39736101  0.39819081  0.40121443  1
  Pd  Pd158  1  0.60246472  0.79215721  0.60040347  1
  Pd  Pd159  1  0.80082299  -0.00937861  0.40127827  1
  Pd  Pd160  1  0.00495549  0.58873115  0.79659826  1
  Pd  Pd161  1  0.20769191  0.59700064  0.80494159  1
  Pd  Pd162  1  0.59174871  0.18640555  0.40253807  1
  Pd  Pd163  1  0.39598511  0.59463782  -0.00116614  1
  Pd  Pd164  1  0.39542293  0.40321185  0.19367275  1
  Pd  Pd165  1  0.80747334  0.79707443  0.60342435  1
  Pd  Pd166  1  0.79681179  0.19565877  0.60311925  1
  Pd  Pd167  1  0.39759536  0.20039347  0.20110684  1
  Pd  Pd168  1  0.20856794  0.39343934  0.59974075  1
  Pd  Pd169  1  0.60027390  0.00328058  0.39706757  1
  Pd  Pd170  1  0.39584254  -0.00722072  0.60872065  1
  Pd  Pd171  1  0.60104446  0.00600044  0.79112911  1
  Pd  Pd172  1  0.80069576  0.60294899  0.39348521  1
  Pd  Pd173  1  0.19629890  0.60021528  0.40906615  1
  Pd  Pd174  1  0.60205023  0.19837830  0.19327312  1
  Pd  Pd175  1  0.20498652  0.81143783  0.39626234  1
  Pd  Pd176  1  0.60939183  0.40727308  0.40057987  1
  Pd  Pd177  1  0.38998143  0.18725331  -0.00570633  1
  Pd  Pd178  1  0.60202821  0.79240507  0.79053546  1
  Pd  Pd179  1  0.60703010  0.39472480  0.19722047  1
  Pd  Pd180  1  0.59256020  0.59976688  0.59706732  1
  Pd  Pd181  1  0.60429511  0.59931493  -0.00306456  1
  Pd  Pd182  1  0.60916525  0.80046490  0.00720976  1
  Pd  Pd183  1  0.18403711  0.80573265  0.01032127  1
  Pd  Pd184  1  0.00227463  0.19339378  0.60309358  1
  Pd  Pd185  1  0.20280201  -0.00463304  0.39965857  1
  Pd  Pd186  1  -0.01007463  0.40971845  0.60614077  1
  Pd  Pd187  1  0.01112210  0.19619277  0.80815425  1
  Pd  Pd188  1  0.39378987  0.40974111  0.79822612  1
  Pd  Pd189  1  -0.01086798  0.80080878  0.39541735  1
  Pd  Pd190  1  -0.00598790  0.40566804  0.39370960  1
  Pd  Pd191  1  0.60739780  0.39263676  0.79990858  1
  Pd  Pd192  1  0.79421830  0.60476136  -0.00242321  1
  Pd  Pd193  1  0.19699433  0.21015121  0.59866388  1
  Pd  Pd194  1  0.41117503  0.59511987  0.60777599  1
  Pd  Pd195  1  0.39722493  -0.00523376  0.79975328  1
  Pd  Pd196  1  0.59718556  0.61082018  0.40121054  1
  Pd  Pd197  1  0.80428241  0.19789464  0.40634020  1
  Pd  Pd198  1  0.40573310  0.20927354  0.60368446  1
  Pd  Pd199  1  0.19683944  -0.01021681  0.60315741  1
  Rh  Rh200  1  -0.00257229  0.60003237  -0.00297524  1
  Rh  Rh201  1  0.80569901  0.18615883  0.00159636  1
  Rh  Rh202  1  0.20846469  0.60811450  0.19806927  1
  Rh  Rh203  1  0.80186519  0.79400046  0.19951581  1
  Rh  Rh204  1  0.59917317  0.79748878  0.19698138  1
  Rh  Rh205  1  0.20130077  -0.00339757  0.79501440  1
  Rh  Rh206  1  0.58544200  0.60034845  0.19341553  1
  Rh  Rh207  1  0.60465131  0.00688453  0.60784020  1
  Rh  Rh208  1  0.00013116  0.60768795  0.41143600  1
  Rh  Rh209  1  -0.00051363  0.19014056  0.41317537  1
  Rh  Rh210  1  0.79444614  0.00593106  0.19173536  1
  Rh  Rh211  1  0.00192842  0.40485812  0.80765251  1
  Rh  Rh212  1  0.59959472  -0.00497226  0.00477687  1
  Rh  Rh213  1  0.19901717  0.40190121  0.00391672  1
  Rh  Rh214  1  0.19933126  0.20390286  0.80117250  1
  Rh  Rh215  1  -0.00413030  0.80357255  0.80599943  1
  Rh  Rh216  1  -0.00449061  0.60387612  0.19519947  1
  Rh  Rh217  1  0.59956403  0.20556770  -0.00157993  1
  Rh  Rh218  1  0.39091092  0.19978183  0.80600118  1
  Rh  Rh219  1  0.00633721  0.20255372  0.18524909  1
  Rh  Rh220  1  0.79642016  0.59390059  0.20373377  1
  Rh  Rh221  1  0.00813009  0.00282218  0.60750595  1
  Rh  Rh222  1  0.79280898  0.19710341  0.19426290  1
  Rh  Rh223  1  0.19202926  0.60528089  0.59702424  1
  Rh  Rh224  1  -0.00141505  -0.00738369  0.20257105  1
  Rh  Rh225  1  0.80159329  0.40610037  0.00175880  1
  Rh  Rh226  1  0.79867940  0.20040182  0.79715272  1
  Rh  Rh227  1  0.19888738  0.80660563  0.59558606  1
  Rh  Rh228  1  0.38741150  0.79208263  0.19377713  1
  Rh  Rh229  1  0.19517497  -0.00179296  0.20402906  1
  Rh  Rh230  1  0.79655790  -0.00860246  0.80340734  1
  Rh  Rh231  1  0.79979765  -0.00236990  0.60476901  1
  Rh  Rh232  1  0.20485350  0.80436493  0.80012860  1
  Rh  Rh233  1  -0.00128996  0.79513869  0.60443748  1
  Rh  Rh234  1  0.79581297  0.40020373  0.80578872  1
  Rh  Rh235  1  0.40565332  0.60504860  0.39244578  1
  Rh  Rh236  1  0.79914829  0.60357185  0.80329672  1
  Rh  Rh237  1  0.19900224  0.60037611  -0.00672816  1
  Rh  Rh238  1  0.40355857  0.80881589  0.60385033  1
  Rh  Rh239  1  0.81234234  0.59909281  0.60575637  1
  Rh  Rh240  1  0.20714122  0.40042963  0.79777818  1
  Rh  Rh241  1  0.59875883  0.60276189  0.80543611  1
  Rh  Rh242  1  -0.00943590  -0.00472048  0.39593439  1
  Rh  Rh243  1  0.39589241  0.40429931  -0.00021290  1
  Rh  Rh244  1  -0.01033518  0.00340690  -0.00317643  1
  Rh  Rh245  1  0.39984509  0.80700806  -0.00329000  1
  Rh  Rh246  1  0.21236043  0.00014269  -0.00194120  1
  Rh  Rh247  1  0.40104427  0.80879136  0.40475508  1
  Rh  Rh248  1  0.40510119  0.00007376  0.18858665  1
  Rh  Rh249  1  0.60435654  0.39620666  -0.00659379  1
