# generated using pymatgen
data_ZrScNbPdRh
_symmetry_space_group_name_H-M   'P 1'
_cell_length_a   16.55699642
_cell_length_b   16.55503715
_cell_length_c   16.55373563
_cell_angle_alpha   90.02724760
_cell_angle_beta   90.01541678
_cell_angle_gamma   89.98046225
_symmetry_Int_Tables_number   1
_chemical_formula_structural   ZrScNbPdRh
_chemical_formula_sum   'Zr50 Sc50 Nb50 Pd50 Rh50'
_cell_volume   4537.40598546
_cell_formula_units_Z   50
loop_
 _symmetry_equiv_pos_site_id
 _symmetry_equiv_pos_as_xyz
  1  'x, y, z'
loop_
 _atom_site_type_symbol
 _atom_site_label
 _atom_site_symmetry_multiplicity
 _atom_site_fract_x
 _atom_site_fract_y
 _atom_site_fract_z
 _atom_site_occupancy
  Zr  Zr0  1  0.69963363  0.29540953  0.90155419  1
  Zr  Zr1  1  0.29952707  0.09534786  0.29436301  1
  Zr  Zr2  1  0.69057836  0.90527700  0.30584090  1
  Zr  Zr3  1  0.09583394  0.10638629  0.69984179  1
  Zr  Zr4  1  0.10389828  0.50805320  0.09387232  1
  Zr  Zr5  1  0.29328856  0.89408543  0.90417792  1
  Zr  Zr6  1  0.29840940  0.49273289  0.90058598  1
  Zr  Zr7  1  0.70326995  0.70067569  0.89806466  1
  Zr  Zr8  1  0.29278557  0.69260683  0.10408808  1
  Zr  Zr9  1  0.29628048  0.70076794  0.49849351  1
  Zr  Zr10  1  0.69762782  0.49877547  0.69721875  1
  Zr  Zr11  1  0.10139568  0.29778174  0.10262813  1
  Zr  Zr12  1  0.89788132  0.89426632  0.88884514  1
  Zr  Zr13  1  0.30600750  0.10161841  0.70299463  1
  Zr  Zr14  1  0.89948660  0.49774092  0.10137133  1
  Zr  Zr15  1  0.10286724  0.89802527  0.09934854  1
  Zr  Zr16  1  0.89710558  0.30039310  0.30206871  1
  Zr  Zr17  1  0.88987426  0.30898119  0.89519945  1
  Zr  Zr18  1  0.49666572  0.50303195  0.09780381  1
  Zr  Zr19  1  0.50111247  0.50724154  0.89684123  1
  Zr  Zr20  1  0.31233125  0.48766510  0.69665328  1
  Zr  Zr21  1  0.49151589  0.50144596  0.31226895  1
  Zr  Zr22  1  0.69809271  0.10482593  0.50716528  1
  Zr  Zr23  1  0.09969284  0.70128508  0.89681662  1
  Zr  Zr24  1  0.10847168  0.10197968  0.10127168  1
  Zr  Zr25  1  0.30137061  0.30128345  0.89378343  1
  Zr  Zr26  1  0.90345035  0.70199507  0.29800243  1
  Zr  Zr27  1  0.49993497  0.90072010  0.29690488  1
  Zr  Zr28  1  0.09748076  0.90716599  0.49348272  1
  Zr  Zr29  1  0.69603701  0.49420620  0.09688431  1
  Zr  Zr30  1  0.49888724  0.70222685  0.09010921  1
  Zr  Zr31  1  0.50279545  0.68938753  0.70109663  1
  Zr  Zr32  1  0.29593049  0.90363588  0.10283850  1
  Zr  Zr33  1  0.71261285  0.49267267  0.90060210  1
  Zr  Zr34  1  0.89631266  0.10442207  0.30246749  1
  Zr  Zr35  1  0.90181444  0.69011024  0.89829489  1
  Zr  Zr36  1  0.30308852  0.70434843  0.90167434  1
  Zr  Zr37  1  0.50191577  0.09933875  0.88809336  1
  Zr  Zr38  1  0.10288400  0.10433912  0.30654992  1
  Zr  Zr39  1  0.90001104  0.90863674  0.50933764  1
  Zr  Zr40  1  0.90881540  0.70388214  0.70015931  1
  Zr  Zr41  1  0.09059344  0.89612743  0.70376244  1
  Zr  Zr42  1  0.69377157  0.70148097  0.30587503  1
  Zr  Zr43  1  0.50221523  0.89914277  0.10095334  1
  Zr  Zr44  1  0.71130491  0.90313202  0.50448181  1
  Zr  Zr45  1  0.29848391  0.69617054  0.30306793  1
  Zr  Zr46  1  0.49643904  0.49660267  0.50553135  1
  Zr  Zr47  1  0.49042085  0.91276736  0.70255108  1
  Zr  Zr48  1  0.50481905  0.50031387  0.69534888  1
  Zr  Zr49  1  0.90242281  0.10114862  0.09855934  1
  Sc  Sc50  1  0.29939135  0.11440556  0.89964752  1
  Sc  Sc51  1  0.90138663  0.48845068  0.29978907  1
  Sc  Sc52  1  0.49452838  0.30926277  0.69657046  1
  Sc  Sc53  1  0.28826355  0.30722039  0.50208311  1
  Sc  Sc54  1  0.89328791  0.69905861  0.09808346  1
  Sc  Sc55  1  0.89505111  0.30000410  0.50127528  1
  Sc  Sc56  1  0.89321958  0.91040417  0.30828925  1
  Sc  Sc57  1  0.50137683  0.69631921  0.30358185  1
  Sc  Sc58  1  0.49307435  0.90631984  0.49290533  1
  Sc  Sc59  1  0.90384624  0.30067583  0.69547603  1
  Sc  Sc60  1  0.90656173  0.49282010  0.70414749  1
  Sc  Sc61  1  0.29266803  0.29601966  0.30915784  1
  Sc  Sc62  1  0.89731719  0.29691565  0.10651859  1
  Sc  Sc63  1  0.90588513  0.09735771  0.69358658  1
  Sc  Sc64  1  0.69570661  0.29538951  0.09345756  1
  Sc  Sc65  1  0.70663477  0.29556747  0.69540232  1
  Sc  Sc66  1  0.89880095  0.89809140  0.10293047  1
  Sc  Sc67  1  0.09559784  0.29585304  0.30295271  1
  Sc  Sc68  1  0.49899317  0.29378590  0.30625067  1
  Sc  Sc69  1  0.10170907  0.69880940  0.69457761  1
  Sc  Sc70  1  0.49971716  0.10645480  0.70187215  1
  Sc  Sc71  1  0.90507797  0.10535730  0.89454176  1
  Sc  Sc72  1  0.50474644  0.09092780  0.30255726  1
  Sc  Sc73  1  0.70028706  0.69363413  0.70117248  1
  Sc  Sc74  1  0.69381631  0.69666805  0.10433467  1
  Sc  Sc75  1  0.49985951  0.69512789  0.49921225  1
  Sc  Sc76  1  0.10679938  0.30081678  0.69243621  1
  Sc  Sc77  1  0.09806141  0.90063736  0.90108166  1
  Sc  Sc78  1  0.50886049  0.30403537  0.50239703  1
  Sc  Sc79  1  0.70005068  0.29915891  0.50319330  1
  Sc  Sc80  1  0.10371094  0.68982141  0.49771599  1
  Sc  Sc81  1  0.69422789  0.89909760  0.10610973  1
  Sc  Sc82  1  0.30032994  0.89838983  0.30585428  1
  Sc  Sc83  1  0.69840851  0.09916882  0.30142179  1
  Sc  Sc84  1  0.69881014  0.70487401  0.50118207  1
  Sc  Sc85  1  0.09917376  0.50433289  0.89386371  1
  Sc  Sc86  1  0.69891317  0.50112987  0.29894907  1
  Sc  Sc87  1  0.10857038  0.89878715  0.29330384  1
  Sc  Sc88  1  0.30648191  0.89397197  0.49846286  1
  Sc  Sc89  1  0.09446669  0.49592956  0.30351119  1
  Sc  Sc90  1  0.90476005  0.70656727  0.50492105  1
  Sc  Sc91  1  0.09554138  0.10137464  0.90135568  1
  Sc  Sc92  1  0.11090158  0.29877880  0.89414185  1
  Sc  Sc93  1  0.69001970  0.49389507  0.50284862  1
  Sc  Sc94  1  0.69861595  0.10707794  0.10734828  1
  Sc  Sc95  1  0.49912249  0.29889167  0.90836759  1
  Sc  Sc96  1  0.09345100  0.10267437  0.49852495  1
  Sc  Sc97  1  0.09964663  0.49825504  0.50169293  1
  Sc  Sc98  1  0.09784432  0.50037228  0.69576383  1
  Sc  Sc99  1  0.49828724  0.10602137  0.11409152  1
  Nb  Nb100  1  0.89952828  0.50245334  0.50245224  1
  Nb  Nb101  1  0.29610572  0.89585292  0.69882783  1
  Nb  Nb102  1  0.49855937  0.89708746  0.90418827  1
  Nb  Nb103  1  0.70736144  0.90657170  0.70097810  1
  Nb  Nb104  1  0.50127852  0.70853159  0.89842016  1
  Nb  Nb105  1  0.30079611  0.49871194  0.10465046  1
  Nb  Nb106  1  0.30036597  0.10295965  0.10316724  1
  Nb  Nb107  1  0.09998110  0.70870220  0.29384884  1
  Nb  Nb108  1  0.29964313  0.29915092  0.70472077  1
  Nb  Nb109  1  0.30594709  0.49682297  0.48421970  1
  Nb  Nb110  1  0.49710330  0.09844706  0.50577009  1
  Nb  Nb111  1  0.29789775  0.70818727  0.69804316  1
  Nb  Nb112  1  0.89685389  0.89930904  0.69277500  1
  Nb  Nb113  1  0.30707103  0.49827461  0.29859937  1
  Nb  Nb114  1  0.09564604  0.70560231  0.10857061  1
  Nb  Nb115  1  0.69430480  0.09661700  0.70605992  1
  Nb  Nb116  1  0.90488441  0.09381697  0.49608757  1
  Nb  Nb117  1  0.90560308  0.49935154  0.90350742  1
  Nb  Nb118  1  0.09983490  0.29032778  0.49692164  1
  Nb  Nb119  1  0.49986819  0.30278138  0.10579981  1
  Nb  Nb120  1  0.69644866  0.09983577  0.89142455  1
  Nb  Nb121  1  0.30226265  0.09399681  0.50001461  1
  Nb  Nb122  1  0.30309426  0.29377716  0.09378728  1
  Nb  Nb123  1  0.70016569  0.29563705  0.29793704  1
  Nb  Nb124  1  0.70118913  0.90737261  0.89070709  1
  Nb  Nb125  1  0.60336148  0.40241116  0.80365794  1
  Nb  Nb126  1  0.60275212  0.00056137  0.60533273  1
  Nb  Nb127  1  0.39774308  0.19198223  0.41108424  1
  Nb  Nb128  1  0.40270291  0.79947723  0.79877971  1
  Nb  Nb129  1  0.00330949  0.60506196  0.19906050  1
  Nb  Nb130  1  0.39445799  0.20095177  0.59496589  1
  Nb  Nb131  1  0.80545375  0.59573902  0.59547155  1
  Nb  Nb132  1  0.60109692  0.00186007  -0.00910184  1
  Nb  Nb133  1  0.80504923  0.59743128  0.40607042  1
  Nb  Nb134  1  0.59205653  0.39597176  0.19974568  1
  Nb  Nb135  1  0.00266036  0.00372662  0.20013086  1
  Nb  Nb136  1  0.39932318  0.79611283  0.19687886  1
  Nb  Nb137  1  0.00411108  0.80146285  0.39476224  1
  Nb  Nb138  1  0.20370830  -0.00107361  0.60476115  1
  Nb  Nb139  1  0.59983582  0.81114340  0.60981944  1
  Nb  Nb140  1  0.79073759  0.00155984  -0.00969266  1
  Nb  Nb141  1  0.39582780  0.39793262  0.19749314  1
  Nb  Nb142  1  0.40278068  0.00231562  0.00128245  1
  Nb  Nb143  1  0.20918798  0.40220601  0.19595914  1
  Nb  Nb144  1  0.20095509  -0.00157450  0.79346606  1
  Nb  Nb145  1  0.79509183  0.80020379  0.20848900  1
  Nb  Nb146  1  -0.00081344  0.79444571  0.00263393  1
  Nb  Nb147  1  0.21054459  0.60306074  0.79283005  1
  Nb  Nb148  1  0.59751275  0.80823792  0.80058889  1
  Nb  Nb149  1  -0.00218413  0.40232883  -0.00274428  1
  Pd  Pd150  1  0.00026039  0.21263804  -0.00703812  1
  Pd  Pd151  1  -0.00272168  0.60373204  0.39575452  1
  Pd  Pd152  1  0.80033091  0.19287867  -0.00153654  1
  Pd  Pd153  1  0.79785372  0.19882557  0.40354108  1
  Pd  Pd154  1  -0.00993683  -0.00824264  0.00145549  1
  Pd  Pd155  1  0.80418471  0.60262996  0.20835678  1
  Pd  Pd156  1  0.00184617  0.21108126  0.80034782  1
  Pd  Pd157  1  0.39581487  0.20691437  0.21135200  1
  Pd  Pd158  1  0.79620954  0.59954868  0.00379953  1
  Pd  Pd159  1  0.40756456  0.19225961  0.00249428  1
  Pd  Pd160  1  0.01066735  0.79775393  0.58984244  1
  Pd  Pd161  1  0.59273965  0.80352964  0.41276766  1
  Pd  Pd162  1  0.79777313  0.80792824  0.00729533  1
  Pd  Pd163  1  0.00182982  0.39450431  0.59352107  1
  Pd  Pd164  1  0.80887106  0.79617660  0.39967038  1
  Pd  Pd165  1  0.20071338  0.60394132  -0.00807122  1
  Pd  Pd166  1  0.80774942  0.59360548  0.79089373  1
  Pd  Pd167  1  0.59511911  0.19590817  0.39978406  1
  Pd  Pd168  1  0.20456323  0.19382102  0.59547778  1
  Pd  Pd169  1  0.79288630  0.40467886  0.40410039  1
  Pd  Pd170  1  0.80382991  0.19593950  0.79138302  1
  Pd  Pd171  1  0.19265054  0.59204459  0.21138018  1
  Pd  Pd172  1  0.00237999  0.39298396  0.41015380  1
  Pd  Pd173  1  0.40250945  0.39907728  0.00146461  1
  Pd  Pd174  1  0.20675400  0.01197946  -0.00945532  1
  Pd  Pd175  1  0.00003264  0.19558932  0.20386449  1
  Pd  Pd176  1  0.20048741  0.40571489  0.59852150  1
  Pd  Pd177  1  0.59259585  0.19016523  0.00433638  1
  Pd  Pd178  1  0.19351355  0.40094921  0.39382045  1
  Pd  Pd179  1  0.20978218  0.58960455  0.60401038  1
  Pd  Pd180  1  0.79549983  0.79651674  0.79081081  1
  Pd  Pd181  1  0.81183601  0.00996850  0.79764856  1
  Pd  Pd182  1  0.80688378  0.19510361  0.60286718  1
  Pd  Pd183  1  0.39423751  0.60479806  0.79928264  1
  Pd  Pd184  1  0.80004764  -0.00335954  0.19397667  1
  Pd  Pd185  1  0.60610366  0.59965231  -0.00648321  1
  Pd  Pd186  1  0.19500199  0.39677916  0.00234742  1
  Pd  Pd187  1  0.60398501  0.39757986  0.39201527  1
  Pd  Pd188  1  0.00823642  0.39531486  0.80383955  1
  Pd  Pd189  1  0.19317894  0.80648755  0.59188318  1
  Pd  Pd190  1  0.20451711  -0.00102228  0.40396715  1
  Pd  Pd191  1  0.61311788  0.80647533  -0.00536327  1
  Pd  Pd192  1  0.38751090  -0.00434464  0.81192802  1
  Pd  Pd193  1  0.39665444  0.60006696  -0.00330742  1
  Pd  Pd194  1  0.19690308  0.59401776  0.39366683  1
  Pd  Pd195  1  0.40891531  0.79832552  0.60216189  1
  Pd  Pd196  1  0.39119387  0.59969515  0.59412021  1
  Pd  Pd197  1  0.59198161  0.59436344  0.20430162  1
  Pd  Pd198  1  0.78844632  0.39174506  0.19643501  1
  Pd  Pd199  1  0.59524107  0.21532682  0.79095444  1
  Rh  Rh200  1  0.39869772  0.00365295  0.39624884  1
  Rh  Rh201  1  -0.00557031  0.59787399  0.60050759  1
  Rh  Rh202  1  0.79656691  0.39988661  0.79117351  1
  Rh  Rh203  1  0.60288710  0.00217749  0.41236711  1
  Rh  Rh204  1  0.79727436  0.01259222  0.60528704  1
  Rh  Rh205  1  0.59622913  0.39922210  -0.00145146  1
  Rh  Rh206  1  -0.01098493  0.80363150  0.20057490  1
  Rh  Rh207  1  0.60155977  0.20637946  0.20743043  1
  Rh  Rh208  1  0.39447440  0.39084382  0.58701320  1
  Rh  Rh209  1  0.59384307  0.19713299  0.60489053  1
  Rh  Rh210  1  0.00072479  -0.00213268  0.79687867  1
  Rh  Rh211  1  -0.00074928  0.79825622  0.80409594  1
  Rh  Rh212  1  0.20708331  0.20823320  0.19949985  1
  Rh  Rh213  1  -0.00198486  0.60168154  0.00737817  1
  Rh  Rh214  1  0.00697564  0.59784267  0.79400956  1
  Rh  Rh215  1  0.60603789  0.59535773  0.40511776  1
  Rh  Rh216  1  0.20313143  0.19657432  0.40628637  1
  Rh  Rh217  1  0.80745968  0.39599395  0.00813900  1
  Rh  Rh218  1  0.60193110  0.00547516  0.19353977  1
  Rh  Rh219  1  0.59962289  -0.00438356  0.79726971  1
  Rh  Rh220  1  0.79571973  0.01054631  0.40523317  1
  Rh  Rh221  1  0.21181339  0.80019003  0.20151146  1
  Rh  Rh222  1  0.40005334  -0.00677475  0.19646957  1
  Rh  Rh223  1  0.40435479  0.60305911  0.19958547  1
  Rh  Rh224  1  0.59773197  0.79390907  0.20302731  1
  Rh  Rh225  1  0.19033944  0.79252822  0.00492991  1
  Rh  Rh226  1  0.19342784  0.79875104  0.40326602  1
  Rh  Rh227  1  0.39698556  0.00432955  0.59841782  1
  Rh  Rh228  1  0.20143043  0.19956251  -0.00095837  1
  Rh  Rh229  1  0.19736289  0.19567329  0.79816373  1
  Rh  Rh230  1  0.79679522  0.20311733  0.20136216  1
  Rh  Rh231  1  0.19933273  0.40776721  0.79044062  1
  Rh  Rh232  1  0.60546021  0.59834411  0.80906585  1
  Rh  Rh233  1  0.00578269  0.00308538  0.60300761  1
  Rh  Rh234  1  0.40950497  0.39544248  0.80675176  1
  Rh  Rh235  1  0.00068265  -0.00350284  0.39016130  1
  Rh  Rh236  1  0.19580056  0.00212604  0.20188253  1
  Rh  Rh237  1  0.20246830  0.79872489  0.79743064  1
  Rh  Rh238  1  0.39844781  0.60481308  0.40694236  1
  Rh  Rh239  1  0.80209496  0.40504988  0.59950596  1
  Rh  Rh240  1  0.60517890  0.39162113  0.60945952  1
  Rh  Rh241  1  -0.00761314  0.20378946  0.40573198  1
  Rh  Rh242  1  0.79370664  0.78998092  0.60835616  1
  Rh  Rh243  1  -0.00217226  0.20376221  0.59168936  1
  Rh  Rh244  1  0.40238922  0.79566788  0.39234525  1
  Rh  Rh245  1  0.40495627  0.21077152  0.79305702  1
  Rh  Rh246  1  0.60870181  0.60879101  0.59176722  1
  Rh  Rh247  1  0.39905637  0.38756037  0.39982472  1
  Rh  Rh248  1  0.39495435  0.80473650  0.00389714  1
  Rh  Rh249  1  0.01333177  0.40829971  0.18917082  1
