# generated using pymatgen
data_Cs27Sn14Pb13I81
_symmetry_space_group_name_H-M   'P 1'
_cell_length_a   18.98411560
_cell_length_b   18.96958629
_cell_length_c   18.97476995
_cell_angle_alpha   90.00133383
_cell_angle_beta   90.00031912
_cell_angle_gamma   89.99994327
_symmetry_Int_Tables_number   1
_chemical_formula_structural   Cs27Sn14Pb13I81
_chemical_formula_sum   'Cs27 Sn14 Pb13 I81'
_cell_volume   6833.20969184
_cell_formula_units_Z   1
loop_
 _symmetry_equiv_pos_site_id
 _symmetry_equiv_pos_as_xyz
  1  'x, y, z'
loop_
 _atom_site_type_symbol
 _atom_site_label
 _atom_site_symmetry_multiplicity
 _atom_site_fract_x
 _atom_site_fract_y
 _atom_site_fract_z
 _atom_site_occupancy
  Cs  Cs0  1  0.00133869  0.00045859  0.00100700  1
  Cs  Cs1  1  -0.00401757  0.00331643  0.33326174  1
  Cs  Cs2  1  -0.00124237  0.00056231  0.66550796  1
  Cs  Cs3  1  0.00519834  0.33298605  -0.00284219  1
  Cs  Cs4  1  -0.00323713  0.33376548  0.33370443  1
  Cs  Cs5  1  0.00715901  0.33098115  0.66966540  1
  Cs  Cs6  1  0.00001750  0.66462525  0.00308100  1
  Cs  Cs7  1  0.00138991  0.66543140  0.33220900  1
  Cs  Cs8  1  -0.00647258  0.66879864  0.66454814  1
  Cs  Cs9  1  0.33407615  -0.00204928  -0.00072860  1
  Cs  Cs10  1  0.33529299  -0.00073549  0.33307842  1
  Cs  Cs11  1  0.33275885  -0.00014397  0.66824265  1
  Cs  Cs12  1  0.32829623  0.33430945  -0.00417516  1
  Cs  Cs13  1  0.33643382  0.33251322  0.33595280  1
  Cs  Cs14  1  0.32919265  0.33091283  0.66855311  1
  Cs  Cs15  1  0.33275470  0.66773416  0.00280142  1
  Cs  Cs16  1  0.33284638  0.66713489  0.33339647  1
  Cs  Cs17  1  0.33640356  0.66847042  0.66284957  1
  Cs  Cs18  1  0.66630826  0.00168531  0.00039078  1
  Cs  Cs19  1  0.66820429  0.00714260  0.33156871  1
  Cs  Cs20  1  0.66909991  -0.00210249  0.66764285  1
  Cs  Cs21  1  0.66706508  0.33207033  0.00107094  1
  Cs  Cs22  1  0.66718774  0.33088197  0.33133645  1
  Cs  Cs23  1  0.66475945  0.33663082  0.66944992  1
  Cs  Cs24  1  0.66659920  0.66660715  -0.00057320  1
  Cs  Cs25  1  0.66597605  0.66589163  0.33370068  1
  Cs  Cs26  1  0.66760102  0.66703730  0.66740286  1
  Sn  Sn27  1  0.83290308  0.50002585  0.49946972  1
  Sn  Sn28  1  0.83240631  0.50088840  0.16726248  1
  Sn  Sn29  1  0.16694847  0.50095358  0.49995787  1
  Sn  Sn30  1  0.50061728  0.50070320  0.16723239  1
  Sn  Sn31  1  0.83229943  0.83273817  0.16682378  1
  Sn  Sn32  1  0.16715216  0.83267809  0.50087151  1
  Sn  Sn33  1  0.50008340  0.50070840  0.49913357  1
  Sn  Sn34  1  0.16718058  0.16666032  0.16732080  1
  Sn  Sn35  1  0.50118195  0.83277321  0.16707089  1
  Sn  Sn36  1  0.49975228  0.83299459  0.49970479  1
  Sn  Sn37  1  0.50087777  0.16598319  0.83327826  1
  Sn  Sn38  1  0.83243494  0.16663882  0.83318316  1
  Sn  Sn39  1  0.16708743  0.83283695  0.83246733  1
  Sn  Sn40  1  0.49941914  0.83392879  0.83320594  1
  Pb  Pb41  1  0.16714003  0.16403933  0.83476461  1
  Pb  Pb42  1  0.83310554  0.17000547  0.50274611  1
  Pb  Pb43  1  0.83289087  0.83181649  0.49753776  1
  Pb  Pb44  1  0.16695152  0.83448504  0.16751006  1
  Pb  Pb45  1  0.49825005  0.16713042  0.16455700  1
  Pb  Pb46  1  0.16686594  0.16578501  0.49782371  1
  Pb  Pb47  1  0.16715193  0.49807683  0.16891327  1
  Pb  Pb48  1  0.50011571  0.16652243  0.50261807  1
  Pb  Pb49  1  0.83313477  0.83458257  0.83573704  1
  Pb  Pb50  1  0.16683899  0.50379618  0.83027169  1
  Pb  Pb51  1  0.83491785  0.16743002  0.16492536  1
  Pb  Pb52  1  0.49984119  0.50076732  0.83349065  1
  Pb  Pb53  1  0.83337298  0.49784682  0.83388059  1
  I  I54  1  0.16621100  0.00190777  0.16683009  1
  I  I55  1  0.17254151  -0.00382263  0.50290840  1
  I  I56  1  0.16854777  -0.00358089  0.82764268  1
  I  I57  1  0.16617206  0.33072291  0.16629004  1
  I  I58  1  0.16710407  0.33636663  0.49725433  1
  I  I59  1  0.16662816  0.33324464  0.83327810  1
  I  I60  1  0.16567724  0.66664799  0.16396090  1
  I  I61  1  0.16839598  0.66704264  0.50310639  1
  I  I62  1  0.17404905  0.67149005  0.83551477  1
  I  I63  1  0.50242345  -0.00329382  0.16903637  1
  I  I64  1  0.49398007  -0.00380139  0.49729068  1
  I  I65  1  0.49963842  -0.00178700  0.83400318  1
  I  I66  1  0.50328339  0.33656907  0.17086641  1
  I  I67  1  0.49968280  0.33699964  0.49613101  1
  I  I68  1  0.50449100  0.33107593  0.83374854  1
  I  I69  1  0.50286211  0.66741300  0.16500527  1
  I  I70  1  0.49883497  0.66698877  0.50142582  1
  I  I71  1  0.49562833  0.67029452  0.83341284  1
  I  I72  1  0.83046093  -0.00238110  0.16488738  1
  I  I73  1  0.83442049  -0.00016607  0.49827833  1
  I  I74  1  0.83193015  0.00236809  0.83635638  1
  I  I75  1  0.82975905  0.33675002  0.17024078  1
  I  I76  1  0.83269323  0.33839540  0.49196613  1
  I  I77  1  0.82675901  0.32998348  0.83491826  1
  I  I78  1  0.83058352  0.66613087  0.16882479  1
  I  I79  1  0.83363952  0.66349640  0.49961108  1
  I  I80  1  0.83346091  0.66669086  0.83235611  1
  I  I81  1  0.16639344  0.16548616  0.00230446  1
  I  I82  1  0.16577307  0.16409364  0.33039549  1
  I  I83  1  0.16630274  0.16928803  0.66670734  1
  I  I84  1  0.16584238  0.49887467  0.00020386  1
  I  I85  1  0.16695716  0.50733694  0.33680847  1
  I  I86  1  0.16768863  0.49794194  0.66193802  1
  I  I87  1  0.16991998  0.83790277  -0.00172523  1
  I  I88  1  0.17015357  0.83013275  0.33638384  1
  I  I89  1  0.17484296  0.83082323  0.66599887  1
  I  I90  1  0.50261510  0.16191154  -0.00315390  1
  I  I91  1  0.49828784  0.16427348  0.33317969  1
  I  I92  1  0.50217933  0.16304337  0.67060455  1
  I  I93  1  0.50598816  0.50272932  0.00321130  1
  I  I94  1  0.49985109  0.50741819  0.33362518  1
  I  I95  1  0.50070483  0.50274148  0.66330466  1
  I  I96  1  0.49930201  0.83362601  0.00027462  1
  I  I97  1  0.49803282  0.82778314  0.33339106  1
  I  I98  1  0.49474436  0.83327973  0.66631452  1
  I  I99  1  0.82976880  0.16741240  -0.00260357  1
  I  I100  1  0.83572176  0.16482519  0.33310436  1
  I  I101  1  0.83038605  0.16553640  0.67047800  1
  I  I102  1  0.82758677  0.50279794  0.00365613  1
  I  I103  1  0.83308108  0.50379256  0.33299123  1
  I  I104  1  0.83233719  0.49873971  0.66346776  1
  I  I105  1  0.83032956  0.82772548  0.00364671  1
  I  I106  1  0.83104524  0.83267784  0.32957966  1
  I  I107  1  0.83198514  0.83291375  0.66649393  1
  I  I108  1  0.00231736  0.16510094  0.16360046  1
  I  I109  1  0.00001248  0.16604446  0.50226149  1
  I  I110  1  -0.00166100  0.16683661  0.83572539  1
  I  I111  1  -0.00267926  0.50305307  0.17038545  1
  I  I112  1  0.00003617  0.50386349  0.49600144  1
  I  I113  1  0.00013850  0.49808487  0.83425647  1
  I  I114  1  -0.00211862  0.83091482  0.16571556  1
  I  I115  1  0.00252949  0.82943839  0.50355356  1
  I  I116  1  0.00240140  0.83539591  0.82965844  1
  I  I117  1  0.33100922  0.16561871  0.16427023  1
  I  I118  1  0.33348547  0.17243936  0.50184489  1
  I  I119  1  0.33592117  0.16443165  0.83490389  1
  I  I120  1  0.33654887  0.50391979  0.16985283  1
  I  I121  1  0.33425395  0.50443019  0.49580101  1
  I  I122  1  0.33344625  0.49276683  0.83564258  1
  I  I123  1  0.33659643  0.83053455  0.16587510  1
  I  I124  1  0.33429791  0.82587407  0.49891337  1
  I  I125  1  0.33492491  0.83947743  0.83458004  1
  I  I126  1  0.66647010  0.16636766  0.16603696  1
  I  I127  1  0.66657003  0.16567424  0.49735857  1
  I  I128  1  0.66555118  0.16064779  0.83470981  1
  I  I129  1  0.66620890  0.50316659  0.17452724  1
  I  I130  1  0.66574689  0.50372873  0.49661046  1
  I  I131  1  0.66650229  0.50320961  0.82794417  1
  I  I132  1  0.66518955  0.83009441  0.16565409  1
  I  I133  1  0.66329998  0.82888928  0.50392644  1
  I  I134  1  0.66340943  0.83543147  0.83080235  1
