# generated using pymatgen
data_Cs27Sn13Pb14I81
_symmetry_space_group_name_H-M   'P 1'
_cell_length_a   18.98049922
_cell_length_b   18.97475923
_cell_length_c   18.97359342
_cell_angle_alpha   90.00212977
_cell_angle_beta   89.99967647
_cell_angle_gamma   89.99996323
_symmetry_Int_Tables_number   1
_chemical_formula_structural   Cs27Sn13Pb14I81
_chemical_formula_sum   'Cs27 Sn13 Pb14 I81'
_cell_volume   6833.34730713
_cell_formula_units_Z   1
loop_
 _symmetry_equiv_pos_site_id
 _symmetry_equiv_pos_as_xyz
  1  'x, y, z'
loop_
 _atom_site_type_symbol
 _atom_site_label
 _atom_site_symmetry_multiplicity
 _atom_site_fract_x
 _atom_site_fract_y
 _atom_site_fract_z
 _atom_site_occupancy
  Cs  Cs0  1  -0.00026707  0.00095358  -0.00053643  1
  Cs  Cs1  1  0.00230114  0.00095413  0.33407454  1
  Cs  Cs2  1  -0.00145379  -0.00238615  0.66663852  1
  Cs  Cs3  1  0.00146860  0.33430215  0.00121751  1
  Cs  Cs4  1  -0.00347604  0.32911212  0.33742301  1
  Cs  Cs5  1  -0.00047843  0.34200726  0.66241645  1
  Cs  Cs6  1  -0.00164177  0.66439196  -0.00221696  1
  Cs  Cs7  1  -0.00015334  0.66714387  0.33325100  1
  Cs  Cs8  1  0.00375040  0.66174720  0.67155938  1
  Cs  Cs9  1  0.33338907  0.00060604  0.00010687  1
  Cs  Cs10  1  0.32595431  -0.00204680  0.33107345  1
  Cs  Cs11  1  0.33431516  0.00041104  0.66807821  1
  Cs  Cs12  1  0.33304146  0.33298332  -0.00017256  1
  Cs  Cs13  1  0.33168248  0.33167623  0.33586574  1
  Cs  Cs14  1  0.33866579  0.33741243  0.66216157  1
  Cs  Cs15  1  0.33446110  0.66630503  0.00109110  1
  Cs  Cs16  1  0.33495331  0.66894936  0.33343680  1
  Cs  Cs17  1  0.33065223  0.66564087  0.66559061  1
  Cs  Cs18  1  0.66691095  0.00000811  -0.00025081  1
  Cs  Cs19  1  0.66811508  -0.00313148  0.33127200  1
  Cs  Cs20  1  0.66700426  0.00140884  0.66815659  1
  Cs  Cs21  1  0.66566980  0.33182403  0.00110370  1
  Cs  Cs22  1  0.66939250  0.33598642  0.33883769  1
  Cs  Cs23  1  0.66186290  0.32923696  0.65419190  1
  Cs  Cs24  1  0.66733182  0.66706795  0.00089414  1
  Cs  Cs25  1  0.66566554  0.66713881  0.33136472  1
  Cs  Cs26  1  0.66789867  0.66828915  0.66834368  1
  Sn  Sn27  1  0.50077580  0.16772114  0.16659931  1
  Sn  Sn28  1  0.83280258  0.83330444  0.49947252  1
  Sn  Sn29  1  0.49920703  0.49865851  0.16580173  1
  Sn  Sn30  1  0.50064035  0.83365764  0.50120710  1
  Sn  Sn31  1  0.16527318  0.83233921  0.16531134  1
  Sn  Sn32  1  0.16564690  0.16648699  0.83330164  1
  Sn  Sn33  1  0.83461331  0.83404562  0.16708392  1
  Sn  Sn34  1  0.49932421  0.83260045  0.83263914  1
  Sn  Sn35  1  0.83238490  0.16588248  0.16560867  1
  Sn  Sn36  1  0.83434039  0.16713384  0.83382915  1
  Sn  Sn37  1  0.50060467  0.50057164  0.83420950  1
  Sn  Sn38  1  0.16744294  0.83416297  0.83449437  1
  Sn  Sn39  1  0.16731730  0.50062650  0.16657293  1
  Pb  Pb40  1  0.49997428  0.50274976  0.49940970  1
  Pb  Pb41  1  0.82975807  0.49601366  0.83345801  1
  Pb  Pb42  1  0.49993517  0.83336094  0.16620263  1
  Pb  Pb43  1  0.16633987  0.83334647  0.50046047  1
  Pb  Pb44  1  0.49978775  0.16322424  0.49605636  1
  Pb  Pb45  1  0.83324158  0.49973826  0.16651658  1
  Pb  Pb46  1  0.83326764  0.50372683  0.50006347  1
  Pb  Pb47  1  0.16869611  0.49982162  0.83516791  1
  Pb  Pb48  1  0.16659873  0.16647638  0.50432096  1
  Pb  Pb49  1  0.16686418  0.50018522  0.49619958  1
  Pb  Pb50  1  0.50000065  0.16671917  0.83469868  1
  Pb  Pb51  1  0.83350948  0.16425510  0.49995826  1
  Pb  Pb52  1  0.83345054  0.83442916  0.83363159  1
  Pb  Pb53  1  0.16626658  0.16678396  0.16538596  1
  I  I54  1  0.16713025  -0.00274738  0.16500680  1
  I  I55  1  0.16785773  -0.00052891  0.49354543  1
  I  I56  1  0.16948604  -0.00150271  0.84006543  1
  I  I57  1  0.16892448  0.33544628  0.16379704  1
  I  I58  1  0.16666098  0.33337896  0.49928806  1
  I  I59  1  0.16389733  0.33079931  0.83697770  1
  I  I60  1  0.16753514  0.66820115  0.16143545  1
  I  I61  1  0.16602217  0.66714503  0.50413028  1
  I  I62  1  0.16885945  0.66967570  0.83502630  1
  I  I63  1  0.50125253  0.00174703  0.16594947  1
  I  I64  1  0.50408899  -0.00450080  0.50610829  1
  I  I65  1  0.49891499  -0.00270891  0.83193220  1
  I  I66  1  0.49906453  0.33397100  0.15904744  1
  I  I67  1  0.49977448  0.33327912  0.50318731  1
  I  I68  1  0.49967847  0.33557090  0.83821701  1
  I  I69  1  0.49899994  0.66476278  0.16596657  1
  I  I70  1  0.50394697  0.67064336  0.49844089  1
  I  I71  1  0.49489848  0.66797908  0.83587896  1
  I  I72  1  0.83207946  -0.00049176  0.16659288  1
  I  I73  1  0.82880631  -0.00363052  0.49768680  1
  I  I74  1  0.83188086  0.00237880  0.83579627  1
  I  I75  1  0.83248833  0.33009371  0.16152074  1
  I  I76  1  0.83348213  0.33309558  0.49937552  1
  I  I77  1  0.83957614  0.32821801  0.84266403  1
  I  I78  1  0.83340217  0.66986151  0.17076873  1
  I  I79  1  0.82840199  0.67189408  0.49271622  1
  I  I80  1  0.83515043  0.66659051  0.83309628  1
  I  I81  1  0.16613241  0.16368798  -0.00246952  1
  I  I82  1  0.16705163  0.16614796  0.33296104  1
  I  I83  1  0.16194346  0.15791063  0.67255864  1
  I  I84  1  0.16957557  0.50248540  0.00315935  1
  I  I85  1  0.17371680  0.50690481  0.32781135  1
  I  I86  1  0.16776582  0.50045945  0.66703967  1
  I  I87  1  0.16768391  0.83368237  0.00020066  1
  I  I88  1  0.16725506  0.83002562  0.33010655  1
  I  I89  1  0.16789612  0.83797966  0.67015219  1
  I  I90  1  0.50146199  0.16472532  0.00277794  1
  I  I91  1  0.50605130  0.17190206  0.32799989  1
  I  I92  1  0.50025686  0.16916067  0.66666214  1
  I  I93  1  0.49635206  0.50313539  0.00082722  1
  I  I94  1  0.49652170  0.49785827  0.32973227  1
  I  I95  1  0.49999026  0.50157994  0.66953672  1
  I  I96  1  0.49903521  0.83294351  -0.00240464  1
  I  I97  1  0.50133822  0.83380520  0.33469128  1
  I  I98  1  0.50020890  0.82866178  0.66815645  1
  I  I99  1  0.83242556  0.15926446  0.00115139  1
  I  I100  1  0.82920296  0.16481916  0.32985512  1
  I  I101  1  0.83672834  0.16423507  0.66969710  1
  I  I102  1  0.83390143  0.50581276  0.00006340  1
  I  I103  1  0.83180180  0.49610736  0.33288607  1
  I  I104  1  0.83274838  0.50034933  0.66701404  1
  I  I105  1  0.83350955  0.83593692  0.00282411  1
  I  I106  1  0.83226010  0.83841854  0.33166540  1
  I  I107  1  0.83101762  0.83590223  0.66486591  1
  I  I108  1  -0.00270238  0.16477075  0.16424342  1
  I  I109  1  -0.00016976  0.16316927  0.49385090  1
  I  I110  1  0.00005342  0.15839221  0.84099890  1
  I  I111  1  0.00276246  0.50233195  0.16586436  1
  I  I112  1  0.00007840  0.50177072  0.49967103  1
  I  I113  1  0.00005645  0.50285921  0.83438055  1
  I  I114  1  0.00007987  0.83376865  0.16716905  1
  I  I115  1  -0.00282192  0.83518863  0.49725390  1
  I  I116  1  0.00258021  0.83622932  0.83448948  1
  I  I117  1  0.33531708  0.16626069  0.16423911  1
  I  I118  1  0.33353268  0.16371592  0.49870435  1
  I  I119  1  0.33130285  0.16373134  0.83691924  1
  I  I120  1  0.33414727  0.50106879  0.16213769  1
  I  I121  1  0.33370015  0.50291209  0.50198942  1
  I  I122  1  0.33659817  0.50017182  0.83668149  1
  I  I123  1  0.33120070  0.83344641  0.16605085  1
  I  I124  1  0.33592966  0.83255357  0.50011356  1
  I  I125  1  0.33327344  0.83588425  0.83437315  1
  I  I126  1  0.66741176  0.16445990  0.15988601  1
  I  I127  1  0.66656388  0.16710072  0.50511864  1
  I  I128  1  0.66880740  0.16505998  0.83735291  1
  I  I129  1  0.66351579  0.50027529  0.16310508  1
  I  I130  1  0.66630686  0.49854947  0.49791438  1
  I  I131  1  0.66191895  0.50781234  0.84171618  1
  I  I132  1  0.66866929  0.83451896  0.16724041  1
  I  I133  1  0.66657301  0.83365661  0.49877537  1
  I  I134  1  0.66414021  0.83180373  0.83338688  1
