# generated using pymatgen
data_Cs27Sn13Pb14I81
_symmetry_space_group_name_H-M   'P 1'
_cell_length_a   18.97763914
_cell_length_b   18.97927813
_cell_length_c   18.97281882
_cell_angle_alpha   89.99982470
_cell_angle_beta   89.99907855
_cell_angle_gamma   90.00026916
_symmetry_Int_Tables_number   1
_chemical_formula_structural   Cs27Sn13Pb14I81
_chemical_formula_sum   'Cs27 Sn13 Pb14 I81'
_cell_volume   6833.66577168
_cell_formula_units_Z   1
loop_
 _symmetry_equiv_pos_site_id
 _symmetry_equiv_pos_as_xyz
  1  'x, y, z'
loop_
 _atom_site_type_symbol
 _atom_site_label
 _atom_site_symmetry_multiplicity
 _atom_site_fract_x
 _atom_site_fract_y
 _atom_site_fract_z
 _atom_site_occupancy
  Cs  Cs0  1  -0.00047478  0.00098481  -0.00000472  1
  Cs  Cs1  1  0.00028626  -0.00029498  0.33318705  1
  Cs  Cs2  1  0.00072045  -0.00041361  0.66721217  1
  Cs  Cs3  1  0.00272972  0.33021695  0.00213462  1
  Cs  Cs4  1  -0.00244061  0.33136593  0.33064081  1
  Cs  Cs5  1  0.00101994  0.33974642  0.66582451  1
  Cs  Cs6  1  -0.00355492  0.66802713  0.00218085  1
  Cs  Cs7  1  0.00238026  0.66797013  0.33230278  1
  Cs  Cs8  1  -0.00143229  0.66115818  0.66502385  1
  Cs  Cs9  1  0.33383086  -0.00000534  -0.00144292  1
  Cs  Cs10  1  0.33361156  -0.00101106  0.33333351  1
  Cs  Cs11  1  0.33304452  -0.00160623  0.66933744  1
  Cs  Cs12  1  0.33245466  0.33462055  -0.00325732  1
  Cs  Cs13  1  0.34099762  0.33142406  0.33441565  1
  Cs  Cs14  1  0.33160004  0.34188779  0.67028464  1
  Cs  Cs15  1  0.33736842  0.66735564  0.00133674  1
  Cs  Cs16  1  0.33217692  0.66712930  0.33493160  1
  Cs  Cs17  1  0.33147564  0.66412150  0.66284635  1
  Cs  Cs18  1  0.66665964  -0.00093285  -0.00120273  1
  Cs  Cs19  1  0.66494739  0.00101270  0.33502416  1
  Cs  Cs20  1  0.66629953  -0.00068868  0.66728497  1
  Cs  Cs21  1  0.66457120  0.33323498  0.00042515  1
  Cs  Cs22  1  0.66193404  0.33085535  0.34207647  1
  Cs  Cs23  1  0.66658020  0.33770811  0.65705946  1
  Cs  Cs24  1  0.66687218  0.66588118  -0.00181053  1
  Cs  Cs25  1  0.66446226  0.66864044  0.33115462  1
  Cs  Cs26  1  0.66925263  0.66413157  0.67099750  1
  Sn  Sn27  1  0.83275466  0.83367323  0.49938640  1
  Sn  Sn28  1  0.16632699  0.16660063  0.16779721  1
  Sn  Sn29  1  0.83342695  0.16677940  0.16610400  1
  Sn  Sn30  1  0.83239986  0.16666908  0.83346396  1
  Sn  Sn31  1  0.16623248  0.49986644  0.16667483  1
  Sn  Sn32  1  0.16702042  0.83332321  0.83398116  1
  Sn  Sn33  1  0.50101179  0.83389324  0.50113766  1
  Sn  Sn34  1  0.83394310  0.83362806  0.16751527  1
  Sn  Sn35  1  0.16602181  0.83344439  0.16562396  1
  Sn  Sn36  1  0.50123960  0.16621716  0.83317644  1
  Sn  Sn37  1  0.49913274  0.83410618  0.83229834  1
  Sn  Sn38  1  0.16660968  0.16660199  0.49958630  1
  Sn  Sn39  1  0.83364813  0.49953047  0.16671310  1
  Pb  Pb40  1  0.16640841  0.50369884  0.83620841  1
  Pb  Pb41  1  0.83345460  0.83462029  0.83351188  1
  Pb  Pb42  1  0.49721455  0.16460826  0.50317398  1
  Pb  Pb43  1  0.49999552  0.50350072  0.49994820  1
  Pb  Pb44  1  0.50014278  0.83350175  0.16634081  1
  Pb  Pb45  1  0.16649799  0.49662254  0.49670746  1
  Pb  Pb46  1  0.16645768  0.16533917  0.83354037  1
  Pb  Pb47  1  0.16643955  0.83448404  0.49990455  1
  Pb  Pb48  1  0.50019928  0.50028622  0.83340244  1
  Pb  Pb49  1  0.83494820  0.16481393  0.49993249  1
  Pb  Pb50  1  0.50025310  0.49979324  0.16672228  1
  Pb  Pb51  1  0.83350890  0.50314023  0.49683804  1
  Pb  Pb52  1  0.83335408  0.49619234  0.83593717  1
  Pb  Pb53  1  0.50008070  0.16655093  0.16463630  1
  I  I54  1  0.16090025  -0.00024807  0.16642433  1
  I  I55  1  0.16605993  0.00205040  0.49338048  1
  I  I56  1  0.16800561  -0.00265347  0.83938925  1
  I  I57  1  0.15969366  0.33237149  0.17076788  1
  I  I58  1  0.16558464  0.32873649  0.49709553  1
  I  I59  1  0.16786122  0.33331484  0.83336447  1
  I  I60  1  0.16080918  0.66788380  0.16169124  1
  I  I61  1  0.16767549  0.66672908  0.49986970  1
  I  I62  1  0.17241257  0.67194452  0.83683709  1
  I  I63  1  0.49931431  -0.00016428  0.16771682  1
  I  I64  1  0.50330719  -0.00331323  0.50099765  1
  I  I65  1  0.49954181  -0.00101384  0.83108211  1
  I  I66  1  0.49904724  0.33304531  0.16380555  1
  I  I67  1  0.49913259  0.33297153  0.50044413  1
  I  I68  1  0.50273761  0.33005230  0.83662162  1
  I  I69  1  0.49989242  0.66702819  0.16504819  1
  I  I70  1  0.50201647  0.67183173  0.50556153  1
  I  I71  1  0.49575505  0.67060094  0.83035858  1
  I  I72  1  0.83962961  -0.00009951  0.16618845  1
  I  I73  1  0.83102208  -0.00313838  0.49355780  1
  I  I74  1  0.83287582  0.00239448  0.83998032  1
  I  I75  1  0.84123347  0.33230654  0.15986919  1
  I  I76  1  0.83452769  0.33319780  0.50014925  1
  I  I77  1  0.82915092  0.32800150  0.83851926  1
  I  I78  1  0.83950427  0.66781097  0.17130363  1
  I  I79  1  0.83106836  0.67147512  0.49660046  1
  I  I80  1  0.83279702  0.66674640  0.83394377  1
  I  I81  1  0.16527961  0.16741302  0.00324579  1
  I  I82  1  0.16059431  0.16345057  0.33084151  1
  I  I83  1  0.16668051  0.16050049  0.66504727  1
  I  I84  1  0.16253750  0.49383623  0.00442405  1
  I  I85  1  0.16179280  0.50775056  0.32855098  1
  I  I86  1  0.16800616  0.49940816  0.66658150  1
  I  I87  1  0.16664373  0.83607436  0.00152686  1
  I  I88  1  0.16576501  0.83213687  0.33004072  1
  I  I89  1  0.16765105  0.83870801  0.66883438  1
  I  I90  1  0.49929565  0.15876201  -0.00323903  1
  I  I91  1  0.50151683  0.16572285  0.33375971  1
  I  I92  1  0.50502356  0.16223680  0.67086362  1
  I  I93  1  0.49959836  0.50333778  0.00004935  1
  I  I94  1  0.49957212  0.50126800  0.33327559  1
  I  I95  1  0.49952093  0.49746508  0.66672978  1
  I  I96  1  0.49835223  0.83687777  -0.00294629  1
  I  I97  1  0.50078660  0.83267308  0.33561141  1
  I  I98  1  0.49935091  0.83880869  0.66746606  1
  I  I99  1  0.83591095  0.16346938  0.00167348  1
  I  I100  1  0.83703267  0.16746011  0.32983941  1
  I  I101  1  0.83179375  0.16127761  0.66913172  1
  I  I102  1  0.83755800  0.50709705  0.00437427  1
  I  I103  1  0.83855027  0.49517076  0.32855629  1
  I  I104  1  0.83233618  0.50057740  0.66648373  1
  I  I105  1  0.83468581  0.83226398  0.00320183  1
  I  I106  1  0.83391066  0.83521242  0.33157098  1
  I  I107  1  0.83303197  0.83759050  0.66469774  1
  I  I108  1  -0.00012538  0.16572950  0.16417084  1
  I  I109  1  0.00268047  0.16180305  0.49931423  1
  I  I110  1  -0.00227421  0.16341861  0.83635920  1
  I  I111  1  0.00003970  0.50076501  0.16617290  1
  I  I112  1  0.00005223  0.50353368  0.50316773  1
  I  I113  1  -0.00004215  0.50061368  0.83098020  1
  I  I114  1  0.00008124  0.83374764  0.16651550  1
  I  I115  1  -0.00233469  0.83568986  0.49785050  1
  I  I116  1  0.00226917  0.83646938  0.83557766  1
  I  I117  1  0.32979522  0.16552248  0.16902616  1
  I  I118  1  0.32980236  0.16271135  0.49244327  1
  I  I119  1  0.33529437  0.16226990  0.83382773  1
  I  I120  1  0.32971044  0.50104403  0.16621615  1
  I  I121  1  0.33306089  0.50207499  0.49712718  1
  I  I122  1  0.33314800  0.49520291  0.83696781  1
  I  I123  1  0.33004986  0.83366485  0.16596176  1
  I  I124  1  0.33530643  0.83568421  0.50097009  1
  I  I125  1  0.33353318  0.84005661  0.83432909  1
  I  I126  1  0.67024108  0.16522767  0.16371262  1
  I  I127  1  0.66652676  0.16655959  0.49748277  1
  I  I128  1  0.66704014  0.15878058  0.84072770  1
  I  I129  1  0.67045940  0.50206957  0.16533110  1
  I  I130  1  0.66689076  0.49650686  0.49646039  1
  I  I131  1  0.66688163  0.50550095  0.83800655  1
  I  I132  1  0.67008215  0.83347678  0.16736347  1
  I  I133  1  0.66702991  0.83516793  0.49874669  1
  I  I134  1  0.66436957  0.83629022  0.83287000  1
