# generated using pymatgen
data_Cs27Sn14Pb13I81
_symmetry_space_group_name_H-M   'P 1'
_cell_length_a   18.97247662
_cell_length_b   18.97718743
_cell_length_c   18.97649725
_cell_angle_alpha   90.00007178
_cell_angle_beta   90.00188739
_cell_angle_gamma   90.00283084
_symmetry_Int_Tables_number   1
_chemical_formula_structural   Cs27Sn14Pb13I81
_chemical_formula_sum   'Cs27 Sn14 Pb13 I81'
_cell_volume   6832.37861136
_cell_formula_units_Z   1
loop_
 _symmetry_equiv_pos_site_id
 _symmetry_equiv_pos_as_xyz
  1  'x, y, z'
loop_
 _atom_site_type_symbol
 _atom_site_label
 _atom_site_symmetry_multiplicity
 _atom_site_fract_x
 _atom_site_fract_y
 _atom_site_fract_z
 _atom_site_occupancy
  Cs  Cs0  1  0.00208813  -0.00170338  -0.00231196  1
  Cs  Cs1  1  0.00196414  0.00489669  0.33437079  1
  Cs  Cs2  1  0.00014322  0.00049320  0.66638669  1
  Cs  Cs3  1  0.00370845  0.33487854  -0.00024142  1
  Cs  Cs4  1  -0.00280710  0.32985772  0.33249091  1
  Cs  Cs5  1  -0.00129940  0.33134764  0.66737266  1
  Cs  Cs6  1  0.00179528  0.66733518  0.00072700  1
  Cs  Cs7  1  -0.00173733  0.66601853  0.33002669  1
  Cs  Cs8  1  -0.00325069  0.66779221  0.66917867  1
  Cs  Cs9  1  0.33509738  0.00199804  -0.00022164  1
  Cs  Cs10  1  0.32992108  -0.00480168  0.33463535  1
  Cs  Cs11  1  0.33371121  -0.00428203  0.66577387  1
  Cs  Cs12  1  0.33096878  0.33207675  0.00040737  1
  Cs  Cs13  1  0.33494966  0.33572056  0.33624685  1
  Cs  Cs14  1  0.33579169  0.33639254  0.66560211  1
  Cs  Cs15  1  0.32844396  0.66551676  -0.00019011  1
  Cs  Cs16  1  0.33495232  0.66669438  0.33774031  1
  Cs  Cs17  1  0.33517423  0.66594865  0.66357102  1
  Cs  Cs18  1  0.65846817  0.00102989  0.00546740  1
  Cs  Cs19  1  0.66677978  0.00209792  0.32168374  1
  Cs  Cs20  1  0.66759974  -0.00194693  0.67040599  1
  Cs  Cs21  1  0.66478423  0.33093243  0.00077919  1
  Cs  Cs22  1  0.66661358  0.33245346  0.33452459  1
  Cs  Cs23  1  0.66602204  0.33567162  0.66618788  1
  Cs  Cs24  1  0.66924617  0.66905166  0.00115542  1
  Cs  Cs25  1  0.66692097  0.66706885  0.33253803  1
  Cs  Cs26  1  0.66858365  0.66459541  0.66708683  1
  Sn  Sn27  1  0.83305171  0.83314290  0.50024890  1
  Sn  Sn28  1  0.83358957  0.16651756  0.83340887  1
  Sn  Sn29  1  0.16567216  0.49983390  0.50018020  1
  Sn  Sn30  1  0.16620741  0.83411083  0.83367021  1
  Sn  Sn31  1  0.83252305  0.49978413  0.83296216  1
  Sn  Sn32  1  0.16629606  0.16593707  0.83350304  1
  Sn  Sn33  1  0.50050906  0.49928965  0.50007414  1
  Sn  Sn34  1  0.50009642  0.50015505  0.16639919  1
  Sn  Sn35  1  0.83387724  0.83368200  0.83284826  1
  Sn  Sn36  1  0.50021557  0.16629037  0.50037215  1
  Sn  Sn37  1  0.83370465  0.50063417  0.50063333  1
  Sn  Sn38  1  0.16641894  0.83396286  0.16609240  1
  Sn  Sn39  1  0.16674100  0.16615750  0.16624605  1
  Sn  Sn40  1  0.50086456  0.50016196  0.83381333  1
  Pb  Pb41  1  0.83582236  0.16672362  0.16324876  1
  Pb  Pb42  1  0.16837191  0.49990332  0.16928438  1
  Pb  Pb43  1  0.83109160  0.16636853  0.50197033  1
  Pb  Pb44  1  0.16622688  0.50008543  0.83156277  1
  Pb  Pb45  1  0.49998702  0.83068404  0.83332083  1
  Pb  Pb46  1  0.50344875  0.83339483  0.50001211  1
  Pb  Pb47  1  0.49956455  0.16869865  0.83169070  1
  Pb  Pb48  1  0.16839820  0.16856425  0.50079935  1
  Pb  Pb49  1  0.16421887  0.83117700  0.50057883  1
  Pb  Pb50  1  0.83562580  0.83340123  0.16622004  1
  Pb  Pb51  1  0.83112376  0.49985910  0.16649971  1
  Pb  Pb52  1  0.49686857  0.83084690  0.16658078  1
  Pb  Pb53  1  0.49718598  0.16867501  0.16910363  1
  I  I54  1  0.16652666  -0.00000748  0.16307471  1
  I  I55  1  0.16794823  -0.00008925  0.49908947  1
  I  I56  1  0.15871317  -0.00004811  0.83640734  1
  I  I57  1  0.16826896  0.33092861  0.16184341  1
  I  I58  1  0.16349912  0.33671427  0.50034709  1
  I  I59  1  0.16390738  0.33107479  0.83646192  1
  I  I60  1  0.16763867  0.66902167  0.16210385  1
  I  I61  1  0.17273272  0.66319922  0.50019497  1
  I  I62  1  0.16388883  0.66901026  0.83679289  1
  I  I63  1  0.50161528  0.00021371  0.16871846  1
  I  I64  1  0.49886010  0.00253947  0.50155337  1
  I  I65  1  0.50256647  0.00012829  0.83106737  1
  I  I66  1  0.49725522  0.33669482  0.16528322  1
  I  I67  1  0.50118785  0.33611770  0.50029322  1
  I  I68  1  0.50317422  0.33710267  0.83330368  1
  I  I69  1  0.49832235  0.66269338  0.17047430  1
  I  I70  1  0.49758101  0.66295492  0.50031619  1
  I  I71  1  0.50276141  0.66218269  0.82882390  1
  I  I72  1  0.83000047  0.00004214  0.17003766  1
  I  I73  1  0.83320186  -0.00257501  0.50568718  1
  I  I74  1  0.84005675  -0.00063363  0.82741237  1
  I  I75  1  0.83671318  0.33334849  0.16729010  1
  I  I76  1  0.83406052  0.33655551  0.50438507  1
  I  I77  1  0.83389567  0.33403716  0.82898624  1
  I  I78  1  0.83610309  0.66654999  0.16300167  1
  I  I79  1  0.83206062  0.66500584  0.50812370  1
  I  I80  1  0.83336398  0.66643635  0.82878658  1
  I  I81  1  0.16320418  0.16443649  -0.00121149  1
  I  I82  1  0.16992037  0.16378322  0.33126897  1
  I  I83  1  0.16321843  0.16366358  0.66991104  1
  I  I84  1  0.16808262  0.50008017  -0.00013502  1
  I  I85  1  0.16724643  0.50019621  0.33713444  1
  I  I86  1  0.17172094  0.49962903  0.66380321  1
  I  I87  1  0.16108243  0.83477909  -0.00136548  1
  I  I88  1  0.16637983  0.83603127  0.33122306  1
  I  I89  1  0.16441651  0.83688097  0.66974898  1
  I  I90  1  0.50180451  0.16957515  -0.00005940  1
  I  I91  1  0.49994615  0.17452854  0.33675077  1
  I  I92  1  0.49804047  0.17537171  0.66410654  1
  I  I93  1  0.50386951  0.50098044  -0.00097260  1
  I  I94  1  0.49841636  0.49635916  0.33491225  1
  I  I95  1  0.50061451  0.49618798  0.66591866  1
  I  I96  1  0.50517977  0.83075826  -0.00015417  1
  I  I97  1  0.49948151  0.83044329  0.33347365  1
  I  I98  1  0.49349407  0.83133969  0.66665129  1
  I  I99  1  0.83305487  0.16768822  -0.00521367  1
  I  I100  1  0.83379799  0.16748687  0.33344675  1
  I  I101  1  0.84024639  0.16762939  0.67015645  1
  I  I102  1  0.82941532  0.50123246  -0.00384941  1
  I  I103  1  0.83293849  0.50505943  0.33685342  1
  I  I104  1  0.82899626  0.50089426  0.66691441  1
  I  I105  1  0.83595273  0.83061769  -0.00384617  1
  I  I106  1  0.83344269  0.82559191  0.33612438  1
  I  I107  1  0.83907801  0.83113220  0.66813347  1
  I  I108  1  0.00394742  0.16472861  0.16812665  1
  I  I109  1  -0.00011765  0.16912549  0.49776124  1
  I  I110  1  0.00008785  0.16915438  0.83579145  1
  I  I111  1  0.00028990  0.50009519  0.16746994  1
  I  I112  1  -0.00139555  0.50421715  0.50554558  1
  I  I113  1  -0.00295018  0.49992122  0.82795329  1
  I  I114  1  0.00359203  0.83473670  0.16494923  1
  I  I115  1  -0.00346983  0.82694486  0.50232548  1
  I  I116  1  -0.00036842  0.83091643  0.83330346  1
  I  I117  1  0.32956502  0.16391598  0.15879677  1
  I  I118  1  0.33606547  0.17557510  0.50158234  1
  I  I119  1  0.33021635  0.16409315  0.83605545  1
  I  I120  1  0.33630645  0.50009763  0.16653725  1
  I  I121  1  0.33449649  0.49570000  0.50036478  1
  I  I122  1  0.33551030  0.49959162  0.83100191  1
  I  I123  1  0.32893927  0.83690096  0.16069617  1
  I  I124  1  0.33320643  0.83097578  0.49982149  1
  I  I125  1  0.32998146  0.83674234  0.83759876  1
  I  I126  1  0.66632401  0.16759180  0.16628807  1
  I  I127  1  0.66364756  0.17485274  0.50258740  1
  I  I128  1  0.66936606  0.16545698  0.82931919  1
  I  I129  1  0.66310332  0.49942814  0.17109520  1
  I  I130  1  0.66671531  0.50001172  0.50148191  1
  I  I131  1  0.66762232  0.49981947  0.82804800  1
  I  I132  1  0.66668794  0.83212005  0.16669483  1
  I  I133  1  0.67113580  0.82622089  0.50864534  1
  I  I134  1  0.67021477  0.83433400  0.82785587  1
