# generated using pymatgen
data_Cs27Sn14Pb13I81
_symmetry_space_group_name_H-M   'P 1'
_cell_length_a   18.98416166
_cell_length_b   18.99091174
_cell_length_c   18.99419987
_cell_angle_alpha   90.00013186
_cell_angle_beta   89.99845462
_cell_angle_gamma   90.00353161
_symmetry_Int_Tables_number   1
_chemical_formula_structural   Cs27Sn14Pb13I81
_chemical_formula_sum   'Cs27 Sn14 Pb13 I81'
_cell_volume   6847.91311757
_cell_formula_units_Z   1
loop_
 _symmetry_equiv_pos_site_id
 _symmetry_equiv_pos_as_xyz
  1  'x, y, z'
loop_
 _atom_site_type_symbol
 _atom_site_label
 _atom_site_symmetry_multiplicity
 _atom_site_fract_x
 _atom_site_fract_y
 _atom_site_fract_z
 _atom_site_occupancy
  Cs  Cs0  1  0.00208875  -0.00024120  -0.00043009  1
  Cs  Cs1  1  0.00135608  0.00299354  0.33163715  1
  Cs  Cs2  1  -0.00084246  -0.00007836  0.66973245  1
  Cs  Cs3  1  0.00037604  0.33175623  0.00222641  1
  Cs  Cs4  1  0.00039608  0.33281324  0.33473632  1
  Cs  Cs5  1  0.00176663  0.33208422  0.66070202  1
  Cs  Cs6  1  -0.00036697  0.67017128  0.00098223  1
  Cs  Cs7  1  -0.00150618  0.66235965  0.33331096  1
  Cs  Cs8  1  -0.00813475  0.66967747  0.66310206  1
  Cs  Cs9  1  0.33089268  -0.00396044  0.00279988  1
  Cs  Cs10  1  0.33427645  0.00064153  0.33253380  1
  Cs  Cs11  1  0.33298127  -0.00186470  0.66144345  1
  Cs  Cs12  1  0.33377993  0.33455540  -0.00024407  1
  Cs  Cs13  1  0.33244721  0.33400979  0.33342015  1
  Cs  Cs14  1  0.33352618  0.33609916  0.66791604  1
  Cs  Cs15  1  0.33347069  0.66806691  0.00052710  1
  Cs  Cs16  1  0.33353235  0.66571756  0.33270231  1
  Cs  Cs17  1  0.33323923  0.66465918  0.66771188  1
  Cs  Cs18  1  0.66683839  0.00286597  0.00068429  1
  Cs  Cs19  1  0.66444136  -0.00035732  0.33598093  1
  Cs  Cs20  1  0.66953466  -0.00056725  0.66200567  1
  Cs  Cs21  1  0.66519708  0.33552280  -0.01148573  1
  Cs  Cs22  1  0.66677773  0.33244035  0.33153690  1
  Cs  Cs23  1  0.66331807  0.33235850  0.68464784  1
  Cs  Cs24  1  0.66330061  0.66165512  0.00101657  1
  Cs  Cs25  1  0.66813971  0.66791668  0.33439392  1
  Cs  Cs26  1  0.67378952  0.66817511  0.66572958  1
  Sn  Sn27  1  0.83323656  0.83419092  0.16669081  1
  Sn  Sn28  1  0.50022568  0.83264224  0.16592467  1
  Sn  Sn29  1  0.83384213  0.16608879  0.16753993  1
  Sn  Sn30  1  0.16672423  0.83361579  0.49894703  1
  Sn  Sn31  1  0.16619600  0.49989351  0.83417529  1
  Sn  Sn32  1  0.49997696  0.83369392  0.83378616  1
  Sn  Sn33  1  0.50049639  0.49964474  0.49916285  1
  Sn  Sn34  1  0.16632154  0.16683602  0.16677063  1
  Sn  Sn35  1  0.16706268  0.16736634  0.83345171  1
  Sn  Sn36  1  0.49924120  0.50040033  0.16797299  1
  Sn  Sn37  1  0.83364409  0.16732049  0.49900525  1
  Sn  Sn38  1  0.16737132  0.50000681  0.16578774  1
  Sn  Sn39  1  0.16651287  0.83311666  0.16785832  1
  Sn  Sn40  1  0.16635916  0.16564890  0.49973872  1
  Pb  Pb41  1  0.16751125  0.50004814  0.49976414  1
  Pb  Pb42  1  0.49665455  0.16326825  0.83343350  1
  Pb  Pb43  1  0.82975162  0.49632123  0.49982164  1
  Pb  Pb44  1  0.49804687  0.83152854  0.49938405  1
  Pb  Pb45  1  0.49783531  0.50229933  0.83386751  1
  Pb  Pb46  1  0.83614005  0.16650741  0.83377979  1
  Pb  Pb47  1  0.50032880  0.16695165  0.16659137  1
  Pb  Pb48  1  0.83615054  0.83554134  0.49709080  1
  Pb  Pb49  1  0.16771847  0.83314434  0.83314653  1
  Pb  Pb50  1  0.83321322  0.49932823  0.16659208  1
  Pb  Pb51  1  0.83021030  0.83356059  0.83654198  1
  Pb  Pb52  1  0.83740282  0.50017321  0.83355870  1
  Pb  Pb53  1  0.50013124  0.16932094  0.49997862  1
  I  I54  1  0.16692719  -0.00006939  0.16655675  1
  I  I55  1  0.16513176  0.00082413  0.49719841  1
  I  I56  1  0.16804034  0.00250731  0.83594386  1
  I  I57  1  0.16673621  0.33290466  0.16631042  1
  I  I58  1  0.16414385  0.33042847  0.49774216  1
  I  I59  1  0.16770821  0.33288356  0.83694453  1
  I  I60  1  0.16764975  0.66716074  0.16632801  1
  I  I61  1  0.17065242  0.66898441  0.49647879  1
  I  I62  1  0.17072578  0.66437307  0.83767210  1
  I  I63  1  0.49634323  -0.00306402  0.16263725  1
  I  I64  1  0.50044151  0.00005881  0.50034426  1
  I  I65  1  0.49702430  -0.00404043  0.84207430  1
  I  I66  1  0.49504561  0.33634443  0.17141979  1
  I  I67  1  0.49587856  0.33688495  0.49171481  1
  I  I68  1  0.50197478  0.33349254  0.83343977  1
  I  I69  1  0.49549423  0.66717766  0.16613296  1
  I  I70  1  0.49452921  0.66391041  0.49754821  1
  I  I71  1  0.49447614  0.66950486  0.83689863  1
  I  I72  1  0.83729038  0.00020219  0.16972638  1
  I  I73  1  0.83432953  0.00337494  0.49816990  1
  I  I74  1  0.83569484  0.00003288  0.83175885  1
  I  I75  1  0.83876842  0.32996643  0.17145235  1
  I  I76  1  0.84473902  0.32881318  0.49015995  1
  I  I77  1  0.82766210  0.33303784  0.83654809  1
  I  I78  1  0.83659862  0.66939235  0.16547988  1
  I  I79  1  0.83502829  0.66660183  0.50000029  1
  I  I80  1  0.83664182  0.66705471  0.83388464  1
  I  I81  1  0.16330605  0.16664575  0.00154990  1
  I  I82  1  0.16287272  0.16618988  0.33247093  1
  I  I83  1  0.16348490  0.16662918  0.66596702  1
  I  I84  1  0.17296882  0.49672753  0.00204396  1
  I  I85  1  0.16906137  0.49834945  0.33010935  1
  I  I86  1  0.17050029  0.49608063  0.66858803  1
  I  I87  1  0.16549516  0.83582479  0.00344810  1
  I  I88  1  0.16957737  0.83653277  0.33131259  1
  I  I89  1  0.17089190  0.83676020  0.66429346  1
  I  I90  1  0.50128840  0.17183853  0.00018529  1
  I  I91  1  0.49492351  0.16280564  0.33313152  1
  I  I92  1  0.49973835  0.16769338  0.66670364  1
  I  I93  1  0.49778921  0.50251014  0.00317160  1
  I  I94  1  0.49206835  0.50557977  0.33115180  1
  I  I95  1  0.49651379  0.49981438  0.66500300  1
  I  I96  1  0.49638518  0.82757872  0.00280477  1
  I  I97  1  0.50059138  0.83123227  0.32970500  1
  I  I98  1  0.49409971  0.83204865  0.66833736  1
  I  I99  1  0.83790061  0.16242774  0.00350828  1
  I  I100  1  0.84343424  0.16283870  0.33217949  1
  I  I101  1  0.83823215  0.16799348  0.66386113  1
  I  I102  1  0.82712005  0.49706315  0.00046930  1
  I  I103  1  0.83857297  0.50195563  0.33314544  1
  I  I104  1  0.83248145  0.49891192  0.66643117  1
  I  I105  1  0.84143693  0.84018555  0.00486040  1
  I  I106  1  0.82767748  0.83483681  0.32924131  1
  I  I107  1  0.83315412  0.83407469  0.66633632  1
  I  I108  1  0.00188659  0.16365524  0.16654812  1
  I  I109  1  0.00203909  0.16342760  0.49891766  1
  I  I110  1  0.00432105  0.16890746  0.83428539  1
  I  I111  1  0.00347317  0.50259303  0.16235291  1
  I  I112  1  -0.00007266  0.50223183  0.50089271  1
  I  I113  1  0.00550769  0.49666994  0.84090127  1
  I  I114  1  0.00148366  0.83369527  0.17117446  1
  I  I115  1  0.00430807  0.83263905  0.49657350  1
  I  I116  1  0.00010727  0.83303110  0.83328167  1
  I  I117  1  0.32982087  0.16424930  0.16755565  1
  I  I118  1  0.32969631  0.16348839  0.49826192  1
  I  I119  1  0.32858268  0.17164875  0.83454873  1
  I  I120  1  0.33208262  0.50294013  0.16650597  1
  I  I121  1  0.33514249  0.49840752  0.49771715  1
  I  I122  1  0.33014469  0.49541515  0.83529349  1
  I  I123  1  0.33238081  0.83330201  0.16599089  1
  I  I124  1  0.33005703  0.84051833  0.49407783  1
  I  I125  1  0.33525547  0.83338859  0.84111549  1
  I  I126  1  0.66983676  0.16220473  0.17348102  1
  I  I127  1  0.66982833  0.16722305  0.49190384  1
  I  I128  1  0.66672046  0.16693378  0.83302834  1
  I  I129  1  0.66352629  0.50443559  0.17171780  1
  I  I130  1  0.66217416  0.50225915  0.49044616  1
  I  I131  1  0.66627460  0.50014744  0.83352672  1
  I  I132  1  0.66615177  0.83331995  0.16107389  1
  I  I133  1  0.66683635  0.83413290  0.50048002  1
  I  I134  1  0.66226968  0.83133377  0.83808899  1
