# generated using pymatgen
data_Cs27Sn14Pb13I81
_symmetry_space_group_name_H-M   'P 1'
_cell_length_a   18.97768211
_cell_length_b   18.97481517
_cell_length_c   18.97796748
_cell_angle_alpha   89.99820434
_cell_angle_beta   90.00106154
_cell_angle_gamma   90.00063487
_symmetry_Int_Tables_number   1
_chemical_formula_structural   Cs27Sn14Pb13I81
_chemical_formula_sum   'Cs27 Sn14 Pb13 I81'
_cell_volume   6833.92832756
_cell_formula_units_Z   1
loop_
 _symmetry_equiv_pos_site_id
 _symmetry_equiv_pos_as_xyz
  1  'x, y, z'
loop_
 _atom_site_type_symbol
 _atom_site_label
 _atom_site_symmetry_multiplicity
 _atom_site_fract_x
 _atom_site_fract_y
 _atom_site_fract_z
 _atom_site_occupancy
  Cs  Cs0  1  0.00167804  -0.00069174  -0.00191470  1
  Cs  Cs1  1  -0.00000102  -0.00113190  0.33421318  1
  Cs  Cs2  1  -0.00055573  0.00133444  0.66812049  1
  Cs  Cs3  1  0.00155958  0.33793583  -0.00130831  1
  Cs  Cs4  1  0.00219941  0.33452000  0.33456020  1
  Cs  Cs5  1  -0.00084242  0.33205700  0.66777033  1
  Cs  Cs6  1  -0.00013546  0.66228674  0.00357433  1
  Cs  Cs7  1  -0.00068682  0.66556419  0.32835640  1
  Cs  Cs8  1  0.00074485  0.66741612  0.66822685  1
  Cs  Cs9  1  0.33194542  0.00038588  0.00061464  1
  Cs  Cs10  1  0.33027161  -0.00110784  0.33143373  1
  Cs  Cs11  1  0.33075332  -0.00333410  0.66693076  1
  Cs  Cs12  1  0.33119840  0.33270540  0.00225077  1
  Cs  Cs13  1  0.33237312  0.33560465  0.33293096  1
  Cs  Cs14  1  0.33196160  0.33925192  0.66403387  1
  Cs  Cs15  1  0.33343788  0.66706600  -0.00144561  1
  Cs  Cs16  1  0.33394092  0.66557098  0.33898636  1
  Cs  Cs17  1  0.34466059  0.66134537  0.65905499  1
  Cs  Cs18  1  0.66584916  0.00112754  0.00009306  1
  Cs  Cs19  1  0.66850706  0.00253355  0.33144681  1
  Cs  Cs20  1  0.66833172  0.00043737  0.66747802  1
  Cs  Cs21  1  0.66612223  0.33100692  -0.00063997  1
  Cs  Cs22  1  0.66537460  0.32957924  0.33484465  1
  Cs  Cs23  1  0.66879268  0.33250579  0.66568516  1
  Cs  Cs24  1  0.66715625  0.66433993  0.00066841  1
  Cs  Cs25  1  0.66821630  0.66638564  0.33177743  1
  Cs  Cs26  1  0.65889299  0.66560136  0.66690555  1
  Sn  Sn27  1  0.50014583  0.50125532  0.16632135  1
  Sn  Sn28  1  0.16626033  0.83363244  0.83373775  1
  Sn  Sn29  1  0.16676344  0.16598192  0.83409640  1
  Sn  Sn30  1  0.50011776  0.16583347  0.50111903  1
  Sn  Sn31  1  0.83484166  0.16655628  0.16628948  1
  Sn  Sn32  1  0.83393440  0.83398585  0.83275758  1
  Sn  Sn33  1  0.83351773  0.16589858  0.83366553  1
  Sn  Sn34  1  0.16753543  0.83422397  0.16575603  1
  Sn  Sn35  1  0.16533452  0.16572113  0.16589899  1
  Sn  Sn36  1  0.83356696  0.50029067  0.50023545  1
  Sn  Sn37  1  0.49947573  0.16638703  0.83198196  1
  Sn  Sn38  1  0.83282086  0.16632929  0.50007209  1
  Sn  Sn39  1  0.83338605  0.83320468  0.50111555  1
  Sn  Sn40  1  0.49913292  0.83236149  0.16651555  1
  Pb  Pb41  1  0.49993358  0.83531301  0.83508788  1
  Pb  Pb42  1  0.50266693  0.83600720  0.49751853  1
  Pb  Pb43  1  0.16435408  0.83327460  0.50055437  1
  Pb  Pb44  1  0.83327584  0.50048487  0.83118217  1
  Pb  Pb45  1  0.49937230  0.16616732  0.16664886  1
  Pb  Pb46  1  0.16668957  0.50105175  0.83322088  1
  Pb  Pb47  1  0.50009370  0.49687799  0.83559582  1
  Pb  Pb48  1  0.16648701  0.16660159  0.50039988  1
  Pb  Pb49  1  0.16871657  0.50031084  0.16657110  1
  Pb  Pb50  1  0.16381339  0.50030820  0.50010461  1
  Pb  Pb51  1  0.50230122  0.49732289  0.49792044  1
  Pb  Pb52  1  0.83137025  0.49658324  0.16858627  1
  Pb  Pb53  1  0.83381414  0.83505723  0.16590715  1
  I  I54  1  0.16937859  0.00055848  0.16308563  1
  I  I55  1  0.16512540  0.00014831  0.49764542  1
  I  I56  1  0.16498900  0.00115572  0.83823466  1
  I  I57  1  0.16450690  0.32995850  0.16291154  1
  I  I58  1  0.16515882  0.33281126  0.49884987  1
  I  I59  1  0.16521479  0.32942619  0.83764732  1
  I  I60  1  0.16732186  0.67026194  0.16209597  1
  I  I61  1  0.16449812  0.66708678  0.49907941  1
  I  I62  1  0.15858305  0.67100920  0.83979373  1
  I  I63  1  0.49935880  -0.00184573  0.16676729  1
  I  I64  1  0.50731366  0.00379986  0.50087738  1
  I  I65  1  0.50173213  0.00374679  0.83320169  1
  I  I66  1  0.50185553  0.33432403  0.16735104  1
  I  I67  1  0.50659596  0.32942107  0.50080500  1
  I  I68  1  0.50191817  0.32812117  0.83245285  1
  I  I69  1  0.49556499  0.66785443  0.16676037  1
  I  I70  1  0.50163780  0.66680108  0.50009145  1
  I  I71  1  0.50024926  0.66692598  0.83329363  1
  I  I72  1  0.83081934  0.00335806  0.17149386  1
  I  I73  1  0.82957587  0.00127282  0.50046399  1
  I  I74  1  0.83398929  0.00148806  0.82872724  1
  I  I75  1  0.83612121  0.32808716  0.16579061  1
  I  I76  1  0.82879371  0.33130205  0.49900228  1
  I  I77  1  0.83358034  0.32951922  0.83301277  1
  I  I78  1  0.83497014  0.66669853  0.16779456  1
  I  I79  1  0.83544243  0.66756012  0.50370562  1
  I  I80  1  0.83859253  0.67047553  0.83006403  1
  I  I81  1  0.16450987  0.16311078  -0.00012627  1
  I  I82  1  0.16411589  0.16299775  0.33028201  1
  I  I83  1  0.16409327  0.16202718  0.67023328  1
  I  I84  1  0.16571934  0.49778044  0.00011074  1
  I  I85  1  0.16682395  0.49825728  0.33297707  1
  I  I86  1  0.16731509  0.49774284  0.66678432  1
  I  I87  1  0.16458236  0.83915528  0.00002501  1
  I  I88  1  0.16889254  0.83819557  0.33017403  1
  I  I89  1  0.16225054  0.84088902  0.67041001  1
  I  I90  1  0.50368011  0.16665870  -0.00222038  1
  I  I91  1  0.50556819  0.16686348  0.33508349  1
  I  I92  1  0.50508973  0.16628856  0.66714702  1
  I  I93  1  0.50099740  0.50120249  0.00344883  1
  I  I94  1  0.50085377  0.50034262  0.33028526  1
  I  I95  1  0.50018300  0.50090178  0.66635784  1
  I  I96  1  0.50185987  0.83385736  0.00310537  1
  I  I97  1  0.49561384  0.83327999  0.32961221  1
  I  I98  1  0.49740528  0.83255554  0.66664727  1
  I  I99  1  0.83146448  0.16131043  -0.00090004  1
  I  I100  1  0.83108066  0.16611650  0.33393832  1
  I  I101  1  0.83250685  0.16667305  0.66683557  1
  I  I102  1  0.83256005  0.49937873  0.00014713  1
  I  I103  1  0.83222020  0.50050835  0.33650112  1
  I  I104  1  0.83231042  0.49337034  0.66333030  1
  I  I105  1  0.83323159  0.84002672  -0.00282981  1
  I  I106  1  0.83222559  0.83573618  0.33535667  1
  I  I107  1  0.83897070  0.83951802  0.66738938  1
  I  I108  1  0.00002546  0.16110883  0.16546462  1
  I  I109  1  -0.00364797  0.16662382  0.50115924  1
  I  I110  1  -0.00065587  0.16300522  0.83327056  1
  I  I111  1  -0.00016088  0.50162360  0.16870796  1
  I  I112  1  -0.00463497  0.49447785  0.49869370  1
  I  I113  1  -0.00018893  0.49459734  0.83279915  1
  I  I114  1  0.00250750  0.83712168  0.16682156  1
  I  I115  1  -0.00413168  0.83850280  0.49832037  1
  I  I116  1  -0.00036918  0.84252528  0.83460057  1
  I  I117  1  0.33073176  0.16610238  0.16358987  1
  I  I118  1  0.33604419  0.16737753  0.50117851  1
  I  I119  1  0.33255687  0.16266616  0.83580937  1
  I  I120  1  0.33642707  0.49614434  0.16770565  1
  I  I121  1  0.33399928  0.49788015  0.49912352  1
  I  I122  1  0.33345519  0.49855997  0.83304967  1
  I  I123  1  0.33221421  0.83743224  0.16104614  1
  I  I124  1  0.33360850  0.83481214  0.50136963  1
  I  I125  1  0.33045159  0.84015825  0.83835622  1
  I  I126  1  0.66877404  0.16644491  0.16538721  1
  I  I127  1  0.66853317  0.16696956  0.50125770  1
  I  I128  1  0.66795396  0.16351216  0.83374409  1
  I  I129  1  0.66378274  0.50490038  0.16707225  1
  I  I130  1  0.67008571  0.50033651  0.49900764  1
  I  I131  1  0.66672266  0.49974820  0.83461884  1
  I  I132  1  0.66503324  0.83252039  0.16761269  1
  I  I133  1  0.67085773  0.83290160  0.50469516  1
  I  I134  1  0.66954387  0.83855600  0.83092415  1
