# generated using pymatgen
data_Cs27Sn13Pb14I81
_symmetry_space_group_name_H-M   'P 1'
_cell_length_a   18.97056308
_cell_length_b   18.97367444
_cell_length_c   18.98796439
_cell_angle_alpha   90.00040231
_cell_angle_beta   89.99879640
_cell_angle_gamma   89.99938875
_symmetry_Int_Tables_number   1
_chemical_formula_structural   Cs27Sn13Pb14I81
_chemical_formula_sum   'Cs27 Sn13 Pb14 I81'
_cell_volume   6834.55235117
_cell_formula_units_Z   1
loop_
 _symmetry_equiv_pos_site_id
 _symmetry_equiv_pos_as_xyz
  1  'x, y, z'
loop_
 _atom_site_type_symbol
 _atom_site_label
 _atom_site_symmetry_multiplicity
 _atom_site_fract_x
 _atom_site_fract_y
 _atom_site_fract_z
 _atom_site_occupancy
  Cs  Cs0  1  -0.00017920  0.00139495  -0.00020774  1
  Cs  Cs1  1  0.00009795  0.00283688  0.33232352  1
  Cs  Cs2  1  0.00313330  0.00062651  0.66772467  1
  Cs  Cs3  1  -0.00085023  0.33176061  -0.00055923  1
  Cs  Cs4  1  0.00076609  0.33073992  0.33520193  1
  Cs  Cs5  1  0.00188745  0.33574382  0.66571545  1
  Cs  Cs6  1  0.00286259  0.66519379  -0.00036000  1
  Cs  Cs7  1  0.00091195  0.66542928  0.33159015  1
  Cs  Cs8  1  -0.00664906  0.66297427  0.66810983  1
  Cs  Cs9  1  0.33718437  -0.00115183  -0.00073700  1
  Cs  Cs10  1  0.33317906  -0.00405664  0.33258911  1
  Cs  Cs11  1  0.33082877  -0.00091611  0.66759854  1
  Cs  Cs12  1  0.33623815  0.33420194  -0.00166448  1
  Cs  Cs13  1  0.33400306  0.33403374  0.33783830  1
  Cs  Cs14  1  0.33344746  0.33389142  0.66360068  1
  Cs  Cs15  1  0.32904064  0.66648286  0.00393625  1
  Cs  Cs16  1  0.33226408  0.66990191  0.32878781  1
  Cs  Cs17  1  0.33396543  0.66796386  0.66749256  1
  Cs  Cs18  1  0.66205144  0.00128997  -0.00152589  1
  Cs  Cs19  1  0.66631376  -0.00069306  0.33335794  1
  Cs  Cs20  1  0.66566768  -0.00665074  0.66771902  1
  Cs  Cs21  1  0.66504238  0.33200093  0.00213781  1
  Cs  Cs22  1  0.66640199  0.33338201  0.33206276  1
  Cs  Cs23  1  0.66508452  0.33430866  0.66540914  1
  Cs  Cs24  1  0.66840471  0.66549862  -0.00270309  1
  Cs  Cs25  1  0.66678413  0.66602502  0.33666131  1
  Cs  Cs26  1  0.67273194  0.67283242  0.66601827  1
  Sn  Sn27  1  0.50075010  0.49972249  0.16681789  1
  Sn  Sn28  1  0.16607288  0.83308309  0.50089254  1
  Sn  Sn29  1  0.50089593  0.16665767  0.50004140  1
  Sn  Sn30  1  0.83368286  0.16654226  0.16639491  1
  Sn  Sn31  1  0.16667044  0.16692185  0.16573437  1
  Sn  Sn32  1  0.83362508  0.16674648  0.83321749  1
  Sn  Sn33  1  0.50022815  0.49978296  0.50011370  1
  Sn  Sn34  1  0.50019493  0.50016595  0.83303351  1
  Sn  Sn35  1  0.83321057  0.83365169  0.16655250  1
  Sn  Sn36  1  0.83276360  0.49984201  0.16669372  1
  Sn  Sn37  1  0.83230449  0.16661508  0.50035270  1
  Sn  Sn38  1  0.16623032  0.16624203  0.83435206  1
  Sn  Sn39  1  0.16630134  0.83383865  0.83244642  1
  Pb  Pb40  1  0.16891523  0.50311511  0.49999977  1
  Pb  Pb41  1  0.16469169  0.83582141  0.16614180  1
  Pb  Pb42  1  0.16633896  0.49695071  0.16675030  1
  Pb  Pb43  1  0.83142347  0.49789463  0.49793330  1
  Pb  Pb44  1  0.16838318  0.49949194  0.83323843  1
  Pb  Pb45  1  0.83568398  0.83583123  0.49812634  1
  Pb  Pb46  1  0.83130844  0.49750262  0.83543024  1
  Pb  Pb47  1  0.83561222  0.83573558  0.83553881  1
  Pb  Pb48  1  0.50295381  0.83036210  0.16655171  1
  Pb  Pb49  1  0.49995829  0.16818454  0.16866836  1
  Pb  Pb50  1  0.49821096  0.83328602  0.50001603  1
  Pb  Pb51  1  0.16668873  0.16558918  0.50025193  1
  Pb  Pb52  1  0.49749508  0.83050760  0.83351694  1
  Pb  Pb53  1  0.49982137  0.16797983  0.83095986  1
  I  I54  1  0.16056114  0.00372904  0.16656370  1
  I  I55  1  0.16846501  -0.00197873  0.50062337  1
  I  I56  1  0.16302688  0.00137840  0.83306249  1
  I  I57  1  0.16096430  0.32900942  0.16176625  1
  I  I58  1  0.16595708  0.33309651  0.49966959  1
  I  I59  1  0.16361526  0.32971377  0.83783950  1
  I  I60  1  0.16604920  0.66673540  0.16648428  1
  I  I61  1  0.16825492  0.67093367  0.50486687  1
  I  I62  1  0.17001002  0.66945308  0.82992589  1
  I  I63  1  0.50027727  0.00019153  0.16881368  1
  I  I64  1  0.50303915  0.00297730  0.49959341  1
  I  I65  1  0.50145860  0.00019257  0.83164672  1
  I  I66  1  0.50531350  0.33631894  0.16527761  1
  I  I67  1  0.50281250  0.33332753  0.49919708  1
  I  I68  1  0.49847507  0.33596744  0.83572665  1
  I  I69  1  0.50310285  0.66189592  0.16977110  1
  I  I70  1  0.49690246  0.66336058  0.49849254  1
  I  I71  1  0.49902664  0.66228675  0.83175772  1
  I  I72  1  0.83967753  0.00179181  0.16764112  1
  I  I73  1  0.82731432  0.00427276  0.49682925  1
  I  I74  1  0.83386776  0.00414817  0.83568130  1
  I  I75  1  0.83246552  0.33218808  0.16657394  1
  I  I76  1  0.83344390  0.32939149  0.49732705  1
  I  I77  1  0.83960621  0.32917308  0.83538328  1
  I  I78  1  0.82817606  0.66601905  0.16710382  1
  I  I79  1  0.83272516  0.66672661  0.49780157  1
  I  I80  1  0.83386025  0.66662327  0.83540775  1
  I  I81  1  0.15869489  0.16210176  -0.00035278  1
  I  I82  1  0.16298397  0.16561902  0.33125924  1
  I  I83  1  0.16404837  0.16439127  0.66934195  1
  I  I84  1  0.17042156  0.50422703  0.00012822  1
  I  I85  1  0.16922042  0.49995890  0.33317830  1
  I  I86  1  0.16964318  0.49469194  0.66667654  1
  I  I87  1  0.16551824  0.83563530  -0.00258536  1
  I  I88  1  0.16649806  0.83531703  0.33485969  1
  I  I89  1  0.16836591  0.84134685  0.66750533  1
  I  I90  1  0.50158674  0.16932000  -0.00002438  1
  I  I91  1  0.50270868  0.17252752  0.33645896  1
  I  I92  1  0.50258668  0.17339308  0.66323632  1
  I  I93  1  0.50378821  0.49949460  0.00069247  1
  I  I94  1  0.50423226  0.49520525  0.33326438  1
  I  I95  1  0.49634890  0.49374528  0.66604210  1
  I  I96  1  0.49720346  0.83302109  0.00009332  1
  I  I97  1  0.49578530  0.83199369  0.33327266  1
  I  I98  1  0.50177469  0.83103032  0.66671268  1
  I  I99  1  0.83888006  0.16737187  0.00088431  1
  I  I100  1  0.83405586  0.16726090  0.33223575  1
  I  I101  1  0.83410513  0.16712849  0.66675992  1
  I  I102  1  0.82753083  0.49735461  0.00365776  1
  I  I103  1  0.82801536  0.49761116  0.32962040  1
  I  I104  1  0.83174612  0.49844773  0.66668177  1
  I  I105  1  0.83571374  0.83476191  0.00343203  1
  I  I106  1  0.83592467  0.83551031  0.33017361  1
  I  I107  1  0.83250402  0.83461659  0.66682122  1
  I  I108  1  -0.00168038  0.16875822  0.16856406  1
  I  I109  1  -0.00267000  0.16407837  0.49803811  1
  I  I110  1  -0.00009073  0.16354875  0.83335503  1
  I  I111  1  -0.00336617  0.50092737  0.16630363  1
  I  I112  1  -0.00033436  0.49865279  0.49809112  1
  I  I113  1  -0.00026342  0.50136175  0.83549607  1
  I  I114  1  -0.00318107  0.82961450  0.16719339  1
  I  I115  1  0.00327863  0.83693449  0.50332446  1
  I  I116  1  0.00353741  0.83508112  0.82995040  1
  I  I117  1  0.33081570  0.16800314  0.16358126  1
  I  I118  1  0.33563352  0.17019324  0.49965937  1
  I  I119  1  0.33033125  0.16438665  0.83686040  1
  I  I120  1  0.33635500  0.49797161  0.16696128  1
  I  I121  1  0.33750869  0.49134480  0.49701478  1
  I  I122  1  0.33671306  0.49752750  0.83624195  1
  I  I123  1  0.33303428  0.83320347  0.16718947  1
  I  I124  1  0.33028610  0.83630310  0.50240518  1
  I  I125  1  0.32944115  0.84113009  0.83082704  1
  I  I126  1  0.67004887  0.16595150  0.16442767  1
  I  I127  1  0.66735764  0.17111809  0.49825862  1
  I  I128  1  0.66946770  0.16973089  0.83741075  1
  I  I129  1  0.66699024  0.49684505  0.16673273  1
  I  I130  1  0.66308227  0.49810626  0.50101099  1
  I  I131  1  0.66330680  0.49710413  0.83214677  1
  I  I132  1  0.67094336  0.84067772  0.16743120  1
  I  I133  1  0.66702711  0.83226197  0.49843700  1
  I  I134  1  0.66706295  0.83406674  0.83434871  1
