# generated using pymatgen
data_Cs27Sn13Pb14I81
_symmetry_space_group_name_H-M   'P 1'
_cell_length_a   18.97064102
_cell_length_b   18.97775194
_cell_length_c   18.98159566
_cell_angle_alpha   90.00070610
_cell_angle_beta   89.99837856
_cell_angle_gamma   90.00125369
_symmetry_Int_Tables_number   1
_chemical_formula_structural   Cs27Sn13Pb14I81
_chemical_formula_sum   'Cs27 Sn13 Pb14 I81'
_cell_volume   6833.75633260
_cell_formula_units_Z   1
loop_
 _symmetry_equiv_pos_site_id
 _symmetry_equiv_pos_as_xyz
  1  'x, y, z'
loop_
 _atom_site_type_symbol
 _atom_site_label
 _atom_site_symmetry_multiplicity
 _atom_site_fract_x
 _atom_site_fract_y
 _atom_site_fract_z
 _atom_site_occupancy
  Cs  Cs0  1  0.00233936  -0.00512048  -0.00198844  1
  Cs  Cs1  1  -0.00584721  -0.00716828  0.33544917  1
  Cs  Cs2  1  -0.00446815  0.00177773  0.66601545  1
  Cs  Cs3  1  0.00472680  0.33558741  -0.00060293  1
  Cs  Cs4  1  -0.00320032  0.33368214  0.33429010  1
  Cs  Cs5  1  0.00262147  0.32971306  0.66506809  1
  Cs  Cs6  1  -0.00632812  0.66670791  0.00145882  1
  Cs  Cs7  1  0.00199513  0.67481680  0.33385677  1
  Cs  Cs8  1  -0.00171741  0.66913258  0.66371439  1
  Cs  Cs9  1  0.33434524  0.00047667  -0.00163237  1
  Cs  Cs10  1  0.33502828  -0.00134082  0.33213809  1
  Cs  Cs11  1  0.33438377  0.00158481  0.66974128  1
  Cs  Cs12  1  0.33082744  0.33247010  0.00109984  1
  Cs  Cs13  1  0.33340504  0.33487879  0.33267657  1
  Cs  Cs14  1  0.33294764  0.33425584  0.66593987  1
  Cs  Cs15  1  0.33401899  0.66725306  0.00119764  1
  Cs  Cs16  1  0.33108142  0.66631782  0.33427272  1
  Cs  Cs17  1  0.33495708  0.66413493  0.66404934  1
  Cs  Cs18  1  0.66418656  0.00101826  0.00099645  1
  Cs  Cs19  1  0.66855126  0.00565733  0.33509553  1
  Cs  Cs20  1  0.66662032  -0.00030913  0.66584416  1
  Cs  Cs21  1  0.66956148  0.33564142  0.00289624  1
  Cs  Cs22  1  0.67136584  0.32928024  0.33078468  1
  Cs  Cs23  1  0.66628759  0.33606325  0.66659886  1
  Cs  Cs24  1  0.67276822  0.66370101  -0.00286914  1
  Cs  Cs25  1  0.66582079  0.66488569  0.33140492  1
  Cs  Cs26  1  0.66581509  0.66320426  0.67133425  1
  Sn  Sn27  1  0.49965021  0.83383062  0.50025689  1
  Sn  Sn28  1  0.16758104  0.83174729  0.83311180  1
  Sn  Sn29  1  0.50104811  0.16658906  0.83277947  1
  Sn  Sn30  1  0.49929312  0.50063383  0.16647959  1
  Sn  Sn31  1  0.16744651  0.49959128  0.16609784  1
  Sn  Sn32  1  0.16673016  0.16666169  0.16829757  1
  Sn  Sn33  1  0.16735780  0.16638133  0.49827824  1
  Sn  Sn34  1  0.49911493  0.83367619  0.83331225  1
  Sn  Sn35  1  0.16721498  0.50162613  0.83362370  1
  Sn  Sn36  1  0.83339696  0.50014345  0.50001610  1
  Sn  Sn37  1  0.49969007  0.83231226  0.16636684  1
  Sn  Sn38  1  0.83199590  0.16692506  0.83383257  1
  Sn  Sn39  1  0.49896251  0.16625001  0.50075665  1
  Pb  Pb40  1  0.83428239  0.50002577  0.16869357  1
  Pb  Pb41  1  0.16845585  0.83316455  0.16484449  1
  Pb  Pb42  1  0.49829619  0.49968126  0.83543568  1
  Pb  Pb43  1  0.83287416  0.16783876  0.50155909  1
  Pb  Pb44  1  0.16735859  0.16643238  0.83334910  1
  Pb  Pb45  1  0.83717253  0.16662323  0.16378230  1
  Pb  Pb46  1  0.16895113  0.83616481  0.50271348  1
  Pb  Pb47  1  0.83651675  0.49771691  0.83154558  1
  Pb  Pb48  1  0.16512221  0.49833387  0.49940865  1
  Pb  Pb49  1  0.82982910  0.83078540  0.50026201  1
  Pb  Pb50  1  0.50138907  0.49940721  0.49751861  1
  Pb  Pb51  1  0.82962988  0.83353617  0.16659372  1
  Pb  Pb52  1  0.49854715  0.16668792  0.16656848  1
  Pb  Pb53  1  0.83272963  0.83537769  0.83327236  1
  I  I54  1  0.16925372  0.00234883  0.16705577  1
  I  I55  1  0.16784467  0.00422826  0.49614250  1
  I  I56  1  0.16857701  -0.00195469  0.83381191  1
  I  I57  1  0.17320596  0.33401493  0.16323306  1
  I  I58  1  0.17266705  0.33023101  0.50265537  1
  I  I59  1  0.16639659  0.33501025  0.83478918  1
  I  I60  1  0.16955404  0.66381834  0.16407617  1
  I  I61  1  0.16643819  0.66697210  0.49872136  1
  I  I62  1  0.17267529  0.66671737  0.83819080  1
  I  I63  1  0.49769370  -0.00235553  0.16564641  1
  I  I64  1  0.49616170  0.00051241  0.49931607  1
  I  I65  1  0.49720970  -0.00023387  0.83477263  1
  I  I66  1  0.49699166  0.33547976  0.16665793  1
  I  I67  1  0.49739658  0.33011952  0.50417972  1
  I  I68  1  0.50089716  0.33039827  0.82947431  1
  I  I69  1  0.49375726  0.66694123  0.16759244  1
  I  I70  1  0.50239367  0.66931000  0.50281920  1
  I  I71  1  0.49683840  0.66951564  0.83047416  1
  I  I72  1  0.83372580  0.00028413  0.16766625  1
  I  I73  1  0.83521208  -0.00000386  0.50122396  1
  I  I74  1  0.83524270  0.00326903  0.83102192  1
  I  I75  1  0.82734532  0.33330348  0.16699312  1
  I  I76  1  0.83144490  0.33535861  0.50113414  1
  I  I77  1  0.82821772  0.33006972  0.83202470  1
  I  I78  1  0.83676152  0.66655877  0.16684766  1
  I  I79  1  0.83409185  0.66339284  0.50011218  1
  I  I80  1  0.83133980  0.66648996  0.83235308  1
  I  I81  1  0.16730046  0.16858588  0.00177887  1
  I  I82  1  0.17376983  0.17350174  0.33347990  1
  I  I83  1  0.16782855  0.16712022  0.66488339  1
  I  I84  1  0.17076157  0.49567116  0.00049235  1
  I  I85  1  0.16988920  0.49644071  0.33022305  1
  I  I86  1  0.16540627  0.50067514  0.66904427  1
  I  I87  1  0.17332556  0.83637557  -0.00309351  1
  I  I88  1  0.16832926  0.83124064  0.33346057  1
  I  I89  1  0.17280940  0.82929472  0.67060041  1
  I  I90  1  0.50086452  0.16312241  -0.00259996  1
  I  I91  1  0.49725817  0.16382619  0.33582224  1
  I  I92  1  0.49761637  0.15961565  0.66675562  1
  I  I93  1  0.49799412  0.50270101  0.00332509  1
  I  I94  1  0.49383590  0.50386481  0.32979821  1
  I  I95  1  0.49949646  0.50178753  0.66667939  1
  I  I96  1  0.49504244  0.83531411  -0.00094167  1
  I  I97  1  0.50033133  0.83366684  0.33337620  1
  I  I98  1  0.49633271  0.83913408  0.66733442  1
  I  I99  1  0.82653532  0.16721240  -0.00398481  1
  I  I100  1  0.83082017  0.16853589  0.33343048  1
  I  I101  1  0.83513706  0.16758669  0.66936879  1
  I  I102  1  0.83197957  0.49902502  -0.00005513  1
  I  I103  1  0.83293687  0.49662623  0.33608492  1
  I  I104  1  0.83268844  0.49885869  0.66420293  1
  I  I105  1  0.83239185  0.83340104  -0.00034393  1
  I  I106  1  0.83398622  0.83352155  0.33360275  1
  I  I107  1  0.83264529  0.83315606  0.66677842  1
  I  I108  1  0.00527054  0.17439366  0.17004762  1
  I  I109  1  0.00251780  0.17045673  0.49972800  1
  I  I110  1  -0.00116383  0.16779302  0.83297507  1
  I  I111  1  0.00378903  0.49409400  0.16269089  1
  I  I112  1  -0.00231614  0.49541886  0.50052366  1
  I  I113  1  0.00449406  0.50271299  0.83994974  1
  I  I114  1  0.00041903  0.83318538  0.16465387  1
  I  I115  1  0.00020995  0.83431922  0.50139313  1
  I  I116  1  0.00295306  0.83241247  0.83459405  1
  I  I117  1  0.33066522  0.16854825  0.16479086  1
  I  I118  1  0.33429226  0.16477275  0.50329419  1
  I  I119  1  0.33603730  0.16467937  0.83227055  1
  I  I120  1  0.33271072  0.49938345  0.16392722  1
  I  I121  1  0.33338991  0.50046892  0.50103600  1
  I  I122  1  0.33027485  0.49785483  0.83400061  1
  I  I123  1  0.33680763  0.83255770  0.16772624  1
  I  I124  1  0.33722024  0.83356247  0.49828507  1
  I  I125  1  0.33476668  0.83699320  0.83391821  1
  I  I126  1  0.66646406  0.16707753  0.16877458  1
  I  I127  1  0.66321325  0.16357586  0.50208560  1
  I  I128  1  0.66432565  0.16109316  0.82752393  1
  I  I129  1  0.66388761  0.50425126  0.16796661  1
  I  I130  1  0.66879322  0.49827890  0.49921079  1
  I  I131  1  0.66657265  0.50165724  0.83427536  1
  I  I132  1  0.66085562  0.82768458  0.16311487  1
  I  I133  1  0.66154488  0.84074489  0.50197909  1
  I  I134  1  0.66262731  0.83592437  0.83318793  1
