# generated using pymatgen
data_Cs27Sn14Pb13I81
_symmetry_space_group_name_H-M   'P 1'
_cell_length_a   18.97789637
_cell_length_b   18.97403630
_cell_length_c   18.97863341
_cell_angle_alpha   90.00278397
_cell_angle_beta   89.99972481
_cell_angle_gamma   90.00071619
_symmetry_Int_Tables_number   1
_chemical_formula_structural   Cs27Sn14Pb13I81
_chemical_formula_sum   'Cs27 Sn14 Pb13 I81'
_cell_volume   6833.96475574
_cell_formula_units_Z   1
loop_
 _symmetry_equiv_pos_site_id
 _symmetry_equiv_pos_as_xyz
  1  'x, y, z'
loop_
 _atom_site_type_symbol
 _atom_site_label
 _atom_site_symmetry_multiplicity
 _atom_site_fract_x
 _atom_site_fract_y
 _atom_site_fract_z
 _atom_site_occupancy
  Cs  Cs0  1  0.00139901  -0.00139609  0.00172108  1
  Cs  Cs1  1  -0.00101863  -0.00085065  0.33271867  1
  Cs  Cs2  1  0.00011903  0.00035055  0.66613223  1
  Cs  Cs3  1  -0.00384551  0.33219639  -0.00445201  1
  Cs  Cs4  1  0.00084960  0.33273874  0.33528339  1
  Cs  Cs5  1  -0.00034906  0.32970096  0.66710336  1
  Cs  Cs6  1  -0.00007049  0.66828747  0.00084783  1
  Cs  Cs7  1  0.00068431  0.66661253  0.33374891  1
  Cs  Cs8  1  0.00201797  0.66783696  0.66499546  1
  Cs  Cs9  1  0.33122743  0.00104392  0.00089245  1
  Cs  Cs10  1  0.33405010  0.00063877  0.33243050  1
  Cs  Cs11  1  0.33870485  0.00079007  0.66729260  1
  Cs  Cs12  1  0.34306827  0.33253179  -0.00001828  1
  Cs  Cs13  1  0.33421100  0.33495924  0.33117369  1
  Cs  Cs14  1  0.33211864  0.33014377  0.66785004  1
  Cs  Cs15  1  0.33372462  0.66638068  -0.00134399  1
  Cs  Cs16  1  0.32867252  0.66524000  0.33383187  1
  Cs  Cs17  1  0.33300645  0.66752632  0.66721351  1
  Cs  Cs18  1  0.66667578  0.00022749  0.00301327  1
  Cs  Cs19  1  0.66837912  0.00072096  0.33361738  1
  Cs  Cs20  1  0.66010906  -0.00026772  0.66491046  1
  Cs  Cs21  1  0.65985550  0.34404176  -0.00710944  1
  Cs  Cs22  1  0.66462436  0.33129839  0.33268162  1
  Cs  Cs23  1  0.66683157  0.33493104  0.67135163  1
  Cs  Cs24  1  0.66584524  0.66030497  -0.00241105  1
  Cs  Cs25  1  0.66932536  0.66765897  0.33510343  1
  Cs  Cs26  1  0.66313687  0.66682808  0.66623336  1
  Sn  Sn27  1  0.50065278  0.50018020  0.49951559  1
  Sn  Sn28  1  0.16587172  0.16537881  0.49889509  1
  Sn  Sn29  1  0.83395010  0.83368996  0.50048288  1
  Sn  Sn30  1  0.83325190  0.83370812  0.16645234  1
  Sn  Sn31  1  0.16607193  0.83441784  0.50015220  1
  Sn  Sn32  1  0.16543004  0.16623509  0.16746421  1
  Sn  Sn33  1  0.16562932  0.83255756  0.83311451  1
  Sn  Sn34  1  0.83263749  0.49987114  0.49972549  1
  Sn  Sn35  1  0.83394534  0.83365106  0.83311962  1
  Sn  Sn36  1  0.83403875  0.16644823  0.16689997  1
  Sn  Sn37  1  0.83409059  0.16639659  0.49929672  1
  Sn  Sn38  1  0.16663177  0.83375541  0.16685994  1
  Sn  Sn39  1  0.50015199  0.83307808  0.16697457  1
  Sn  Sn40  1  0.16607857  0.50038103  0.83353376  1
  Pb  Pb41  1  0.83367429  0.49938103  0.16870866  1
  Pb  Pb42  1  0.50008472  0.16889259  0.49978835  1
  Pb  Pb43  1  0.50003636  0.50284607  0.16918365  1
  Pb  Pb44  1  0.50063239  0.16470176  0.16685489  1
  Pb  Pb45  1  0.16631722  0.49903751  0.16415605  1
  Pb  Pb46  1  0.83553977  0.50275344  0.83043203  1
  Pb  Pb47  1  0.16608253  0.49954496  0.50136353  1
  Pb  Pb48  1  0.16660306  0.16580475  0.83377331  1
  Pb  Pb49  1  0.50043814  0.16627512  0.83351759  1
  Pb  Pb50  1  0.83323169  0.16394492  0.83367525  1
  Pb  Pb51  1  0.49709514  0.50055777  0.83051796  1
  Pb  Pb52  1  0.49972970  0.83195610  0.49796487  1
  Pb  Pb53  1  0.49999029  0.83343043  0.83609100  1
  I  I54  1  0.16626589  -0.00170316  0.16544661  1
  I  I55  1  0.15956450  -0.00114163  0.50096408  1
  I  I56  1  0.16228465  -0.00379170  0.83382199  1
  I  I57  1  0.16164122  0.32940534  0.17202779  1
  I  I58  1  0.16403007  0.33032316  0.49752697  1
  I  I59  1  0.16802352  0.33531639  0.83042440  1
  I  I60  1  0.16563817  0.67038248  0.16998283  1
  I  I61  1  0.16389903  0.66978891  0.49755990  1
  I  I62  1  0.16340753  0.66932145  0.83203545  1
  I  I63  1  0.49956544  -0.00340975  0.16849762  1
  I  I64  1  0.50161515  -0.00005943  0.49961629  1
  I  I65  1  0.49701904  -0.00083804  0.83066014  1
  I  I66  1  0.49869317  0.33331313  0.16638640  1
  I  I67  1  0.50292470  0.33670812  0.50039001  1
  I  I68  1  0.49772581  0.33396210  0.83400036  1
  I  I69  1  0.49966785  0.67097279  0.16669863  1
  I  I70  1  0.50430924  0.66422547  0.49850483  1
  I  I71  1  0.50133507  0.66698339  0.83401066  1
  I  I72  1  0.83415599  -0.00164948  0.17136779  1
  I  I73  1  0.83861220  -0.00093074  0.49900268  1
  I  I74  1  0.84174432  -0.00434877  0.82986903  1
  I  I75  1  0.84015688  0.32949054  0.17298088  1
  I  I76  1  0.83460169  0.33222821  0.49450007  1
  I  I77  1  0.83443830  0.33354348  0.83327247  1
  I  I78  1  0.83468091  0.67047821  0.16770221  1
  I  I79  1  0.83375620  0.66846745  0.49967096  1
  I  I80  1  0.83547879  0.67098265  0.83531231  1
  I  I81  1  0.16219718  0.16212850  0.00350194  1
  I  I82  1  0.16317287  0.15896776  0.33368900  1
  I  I83  1  0.16252272  0.16475559  0.66351532  1
  I  I84  1  0.16607700  0.50678316  -0.00344941  1
  I  I85  1  0.16759031  0.50321131  0.33357581  1
  I  I86  1  0.16658105  0.50616148  0.66891458  1
  I  I87  1  0.16422602  0.83303034  0.00078898  1
  I  I88  1  0.16469092  0.83651928  0.33340148  1
  I  I89  1  0.15979006  0.83244650  0.66584940  1
  I  I90  1  0.49813873  0.16629802  0.00067704  1
  I  I91  1  0.49893131  0.16779142  0.33339684  1
  I  I92  1  0.49845651  0.16569159  0.66601129  1
  I  I93  1  0.49917671  0.49939309  -0.00020838  1
  I  I94  1  0.50240438  0.49980609  0.33682889  1
  I  I95  1  0.50548049  0.50240958  0.66306335  1
  I  I96  1  0.49947880  0.83418164  0.00402589  1
  I  I97  1  0.49978721  0.83224222  0.33023295  1
  I  I98  1  0.49979700  0.83174727  0.66644678  1
  I  I99  1  0.83969881  0.15959844  0.00373441  1
  I  I100  1  0.83703138  0.16142347  0.33403946  1
  I  I101  1  0.83845498  0.16677935  0.66308389  1
  I  I102  1  0.83391527  0.49987543  -0.00038923  1
  I  I103  1  0.83200754  0.50613169  0.33708186  1
  I  I104  1  0.83022968  0.49913943  0.66234531  1
  I  I105  1  0.83675021  0.83830488  0.00111379  1
  I  I106  1  0.83526001  0.83295679  0.33368104  1
  I  I107  1  0.84102649  0.83238321  0.66535061  1
  I  I108  1  0.00009141  0.15714069  0.17185380  1
  I  I109  1  -0.00028733  0.16778533  0.49636106  1
  I  I110  1  0.00007264  0.17052389  0.83227967  1
  I  I111  1  0.00002966  0.50587495  0.16977254  1
  I  I112  1  -0.00274400  0.50127461  0.50129322  1
  I  I113  1  0.00303435  0.50286225  0.83081878  1
  I  I114  1  0.00003011  0.83665246  0.16662613  1
  I  I115  1  -0.00034466  0.83107038  0.49681506  1
  I  I116  1  0.00079038  0.82933353  0.83639361  1
  I  I117  1  0.33000141  0.16199623  0.17049595  1
  I  I118  1  0.32971904  0.16342073  0.49694712  1
  I  I119  1  0.33262504  0.16526364  0.83243015  1
  I  I120  1  0.33311600  0.50070043  0.16970099  1
  I  I121  1  0.33469737  0.50160062  0.50211444  1
  I  I122  1  0.32951513  0.50776740  0.83094245  1
  I  I123  1  0.33143581  0.83652292  0.16692723  1
  I  I124  1  0.32975707  0.83511304  0.50017596  1
  I  I125  1  0.32959251  0.82992316  0.83260525  1
  I  I126  1  0.67052512  0.15967095  0.17326915  1
  I  I127  1  0.67053305  0.16276748  0.49568538  1
  I  I128  1  0.66742523  0.16447728  0.83245284  1
  I  I129  1  0.66689553  0.50063521  0.16463179  1
  I  I130  1  0.66843649  0.50191572  0.49916276  1
  I  I131  1  0.66686071  0.50064027  0.83446716  1
  I  I132  1  0.66854209  0.83737893  0.16804260  1
  I  I133  1  0.67017241  0.83534479  0.50003697  1
  I  I134  1  0.67012791  0.83481413  0.83183567  1
