# generated using pymatgen
data_Cs27Sn14Pb13I81
_symmetry_space_group_name_H-M   'P 1'
_cell_length_a   18.98879129
_cell_length_b   18.98879144
_cell_length_c   18.95771740
_cell_angle_alpha   89.99975262
_cell_angle_beta   90.00024739
_cell_angle_gamma   89.99988516
_symmetry_Int_Tables_number   1
_chemical_formula_structural   Cs27Sn14Pb13I81
_chemical_formula_sum   'Cs27 Sn14 Pb13 I81'
_cell_volume   6835.66373861
_cell_formula_units_Z   1
loop_
 _symmetry_equiv_pos_site_id
 _symmetry_equiv_pos_as_xyz
  1  'x, y, z'
loop_
 _atom_site_type_symbol
 _atom_site_label
 _atom_site_symmetry_multiplicity
 _atom_site_fract_x
 _atom_site_fract_y
 _atom_site_fract_z
 _atom_site_occupancy
  Cs  Cs0  1  0.00209155  -0.00209159  -0.00080569  1
  Cs  Cs1  1  0.00176270  -0.00176279  0.34146185  1
  Cs  Cs2  1  -0.00181024  0.00181006  0.66256525  1
  Cs  Cs3  1  0.00033129  0.33410305  0.00005774  1
  Cs  Cs4  1  -0.00742994  0.33590672  0.33854373  1
  Cs  Cs5  1  0.00013967  0.32989292  0.66390139  1
  Cs  Cs6  1  0.00119883  0.66735307  0.00027368  1
  Cs  Cs7  1  -0.00334814  0.66495380  0.33641741  1
  Cs  Cs8  1  0.00008955  0.66725502  0.66535644  1
  Cs  Cs9  1  0.33264694  -0.00119890  0.00027367  1
  Cs  Cs10  1  0.33504625  0.00334813  0.33641756  1
  Cs  Cs11  1  0.33274484  -0.00008962  0.66535634  1
  Cs  Cs12  1  0.33247877  0.33492524  -0.00056637  1
  Cs  Cs13  1  0.33511931  0.33078835  0.33836017  1
  Cs  Cs14  1  0.33280282  0.33521622  0.66558721  1
  Cs  Cs15  1  0.33337870  0.66662124  -0.00032255  1
  Cs  Cs16  1  0.33347532  0.66652480  0.33255934  1
  Cs  Cs17  1  0.33502491  0.66497513  0.66660764  1
  Cs  Cs18  1  0.66589695  -0.00033107  0.00005783  1
  Cs  Cs19  1  0.66409347  0.00742987  0.33854379  1
  Cs  Cs20  1  0.67010717  -0.00013969  0.66390142  1
  Cs  Cs21  1  0.66821124  0.33178860  0.00163605  1
  Cs  Cs22  1  0.67353743  0.32646268  0.33720415  1
  Cs  Cs23  1  0.66774766  0.33225219  0.66509951  1
  Cs  Cs24  1  0.66507479  0.66752108  -0.00056638  1
  Cs  Cs25  1  0.66921147  0.66488075  0.33836021  1
  Cs  Cs26  1  0.66478367  0.66719706  0.66558738  1
  Sn  Sn27  1  0.16645607  0.50014616  0.83402226  1
  Sn  Sn28  1  0.50018329  0.83258786  0.16607043  1
  Sn  Sn29  1  0.83301645  0.83358391  0.16581171  1
  Sn  Sn30  1  0.16675775  0.83324231  0.16604965  1
  Sn  Sn31  1  0.16741217  0.49981669  0.16607039  1
  Sn  Sn32  1  0.49904129  0.16661198  0.83415227  1
  Sn  Sn33  1  0.16668993  0.83331011  0.83372798  1
  Sn  Sn34  1  0.16778128  0.16653550  0.83444350  1
  Sn  Sn35  1  0.50017310  0.49982684  0.83440634  1
  Sn  Sn36  1  0.16641611  0.16698354  0.16581174  1
  Sn  Sn37  1  0.83346452  0.83221873  0.83444349  1
  Sn  Sn38  1  0.49965851  0.50034147  0.16604208  1
  Sn  Sn39  1  0.49985385  0.83354397  0.83402228  1
  Sn  Sn40  1  0.83338796  0.50095868  0.83415234  1
  Pb  Pb41  1  0.83300966  0.50191536  0.16468744  1
  Pb  Pb42  1  0.83320587  0.83306657  0.50001298  1
  Pb  Pb43  1  0.16703144  0.83296858  0.49966938  1
  Pb  Pb44  1  0.16692274  0.50022323  0.49935140  1
  Pb  Pb45  1  0.83669562  0.16330440  0.16603683  1
  Pb  Pb46  1  0.83376051  0.16623949  0.83374739  1
  Pb  Pb47  1  0.83346962  0.16653041  0.50004846  1
  Pb  Pb48  1  0.49808465  0.16699033  0.16468745  1
  Pb  Pb49  1  0.49977677  0.83307728  0.49935146  1
  Pb  Pb50  1  0.16693339  0.16679413  0.50001292  1
  Pb  Pb51  1  0.83323538  0.50043245  0.50369627  1
  Pb  Pb52  1  0.49986988  0.50013010  0.49896969  1
  Pb  Pb53  1  0.49956757  0.16676455  0.50369630  1
  I  I54  1  0.16626180  -0.00111997  0.15964526  1
  I  I55  1  0.16584785  -0.00008149  0.50089311  1
  I  I56  1  0.16914129  -0.00071656  0.83864441  1
  I  I57  1  0.17249725  0.33427266  0.15833332  1
  I  I58  1  0.16634842  0.33344411  0.50158227  1
  I  I59  1  0.16908343  0.33386924  0.83845981  1
  I  I60  1  0.16755012  0.66702682  0.16050234  1
  I  I61  1  0.16605115  0.66660406  0.50186015  1
  I  I62  1  0.16800518  0.66679985  0.83764420  1
  I  I63  1  0.49946321  -0.00314396  0.16199652  1
  I  I64  1  0.50017460  -0.00007734  0.49919441  1
  I  I65  1  0.49742037  -0.00121977  0.83707022  1
  I  I66  1  0.49438673  0.33652451  0.16082954  1
  I  I67  1  0.49978416  0.33344281  0.49999560  1
  I  I68  1  0.49729419  0.33439774  0.83645470  1
  I  I69  1  0.49452509  0.66721126  0.15814665  1
  I  I70  1  0.50022669  0.66660314  0.50597669  1
  I  I71  1  0.49810335  0.66682062  0.83585112  1
  I  I72  1  0.83160338  -0.00504896  0.15774141  1
  I  I73  1  0.83404363  -0.00047116  0.50310208  1
  I  I74  1  0.83319397  -0.00369790  0.83647836  1
  I  I75  1  0.83314406  0.33342903  0.16635075  1
  I  I76  1  0.83368800  0.33360199  0.50079520  1
  I  I77  1  0.83328655  0.33627769  0.83232231  1
  I  I78  1  0.83837383  0.67006154  0.16339042  1
  I  I79  1  0.83390080  0.66685966  0.49861144  1
  I  I80  1  0.83397351  0.66759713  0.83676481  1
  I  I81  1  0.17014781  0.16588173  -0.00127060  1
  I  I82  1  0.16664892  0.16459637  0.32969648  1
  I  I83  1  0.16965497  0.16668469  0.67090698  1
  I  I84  1  0.16759367  0.50068100  -0.00115375  1
  I  I85  1  0.17199740  0.50118897  0.32887014  1
  I  I86  1  0.16729721  0.49991687  0.67122127  1
  I  I87  1  0.16659139  0.83340850  -0.00071444  1
  I  I88  1  0.16620582  0.83379430  0.32882469  1
  I  I89  1  0.16637426  0.83362575  0.67124833  1
  I  I90  1  0.49810239  0.16600725  -0.00375059  1
  I  I91  1  0.49825910  0.16584147  0.33294416  1
  I  I92  1  0.49344173  0.16659169  0.67248851  1
  I  I93  1  0.49797790  0.50202233  -0.00149557  1
  I  I94  1  0.49296078  0.50703903  0.32886800  1
  I  I95  1  0.49916971  0.50083043  0.67111219  1
  I  I96  1  0.49931906  0.83240625  -0.00115370  1
  I  I97  1  0.49881073  0.82800269  0.32887019  1
  I  I98  1  0.50008323  0.83270283  0.67122125  1
  I  I99  1  0.83097085  0.16902894  -0.00035685  1
  I  I100  1  0.83461700  0.16538298  0.33271459  1
  I  I101  1  0.83501073  0.16498936  0.66755612  1
  I  I102  1  0.83399260  0.50189812  -0.00375061  1
  I  I103  1  0.83415867  0.50174060  0.33294416  1
  I  I104  1  0.83340832  0.50655818  0.67248848  1
  I  I105  1  0.83411833  0.82985189  -0.00127057  1
  I  I106  1  0.83540376  0.83335156  0.32969650  1
  I  I107  1  0.83331538  0.83034516  0.67090698  1
  I  I108  1  0.00504899  0.16839693  0.15774166  1
  I  I109  1  0.00047113  0.16595540  0.50310192  1
  I  I110  1  0.00369789  0.16680581  0.83647831  1
  I  I111  1  0.00314399  0.50053664  0.16199652  1
  I  I112  1  0.00007737  0.49982535  0.49919453  1
  I  I113  1  0.00121979  0.50257960  0.83707024  1
  I  I114  1  0.00111999  0.83373803  0.15964538  1
  I  I115  1  0.00008147  0.83415298  0.50089312  1
  I  I116  1  0.00071659  0.83085895  0.83864439  1
  I  I117  1  0.32993841  0.16162610  0.16339003  1
  I  I118  1  0.33314034  0.16609961  0.49861167  1
  I  I119  1  0.33240285  0.16602670  0.83676509  1
  I  I120  1  0.33278878  0.50547522  0.15814644  1
  I  I121  1  0.33339682  0.49977333  0.50597695  1
  I  I122  1  0.33317937  0.50189664  0.83585124  1
  I  I123  1  0.33297318  0.83244974  0.16050217  1
  I  I124  1  0.33339598  0.83394843  0.50186028  1
  I  I125  1  0.33320013  0.83199468  0.83764426  1
  I  I126  1  0.66657097  0.16685571  0.16635098  1
  I  I127  1  0.66639798  0.16631243  0.50079518  1
  I  I128  1  0.66372237  0.16671367  0.83232204  1
  I  I129  1  0.66347550  0.50561317  0.16082973  1
  I  I130  1  0.66655717  0.50021579  0.49999542  1
  I  I131  1  0.66560228  0.50270592  0.83645463  1
  I  I132  1  0.66572730  0.82750304  0.15833349  1
  I  I133  1  0.66655589  0.83365109  0.50158193  1
  I  I134  1  0.66613078  0.83091642  0.83845980  1
