# generated using pymatgen
data_Cs27Sn13Pb14I81
_symmetry_space_group_name_H-M   'P 1'
_cell_length_a   18.97235991
_cell_length_b   18.97635844
_cell_length_c   18.98122747
_cell_angle_alpha   90.00177733
_cell_angle_beta   89.99793948
_cell_angle_gamma   90.00106133
_symmetry_Int_Tables_number   1
_chemical_formula_structural   Cs27Sn13Pb14I81
_chemical_formula_sum   'Cs27 Sn13 Pb14 I81'
_cell_volume   6833.74112810
_cell_formula_units_Z   1
loop_
 _symmetry_equiv_pos_site_id
 _symmetry_equiv_pos_as_xyz
  1  'x, y, z'
loop_
 _atom_site_type_symbol
 _atom_site_label
 _atom_site_symmetry_multiplicity
 _atom_site_fract_x
 _atom_site_fract_y
 _atom_site_fract_z
 _atom_site_occupancy
  Cs  Cs0  1  -0.00271610  0.00084917  0.00018657  1
  Cs  Cs1  1  -0.00057432  0.00081126  0.33050000  1
  Cs  Cs2  1  0.00278520  -0.00060771  0.66695102  1
  Cs  Cs3  1  -0.00085305  0.33412737  0.00234731  1
  Cs  Cs4  1  0.00427854  0.32837316  0.33160822  1
  Cs  Cs5  1  0.00062211  0.33231304  0.66668870  1
  Cs  Cs6  1  0.00000265  0.66574424  -0.00136635  1
  Cs  Cs7  1  -0.00456622  0.66972240  0.33651343  1
  Cs  Cs8  1  -0.00049747  0.66640258  0.66689212  1
  Cs  Cs9  1  0.33629525  -0.00359281  -0.00097408  1
  Cs  Cs10  1  0.33342771  0.00051510  0.33460889  1
  Cs  Cs11  1  0.33273635  -0.00119109  0.66498326  1
  Cs  Cs12  1  0.33211061  0.34563658  0.00125931  1
  Cs  Cs13  1  0.33311603  0.33190079  0.33024247  1
  Cs  Cs14  1  0.33268213  0.33593813  0.66807828  1
  Cs  Cs15  1  0.33330436  0.66305148  -0.00065509  1
  Cs  Cs16  1  0.33459113  0.66786764  0.33220197  1
  Cs  Cs17  1  0.33226908  0.66778598  0.66831798  1
  Cs  Cs18  1  0.66658399  0.00408548  -0.00090029  1
  Cs  Cs19  1  0.66534829  -0.00096484  0.33219923  1
  Cs  Cs20  1  0.66382688  0.00342925  0.66839365  1
  Cs  Cs21  1  0.66887853  0.33011856  -0.00208480  1
  Cs  Cs22  1  0.66350256  0.33628776  0.33708328  1
  Cs  Cs23  1  0.66589681  0.33148815  0.66521768  1
  Cs  Cs24  1  0.66769363  0.66588257  -0.00042328  1
  Cs  Cs25  1  0.66941701  0.66470155  0.33618443  1
  Cs  Cs26  1  0.66830658  0.66368717  0.66388824  1
  Sn  Sn27  1  0.16583187  0.83429036  0.83361213  1
  Sn  Sn28  1  0.83352956  0.50060097  0.83388497  1
  Sn  Sn29  1  0.83370809  0.83296243  0.83310853  1
  Sn  Sn30  1  0.16685627  0.50096076  0.49963955  1
  Sn  Sn31  1  0.16721000  0.83252529  0.49964874  1
  Sn  Sn32  1  0.16727188  0.16612336  0.83397839  1
  Sn  Sn33  1  0.49961321  0.16611791  0.16704743  1
  Sn  Sn34  1  0.83334949  0.50012324  0.16645942  1
  Sn  Sn35  1  0.83281261  0.16605005  0.49979980  1
  Sn  Sn36  1  0.16700236  0.83339949  0.16669003  1
  Sn  Sn37  1  0.49948460  0.83404729  0.16748512  1
  Sn  Sn38  1  0.50059288  0.16560298  0.49915763  1
  Sn  Sn39  1  0.49944397  0.83396278  0.49927607  1
  Pb  Pb40  1  0.83100443  0.16872688  0.16898054  1
  Pb  Pb41  1  0.50330045  0.50005482  0.83316120  1
  Pb  Pb42  1  0.16922749  0.16438415  0.16378994  1
  Pb  Pb43  1  0.83300221  0.83531061  0.50213199  1
  Pb  Pb44  1  0.16446643  0.50294704  0.16916221  1
  Pb  Pb45  1  0.83269106  0.83220261  0.16455454  1
  Pb  Pb46  1  0.49993164  0.83313921  0.83325036  1
  Pb  Pb47  1  0.50220027  0.50059577  0.16676149  1
  Pb  Pb48  1  0.83551681  0.49768075  0.50017478  1
  Pb  Pb49  1  0.49692408  0.16672521  0.83346441  1
  Pb  Pb50  1  0.49740181  0.50025995  0.49993028  1
  Pb  Pb51  1  0.16480995  0.50064731  0.83182334  1
  Pb  Pb52  1  0.16759840  0.16595246  0.50107421  1
  Pb  Pb53  1  0.83523871  0.16651542  0.83168914  1
  I  I54  1  0.16639080  -0.00402285  0.17236182  1
  I  I55  1  0.16783263  -0.00332681  0.50003686  1
  I  I56  1  0.16104053  -0.00235512  0.83003643  1
  I  I57  1  0.16736279  0.33344522  0.16669949  1
  I  I58  1  0.16483918  0.33476316  0.50395413  1
  I  I59  1  0.16598903  0.33150772  0.82886412  1
  I  I60  1  0.17340587  0.67111211  0.16124164  1
  I  I61  1  0.17053012  0.66912879  0.50272547  1
  I  I62  1  0.16466242  0.67015603  0.83383755  1
  I  I63  1  0.49681715  -0.00110076  0.17137870  1
  I  I64  1  0.49780063  -0.00068105  0.49659035  1
  I  I65  1  0.50475593  -0.00015258  0.83333435  1
  I  I66  1  0.50203730  0.33056305  0.17152276  1
  I  I67  1  0.50255554  0.33012729  0.49672866  1
  I  I68  1  0.49847315  0.33301502  0.83277744  1
  I  I69  1  0.49679885  0.67041054  0.17060369  1
  I  I70  1  0.49801950  0.67027411  0.49607058  1
  I  I71  1  0.49553990  0.66709026  0.83333108  1
  I  I72  1  0.83498979  -0.00005117  0.16587600  1
  I  I73  1  0.83417054  0.00284477  0.50212841  1
  I  I74  1  0.83643790  -0.00262680  0.83131653  1
  I  I75  1  0.83273405  0.33645439  0.15951414  1
  I  I76  1  0.82900123  0.33010466  0.50235224  1
  I  I77  1  0.83520741  0.33570814  0.83561776  1
  I  I78  1  0.83231372  0.66432816  0.16563206  1
  I  I79  1  0.83152254  0.66683657  0.49966670  1
  I  I80  1  0.83944458  0.66731372  0.83567798  1
  I  I81  1  0.16559957  0.16110477  -0.00373232  1
  I  I82  1  0.16419173  0.16708620  0.33311867  1
  I  I83  1  0.16713473  0.16106616  0.66878356  1
  I  I84  1  0.16730896  0.49987965  0.00015681  1
  I  I85  1  0.16402344  0.50340468  0.33680889  1
  I  I86  1  0.16439168  0.50488223  0.66406012  1
  I  I87  1  0.16676518  0.83847883  -0.00029245  1
  I  I88  1  0.17118388  0.82861736  0.33391128  1
  I  I89  1  0.16672942  0.83342449  0.66638137  1
  I  I90  1  0.49954874  0.16051510  0.00303059  1
  I  I91  1  0.50353802  0.16211197  0.33427913  1
  I  I92  1  0.50275190  0.16208553  0.66340019  1
  I  I93  1  0.49646812  0.50015883  0.00023838  1
  I  I94  1  0.50379374  0.50005133  0.33342418  1
  I  I95  1  0.50178695  0.49973581  0.66620758  1
  I  I96  1  0.49726075  0.83751353  0.00311130  1
  I  I97  1  0.49207007  0.83754430  0.33379072  1
  I  I98  1  0.49655416  0.83790702  0.66342488  1
  I  I99  1  0.83234566  0.16598167  0.00002487  1
  I  I100  1  0.83422474  0.16779229  0.33677858  1
  I  I101  1  0.82739401  0.16845457  0.66391290  1
  I  I102  1  0.83411960  0.50421921  -0.00088579  1
  I  I103  1  0.83392350  0.49938593  0.33138679  1
  I  I104  1  0.83561665  0.50326668  0.66913033  1
  I  I105  1  0.83772497  0.83209215  -0.00337435  1
  I  I106  1  0.83622597  0.83190052  0.33343279  1
  I  I107  1  0.83805217  0.82767336  0.66993899  1
  I  I108  1  0.00016305  0.16641251  0.16819380  1
  I  I109  1  -0.00127711  0.16788089  0.50375567  1
  I  I110  1  0.00296788  0.16400204  0.82925401  1
  I  I111  1  -0.00302928  0.50113917  0.16245170  1
  I  I112  1  0.00308378  0.50556355  0.50102583  1
  I  I113  1  -0.00292506  0.50198689  0.83564559  1
  I  I114  1  0.00272129  0.83070852  0.16900649  1
  I  I115  1  0.00293502  0.83138791  0.49870522  1
  I  I116  1  0.00135800  0.83318870  0.83258935  1
  I  I117  1  0.33697765  0.16527378  0.17502547  1
  I  I118  1  0.33630619  0.16494355  0.49777810  1
  I  I119  1  0.32934774  0.15818947  0.82937846  1
  I  I120  1  0.33315314  0.49798059  0.16784320  1
  I  I121  1  0.32957748  0.50004899  0.50109786  1
  I  I122  1  0.33278550  0.49947467  0.83196864  1
  I  I123  1  0.33315291  0.83680867  0.16593963  1
  I  I124  1  0.33279902  0.83540503  0.50174504  1
  I  I125  1  0.33004356  0.83796420  0.83219130  1
  I  I126  1  0.66310763  0.15914193  0.16697133  1
  I  I127  1  0.66537127  0.16236521  0.49834513  1
  I  I128  1  0.66654242  0.16687188  0.83363485  1
  I  I129  1  0.66990389  0.50224879  0.16294898  1
  I  I130  1  0.66680063  0.50162757  0.50078039  1
  I  I131  1  0.67161813  0.50630303  0.83571420  1
  I  I132  1  0.66347470  0.83528323  0.17038685  1
  I  I133  1  0.66370319  0.83569296  0.49652669  1
  I  I134  1  0.66944721  0.82863352  0.83309289  1
