# generated using pymatgen
data_Cs27Sn13Pb14I81
_symmetry_space_group_name_H-M   'P 1'
_cell_length_a   18.98321469
_cell_length_b   19.00310259
_cell_length_c   18.98730234
_cell_angle_alpha   90.00036357
_cell_angle_beta   89.99760888
_cell_angle_gamma   89.99781407
_symmetry_Int_Tables_number   1
_chemical_formula_structural   Cs27Sn13Pb14I81
_chemical_formula_sum   'Cs27 Sn13 Pb14 I81'
_cell_volume   6849.47898463
_cell_formula_units_Z   1
loop_
 _symmetry_equiv_pos_site_id
 _symmetry_equiv_pos_as_xyz
  1  'x, y, z'
loop_
 _atom_site_type_symbol
 _atom_site_label
 _atom_site_symmetry_multiplicity
 _atom_site_fract_x
 _atom_site_fract_y
 _atom_site_fract_z
 _atom_site_occupancy
  Cs  Cs0  1  -0.00561328  -0.00013594  -0.00811011  1
  Cs  Cs1  1  0.00217099  0.00185333  0.33332765  1
  Cs  Cs2  1  0.00050488  -0.00262821  0.67223696  1
  Cs  Cs3  1  -0.01120459  0.33286205  -0.00619389  1
  Cs  Cs4  1  0.00063293  0.33156630  0.33516970  1
  Cs  Cs5  1  0.00255241  0.33631659  0.66678094  1
  Cs  Cs6  1  -0.00848976  0.66703099  -0.00872214  1
  Cs  Cs7  1  0.00200824  0.66784435  0.33323447  1
  Cs  Cs8  1  0.00180597  0.66589400  0.67491359  1
  Cs  Cs9  1  0.33223102  -0.00193877  0.00237189  1
  Cs  Cs10  1  0.33154178  0.00001676  0.33187457  1
  Cs  Cs11  1  0.33572257  0.00371409  0.66807314  1
  Cs  Cs12  1  0.33417190  0.33224119  0.00403935  1
  Cs  Cs13  1  0.33118804  0.33346753  0.33156450  1
  Cs  Cs14  1  0.33267829  0.33293174  0.66927740  1
  Cs  Cs15  1  0.33635537  0.66887638  0.00321780  1
  Cs  Cs16  1  0.33197436  0.66634008  0.33067123  1
  Cs  Cs17  1  0.33170056  0.66392775  0.66866684  1
  Cs  Cs18  1  0.67265565  0.00221938  -0.00037116  1
  Cs  Cs19  1  0.66920933  -0.00312021  0.33817502  1
  Cs  Cs20  1  0.66421801  0.00063304  0.66133993  1
  Cs  Cs21  1  0.67199403  0.33351514  -0.00131823  1
  Cs  Cs22  1  0.66801333  0.33394318  0.33430457  1
  Cs  Cs23  1  0.66452150  0.33039343  0.66468674  1
  Cs  Cs24  1  0.66484477  0.66486553  0.00071054  1
  Cs  Cs25  1  0.66828775  0.66803647  0.33481517  1
  Cs  Cs26  1  0.66612680  0.66945316  0.66382516  1
  Sn  Sn27  1  0.16682717  0.16668874  0.16664630  1
  Sn  Sn28  1  0.16664704  0.83333393  0.16707966  1
  Sn  Sn29  1  0.16714251  0.83410565  0.49954670  1
  Sn  Sn30  1  0.83464896  0.16730326  0.49944298  1
  Sn  Sn31  1  0.49953923  0.83294454  0.83421547  1
  Sn  Sn32  1  0.49956955  0.50052963  0.83367220  1
  Sn  Sn33  1  0.49950556  0.49981085  0.16685786  1
  Sn  Sn34  1  0.49979616  0.83353840  0.16620948  1
  Sn  Sn35  1  0.49982870  0.16650694  0.16715563  1
  Sn  Sn36  1  0.83301937  0.49965551  0.49935165  1
  Sn  Sn37  1  0.50036708  0.49989810  0.49962258  1
  Sn  Sn38  1  0.16645019  0.49998975  0.16640384  1
  Sn  Sn39  1  0.16603442  0.16569929  0.49946371  1
  Pb  Pb40  1  0.16678563  0.49996171  0.49848255  1
  Pb  Pb41  1  0.16694903  0.16683928  0.83414268  1
  Pb  Pb42  1  0.83340594  0.50013148  0.16885682  1
  Pb  Pb43  1  0.49744235  0.83106301  0.49955192  1
  Pb  Pb44  1  0.82922958  0.83326013  0.83311593  1
  Pb  Pb45  1  0.83382540  0.83331126  0.16687808  1
  Pb  Pb46  1  0.82990076  0.50000912  0.82981974  1
  Pb  Pb47  1  0.83305873  0.16676409  0.82923107  1
  Pb  Pb48  1  0.83671012  0.83302550  0.49978671  1
  Pb  Pb49  1  0.16917655  0.83333886  0.83416809  1
  Pb  Pb50  1  0.83394254  0.16656463  0.16880428  1
  Pb  Pb51  1  0.16932544  0.49986253  0.83753932  1
  Pb  Pb52  1  0.49911918  0.16880251  0.49756675  1
  Pb  Pb53  1  0.49979431  0.16658742  0.83657383  1
  I  I54  1  0.17542162  0.00001370  0.17308961  1
  I  I55  1  0.16202900  0.00076399  0.49110094  1
  I  I56  1  0.16975464  -0.00005432  0.83579429  1
  I  I57  1  0.17605305  0.33303373  0.17288719  1
  I  I58  1  0.16586425  0.33093283  0.49487304  1
  I  I59  1  0.17015334  0.33350411  0.83099102  1
  I  I60  1  0.17552298  0.66699766  0.17353307  1
  I  I61  1  0.16850308  0.66864163  0.49451962  1
  I  I62  1  0.16505050  0.66658590  0.82952928  1
  I  I63  1  0.49325504  -0.00050309  0.16222488  1
  I  I64  1  0.50361439  0.00001898  0.50109018  1
  I  I65  1  0.49875599  -0.00308618  0.83751096  1
  I  I66  1  0.49347802  0.33412570  0.16801069  1
  I  I67  1  0.49940941  0.33683371  0.50002111  1
  I  I68  1  0.50002931  0.33651068  0.83328202  1
  I  I69  1  0.49415824  0.66622015  0.16603816  1
  I  I70  1  0.50427206  0.66312823  0.49556850  1
  I  I71  1  0.49935614  0.66602541  0.83876673  1
  I  I72  1  0.83032158  0.00005272  0.17016479  1
  I  I73  1  0.83433978  0.00290122  0.49865979  1
  I  I74  1  0.83171355  0.00001258  0.83240466  1
  I  I75  1  0.83234658  0.33336471  0.16617136  1
  I  I76  1  0.83468394  0.33334302  0.49810215  1
  I  I77  1  0.83037182  0.33361601  0.83656208  1
  I  I78  1  0.83335851  0.66657204  0.17051698  1
  I  I79  1  0.82797089  0.66375660  0.49902619  1
  I  I80  1  0.83647652  0.66639261  0.83041424  1
  I  I81  1  0.17402766  0.16559742  0.00441775  1
  I  I82  1  0.16706392  0.16598026  0.33271910  1
  I  I83  1  0.16223201  0.16215363  0.66307495  1
  I  I84  1  0.17360411  0.50046219  0.00571135  1
  I  I85  1  0.17347525  0.50016651  0.33041189  1
  I  I86  1  0.16743691  0.49994309  0.66671717  1
  I  I87  1  0.17048097  0.83410352  0.00395755  1
  I  I88  1  0.17273015  0.83394776  0.33198894  1
  I  I89  1  0.16720321  0.83812325  0.66401304  1
  I  I90  1  0.49243414  0.17098567  0.00481422  1
  I  I91  1  0.49826398  0.16642242  0.32954775  1
  I  I92  1  0.50083576  0.16697615  0.66640378  1
  I  I93  1  0.49372324  0.50132678  0.00139392  1
  I  I94  1  0.50012862  0.49992042  0.33221790  1
  I  I95  1  0.50534981  0.50508880  0.66641174  1
  I  I96  1  0.49348253  0.82763289  0.00185163  1
  I  I97  1  0.49795920  0.83222900  0.33006954  1
  I  I98  1  0.49891553  0.82745930  0.66862963  1
  I  I99  1  0.83353948  0.16636216  -0.00003851  1
  I  I100  1  0.83451478  0.17144147  0.33656692  1
  I  I101  1  0.83862811  0.17186312  0.66125411  1
  I  I102  1  0.83413904  0.50025738  -0.00028301  1
  I  I103  1  0.82607739  0.49618003  0.33655649  1
  I  I104  1  0.82970569  0.49525241  0.66204654  1
  I  I105  1  0.83873732  0.83367956  -0.00011696  1
  I  I106  1  0.82635118  0.83255515  0.33366605  1
  I  I107  1  0.83342447  0.83365681  0.66629829  1
  I  I108  1  0.00378648  0.16680727  0.17022449  1
  I  I109  1  0.00113859  0.16944678  0.49259646  1
  I  I110  1  -0.00008184  0.16638584  0.83938011  1
  I  I111  1  0.00328252  0.49972475  0.17154738  1
  I  I112  1  -0.00188677  0.49835648  0.49579750  1
  I  I113  1  -0.00022205  0.49985120  0.83336195  1
  I  I114  1  0.00419637  0.83341379  0.17338784  1
  I  I115  1  0.00451795  0.83239455  0.49155996  1
  I  I116  1  0.00008192  0.83361043  0.83354359  1
  I  I117  1  0.33304561  0.16738861  0.17263387  1
  I  I118  1  0.33020219  0.16401456  0.49735105  1
  I  I119  1  0.33366120  0.16764520  0.82578211  1
  I  I120  1  0.33470475  0.49999097  0.16964509  1
  I  I121  1  0.33611876  0.50040614  0.50090426  1
  I  I122  1  0.33750916  0.50357166  0.82635717  1
  I  I123  1  0.33377364  0.83282112  0.16702697  1
  I  I124  1  0.32984941  0.83851198  0.49723101  1
  I  I125  1  0.33691899  0.82807369  0.83561005  1
  I  I126  1  0.66361437  0.16785472  0.16685566  1
  I  I127  1  0.66830477  0.17007663  0.49876046  1
  I  I128  1  0.66625672  0.16615553  0.83417587  1
  I  I129  1  0.66272364  0.50012029  0.16461113  1
  I  I130  1  0.66555200  0.49456908  0.49810268  1
  I  I131  1  0.66200660  0.50399076  0.84072386  1
  I  I132  1  0.66268967  0.83210475  0.16237787  1
  I  I133  1  0.66640830  0.83556212  0.50068106  1
  I  I134  1  0.66127401  0.82803416  0.83986773  1
