# generated using pymatgen
data_Cs27Sn14Pb13I81
_symmetry_space_group_name_H-M   'P 1'
_cell_length_a   18.97849826
_cell_length_b   18.97907171
_cell_length_c   18.96837321
_cell_angle_alpha   89.99810355
_cell_angle_beta   89.99778986
_cell_angle_gamma   90.00097845
_symmetry_Int_Tables_number   1
_chemical_formula_structural   Cs27Sn14Pb13I81
_chemical_formula_sum   'Cs27 Sn14 Pb13 I81'
_cell_volume   6832.29951031
_cell_formula_units_Z   1
loop_
 _symmetry_equiv_pos_site_id
 _symmetry_equiv_pos_as_xyz
  1  'x, y, z'
loop_
 _atom_site_type_symbol
 _atom_site_label
 _atom_site_symmetry_multiplicity
 _atom_site_fract_x
 _atom_site_fract_y
 _atom_site_fract_z
 _atom_site_occupancy
  Cs  Cs0  1  0.00212751  0.00302708  -0.00122017  1
  Cs  Cs1  1  -0.00196132  0.00041732  0.34005067  1
  Cs  Cs2  1  -0.00244297  -0.00710273  0.66385765  1
  Cs  Cs3  1  -0.00140199  0.33265398  -0.00029659  1
  Cs  Cs4  1  0.00859774  0.32971460  0.33639677  1
  Cs  Cs5  1  -0.00196011  0.33705878  0.66684634  1
  Cs  Cs6  1  -0.00068916  0.66524833  0.00059875  1
  Cs  Cs7  1  -0.00133390  0.67046186  0.33659562  1
  Cs  Cs8  1  0.00328160  0.66808853  0.66423187  1
  Cs  Cs9  1  0.33224513  0.00074341  -0.00113463  1
  Cs  Cs10  1  0.33182152  0.00765148  0.33083048  1
  Cs  Cs11  1  0.33699863  -0.00512468  0.66924559  1
  Cs  Cs12  1  0.33288164  0.33241593  -0.00013124  1
  Cs  Cs13  1  0.32837519  0.33130272  0.33473138  1
  Cs  Cs14  1  0.33667248  0.33594758  0.66678990  1
  Cs  Cs15  1  0.33343996  0.66771366  0.00134705  1
  Cs  Cs16  1  0.33509048  0.66432157  0.33108993  1
  Cs  Cs17  1  0.33297788  0.66652269  0.66681620  1
  Cs  Cs18  1  0.66657609  0.00056915  -0.00063645  1
  Cs  Cs19  1  0.67101661  -0.00234964  0.33629881  1
  Cs  Cs20  1  0.66551669  0.00085326  0.66629075  1
  Cs  Cs21  1  0.66838999  0.33398116  -0.00117403  1
  Cs  Cs22  1  0.66574023  0.33357937  0.33543575  1
  Cs  Cs23  1  0.66580305  0.33389581  0.66703749  1
  Cs  Cs24  1  0.66847555  0.66516921  0.00684802  1
  Cs  Cs25  1  0.66727437  0.66822092  0.32568796  1
  Cs  Cs26  1  0.66470711  0.66428654  0.66812981  1
  Sn  Sn27  1  0.50006491  0.16678825  0.83418897  1
  Sn  Sn28  1  0.50119968  0.83283302  0.83328658  1
  Sn  Sn29  1  0.83236643  0.16691101  0.16619830  1
  Sn  Sn30  1  0.50144695  0.16684527  0.16583735  1
  Sn  Sn31  1  0.16670579  0.50121590  0.16557837  1
  Sn  Sn32  1  0.16668144  0.16735899  0.83321524  1
  Sn  Sn33  1  0.50123074  0.50122246  0.50044603  1
  Sn  Sn34  1  0.49943703  0.50030005  0.83337095  1
  Sn  Sn35  1  0.16749336  0.49931855  0.83431528  1
  Sn  Sn36  1  0.16661158  0.83270408  0.16650620  1
  Sn  Sn37  1  0.83327913  0.16575538  0.83377872  1
  Sn  Sn38  1  0.49983643  0.83227267  0.50011948  1
  Sn  Sn39  1  0.83217040  0.49995652  0.49986814  1
  Sn  Sn40  1  0.83230380  0.83361330  0.83383228  1
  Pb  Pb41  1  0.83320160  0.16865430  0.50072139  1
  Pb  Pb42  1  0.16628907  0.16679572  0.16486286  1
  Pb  Pb43  1  0.17005888  0.83324863  0.49694267  1
  Pb  Pb44  1  0.49998189  0.16674133  0.50042077  1
  Pb  Pb45  1  0.16684162  0.83290210  0.83448956  1
  Pb  Pb46  1  0.83616882  0.49731795  0.16944994  1
  Pb  Pb47  1  0.16750709  0.50011530  0.50055472  1
  Pb  Pb48  1  0.49846191  0.49763510  0.16666092  1
  Pb  Pb49  1  0.83560950  0.83577945  0.16431088  1
  Pb  Pb50  1  0.16681529  0.16634017  0.50468264  1
  Pb  Pb51  1  0.83327886  0.50009074  0.83244301  1
  Pb  Pb52  1  0.49868002  0.83576951  0.16647946  1
  Pb  Pb53  1  0.83056312  0.83084251  0.50247180  1
  I  I54  1  0.16846452  -0.00140933  0.16398560  1
  I  I55  1  0.16773004  -0.00027420  0.49778062  1
  I  I56  1  0.16946328  0.00243420  0.83645179  1
  I  I57  1  0.16709286  0.33539787  0.16492943  1
  I  I58  1  0.16878732  0.33357545  0.49347324  1
  I  I59  1  0.16965497  0.33372995  0.83930727  1
  I  I60  1  0.16863907  0.66566211  0.15945445  1
  I  I61  1  0.16394652  0.66655756  0.50514030  1
  I  I62  1  0.16976718  0.66382506  0.83500888  1
  I  I63  1  0.49934313  0.00355659  0.16177206  1
  I  I64  1  0.49854864  -0.00260039  0.50440700  1
  I  I65  1  0.49932900  0.00034603  0.83283916  1
  I  I66  1  0.50047877  0.32984459  0.16169287  1
  I  I67  1  0.50281067  0.33639575  0.50421253  1
  I  I68  1  0.49894163  0.33325845  0.83283181  1
  I  I69  1  0.49894005  0.66656183  0.16453707  1
  I  I70  1  0.50241815  0.66583913  0.50952135  1
  I  I71  1  0.49860675  0.66639592  0.82752227  1
  I  I72  1  0.83141849  0.00374783  0.16470458  1
  I  I73  1  0.83289275  -0.00024380  0.49836438  1
  I  I74  1  0.83095109  0.00111750  0.83663535  1
  I  I75  1  0.83128330  0.32970663  0.15785472  1
  I  I76  1  0.82650971  0.33632505  0.50339986  1
  I  I77  1  0.83164104  0.33054390  0.83529794  1
  I  I78  1  0.83335920  0.66660921  0.16588624  1
  I  I79  1  0.83263850  0.66329088  0.50272749  1
  I  I80  1  0.83091916  0.66895452  0.83014623  1
  I  I81  1  0.16763167  0.16803403  -0.00333545  1
  I  I82  1  0.16733573  0.16757025  0.33297436  1
  I  I83  1  0.16812576  0.17403178  0.67279855  1
  I  I84  1  0.17237472  0.49924527  -0.00150066  1
  I  I85  1  0.16662944  0.50290929  0.33077673  1
  I  I86  1  0.16785676  0.49473208  0.67000104  1
  I  I87  1  0.16959630  0.83245474  0.00198359  1
  I  I88  1  0.16750239  0.82711772  0.32912330  1
  I  I89  1  0.16451946  0.83389086  0.66689385  1
  I  I90  1  0.49977395  0.16656933  -0.00225163  1
  I  I91  1  0.50327401  0.16644058  0.33051772  1
  I  I92  1  0.50030031  0.16705823  0.67050427  1
  I  I93  1  0.49711504  0.50177457  -0.00332341  1
  I  I94  1  0.50213056  0.50321770  0.33600516  1
  I  I95  1  0.49777752  0.49793115  0.66837189  1
  I  I96  1  0.50164886  0.83147641  -0.00350201  1
  I  I97  1  0.49678455  0.82911973  0.33571785  1
  I  I98  1  0.50221534  0.83557779  0.66872596  1
  I  I99  1  0.83255458  0.16413075  -0.00179674  1
  I  I100  1  0.82886024  0.16887339  0.33057227  1
  I  I101  1  0.83214976  0.16429822  0.67063640  1
  I  I102  1  0.83186673  0.50127386  0.00004640  1
  I  I103  1  0.82650266  0.49898349  0.33692085  1
  I  I104  1  0.83351625  0.49753195  0.66472120  1
  I  I105  1  0.82593996  0.83347807  -0.00380360  1
  I  I106  1  0.83375937  0.83468819  0.33338969  1
  I  I107  1  0.83380257  0.84106797  0.67053735  1
  I  I108  1  -0.00217632  0.16758198  0.16103911  1
  I  I109  1  -0.00015345  0.17013028  0.49724208  1
  I  I110  1  -0.00040596  0.16740880  0.83858443  1
  I  I111  1  0.00388194  0.50088871  0.15995560  1
  I  I112  1  -0.00189603  0.49741340  0.50093819  1
  I  I113  1  0.00252976  0.49643851  0.83489992  1
  I  I114  1  0.00326647  0.83066661  0.16302817  1
  I  I115  1  -0.00025391  0.83197445  0.50131052  1
  I  I116  1  -0.00211330  0.83718584  0.83613977  1
  I  I117  1  0.33535503  0.16612417  0.16285495  1
  I  I118  1  0.33371238  0.16970941  0.49597312  1
  I  I119  1  0.33440647  0.16705471  0.83758936  1
  I  I120  1  0.33053624  0.50015915  0.16659358  1
  I  I121  1  0.33669503  0.50320346  0.50226191  1
  I  I122  1  0.33432690  0.49661516  0.83100493  1
  I  I123  1  0.33098279  0.83216282  0.16375067  1
  I  I124  1  0.33771888  0.82658306  0.50976963  1
  I  I125  1  0.33641303  0.83597255  0.83104380  1
  I  I126  1  0.66624711  0.16697130  0.15737387  1
  I  I127  1  0.66646556  0.16622832  0.50314965  1
  I  I128  1  0.66598000  0.16642839  0.83705461  1
  I  I129  1  0.66667393  0.50005505  0.16459605  1
  I  I130  1  0.66478001  0.50145812  0.50758687  1
  I  I131  1  0.66363437  0.49713836  0.82979696  1
  I  I132  1  0.66667853  0.83319563  0.16821991  1
  I  I133  1  0.66278475  0.83256406  0.50154396  1
  I  I134  1  0.66530420  0.83746582  0.82951281  1
