# generated using pymatgen
data_Cs27Sn14Pb13I81
_symmetry_space_group_name_H-M   'P 1'
_cell_length_a   18.98297187
_cell_length_b   18.96601861
_cell_length_c   18.97762799
_cell_angle_alpha   90.00010518
_cell_angle_beta   90.00041353
_cell_angle_gamma   89.99826528
_symmetry_Int_Tables_number   1
_chemical_formula_structural   Cs27Sn14Pb13I81
_chemical_formula_sum   'Cs27 Sn14 Pb13 I81'
_cell_volume   6832.54193032
_cell_formula_units_Z   1
loop_
 _symmetry_equiv_pos_site_id
 _symmetry_equiv_pos_as_xyz
  1  'x, y, z'
loop_
 _atom_site_type_symbol
 _atom_site_label
 _atom_site_symmetry_multiplicity
 _atom_site_fract_x
 _atom_site_fract_y
 _atom_site_fract_z
 _atom_site_occupancy
  Cs  Cs0  1  0.00066755  -0.00013573  -0.00120784  1
  Cs  Cs1  1  0.00278132  -0.00135904  0.33591557  1
  Cs  Cs2  1  0.00021354  0.00176817  0.66634522  1
  Cs  Cs3  1  -0.00338308  0.33270981  -0.00048859  1
  Cs  Cs4  1  0.00446153  0.34416322  0.33441987  1
  Cs  Cs5  1  0.00259872  0.32967741  0.66696900  1
  Cs  Cs6  1  0.00179560  0.66759826  -0.00203599  1
  Cs  Cs7  1  -0.00369628  0.66130382  0.33430085  1
  Cs  Cs8  1  -0.00420941  0.66808882  0.66986809  1
  Cs  Cs9  1  0.33219834  -0.00189796  0.00049868  1
  Cs  Cs10  1  0.33409732  0.00058897  0.33405434  1
  Cs  Cs11  1  0.33316897  0.00011608  0.66617752  1
  Cs  Cs12  1  0.33531520  0.33495383  0.00064876  1
  Cs  Cs13  1  0.32922967  0.34088057  0.33302479  1
  Cs  Cs14  1  0.33332662  0.33278760  0.66466033  1
  Cs  Cs15  1  0.33245991  0.66754482  -0.00184387  1
  Cs  Cs16  1  0.33258351  0.66463265  0.33174839  1
  Cs  Cs17  1  0.33735710  0.66760742  0.67037901  1
  Cs  Cs18  1  0.66700438  0.00195904  0.00071375  1
  Cs  Cs19  1  0.66446749  -0.00148107  0.33446354  1
  Cs  Cs20  1  0.66646092  0.00083535  0.66512842  1
  Cs  Cs21  1  0.66809115  0.33068741  0.00684268  1
  Cs  Cs22  1  0.66779649  0.33765928  0.32360002  1
  Cs  Cs23  1  0.66435759  0.33130478  0.66899749  1
  Cs  Cs24  1  0.66561343  0.66786351  -0.00286644  1
  Cs  Cs25  1  0.67229295  0.66568230  0.33866602  1
  Cs  Cs26  1  0.66708731  0.66478147  0.66578671  1
  Sn  Sn27  1  0.50011822  0.83369787  0.16686269  1
  Sn  Sn28  1  0.83354683  0.83397112  0.16591681  1
  Sn  Sn29  1  0.16653747  0.16595136  0.16614744  1
  Sn  Sn30  1  0.49886864  0.83394313  0.50004303  1
  Sn  Sn31  1  0.16736494  0.83336939  0.49913906  1
  Sn  Sn32  1  0.16765531  0.16748899  0.83434320  1
  Sn  Sn33  1  0.83220586  0.16688301  0.49919523  1
  Sn  Sn34  1  0.16605936  0.49858833  0.83324197  1
  Sn  Sn35  1  0.50105186  0.16631249  0.50009412  1
  Sn  Sn36  1  0.83377321  0.50022078  0.83319983  1
  Sn  Sn37  1  0.16646604  0.83413988  0.16800136  1
  Sn  Sn38  1  0.50127769  0.83455193  0.83324736  1
  Sn  Sn39  1  0.83220181  0.83310160  0.83395011  1
  Sn  Sn40  1  0.49914033  0.16565438  0.83297383  1
  Pb  Pb41  1  0.83292605  0.16633528  0.83245949  1
  Pb  Pb42  1  0.16668375  0.50051980  0.16400830  1
  Pb  Pb43  1  0.83634739  0.16425926  0.16982166  1
  Pb  Pb44  1  0.83308767  0.83447989  0.50025139  1
  Pb  Pb45  1  0.83339226  0.50294740  0.16380568  1
  Pb  Pb46  1  0.50039262  0.49930062  0.83336557  1
  Pb  Pb47  1  0.49781248  0.16491633  0.16710450  1
  Pb  Pb48  1  0.50000380  0.50357102  0.16659621  1
  Pb  Pb49  1  0.16674284  0.83385446  0.83333499  1
  Pb  Pb50  1  0.16680043  0.50388000  0.50335811  1
  Pb  Pb51  1  0.83306896  0.49624641  0.50299206  1
  Pb  Pb52  1  0.50013808  0.49949785  0.50006393  1
  Pb  Pb53  1  0.16748124  0.16533702  0.49971671  1
  I  I54  1  0.16710651  -0.00153504  0.16312202  1
  I  I55  1  0.16798822  -0.00285225  0.50147312  1
  I  I56  1  0.16733149  0.00234290  0.83394821  1
  I  I57  1  0.16732796  0.33045022  0.16511032  1
  I  I58  1  0.16651376  0.33339870  0.49736636  1
  I  I59  1  0.16618962  0.33184072  0.83802018  1
  I  I60  1  0.16739505  0.67059898  0.16888666  1
  I  I61  1  0.17190617  0.67194785  0.49432052  1
  I  I62  1  0.16570125  0.66539026  0.83270195  1
  I  I63  1  0.50124557  -0.00385802  0.16575728  1
  I  I64  1  0.49981021  -0.00120345  0.50199661  1
  I  I65  1  0.49948012  -0.00100357  0.83238903  1
  I  I66  1  0.49815963  0.33289592  0.16605072  1
  I  I67  1  0.50308142  0.32929714  0.50820327  1
  I  I68  1  0.49816532  0.32970565  0.82710186  1
  I  I69  1  0.49580671  0.67280816  0.16456995  1
  I  I70  1  0.49578129  0.67084544  0.50113522  1
  I  I71  1  0.49964559  0.67012610  0.83336723  1
  I  I72  1  0.83149702  -0.00400733  0.15825750  1
  I  I73  1  0.83243909  0.00198693  0.50401904  1
  I  I74  1  0.83289546  -0.00289428  0.83589236  1
  I  I75  1  0.83455222  0.33309050  0.16646037  1
  I  I76  1  0.82833911  0.32848543  0.50279832  1
  I  I77  1  0.83558330  0.33525678  0.82877703  1
  I  I78  1  0.83581379  0.67162533  0.16720027  1
  I  I79  1  0.83395190  0.66673021  0.49819899  1
  I  I80  1  0.83481758  0.66830779  0.83659083  1
  I  I81  1  0.17123710  0.16310456  -0.00114280  1
  I  I82  1  0.16619646  0.16095125  0.33099109  1
  I  I83  1  0.16708811  0.16812086  0.66930079  1
  I  I84  1  0.16327806  0.50221542  -0.00380135  1
  I  I85  1  0.16696884  0.49702187  0.33333270  1
  I  I86  1  0.16305166  0.49424488  0.67105155  1
  I  I87  1  0.16872759  0.83366401  0.00217817  1
  I  I88  1  0.16953541  0.84068498  0.33229952  1
  I  I89  1  0.16948903  0.83379712  0.66484437  1
  I  I90  1  0.49753143  0.16233575  -0.00284149  1
  I  I91  1  0.50270878  0.16005694  0.33625258  1
  I  I92  1  0.49810692  0.15823290  0.66749773  1
  I  I93  1  0.49938333  0.50029386  -0.00046036  1
  I  I94  1  0.49939775  0.49874961  0.33338572  1
  I  I95  1  0.49931544  0.50630102  0.66699699  1
  I  I96  1  0.49995553  0.83652052  -0.00067942  1
  I  I97  1  0.49868272  0.83803617  0.33369187  1
  I  I98  1  0.49894074  0.83674384  0.66707505  1
  I  I99  1  0.83162787  0.16847332  0.00026280  1
  I  I100  1  0.82701107  0.16126727  0.33715249  1
  I  I101  1  0.83459751  0.16308409  0.66474280  1
  I  I102  1  0.83756574  0.50049020  -0.00410231  1
  I  I103  1  0.83315653  0.50112840  0.33330436  1
  I  I104  1  0.83739520  0.51007311  0.67065342  1
  I  I105  1  0.83123720  0.83008083  -0.00071519  1
  I  I106  1  0.83164783  0.83713680  0.33096206  1
  I  I107  1  0.83154361  0.83085170  0.66955965  1
  I  I108  1  0.00396396  0.15878223  0.16019777  1
  I  I109  1  -0.00116120  0.16261185  0.50209758  1
  I  I110  1  0.00237546  0.16628548  0.83433966  1
  I  I111  1  0.00010761  0.50242526  0.16760111  1
  I  I112  1  0.00004135  0.49990073  0.49912373  1
  I  I113  1  0.00006530  0.50209532  0.83363538  1
  I  I114  1  0.00052188  0.83756094  0.16530796  1
  I  I115  1  0.00205330  0.83641161  0.49820906  1
  I  I116  1  -0.00193812  0.83261010  0.83559218  1
  I  I117  1  0.33004484  0.15893488  0.16581864  1
  I  I118  1  0.33622382  0.16203731  0.50283217  1
  I  I119  1  0.33358867  0.16510206  0.83075327  1
  I  I120  1  0.33298098  0.50220444  0.16399811  1
  I  I121  1  0.33317478  0.49606465  0.50250301  1
  I  I122  1  0.33087594  0.50055187  0.83377522  1
  I  I123  1  0.33318964  0.83741397  0.16646510  1
  I  I124  1  0.33443918  0.83951965  0.49872287  1
  I  I125  1  0.33581385  0.83371909  0.83468065  1
  I  I126  1  0.66663500  0.16569854  0.16372151  1
  I  I127  1  0.66495594  0.15814737  0.50855979  1
  I  I128  1  0.66388885  0.16478622  0.82997334  1
  I  I129  1  0.66690332  0.49891648  0.16333788  1
  I  I130  1  0.66676731  0.50663491  0.50338044  1
  I  I131  1  0.66933451  0.50363115  0.83247751  1
  I  I132  1  0.66627304  0.83260759  0.16518573  1
  I  I133  1  0.66369957  0.83575226  0.49827466  1
  I  I134  1  0.66599537  0.83281527  0.83592667  1
