# generated using pymatgen
data_Cs27Sn14Pb13I81
_symmetry_space_group_name_H-M   'P 1'
_cell_length_a   18.97539519
_cell_length_b   18.97907690
_cell_length_c   18.97103673
_cell_angle_alpha   89.99925987
_cell_angle_beta   89.99859216
_cell_angle_gamma   90.00020060
_symmetry_Int_Tables_number   1
_chemical_formula_structural   Cs27Sn14Pb13I81
_chemical_formula_sum   'Cs27 Sn14 Pb13 I81'
_cell_volume   6832.14350394
_cell_formula_units_Z   1
loop_
 _symmetry_equiv_pos_site_id
 _symmetry_equiv_pos_as_xyz
  1  'x, y, z'
loop_
 _atom_site_type_symbol
 _atom_site_label
 _atom_site_symmetry_multiplicity
 _atom_site_fract_x
 _atom_site_fract_y
 _atom_site_fract_z
 _atom_site_occupancy
  Cs  Cs0  1  0.00033683  -0.00600139  0.00192137  1
  Cs  Cs1  1  -0.00052147  -0.00060432  0.33311045  1
  Cs  Cs2  1  -0.00129605  0.00032141  0.66479569  1
  Cs  Cs3  1  0.00200387  0.33622119  -0.00173111  1
  Cs  Cs4  1  -0.00132697  0.32687059  0.33313967  1
  Cs  Cs5  1  0.00551427  0.33034396  0.66693667  1
  Cs  Cs6  1  -0.00048460  0.66742710  0.00180022  1
  Cs  Cs7  1  -0.00188210  0.67108952  0.32802247  1
  Cs  Cs8  1  -0.00204993  0.66728122  0.66856503  1
  Cs  Cs9  1  0.33777093  0.00381063  -0.00085317  1
  Cs  Cs10  1  0.33471280  -0.00188975  0.33203862  1
  Cs  Cs11  1  0.33457471  -0.00016335  0.66935801  1
  Cs  Cs12  1  0.33156617  0.33065439  0.00031115  1
  Cs  Cs13  1  0.33321112  0.33553174  0.33389618  1
  Cs  Cs14  1  0.32197562  0.33579159  0.66445299  1
  Cs  Cs15  1  0.33421255  0.66611166  0.00215974  1
  Cs  Cs16  1  0.33466169  0.66614348  0.33359606  1
  Cs  Cs17  1  0.33335255  0.66538930  0.66449374  1
  Cs  Cs18  1  0.66166194  0.00579951  -0.00200172  1
  Cs  Cs19  1  0.66558688  0.00461332  0.33422637  1
  Cs  Cs20  1  0.66707472  -0.00192397  0.66743340  1
  Cs  Cs21  1  0.66650377  0.33381331  0.00293418  1
  Cs  Cs22  1  0.66706936  0.32955490  0.33116050  1
  Cs  Cs23  1  0.66928076  0.33798630  0.66553522  1
  Cs  Cs24  1  0.66760115  0.66431194  -0.00216297  1
  Cs  Cs25  1  0.66476399  0.66538403  0.33526365  1
  Cs  Cs26  1  0.66691633  0.66743189  0.66718080  1
  Sn  Sn27  1  0.16663509  0.16737273  0.16667369  1
  Sn  Sn28  1  0.83268600  0.49977183  0.83232900  1
  Sn  Sn29  1  0.83365494  0.50059986  0.50047339  1
  Sn  Sn30  1  0.49998383  0.49972354  0.83367085  1
  Sn  Sn31  1  0.16637768  0.83303088  0.83260102  1
  Sn  Sn32  1  0.83328879  0.83245949  0.50052762  1
  Sn  Sn33  1  0.83326659  0.16672601  0.83340195  1
  Sn  Sn34  1  0.50051385  0.83265039  0.16713275  1
  Sn  Sn35  1  0.16660080  0.83305305  0.50081097  1
  Sn  Sn36  1  0.50017971  0.83417788  0.49925906  1
  Sn  Sn37  1  0.83389262  0.83353501  0.83275864  1
  Sn  Sn38  1  0.16721412  0.49918632  0.16680275  1
  Sn  Sn39  1  0.49973022  0.16642497  0.50087723  1
  Sn  Sn40  1  0.49934819  0.50083372  0.16582425  1
  Pb  Pb41  1  0.50159137  0.17032219  0.83045174  1
  Pb  Pb42  1  0.16884875  0.16395923  0.49827130  1
  Pb  Pb43  1  0.16324520  0.50253819  0.49729461  1
  Pb  Pb44  1  0.50148603  0.50022807  0.49993942  1
  Pb  Pb45  1  0.50030482  0.83171225  0.83293017  1
  Pb  Pb46  1  0.16632487  0.50217177  0.83497129  1
  Pb  Pb47  1  0.82986085  0.83349706  0.16648511  1
  Pb  Pb48  1  0.16444793  0.16372053  0.83516935  1
  Pb  Pb49  1  0.83582757  0.16650215  0.16383002  1
  Pb  Pb50  1  0.83182806  0.16636426  0.50190095  1
  Pb  Pb51  1  0.16884221  0.83309602  0.16645882  1
  Pb  Pb52  1  0.49844112  0.16729224  0.16827928  1
  Pb  Pb53  1  0.83300800  0.50012229  0.16682880  1
  I  I54  1  0.16774836  0.00137312  0.16659523  1
  I  I55  1  0.16103081  -0.00427614  0.50055208  1
  I  I56  1  0.16220300  -0.00420555  0.83212220  1
  I  I57  1  0.17274175  0.33444247  0.16545399  1
  I  I58  1  0.16747668  0.33350514  0.50022643  1
  I  I59  1  0.16592887  0.33346528  0.83375263  1
  I  I60  1  0.16932167  0.66465822  0.16657174  1
  I  I61  1  0.17289701  0.67057788  0.50142184  1
  I  I62  1  0.16114314  0.66995611  0.83217565  1
  I  I63  1  0.49825587  -0.00235789  0.16901141  1
  I  I64  1  0.50233479  -0.00257469  0.49369778  1
  I  I65  1  0.50070743  -0.00001961  0.83660703  1
  I  I66  1  0.49861659  0.33649204  0.16449306  1
  I  I67  1  0.50407504  0.33173100  0.49931506  1
  I  I68  1  0.50637679  0.33799998  0.83912746  1
  I  I69  1  0.49396783  0.66613916  0.16905211  1
  I  I70  1  0.49915051  0.66958866  0.49850454  1
  I  I71  1  0.50577670  0.66395892  0.83336788  1
  I  I72  1  0.83460886  -0.00021484  0.16692005  1
  I  I73  1  0.83451104  -0.00350522  0.50395175  1
  I  I74  1  0.83826512  -0.00159483  0.82940003  1
  I  I75  1  0.82880663  0.33351245  0.16817496  1
  I  I76  1  0.82958770  0.33588171  0.50341790  1
  I  I77  1  0.82761579  0.33479017  0.83035912  1
  I  I78  1  0.83844306  0.66678912  0.16298064  1
  I  I79  1  0.83058311  0.66803292  0.50761696  1
  I  I80  1  0.83286552  0.66684383  0.82905897  1
  I  I81  1  0.16784046  0.16835831  0.00294195  1
  I  I82  1  0.16674191  0.16906295  0.33042991  1
  I  I83  1  0.16724194  0.16771396  0.66666838  1
  I  I84  1  0.16613303  0.50013459  0.00291171  1
  I  I85  1  0.17353640  0.49930011  0.32969064  1
  I  I86  1  0.17009706  0.49941387  0.66651612  1
  I  I87  1  0.16176396  0.83254170  -0.00226453  1
  I  I88  1  0.16422012  0.83306077  0.33590147  1
  I  I89  1  0.16778339  0.83313351  0.66615014  1
  I  I90  1  0.50022164  0.16355971  -0.00023055  1
  I  I91  1  0.50129255  0.16572362  0.33614877  1
  I  I92  1  0.50098850  0.15773117  0.66314497  1
  I  I93  1  0.50280115  0.50630374  0.00054778  1
  I  I94  1  0.49767220  0.50184918  0.33089858  1
  I  I95  1  0.50468634  0.50137340  0.66891149  1
  I  I96  1  0.49871652  0.83033247  0.00197627  1
  I  I97  1  0.49896743  0.83081884  0.33435832  1
  I  I98  1  0.50042406  0.83518812  0.66372487  1
  I  I99  1  0.83164843  0.16652675  -0.00431719  1
  I  I100  1  0.83286090  0.16727408  0.33362112  1
  I  I101  1  0.83262823  0.16638831  0.66978638  1
  I  I102  1  0.83234736  0.50152455  -0.00326610  1
  I  I103  1  0.83292724  0.50660332  0.33621479  1
  I  I104  1  0.82608768  0.50240437  0.66791396  1
  I  I105  1  0.83853635  0.83120104  -0.00358400  1
  I  I106  1  0.83646914  0.82804557  0.33680242  1
  I  I107  1  0.83179571  0.83215305  0.66659857  1
  I  I108  1  0.00367416  0.17246378  0.16805955  1
  I  I109  1  0.00005907  0.16643535  0.49901585  1
  I  I110  1  -0.00355724  0.17241204  0.83233577  1
  I  I111  1  0.00245572  0.49683087  0.16651187  1
  I  I112  1  -0.00449701  0.50438680  0.50631798  1
  I  I113  1  -0.00324770  0.49926821  0.83123960  1
  I  I114  1  0.00005883  0.83318874  0.16857260  1
  I  I115  1  -0.00071455  0.82841524  0.50448259  1
  I  I116  1  -0.00128475  0.83176389  0.82704932  1
  I  I117  1  0.33078706  0.16687935  0.16651675  1
  I  I118  1  0.33670491  0.16189845  0.49962472  1
  I  I119  1  0.33324087  0.16573093  0.83383018  1
  I  I120  1  0.33454678  0.50107765  0.16134355  1
  I  I121  1  0.33316062  0.50065982  0.50224568  1
  I  I122  1  0.33561720  0.50316168  0.83599456  1
  I  I123  1  0.33648751  0.83143369  0.17075542  1
  I  I124  1  0.33385990  0.83796959  0.49938545  1
  I  I125  1  0.33141006  0.83077720  0.83096998  1
  I  I126  1  0.66639154  0.16664421  0.16712477  1
  I  I127  1  0.66404527  0.16068946  0.49863450  1
  I  I128  1  0.66960407  0.15983543  0.83341044  1
  I  I129  1  0.66369659  0.50495908  0.16538298  1
  I  I130  1  0.66938759  0.50598341  0.50050973  1
  I  I131  1  0.66775004  0.50320858  0.83563614  1
  I  I132  1  0.66207239  0.82646602  0.17048793  1
  I  I133  1  0.66694357  0.83271698  0.50048727  1
  I  I134  1  0.66965801  0.83366101  0.83041283  1
