# generated using pymatgen
data_Cs27Sn13Pb14I81
_symmetry_space_group_name_H-M   'P 1'
_cell_length_a   19.30331547
_cell_length_b   19.31418595
_cell_length_c   19.30444682
_cell_angle_alpha   89.99547493
_cell_angle_beta   89.96255414
_cell_angle_gamma   89.98007818
_symmetry_Int_Tables_number   1
_chemical_formula_structural   Cs27Sn13Pb14I81
_chemical_formula_sum   'Cs27 Sn13 Pb14 I81'
_cell_volume   7197.23291424
_cell_formula_units_Z   1
loop_
 _symmetry_equiv_pos_site_id
 _symmetry_equiv_pos_as_xyz
  1  'x, y, z'
loop_
 _atom_site_type_symbol
 _atom_site_label
 _atom_site_symmetry_multiplicity
 _atom_site_fract_x
 _atom_site_fract_y
 _atom_site_fract_z
 _atom_site_occupancy
  Cs  Cs0  1  0.03297308  -0.00088411  -0.00903069  1
  Cs  Cs1  1  -0.02803434  -0.01890298  0.32509819  1
  Cs  Cs2  1  0.00030813  -0.00789451  0.67719542  1
  Cs  Cs3  1  -0.03192262  0.33466412  -0.02781857  1
  Cs  Cs4  1  -0.03255788  0.33465377  0.33799595  1
  Cs  Cs5  1  0.02406479  0.32082091  0.68214887  1
  Cs  Cs6  1  0.03680983  0.66318419  -0.00776418  1
  Cs  Cs7  1  0.01414152  0.67774308  0.34176411  1
  Cs  Cs8  1  0.00036919  0.67412698  0.63696895  1
  Cs  Cs9  1  0.33726582  0.01676335  0.01080524  1
  Cs  Cs10  1  0.35238004  0.01743372  0.31930282  1
  Cs  Cs11  1  0.34898020  0.03299457  0.65790409  1
  Cs  Cs12  1  0.36122587  0.32553513  0.01733180  1
  Cs  Cs13  1  0.31383235  0.32935066  0.33720655  1
  Cs  Cs14  1  0.30084658  0.33606848  0.65852349  1
  Cs  Cs15  1  0.31190895  0.67503665  0.01539593  1
  Cs  Cs16  1  0.30426989  0.66821445  0.31963551  1
  Cs  Cs17  1  0.37678494  0.66171228  0.66628644  1
  Cs  Cs18  1  0.65463104  -0.01370869  -0.00203906  1
  Cs  Cs19  1  0.68603605  -0.01397846  0.34295873  1
  Cs  Cs20  1  0.65549210  -0.01370905  0.65410310  1
  Cs  Cs21  1  0.69227418  0.33165742  0.00240278  1
  Cs  Cs22  1  0.68265787  0.35247919  0.32507820  1
  Cs  Cs23  1  0.66651398  0.37272477  0.66178429  1
  Cs  Cs24  1  0.66647200  0.68465234  -0.01364057  1
  Cs  Cs25  1  0.66839561  0.66231671  0.34683217  1
  Cs  Cs26  1  0.66201365  0.66515519  0.67126468  1
  Sn  Sn27  1  0.83447185  0.83472646  0.50328946  1
  Sn  Sn28  1  0.49854635  0.83517360  0.83561887  1
  Sn  Sn29  1  0.49804399  0.49562458  0.83833081  1
  Sn  Sn30  1  0.50676413  0.16801729  0.83506897  1
  Sn  Sn31  1  0.50463603  0.16636410  0.16627702  1
  Sn  Sn32  1  0.83116048  0.16538280  0.50258531  1
  Sn  Sn33  1  0.82664924  0.83025626  0.16207791  1
  Sn  Sn34  1  0.17197249  0.83918615  0.50421647  1
  Sn  Sn35  1  0.50477583  0.83093766  0.16758631  1
  Sn  Sn36  1  0.83104407  0.83637860  0.83440760  1
  Sn  Sn37  1  0.83418408  0.49991618  0.50045602  1
  Sn  Sn38  1  0.16264640  0.16784592  0.17109245  1
  Sn  Sn39  1  0.50078696  0.49727278  0.49764203  1
  Pb  Pb40  1  0.17107524  0.16510223  0.83611313  1
  Pb  Pb41  1  0.16473625  0.83646701  0.16917809  1
  Pb  Pb42  1  0.82556153  0.16318802  0.82887494  1
  Pb  Pb43  1  0.17326180  0.50006317  0.83235081  1
  Pb  Pb44  1  0.50691014  0.16880493  0.49997609  1
  Pb  Pb45  1  0.83168073  0.50663960  0.16652405  1
  Pb  Pb46  1  0.49667956  0.83346346  0.49725204  1
  Pb  Pb47  1  0.83387695  0.16573676  0.16791773  1
  Pb  Pb48  1  0.16630213  0.50035638  0.50033267  1
  Pb  Pb49  1  0.16658338  0.49201486  0.16720143  1
  Pb  Pb50  1  0.50299885  0.50150134  0.16648042  1
  Pb  Pb51  1  0.16000007  0.16291027  0.49570226  1
  Pb  Pb52  1  0.17052810  0.83274282  0.82813683  1
  Pb  Pb53  1  0.82993037  0.50415911  0.83197640  1
  I  I54  1  0.17532728  0.00129554  0.16502432  1
  I  I55  1  0.14394746  -0.00303519  0.51485736  1
  I  I56  1  0.15299909  -0.00222675  0.82380796  1
  I  I57  1  0.20853248  0.33085157  0.16115065  1
  I  I58  1  0.17669186  0.33337281  0.49753735  1
  I  I59  1  0.17088185  0.33241395  0.82875848  1
  I  I60  1  0.15641404  0.66702525  0.17012370  1
  I  I61  1  0.14920957  0.66547966  0.49610627  1
  I  I62  1  0.16379633  0.66752127  0.83591561  1
  I  I63  1  0.49262118  -0.00174370  0.14152939  1
  I  I64  1  0.47692551  -0.00103567  0.50544448  1
  I  I65  1  0.50821512  -0.00181065  0.85221571  1
  I  I66  1  0.47316214  0.33180326  0.18356675  1
  I  I67  1  0.52387617  0.33460388  0.51472007  1
  I  I68  1  0.48374672  0.33200786  0.83357752  1
  I  I69  1  0.52936265  0.67014946  0.16532011  1
  I  I70  1  0.51520086  0.66901827  0.51126818  1
  I  I71  1  0.51961984  0.66581820  0.82292875  1
  I  I72  1  0.83272488  0.00042981  0.18126287  1
  I  I73  1  0.86280520  -0.00018427  0.49517948  1
  I  I74  1  0.81982790  -0.00273251  0.82199180  1
  I  I75  1  0.84809247  0.33238257  0.17651304  1
  I  I76  1  0.80414832  0.33266069  0.48966967  1
  I  I77  1  0.83196140  0.33078747  0.81421479  1
  I  I78  1  0.79000893  0.66846521  0.16942634  1
  I  I79  1  0.83577468  0.66458919  0.49625710  1
  I  I80  1  0.80818177  0.66852819  0.83372874  1
  I  I81  1  0.16841497  0.14809273  0.00265724  1
  I  I82  1  0.20403058  0.16068926  0.33436688  1
  I  I83  1  0.16343999  0.17425898  0.66399429  1
  I  I84  1  0.17860607  0.51639364  0.00222690  1
  I  I85  1  0.19062487  0.49887249  0.33297870  1
  I  I86  1  0.14241756  0.48922082  0.66534209  1
  I  I87  1  0.15391490  0.82918149  0.00051059  1
  I  I88  1  0.15849507  0.82417283  0.33583058  1
  I  I89  1  0.13333234  0.82739075  0.66555578  1
  I  I90  1  0.47829817  0.16707061  -0.00467693  1
  I  I91  1  0.49340249  0.15734499  0.33229441  1
  I  I92  1  0.51944995  0.14555929  0.67263917  1
  I  I93  1  0.48088254  0.49452949  -0.00357468  1
  I  I94  1  0.52067549  0.50807469  0.33810193  1
  I  I95  1  0.51800429  0.50972956  0.66765220  1
  I  I96  1  0.52725270  0.82695813  -0.00071622  1
  I  I97  1  0.49955185  0.85594035  0.33008589  1
  I  I98  1  0.49752781  0.84069295  0.66927581  1
  I  I99  1  0.85801742  0.17191442  0.00204286  1
  I  I100  1  0.82247063  0.16419823  0.33602902  1
  I  I101  1  0.83375817  0.15135261  0.66090088  1
  I  I102  1  0.83498869  0.48249553  0.00059466  1
  I  I103  1  0.81200942  0.50704188  0.33216199  1
  I  I104  1  0.82824978  0.51116084  0.66464393  1
  I  I105  1  0.80278423  0.83959670  0.00254400  1
  I  I106  1  0.83158698  0.83153736  0.33378798  1
  I  I107  1  0.84127761  0.83110465  0.66431882  1
  I  I108  1  0.00806555  0.16182416  0.20162746  1
  I  I109  1  -0.00230201  0.20202114  0.48919414  1
  I  I110  1  -0.00033858  0.17127863  0.82947251  1
  I  I111  1  0.00045641  0.50560448  0.18972398  1
  I  I112  1  -0.00465848  0.49250740  0.47446740  1
  I  I113  1  -0.00078707  0.49550326  0.84740672  1
  I  I114  1  -0.00685271  0.83759179  0.16578371  1
  I  I115  1  -0.00739688  0.81976412  0.49078062  1
  I  I116  1  -0.00726813  0.83921243  0.84997009  1
  I  I117  1  0.33918761  0.15259762  0.15962919  1
  I  I118  1  0.33688540  0.17895628  0.51855763  1
  I  I119  1  0.33537333  0.15298991  0.81626689  1
  I  I120  1  0.33793098  0.53542225  0.16790649  1
  I  I121  1  0.33727046  0.50728967  0.52553780  1
  I  I122  1  0.33574178  0.50705631  0.79589722  1
  I  I123  1  0.33471432  0.81832811  0.15504436  1
  I  I124  1  0.32654203  0.81003452  0.50260294  1
  I  I125  1  0.33611111  0.81827631  0.85364098  1
  I  I126  1  0.66346857  0.17597029  0.14200024  1
  I  I127  1  0.66816881  0.12267283  0.49627095  1
  I  I128  1  0.66568186  0.17957856  0.87343821  1
  I  I129  1  0.66443936  0.46034417  0.15558561  1
  I  I130  1  0.66897772  0.51288433  0.50780596  1
  I  I131  1  0.66377087  0.47497500  0.84121190  1
  I  I132  1  0.66445809  0.86261970  0.17995409  1
  I  I133  1  0.66699499  0.84926252  0.49578850  1
  I  I134  1  0.66390447  0.83598103  0.81640882  1
