# generated using pymatgen
data_Cs27Sn14Pb13I81
_symmetry_space_group_name_H-M   'P 1'
_cell_length_a   18.96845216
_cell_length_b   18.98667898
_cell_length_c   18.97669889
_cell_angle_alpha   89.99967910
_cell_angle_beta   89.99663764
_cell_angle_gamma   89.99790218
_symmetry_Int_Tables_number   1
_chemical_formula_structural   Cs27Sn14Pb13I81
_chemical_formula_sum   'Cs27 Sn14 Pb13 I81'
_cell_volume   6834.41846377
_cell_formula_units_Z   1
loop_
 _symmetry_equiv_pos_site_id
 _symmetry_equiv_pos_as_xyz
  1  'x, y, z'
loop_
 _atom_site_type_symbol
 _atom_site_label
 _atom_site_symmetry_multiplicity
 _atom_site_fract_x
 _atom_site_fract_y
 _atom_site_fract_z
 _atom_site_occupancy
  Cs  Cs0  1  0.00091303  -0.00028219  -0.00114904  1
  Cs  Cs1  1  -0.00026075  0.00078432  0.33608853  1
  Cs  Cs2  1  -0.00702133  -0.00686061  0.66055779  1
  Cs  Cs3  1  0.00091539  0.33411489  0.00116746  1
  Cs  Cs4  1  0.00095955  0.33366929  0.33212675  1
  Cs  Cs5  1  -0.00098985  0.33082122  0.66578291  1
  Cs  Cs6  1  0.00060111  0.66572487  0.00132756  1
  Cs  Cs7  1  -0.00120434  0.66544926  0.33080164  1
  Cs  Cs8  1  0.00133169  0.67408067  0.66662974  1
  Cs  Cs9  1  0.33359913  0.00171001  -0.00076538  1
  Cs  Cs10  1  0.33724834  0.00157262  0.33357719  1
  Cs  Cs11  1  0.33427366  -0.00094908  0.66722925  1
  Cs  Cs12  1  0.33004906  0.33070980  -0.00201672  1
  Cs  Cs13  1  0.33294209  0.33345730  0.33713736  1
  Cs  Cs14  1  0.33435251  0.33400499  0.66635741  1
  Cs  Cs15  1  0.33196827  0.66684314  -0.00091171  1
  Cs  Cs16  1  0.33502369  0.66455704  0.33604951  1
  Cs  Cs17  1  0.33454602  0.66745551  0.66408683  1
  Cs  Cs18  1  0.66488490  0.00125283  -0.00080101  1
  Cs  Cs19  1  0.66247706  -0.00123545  0.33392858  1
  Cs  Cs20  1  0.66852575  0.00014596  0.66627899  1
  Cs  Cs21  1  0.66740241  0.33461159  -0.00072937  1
  Cs  Cs22  1  0.66696424  0.33529858  0.33075380  1
  Cs  Cs23  1  0.66614392  0.33225488  0.66878430  1
  Cs  Cs24  1  0.66606533  0.66352099  0.00162467  1
  Cs  Cs25  1  0.66726992  0.66581608  0.33150640  1
  Cs  Cs26  1  0.66395381  0.66655483  0.66626818  1
  Sn  Sn27  1  0.49939718  0.16584323  0.83257967  1
  Sn  Sn28  1  0.16571308  0.16660605  0.16603299  1
  Sn  Sn29  1  0.50006034  0.83399956  0.50090060  1
  Sn  Sn30  1  0.83430839  0.49982238  0.16630821  1
  Sn  Sn31  1  0.83471669  0.50001411  0.83305307  1
  Sn  Sn32  1  0.16610170  0.83352120  0.16668469  1
  Sn  Sn33  1  0.83407425  0.83370065  0.16628041  1
  Sn  Sn34  1  0.83417262  0.16649900  0.16640960  1
  Sn  Sn35  1  0.16548887  0.49925711  0.83371792  1
  Sn  Sn36  1  0.49993218  0.83409871  0.83299702  1
  Sn  Sn37  1  0.16645614  0.16671340  0.83327159  1
  Sn  Sn38  1  0.16610117  0.49986911  0.16588418  1
  Sn  Sn39  1  0.50006134  0.16633259  0.50108166  1
  Sn  Sn40  1  0.83380358  0.49987712  0.50039930  1
  Pb  Pb41  1  0.16899931  0.83342010  0.49693857  1
  Pb  Pb42  1  0.16827748  0.83357795  0.83505325  1
  Pb  Pb43  1  0.16408129  0.49992836  0.50059728  1
  Pb  Pb44  1  0.83094809  0.16847458  0.49729387  1
  Pb  Pb45  1  0.16837667  0.16658214  0.50060327  1
  Pb  Pb46  1  0.49970890  0.83327509  0.16634617  1
  Pb  Pb47  1  0.49913204  0.49953277  0.83351596  1
  Pb  Pb48  1  0.83115265  0.83133683  0.49746142  1
  Pb  Pb49  1  0.49896477  0.49980345  0.16645485  1
  Pb  Pb50  1  0.83099524  0.83079812  0.83570413  1
  Pb  Pb51  1  0.49944716  0.16688493  0.16611729  1
  Pb  Pb52  1  0.83396621  0.16816194  0.83504737  1
  Pb  Pb53  1  0.50219162  0.49969194  0.50014215  1
  I  I54  1  0.16131653  0.00077553  0.16288055  1
  I  I55  1  0.16457146  0.00004538  0.49855493  1
  I  I56  1  0.17203725  0.00291696  0.84033314  1
  I  I57  1  0.16077203  0.33342693  0.16235839  1
  I  I58  1  0.17055539  0.33330467  0.49454793  1
  I  I59  1  0.16993634  0.33319717  0.84228815  1
  I  I60  1  0.16116074  0.66581101  0.16284003  1
  I  I61  1  0.17074051  0.66659742  0.49998476  1
  I  I62  1  0.16439553  0.66387824  0.83852992  1
  I  I63  1  0.50128360  0.00007935  0.16726935  1
  I  I64  1  0.50028317  0.00020033  0.50315793  1
  I  I65  1  0.49452253  0.00108651  0.83045078  1
  I  I66  1  0.50271314  0.33306703  0.16789981  1
  I  I67  1  0.50065315  0.33040193  0.50373049  1
  I  I68  1  0.49916652  0.33031805  0.82955413  1
  I  I69  1  0.50067495  0.66686185  0.16728823  1
  I  I70  1  0.50098922  0.66936593  0.50356197  1
  I  I71  1  0.50093967  0.66898314  0.82961194  1
  I  I72  1  0.83874618  0.00017584  0.16642136  1
  I  I73  1  0.83364179  -0.00005686  0.49780814  1
  I  I74  1  0.83438850  -0.00009442  0.83611957  1
  I  I75  1  0.83750872  0.33421431  0.16708090  1
  I  I76  1  0.83052665  0.33645832  0.49670896  1
  I  I77  1  0.83069977  0.33649443  0.83669507  1
  I  I78  1  0.83780058  0.66565220  0.16701851  1
  I  I79  1  0.83042934  0.66339944  0.49698454  1
  I  I80  1  0.83741062  0.66258576  0.83637352  1
  I  I81  1  0.16999620  0.16824339  0.00065922  1
  I  I82  1  0.16444468  0.16843639  0.32977932  1
  I  I83  1  0.17098222  0.17392683  0.67042035  1
  I  I84  1  0.15950190  0.49933668  0.00077073  1
  I  I85  1  0.16350577  0.49934820  0.32986722  1
  I  I86  1  0.16378349  0.49421930  0.67038440  1
  I  I87  1  0.16572968  0.83250748  0.00343332  1
  I  I88  1  0.16460306  0.83198877  0.32827219  1
  I  I89  1  0.16701533  0.83250597  0.66685844  1
  I  I90  1  0.49877569  0.16220324  -0.00299657  1
  I  I91  1  0.50108586  0.16187960  0.33546472  1
  I  I92  1  0.49464978  0.16335280  0.66787835  1
  I  I93  1  0.50669673  0.50130522  -0.00027220  1
  I  I94  1  0.50047363  0.50052666  0.33347879  1
  I  I95  1  0.50118888  0.50065453  0.66691105  1
  I  I96  1  0.50013463  0.83787581  -0.00251196  1
  I  I97  1  0.50027180  0.83797631  0.33557431  1
  I  I98  1  0.49991985  0.83695231  0.66703694  1
  I  I99  1  0.83112810  0.16931755  0.00352161  1
  I  I100  1  0.83778765  0.16957657  0.32893825  1
  I  I101  1  0.83484697  0.17006575  0.66670517  1
  I  I102  1  0.83627202  0.50020049  0.00115930  1
  I  I103  1  0.83513650  0.50032269  0.33126263  1
  I  I104  1  0.83515524  0.49870228  0.66759278  1
  I  I105  1  0.83431169  0.83061082  0.00392712  1
  I  I106  1  0.83438653  0.83041182  0.32921966  1
  I  I107  1  0.83355912  0.83098166  0.66673869  1
  I  I108  1  0.00076761  0.16784080  0.16127664  1
  I  I109  1  -0.00029528  0.16824505  0.50168915  1
  I  I110  1  0.00315207  0.17099386  0.83843337  1
  I  I111  1  -0.00061906  0.50015949  0.16622245  1
  I  I112  1  -0.00385163  0.49937392  0.49703615  1
  I  I113  1  0.00047612  0.49389473  0.83632954  1
  I  I114  1  -0.00003629  0.83173317  0.16587897  1
  I  I115  1  -0.00032979  0.83225587  0.50141522  1
  I  I116  1  -0.00004470  0.83552744  0.83243567  1
  I  I117  1  0.32987162  0.16672559  0.16594694  1
  I  I118  1  0.33672375  0.16389774  0.49747980  1
  I  I119  1  0.33295552  0.16933299  0.83673920  1
  I  I120  1  0.32891794  0.50029759  0.16127109  1
  I  I121  1  0.33327435  0.50056758  0.49841579  1
  I  I122  1  0.32994523  0.49918354  0.84023184  1
  I  I123  1  0.33021660  0.83316721  0.16648181  1
  I  I124  1  0.33722291  0.83573439  0.50132048  1
  I  I125  1  0.33639074  0.83200689  0.83300882  1
  I  I126  1  0.66943048  0.16750038  0.16727353  1
  I  I127  1  0.66299241  0.16328035  0.50503251  1
  I  I128  1  0.66417991  0.16505606  0.83170230  1
  I  I129  1  0.67047421  0.50059431  0.16604275  1
  I  I130  1  0.67021197  0.50011876  0.49765339  1
  I  I131  1  0.66943119  0.50048170  0.83544368  1
  I  I132  1  0.66949141  0.83174119  0.16704352  1
  I  I133  1  0.66324586  0.83680051  0.50119701  1
  I  I134  1  0.66303442  0.83820759  0.83230345  1
