# generated using pymatgen
data_Cs27Sn14Pb13I81
_symmetry_space_group_name_H-M   'P 1'
_cell_length_a   18.97132464
_cell_length_b   18.98458377
_cell_length_c   18.97108971
_cell_angle_alpha   89.99870950
_cell_angle_beta   89.99536480
_cell_angle_gamma   90.00008356
_symmetry_Int_Tables_number   1
_chemical_formula_structural   Cs27Sn14Pb13I81
_chemical_formula_sum   'Cs27 Sn14 Pb13 I81'
_cell_volume   6832.67890375
_cell_formula_units_Z   1
loop_
 _symmetry_equiv_pos_site_id
 _symmetry_equiv_pos_as_xyz
  1  'x, y, z'
loop_
 _atom_site_type_symbol
 _atom_site_label
 _atom_site_symmetry_multiplicity
 _atom_site_fract_x
 _atom_site_fract_y
 _atom_site_fract_z
 _atom_site_occupancy
  Cs  Cs0  1  0.00052134  0.00043086  -0.00056300  1
  Cs  Cs1  1  0.00105550  -0.00059573  0.33284742  1
  Cs  Cs2  1  -0.00402652  0.00212711  0.66648666  1
  Cs  Cs3  1  0.00259293  0.33390230  0.00215503  1
  Cs  Cs4  1  -0.00053326  0.33296228  0.33061334  1
  Cs  Cs5  1  -0.00195380  0.33136257  0.66520941  1
  Cs  Cs6  1  0.00044824  0.66588725  0.00058294  1
  Cs  Cs7  1  -0.00147573  0.66680715  0.33368790  1
  Cs  Cs8  1  -0.00057425  0.66766723  0.66604231  1
  Cs  Cs9  1  0.33233062  0.00031970  0.00021808  1
  Cs  Cs10  1  0.33619567  0.00043021  0.33323118  1
  Cs  Cs11  1  0.33166676  -0.00239703  0.66850430  1
  Cs  Cs12  1  0.32909614  0.33089052  -0.00281853  1
  Cs  Cs13  1  0.34049491  0.33080549  0.34442249  1
  Cs  Cs14  1  0.33637004  0.33619824  0.66442175  1
  Cs  Cs15  1  0.33219699  0.66825976  -0.00195562  1
  Cs  Cs16  1  0.33375231  0.66907737  0.33882669  1
  Cs  Cs17  1  0.33401517  0.66588675  0.66582734  1
  Cs  Cs18  1  0.66636392  -0.00080044  -0.00147792  1
  Cs  Cs19  1  0.66317850  -0.00035548  0.33263627  1
  Cs  Cs20  1  0.67131942  -0.00076621  0.66814166  1
  Cs  Cs21  1  0.66414553  0.34000710  0.00288771  1
  Cs  Cs22  1  0.65974840  0.33302003  0.33258416  1
  Cs  Cs23  1  0.66607376  0.33206641  0.66405298  1
  Cs  Cs24  1  0.66575065  0.66380789  0.00294788  1
  Cs  Cs25  1  0.67001831  0.66763298  0.32992311  1
  Cs  Cs26  1  0.66733438  0.66825220  0.66697421  1
  Sn  Sn27  1  0.49953100  0.16580718  0.83376539  1
  Sn  Sn28  1  0.49933099  0.83417168  0.83273082  1
  Sn  Sn29  1  0.83418207  0.50008733  0.83251565  1
  Sn  Sn30  1  0.83377947  0.50048655  0.50067952  1
  Sn  Sn31  1  0.16610017  0.16672073  0.16638620  1
  Sn  Sn32  1  0.83421562  0.83447034  0.16718159  1
  Sn  Sn33  1  0.50109634  0.83335548  0.50107883  1
  Sn  Sn34  1  0.16559263  0.50005010  0.83377411  1
  Sn  Sn35  1  0.83366235  0.16575993  0.16626422  1
  Sn  Sn36  1  0.16693750  0.49994292  0.16658365  1
  Sn  Sn37  1  0.16715321  0.16652460  0.83352394  1
  Sn  Sn38  1  0.16702690  0.83342938  0.83389241  1
  Sn  Sn39  1  0.16584817  0.83318556  0.16596392  1
  Sn  Sn40  1  0.83268708  0.83282043  0.49915049  1
  Pb  Pb41  1  0.83335775  0.16644822  0.49690991  1
  Pb  Pb42  1  0.49534708  0.50001519  0.16655641  1
  Pb  Pb43  1  0.50319773  0.50292219  0.50009174  1
  Pb  Pb44  1  0.83485031  0.49999732  0.16681484  1
  Pb  Pb45  1  0.83328930  0.16939897  0.83582735  1
  Pb  Pb46  1  0.16606341  0.83348040  0.50008062  1
  Pb  Pb47  1  0.49967197  0.83321294  0.16606182  1
  Pb  Pb48  1  0.49933929  0.16660612  0.16409121  1
  Pb  Pb49  1  0.50014499  0.16353728  0.50340259  1
  Pb  Pb50  1  0.49940372  0.50031105  0.83346123  1
  Pb  Pb51  1  0.16440972  0.49996702  0.50023496  1
  Pb  Pb52  1  0.83346393  0.83176514  0.83390279  1
  Pb  Pb53  1  0.16655527  0.16664833  0.50007759  1
  I  I54  1  0.16190102  -0.00037967  0.16032063  1
  I  I55  1  0.16428517  -0.00027170  0.50048533  1
  I  I56  1  0.17215798  -0.00038908  0.83915828  1
  I  I57  1  0.16024827  0.33288486  0.15791542  1
  I  I58  1  0.16415668  0.33343203  0.49934396  1
  I  I59  1  0.16638812  0.33320968  0.84007107  1
  I  I60  1  0.16200497  0.66745243  0.15977324  1
  I  I61  1  0.16889986  0.66689416  0.49970145  1
  I  I62  1  0.16669820  0.66711037  0.83918336  1
  I  I63  1  0.49711148  -0.00024040  0.16916008  1
  I  I64  1  0.50666627  -0.00419752  0.50053807  1
  I  I65  1  0.49218129  -0.00102305  0.83026488  1
  I  I66  1  0.50428806  0.33314700  0.16450247  1
  I  I67  1  0.50064401  0.33324085  0.50005254  1
  I  I68  1  0.49650831  0.33076248  0.83597933  1
  I  I69  1  0.50235138  0.66702668  0.16377900  1
  I  I70  1  0.49964343  0.67072375  0.50756206  1
  I  I71  1  0.49633068  0.66991440  0.82948509  1
  I  I72  1  0.84140974  -0.00128290  0.17134816  1
  I  I73  1  0.82989369  -0.00346793  0.49847628  1
  I  I74  1  0.83513221  0.00002955  0.83071174  1
  I  I75  1  0.83847956  0.33130633  0.16485145  1
  I  I76  1  0.83635243  0.33609881  0.50396025  1
  I  I77  1  0.83735419  0.33708613  0.82927928  1
  I  I78  1  0.83719881  0.66926805  0.16788539  1
  I  I79  1  0.82994407  0.66782752  0.49769680  1
  I  I80  1  0.83751789  0.66399970  0.83440086  1
  I  I81  1  0.16667656  0.16658701  -0.00033453  1
  I  I82  1  0.16118007  0.16595171  0.32938945  1
  I  I83  1  0.17068201  0.16638350  0.67084082  1
  I  I84  1  0.16004519  0.50049759  -0.00103874  1
  I  I85  1  0.16418803  0.50148872  0.33007449  1
  I  I86  1  0.16529631  0.50071605  0.67034866  1
  I  I87  1  0.16660655  0.83304199  -0.00027682  1
  I  I88  1  0.16585653  0.83298536  0.32998640  1
  I  I89  1  0.16771543  0.83276521  0.67012610  1
  I  I90  1  0.49783336  0.15879149  -0.00372784  1
  I  I91  1  0.49940754  0.16658251  0.33336817  1
  I  I92  1  0.49324025  0.16623086  0.67126858  1
  I  I93  1  0.50876400  0.50352746  -0.00044273  1
  I  I94  1  0.50034665  0.50122860  0.33352305  1
  I  I95  1  0.49525489  0.49794786  0.66689785  1
  I  I96  1  0.49844717  0.83686056  -0.00328257  1
  I  I97  1  0.50085862  0.83126032  0.33568731  1
  I  I98  1  0.49996856  0.83684395  0.66776344  1
  I  I99  1  0.83594435  0.16036461  0.00347333  1
  I  I100  1  0.84136823  0.16727629  0.32894921  1
  I  I101  1  0.83373960  0.16497543  0.66699867  1
  I  I102  1  0.83533648  0.50045688  -0.00218022  1
  I  I103  1  0.83526869  0.50267389  0.33536880  1
  I  I104  1  0.83920438  0.50605246  0.66711501  1
  I  I105  1  0.83480433  0.83521968  0.00275933  1
  I  I106  1  0.83344134  0.83039718  0.33297759  1
  I  I107  1  0.83256046  0.82994140  0.66476079  1
  I  I108  1  0.00138131  0.16554756  0.16093932  1
  I  I109  1  -0.00033015  0.16347111  0.50578655  1
  I  I110  1  0.00322508  0.16363117  0.83556738  1
  I  I111  1  0.00308731  0.50053704  0.16430188  1
  I  I112  1  -0.00334111  0.50873280  0.50172691  1
  I  I113  1  0.00139443  0.50109569  0.83362222  1
  I  I114  1  0.00067826  0.83372461  0.16666404  1
  I  I115  1  -0.00316424  0.82893284  0.49860281  1
  I  I116  1  0.00300204  0.83530579  0.83430625  1
  I  I117  1  0.32941152  0.16497580  0.16367564  1
  I  I118  1  0.33353475  0.16535479  0.49404584  1
  I  I119  1  0.33157268  0.16699793  0.83940022  1
  I  I120  1  0.32718232  0.50155677  0.15707547  1
  I  I121  1  0.33345713  0.50068468  0.49907323  1
  I  I122  1  0.32962466  0.50024862  0.83911000  1
  I  I123  1  0.32971407  0.83392590  0.16567902  1
  I  I124  1  0.33559189  0.83444714  0.50093481  1
  I  I125  1  0.33212023  0.83191365  0.83344681  1
  I  I126  1  0.66935652  0.16153594  0.16601264  1
  I  I127  1  0.66679940  0.16928462  0.50003935  1
  I  I128  1  0.66436245  0.16198586  0.83405520  1
  I  I129  1  0.66701645  0.50021104  0.16595033  1
  I  I130  1  0.67117661  0.50149518  0.50662406  1
  I  I131  1  0.66936962  0.50053859  0.82929390  1
  I  I132  1  0.66970611  0.83714924  0.16751604  1
  I  I133  1  0.66751278  0.82916861  0.50061471  1
  I  I134  1  0.66443069  0.83632710  0.83224181  1
