# generated using pymatgen
data_Cs27Sn13Pb14I81
_symmetry_space_group_name_H-M   'P 1'
_cell_length_a   18.98155960
_cell_length_b   18.97734907
_cell_length_c   18.97492935
_cell_angle_alpha   89.99961439
_cell_angle_beta   89.99972622
_cell_angle_gamma   89.99969012
_symmetry_Int_Tables_number   1
_chemical_formula_structural   Cs27Sn13Pb14I81
_chemical_formula_sum   'Cs27 Sn13 Pb14 I81'
_cell_volume   6835.14302223
_cell_formula_units_Z   1
loop_
 _symmetry_equiv_pos_site_id
 _symmetry_equiv_pos_as_xyz
  1  'x, y, z'
loop_
 _atom_site_type_symbol
 _atom_site_label
 _atom_site_symmetry_multiplicity
 _atom_site_fract_x
 _atom_site_fract_y
 _atom_site_fract_z
 _atom_site_occupancy
  Cs  Cs0  1  -0.00136883  0.00022714  0.00231231  1
  Cs  Cs1  1  -0.00006309  -0.00174562  0.33304595  1
  Cs  Cs2  1  0.00146284  0.00056970  0.66631480  1
  Cs  Cs3  1  -0.00342101  0.33154093  0.00451064  1
  Cs  Cs4  1  0.00303965  0.33281019  0.33217017  1
  Cs  Cs5  1  0.00099301  0.33315083  0.66687648  1
  Cs  Cs6  1  -0.00181700  0.66777100  0.00270001  1
  Cs  Cs7  1  -0.00044053  0.66822742  0.33425097  1
  Cs  Cs8  1  0.00163470  0.66629071  0.66548467  1
  Cs  Cs9  1  0.33527594  -0.00098047  -0.00256936  1
  Cs  Cs10  1  0.34303634  0.00147408  0.33439391  1
  Cs  Cs11  1  0.33343639  -0.00249724  0.66793212  1
  Cs  Cs12  1  0.33081290  0.33365864  -0.00001344  1
  Cs  Cs13  1  0.33235667  0.33191196  0.32802303  1
  Cs  Cs14  1  0.33285292  0.33387743  0.66727949  1
  Cs  Cs15  1  0.33705651  0.66706800  -0.00120837  1
  Cs  Cs16  1  0.33528702  0.66694453  0.33214653  1
  Cs  Cs17  1  0.33151558  0.66725977  0.66810161  1
  Cs  Cs18  1  0.66768689  -0.00062557  0.00123196  1
  Cs  Cs19  1  0.65972456  0.00145367  0.33428667  1
  Cs  Cs20  1  0.66539756  0.00169472  0.66584567  1
  Cs  Cs21  1  0.67436330  0.33322932  0.00135383  1
  Cs  Cs22  1  0.66299729  0.33127439  0.33110642  1
  Cs  Cs23  1  0.66536797  0.33406053  0.66771077  1
  Cs  Cs24  1  0.66618297  0.66659487  0.00280844  1
  Cs  Cs25  1  0.66706443  0.66655359  0.33144457  1
  Cs  Cs26  1  0.66724812  0.66368535  0.66721740  1
  Sn  Sn27  1  0.83404816  0.16688010  0.50031661  1
  Sn  Sn28  1  0.16667936  0.83353259  0.16691846  1
  Sn  Sn29  1  0.16620221  0.16713580  0.50074927  1
  Sn  Sn30  1  0.16682436  0.49925921  0.83286849  1
  Sn  Sn31  1  0.83425496  0.83341673  0.16721350  1
  Sn  Sn32  1  0.49950728  0.49988163  0.50067697  1
  Sn  Sn33  1  0.16693916  0.49930855  0.50066756  1
  Sn  Sn34  1  0.83355682  0.83357488  0.50026069  1
  Sn  Sn35  1  0.49941713  0.49874567  0.83252800  1
  Sn  Sn36  1  0.83357562  0.83323925  0.83281053  1
  Sn  Sn37  1  0.49939593  0.16784192  0.83294033  1
  Sn  Sn38  1  0.16711522  0.16749119  0.83255519  1
  Sn  Sn39  1  0.83343914  0.49943627  0.50022802  1
  Pb  Pb40  1  0.49981262  0.49971951  0.16581624  1
  Pb  Pb41  1  0.16666698  0.50200402  0.16643804  1
  Pb  Pb42  1  0.16679760  0.16423656  0.16675190  1
  Pb  Pb43  1  0.83355557  0.50185520  0.16992121  1
  Pb  Pb44  1  0.49979360  0.16710451  0.16264582  1
  Pb  Pb45  1  0.49929988  0.16911591  0.50184609  1
  Pb  Pb46  1  0.83345925  0.16426146  0.17012552  1
  Pb  Pb47  1  0.50007179  0.83330661  0.16661803  1
  Pb  Pb48  1  0.16471913  0.83323370  0.83497934  1
  Pb  Pb49  1  0.83383384  0.16486388  0.83135039  1
  Pb  Pb50  1  0.50275293  0.83034226  0.50039120  1
  Pb  Pb51  1  0.50247714  0.83286536  0.83305736  1
  Pb  Pb52  1  0.16530819  0.83358565  0.49839001  1
  Pb  Pb53  1  0.83381816  0.50159995  0.83165719  1
  I  I54  1  0.15951756  -0.00340061  0.16616439  1
  I  I55  1  0.16062619  0.00309523  0.50372868  1
  I  I56  1  0.16963565  0.00299683  0.82950733  1
  I  I57  1  0.16746424  0.33321019  0.16714152  1
  I  I58  1  0.16077554  0.33389117  0.50365640  1
  I  I59  1  0.17039650  0.33359318  0.82861607  1
  I  I60  1  0.16059203  0.66973171  0.16731840  1
  I  I61  1  0.16551799  0.66343657  0.50323296  1
  I  I62  1  0.16957493  0.66355579  0.82919822  1
  I  I63  1  0.50058908  0.00002566  0.16652608  1
  I  I64  1  0.50065753  0.00040090  0.50065315  1
  I  I65  1  0.49624519  0.00285088  0.83358324  1
  I  I66  1  0.49974389  0.33345592  0.17106794  1
  I  I67  1  0.50611474  0.33700828  0.50256478  1
  I  I68  1  0.49646765  0.33416178  0.82778602  1
  I  I69  1  0.50087933  0.66663433  0.16505560  1
  I  I70  1  0.49847799  0.66198322  0.50638054  1
  I  I71  1  0.49630583  0.66305975  0.82943038  1
  I  I72  1  0.83806943  -0.00410646  0.16732481  1
  I  I73  1  0.83917760  0.00000520  0.50029705  1
  I  I74  1  0.83358597  -0.00313107  0.83085772  1
  I  I75  1  0.83245941  0.33314132  0.16633641  1
  I  I76  1  0.83433234  0.33369944  0.50248199  1
  I  I77  1  0.83236256  0.33328402  0.83145045  1
  I  I78  1  0.83699239  0.67039668  0.16830308  1
  I  I79  1  0.83315371  0.66654234  0.49977066  1
  I  I80  1  0.83360470  0.66965510  0.83075291  1
  I  I81  1  0.17095719  0.16976303  -0.00359617  1
  I  I82  1  0.16096479  0.17078712  0.33696363  1
  I  I83  1  0.16549382  0.16961744  0.66641651  1
  I  I84  1  0.17198478  0.49762667  -0.00375708  1
  I  I85  1  0.16596619  0.49715919  0.33715064  1
  I  I86  1  0.16667839  0.49793392  0.66590672  1
  I  I87  1  0.15880239  0.83303171  0.00261169  1
  I  I88  1  0.15891852  0.83207821  0.33077330  1
  I  I89  1  0.16392719  0.83302415  0.66663612  1
  I  I90  1  0.49386962  0.17185549  -0.00551920  1
  I  I91  1  0.50052111  0.16647265  0.33373875  1
  I  I92  1  0.49983063  0.16827938  0.66964239  1
  I  I93  1  0.49436500  0.49803269  -0.00423761  1
  I  I94  1  0.50071237  0.50211470  0.33684516  1
  I  I95  1  0.50045424  0.49713361  0.66661909  1
  I  I96  1  0.50350969  0.83151085  -0.00029615  1
  I  I97  1  0.50159299  0.83206503  0.33361223  1
  I  I98  1  0.50220516  0.83490426  0.66672398  1
  I  I99  1  0.83270765  0.16380359  -0.00017877  1
  I  I100  1  0.83941211  0.16639032  0.33862461  1
  I  I101  1  0.83458203  0.16371627  0.66309450  1
  I  I102  1  0.83247033  0.50321432  -0.00014735  1
  I  I103  1  0.83382060  0.50240771  0.33875313  1
  I  I104  1  0.83334823  0.50383623  0.66308236  1
  I  I105  1  0.83718106  0.83316020  0.00019141  1
  I  I106  1  0.83830220  0.83177897  0.33418180  1
  I  I107  1  0.83251274  0.83260797  0.66535577  1
  I  I108  1  0.00004394  0.16730635  0.16194169  1
  I  I109  1  0.00031772  0.17019220  0.50564595  1
  I  I110  1  0.00310278  0.16948121  0.83059446  1
  I  I111  1  0.00006649  0.50022009  0.16569279  1
  I  I112  1  0.00029188  0.50085742  0.50380845  1
  I  I113  1  0.00311929  0.49790243  0.82844433  1
  I  I114  1  -0.00138203  0.83262297  0.16710328  1
  I  I115  1  -0.00334479  0.82879598  0.50150612  1
  I  I116  1  -0.00319370  0.83291852  0.83053109  1
  I  I117  1  0.33309717  0.16197169  0.17308339  1
  I  I118  1  0.33005601  0.17032118  0.50124953  1
  I  I119  1  0.33217429  0.16905728  0.82770006  1
  I  I120  1  0.33313388  0.50501424  0.17197251  1
  I  I121  1  0.33237308  0.49589852  0.50398320  1
  I  I122  1  0.33280190  0.49792518  0.82527024  1
  I  I123  1  0.33054770  0.83257760  0.16609352  1
  I  I124  1  0.33329796  0.83365931  0.49719833  1
  I  I125  1  0.33314115  0.83337537  0.83645442  1
  I  I126  1  0.66679429  0.16353288  0.16734176  1
  I  I127  1  0.66911692  0.16553869  0.50107745  1
  I  I128  1  0.66449655  0.16925160  0.83148677  1
  I  I129  1  0.66677688  0.50389090  0.16622518  1
  I  I130  1  0.66702317  0.50227516  0.50407828  1
  I  I131  1  0.66413837  0.49801189  0.82848941  1
  I  I132  1  0.67031606  0.83257925  0.16733773  1
  I  I133  1  0.67164916  0.83485062  0.49715685  1
  I  I134  1  0.67062773  0.83317015  0.83467575  1
