# generated using pymatgen
data_Cs27Sn13Pb14I81
_symmetry_space_group_name_H-M   'P 1'
_cell_length_a   18.97996073
_cell_length_b   18.97058424
_cell_length_c   18.97993692
_cell_angle_alpha   90.00229398
_cell_angle_beta   89.99996248
_cell_angle_gamma   90.00106275
_symmetry_Int_Tables_number   1
_chemical_formula_structural   Cs27Sn13Pb14I81
_chemical_formula_sum   'Cs27 Sn13 Pb14 I81'
_cell_volume   6833.93399503
_cell_formula_units_Z   1
loop_
 _symmetry_equiv_pos_site_id
 _symmetry_equiv_pos_as_xyz
  1  'x, y, z'
loop_
 _atom_site_type_symbol
 _atom_site_label
 _atom_site_symmetry_multiplicity
 _atom_site_fract_x
 _atom_site_fract_y
 _atom_site_fract_z
 _atom_site_occupancy
  Cs  Cs0  1  0.00168841  -0.00056124  -0.00065831  1
  Cs  Cs1  1  -0.00088166  -0.00056565  0.33332883  1
  Cs  Cs2  1  0.00152566  -0.00037323  0.66780164  1
  Cs  Cs3  1  0.00556705  0.33107614  -0.00154000  1
  Cs  Cs4  1  -0.00344869  0.33549890  0.33613973  1
  Cs  Cs5  1  0.00003121  0.33652670  0.66470634  1
  Cs  Cs6  1  -0.00458480  0.66968448  0.00107374  1
  Cs  Cs7  1  -0.00004570  0.66661153  0.33387788  1
  Cs  Cs8  1  -0.00035097  0.66589576  0.66489134  1
  Cs  Cs9  1  0.32755173  0.00301510  0.00215213  1
  Cs  Cs10  1  0.33448436  -0.00222250  0.33644698  1
  Cs  Cs11  1  0.33489312  0.00070299  0.66401430  1
  Cs  Cs12  1  0.32948879  0.33947229  0.00405620  1
  Cs  Cs13  1  0.33498926  0.33627790  0.32816882  1
  Cs  Cs14  1  0.33314953  0.33200319  0.66839763  1
  Cs  Cs15  1  0.33587354  0.65899132  0.00033380  1
  Cs  Cs16  1  0.33230004  0.66808126  0.33342299  1
  Cs  Cs17  1  0.33733757  0.66407889  0.66788060  1
  Cs  Cs18  1  0.66786013  0.00051914  -0.00159627  1
  Cs  Cs19  1  0.66673206  0.00137846  0.33289112  1
  Cs  Cs20  1  0.66353105  0.00072228  0.66918300  1
  Cs  Cs21  1  0.66498968  0.33428615  0.00074070  1
  Cs  Cs22  1  0.66834800  0.32953739  0.33411936  1
  Cs  Cs23  1  0.66759668  0.33117507  0.66485964  1
  Cs  Cs24  1  0.66882050  0.66550147  -0.00291340  1
  Cs  Cs25  1  0.66726154  0.66813149  0.33295145  1
  Cs  Cs26  1  0.66324973  0.66876010  0.67074548  1
  Sn  Sn27  1  0.50014096  0.49895795  0.49989340  1
  Sn  Sn28  1  0.50004179  0.16671800  0.83350751  1
  Sn  Sn29  1  0.83298096  0.83291457  0.16756262  1
  Sn  Sn30  1  0.83362683  0.83359582  0.49972211  1
  Sn  Sn31  1  0.49906170  0.16771030  0.50045695  1
  Sn  Sn32  1  0.83343171  0.49875785  0.83395536  1
  Sn  Sn33  1  0.16681940  0.83329956  0.16660389  1
  Sn  Sn34  1  0.16714584  0.83290206  0.83295567  1
  Sn  Sn35  1  0.16587980  0.83397600  0.50042394  1
  Sn  Sn36  1  0.16722055  0.16635374  0.49972051  1
  Sn  Sn37  1  0.50024024  0.83362585  0.16617220  1
  Sn  Sn38  1  0.83298203  0.16767171  0.83329082  1
  Sn  Sn39  1  0.83328656  0.50027410  0.16607559  1
  Pb  Pb40  1  0.50207589  0.49731603  0.83168301  1
  Pb  Pb41  1  0.16376609  0.50248023  0.16685659  1
  Pb  Pb42  1  0.16408184  0.50259244  0.83323049  1
  Pb  Pb43  1  0.49992993  0.16491835  0.16662960  1
  Pb  Pb44  1  0.83332002  0.16428737  0.50202887  1
  Pb  Pb45  1  0.16901240  0.50016576  0.49999196  1
  Pb  Pb46  1  0.49991683  0.83384874  0.49880933  1
  Pb  Pb47  1  0.83128369  0.50248981  0.50010123  1
  Pb  Pb48  1  0.49707689  0.83565382  0.83625477  1
  Pb  Pb49  1  0.16693253  0.16526732  0.83138332  1
  Pb  Pb50  1  0.16647643  0.16485097  0.16998552  1
  Pb  Pb51  1  0.50259863  0.50221343  0.16873014  1
  Pb  Pb52  1  0.83456666  0.83352186  0.83329688  1
  Pb  Pb53  1  0.83343176  0.16657131  0.16407357  1
  I  I54  1  0.16310182  -0.00440602  0.16431911  1
  I  I55  1  0.16905736  -0.00147703  0.49964635  1
  I  I56  1  0.16312841  -0.00306398  0.83560891  1
  I  I57  1  0.16564234  0.33354217  0.16737590  1
  I  I58  1  0.16816508  0.33024653  0.50251609  1
  I  I59  1  0.16713534  0.33322133  0.83083006  1
  I  I60  1  0.16864371  0.67146283  0.17051499  1
  I  I61  1  0.16376824  0.67050199  0.49862879  1
  I  I62  1  0.16466697  0.67113064  0.83082418  1
  I  I63  1  0.50260041  -0.00365383  0.16971000  1
  I  I64  1  0.49877405  0.00255364  0.50235665  1
  I  I65  1  0.50801131  0.00317667  0.82515727  1
  I  I66  1  0.50247668  0.33353066  0.16626143  1
  I  I67  1  0.49605742  0.33183387  0.50398372  1
  I  I68  1  0.50155507  0.32931377  0.83096212  1
  I  I69  1  0.49722056  0.67043355  0.16972559  1
  I  I70  1  0.50114687  0.66530063  0.49728444  1
  I  I71  1  0.50077139  0.66674694  0.83147556  1
  I  I72  1  0.83410255  -0.00373086  0.16943576  1
  I  I73  1  0.83328504  -0.00377400  0.49523551  1
  I  I74  1  0.83100558  0.00211085  0.83230929  1
  I  I75  1  0.83149142  0.33631542  0.16545757  1
  I  I76  1  0.83561563  0.33325264  0.49764761  1
  I  I77  1  0.82909833  0.33328113  0.83764654  1
  I  I78  1  0.83395521  0.66839760  0.16435559  1
  I  I79  1  0.83773997  0.67049659  0.49999941  1
  I  I80  1  0.83586345  0.66490030  0.83454841  1
  I  I81  1  0.16649926  0.16324610  -0.00010585  1
  I  I82  1  0.17225783  0.16001409  0.33808157  1
  I  I83  1  0.16798917  0.15819182  0.66350777  1
  I  I84  1  0.16969888  0.50114095  0.00006069  1
  I  I85  1  0.16445193  0.50193856  0.33349387  1
  I  I86  1  0.16339250  0.50465700  0.66650522  1
  I  I87  1  0.16464363  0.83370219  0.00079708  1
  I  I88  1  0.16548812  0.83724974  0.33360970  1
  I  I89  1  0.16047401  0.83756716  0.66532942  1
  I  I90  1  0.50580897  0.16213609  -0.00292452  1
  I  I91  1  0.49614924  0.16818951  0.33670636  1
  I  I92  1  0.50068558  0.16837037  0.66575795  1
  I  I93  1  0.49952367  0.50022224  0.00008388  1
  I  I94  1  0.50187766  0.49400764  0.33649379  1
  I  I95  1  0.50239837  0.50161248  0.66373368  1
  I  I96  1  0.50298039  0.83445893  0.00394835  1
  I  I97  1  0.49737970  0.83473388  0.33087514  1
  I  I98  1  0.50070097  0.83168201  0.66681576  1
  I  I99  1  0.82752111  0.16433569  -0.00394373  1
  I  I100  1  0.83290904  0.16787604  0.33360827  1
  I  I101  1  0.83215620  0.16992528  0.66979634  1
  I  I102  1  0.83232160  0.50477983  0.00029698  1
  I  I103  1  0.83217035  0.50486174  0.33099158  1
  I  I104  1  0.83229846  0.49814195  0.66912060  1
  I  I105  1  0.83471979  0.83253150  0.00271367  1
  I  I106  1  0.83750479  0.82862897  0.33247059  1
  I  I107  1  0.83832394  0.83339549  0.66444630  1
  I  I108  1  -0.00016332  0.16365355  0.16594954  1
  I  I109  1  0.00232253  0.16189328  0.50127891  1
  I  I110  1  -0.00243306  0.16809440  0.83269108  1
  I  I111  1  -0.00424899  0.50650181  0.16465194  1
  I  I112  1  -0.00034608  0.49856363  0.49975224  1
  I  I113  1  -0.00416350  0.49385293  0.83581312  1
  I  I114  1  -0.00025536  0.82955590  0.16783445  1
  I  I115  1  0.00083514  0.83776669  0.49589861  1
  I  I116  1  0.00243832  0.83555520  0.83630747  1
  I  I117  1  0.33327262  0.16357196  0.16250449  1
  I  I118  1  0.33382756  0.16240357  0.50600895  1
  I  I119  1  0.33588319  0.16157097  0.82928876  1
  I  I120  1  0.33354159  0.50198718  0.16748901  1
  I  I121  1  0.33680721  0.50182206  0.50037953  1
  I  I122  1  0.33355298  0.50049507  0.83216555  1
  I  I123  1  0.33243431  0.83640692  0.16862087  1
  I  I124  1  0.33058395  0.83470923  0.49831144  1
  I  I125  1  0.32937603  0.83634393  0.83029552  1
  I  I126  1  0.66675438  0.16179462  0.17106604  1
  I  I127  1  0.66402778  0.16808291  0.50213578  1
  I  I128  1  0.66669477  0.16807307  0.82711954  1
  I  I129  1  0.67027010  0.50814861  0.16312381  1
  I  I130  1  0.66380034  0.49558289  0.49960865  1
  I  I131  1  0.67008415  0.50158574  0.83652900  1
  I  I132  1  0.66800044  0.83033159  0.17243714  1
  I  I133  1  0.66888371  0.83292238  0.49484357  1
  I  I134  1  0.66652804  0.83234831  0.83293616  1
