# generated using pymatgen
data_Cs27Sn13Pb14I81
_symmetry_space_group_name_H-M   'P 1'
_cell_length_a   18.97122600
_cell_length_b   18.97606108
_cell_length_c   18.98056175
_cell_angle_alpha   90.00058770
_cell_angle_beta   89.99928189
_cell_angle_gamma   90.00264399
_symmetry_Int_Tables_number   1
_chemical_formula_structural   Cs27Sn13Pb14I81
_chemical_formula_sum   'Cs27 Sn13 Pb14 I81'
_cell_volume   6832.98596158
_cell_formula_units_Z   1
loop_
 _symmetry_equiv_pos_site_id
 _symmetry_equiv_pos_as_xyz
  1  'x, y, z'
loop_
 _atom_site_type_symbol
 _atom_site_label
 _atom_site_symmetry_multiplicity
 _atom_site_fract_x
 _atom_site_fract_y
 _atom_site_fract_z
 _atom_site_occupancy
  Cs  Cs0  1  -0.00227353  0.00174219  0.00076524  1
  Cs  Cs1  1  -0.00035930  0.00657265  0.33389677  1
  Cs  Cs2  1  -0.00371482  -0.00010874  0.66572039  1
  Cs  Cs3  1  0.00115553  0.33623529  0.00404719  1
  Cs  Cs4  1  0.00101582  0.32106520  0.33165646  1
  Cs  Cs5  1  0.00048610  0.33056347  0.66379292  1
  Cs  Cs6  1  0.00121168  0.66364156  0.00123210  1
  Cs  Cs7  1  -0.00103630  0.66806682  0.33258603  1
  Cs  Cs8  1  0.00047682  0.66876343  0.66638834  1
  Cs  Cs9  1  0.33761246  -0.00319930  -0.00358709  1
  Cs  Cs10  1  0.33360603  -0.00107506  0.33454237  1
  Cs  Cs11  1  0.33252247  0.00119887  0.66663262  1
  Cs  Cs12  1  0.33186362  0.33635154  -0.00041892  1
  Cs  Cs13  1  0.33456015  0.33070764  0.33353377  1
  Cs  Cs14  1  0.33433840  0.33333718  0.66688687  1
  Cs  Cs15  1  0.33251611  0.66624869  0.00068994  1
  Cs  Cs16  1  0.33384563  0.66908872  0.33506847  1
  Cs  Cs17  1  0.33088784  0.66585939  0.66348136  1
  Cs  Cs18  1  0.66495655  0.00083163  -0.00771603  1
  Cs  Cs19  1  0.66472332  0.00040451  0.33185265  1
  Cs  Cs20  1  0.67251542  -0.00027139  0.67638543  1
  Cs  Cs21  1  0.66659433  0.33313061  -0.00019885  1
  Cs  Cs22  1  0.66526065  0.33616507  0.33378677  1
  Cs  Cs23  1  0.66646940  0.33617456  0.66672182  1
  Cs  Cs24  1  0.66684416  0.66697376  0.00196238  1
  Cs  Cs25  1  0.66723964  0.66431859  0.33293292  1
  Cs  Cs26  1  0.67232536  0.66393024  0.66413461  1
  Sn  Sn27  1  0.83394720  0.83295798  0.16682351  1
  Sn  Sn28  1  0.16626905  0.50010002  0.49923958  1
  Sn  Sn29  1  0.16581835  0.83321236  0.16681606  1
  Sn  Sn30  1  0.83282176  0.50061740  0.16616798  1
  Sn  Sn31  1  0.83279530  0.50028680  0.83400889  1
  Sn  Sn32  1  0.16673293  0.16587546  0.83371635  1
  Sn  Sn33  1  0.50048088  0.50049556  0.83392909  1
  Sn  Sn34  1  0.16716733  0.83270702  0.49980712  1
  Sn  Sn35  1  0.49986342  0.16721960  0.16694086  1
  Sn  Sn36  1  0.50011217  0.83439548  0.50041543  1
  Sn  Sn37  1  0.16681252  0.83424926  0.83332935  1
  Sn  Sn38  1  0.50005704  0.16518059  0.49990265  1
  Sn  Sn39  1  0.50024689  0.49944692  0.16594376  1
  Pb  Pb40  1  0.83047651  0.16670411  0.16650989  1
  Pb  Pb41  1  0.83618420  0.16979888  0.83365632  1
  Pb  Pb42  1  0.49829458  0.83042438  0.83029243  1
  Pb  Pb43  1  0.16665165  0.50148062  0.16923583  1
  Pb  Pb44  1  0.83348925  0.83348044  0.49757046  1
  Pb  Pb45  1  0.16635099  0.50032581  0.83173638  1
  Pb  Pb46  1  0.82944984  0.16650514  0.50015311  1
  Pb  Pb47  1  0.16949798  0.16347018  0.16431460  1
  Pb  Pb48  1  0.49858161  0.16878994  0.83322680  1
  Pb  Pb49  1  0.83659398  0.49986750  0.49895007  1
  Pb  Pb50  1  0.50022222  0.83305882  0.16797502  1
  Pb  Pb51  1  0.49859149  0.50024288  0.49958919  1
  Pb  Pb52  1  0.16841416  0.16576948  0.50159554  1
  Pb  Pb53  1  0.83591265  0.83102833  0.83590271  1
  I  I54  1  0.16209237  -0.00456785  0.17258947  1
  I  I55  1  0.16980449  -0.00341939  0.49833826  1
  I  I56  1  0.16898414  -0.00134926  0.83154438  1
  I  I57  1  0.16464133  0.33315961  0.16671093  1
  I  I58  1  0.16832225  0.33505688  0.50321771  1
  I  I59  1  0.16780981  0.33185627  0.83016109  1
  I  I60  1  0.16835457  0.66976779  0.16250236  1
  I  I61  1  0.17314561  0.66844674  0.50246858  1
  I  I62  1  0.16702936  0.66935074  0.83380148  1
  I  I63  1  0.49826282  0.00188898  0.17051675  1
  I  I64  1  0.49210796  -0.00031817  0.49244991  1
  I  I65  1  0.49961371  -0.00024225  0.83559799  1
  I  I66  1  0.50469092  0.33453511  0.16924113  1
  I  I67  1  0.49708421  0.33155776  0.49882741  1
  I  I68  1  0.49974875  0.33674530  0.83233311  1
  I  I69  1  0.50057323  0.66399260  0.16473385  1
  I  I70  1  0.49555603  0.66898125  0.49958178  1
  I  I71  1  0.50031748  0.66267514  0.83923341  1
  I  I72  1  0.83774812  -0.00290450  0.16924876  1
  I  I73  1  0.83839564  -0.00023822  0.49763558  1
  I  I74  1  0.83225503  -0.00023583  0.83438572  1
  I  I75  1  0.83125012  0.33671827  0.16283163  1
  I  I76  1  0.83546393  0.33359711  0.49846714  1
  I  I77  1  0.83156845  0.33773821  0.83980044  1
  I  I78  1  0.83133533  0.66574919  0.16324670  1
  I  I79  1  0.82908722  0.66654954  0.50141972  1
  I  I80  1  0.83140946  0.66316399  0.83495881  1
  I  I81  1  0.16910503  0.16382731  -0.00318303  1
  I  I82  1  0.16623195  0.16721975  0.33315065  1
  I  I83  1  0.16988694  0.16351574  0.66922751  1
  I  I84  1  0.16748651  0.50112843  0.00023724  1
  I  I85  1  0.16882304  0.50652634  0.33665237  1
  I  I86  1  0.16851914  0.50527487  0.66414915  1
  I  I87  1  0.16293626  0.83671960  0.00018019  1
  I  I88  1  0.16779158  0.82692831  0.33373922  1
  I  I89  1  0.17265657  0.83208347  0.66612564  1
  I  I90  1  0.49836367  0.16915477  0.00246330  1
  I  I91  1  0.49836214  0.16940050  0.33316357  1
  I  I92  1  0.49639535  0.16502440  0.66423480  1
  I  I93  1  0.50203167  0.49484098  0.00101585  1
  I  I94  1  0.50299801  0.49935737  0.33057218  1
  I  I95  1  0.50177849  0.50000388  0.66869978  1
  I  I96  1  0.49822002  0.83536025  -0.00014385  1
  I  I97  1  0.49371621  0.83231336  0.33585778  1
  I  I98  1  0.49310715  0.83740495  0.66250117  1
  I  I99  1  0.83112112  0.16396411  0.00014591  1
  I  I100  1  0.83738329  0.16921135  0.33301924  1
  I  I101  1  0.83201375  0.16850420  0.66706070  1
  I  I102  1  0.83000004  0.50411440  0.00087129  1
  I  I103  1  0.82800070  0.50510345  0.32959823  1
  I  I104  1  0.82925845  0.49923672  0.66919271  1
  I  I105  1  0.83745149  0.83086645  0.00377402  1
  I  I106  1  0.83812743  0.82529559  0.32958756  1
  I  I107  1  0.83372290  0.83158726  0.66696598  1
  I  I108  1  0.00026916  0.16942920  0.16577137  1
  I  I109  1  0.00031101  0.16776871  0.50102101  1
  I  I110  1  0.00402455  0.16358763  0.83193578  1
  I  I111  1  -0.00259782  0.50389912  0.16203805  1
  I  I112  1  0.00427079  0.50802408  0.50261884  1
  I  I113  1  -0.00231259  0.50053185  0.83746148  1
  I  I114  1  0.00065712  0.82629308  0.16730227  1
  I  I115  1  0.00358133  0.82776705  0.50235005  1
  I  I116  1  0.00419194  0.83428462  0.82768453  1
  I  I117  1  0.33709786  0.17238916  0.17050739  1
  I  I118  1  0.33623649  0.16609198  0.49657958  1
  I  I119  1  0.33075507  0.16516510  0.83292910  1
  I  I120  1  0.33612511  0.49807163  0.16331313  1
  I  I121  1  0.33083371  0.50266597  0.50131048  1
  I  I122  1  0.33544812  0.49970258  0.83631673  1
  I  I123  1  0.33079208  0.83299689  0.16611084  1
  I  I124  1  0.33220514  0.83232233  0.49714939  1
  I  I125  1  0.32990971  0.83367851  0.83831600  1
  I  I126  1  0.66252737  0.16638144  0.17052131  1
  I  I127  1  0.66120794  0.16278407  0.49576684  1
  I  I128  1  0.66654054  0.16598792  0.83291654  1
  I  I129  1  0.66624646  0.50256889  0.16363053  1
  I  I130  1  0.66667352  0.50006239  0.50090589  1
  I  I131  1  0.66616399  0.49928157  0.83626715  1
  I  I132  1  0.66882873  0.83099743  0.16995515  1
  I  I133  1  0.66364600  0.83619906  0.49668487  1
  I  I134  1  0.66674600  0.83443687  0.83340695  1
