# generated using pymatgen
data_Cs27Sn14Pb13I81
_symmetry_space_group_name_H-M   'P 1'
_cell_length_a   18.98534458
_cell_length_b   18.98045058
_cell_length_c   18.96443214
_cell_angle_alpha   90.00042150
_cell_angle_beta   90.00050102
_cell_angle_gamma   90.00038614
_symmetry_Int_Tables_number   1
_chemical_formula_structural   Cs27Sn14Pb13I81
_chemical_formula_sum   'Cs27 Sn14 Pb13 I81'
_cell_volume   6833.84060218
_cell_formula_units_Z   1
loop_
 _symmetry_equiv_pos_site_id
 _symmetry_equiv_pos_as_xyz
  1  'x, y, z'
loop_
 _atom_site_type_symbol
 _atom_site_label
 _atom_site_symmetry_multiplicity
 _atom_site_fract_x
 _atom_site_fract_y
 _atom_site_fract_z
 _atom_site_occupancy
  Cs  Cs0  1  0.00209763  -0.00226234  0.00074090  1
  Cs  Cs1  1  -0.00243134  0.00259918  0.33530535  1
  Cs  Cs2  1  -0.00232138  -0.00145853  0.66550188  1
  Cs  Cs3  1  0.00117879  0.33323022  0.00038788  1
  Cs  Cs4  1  -0.01049543  0.33026404  0.33366665  1
  Cs  Cs5  1  -0.00017420  0.33413201  0.66783313  1
  Cs  Cs6  1  0.00054918  0.66735686  -0.00116730  1
  Cs  Cs7  1  0.00193714  0.66650937  0.33888988  1
  Cs  Cs8  1  0.00296047  0.66726795  0.66719136  1
  Cs  Cs9  1  0.33274238  0.00105354  -0.00021221  1
  Cs  Cs10  1  0.33287732  0.00215158  0.33191023  1
  Cs  Cs11  1  0.33731137  0.00260803  0.66661891  1
  Cs  Cs12  1  0.33237626  0.33400575  -0.00044809  1
  Cs  Cs13  1  0.33443692  0.33182953  0.33423672  1
  Cs  Cs14  1  0.33299272  0.33174758  0.66547344  1
  Cs  Cs15  1  0.33157737  0.66563352  0.00158777  1
  Cs  Cs16  1  0.33227396  0.66633767  0.33456784  1
  Cs  Cs17  1  0.33256974  0.66664228  0.65940929  1
  Cs  Cs18  1  0.66477930  -0.00407639  -0.00221470  1
  Cs  Cs19  1  0.66787978  0.00247365  0.33489535  1
  Cs  Cs20  1  0.66538729  -0.00186219  0.66715500  1
  Cs  Cs21  1  0.66669656  0.33702718  0.00011708  1
  Cs  Cs22  1  0.67158180  0.33245702  0.33449816  1
  Cs  Cs23  1  0.66758569  0.33348443  0.66695859  1
  Cs  Cs24  1  0.66761559  0.66654388  0.00023795  1
  Cs  Cs25  1  0.66656698  0.66412432  0.33637286  1
  Cs  Cs26  1  0.66330541  0.66853629  0.66298255  1
  Sn  Sn27  1  0.16715444  0.50086102  0.83415314  1
  Sn  Sn28  1  0.16646730  0.83261274  0.16598700  1
  Sn  Sn29  1  0.83395647  0.83308476  0.83426981  1
  Sn  Sn30  1  0.16699051  0.50035278  0.16628863  1
  Sn  Sn31  1  0.83345762  0.50055882  0.83383459  1
  Sn  Sn32  1  0.49942212  0.50038423  0.83390351  1
  Sn  Sn33  1  0.16693865  0.16681174  0.49987814  1
  Sn  Sn34  1  0.49986339  0.83294536  0.16638682  1
  Sn  Sn35  1  0.49931419  0.50001980  0.16590734  1
  Sn  Sn36  1  0.83336527  0.16631079  0.83418596  1
  Sn  Sn37  1  0.49987666  0.16697463  0.16690920  1
  Sn  Sn38  1  0.49914482  0.16683712  0.49926806  1
  Sn  Sn39  1  0.83362975  0.83292597  0.16616982  1
  Sn  Sn40  1  0.16664456  0.83270368  0.83399040  1
  Pb  Pb41  1  0.83377111  0.50232082  0.16498635  1
  Pb  Pb42  1  0.16813251  0.16703941  0.16817241  1
  Pb  Pb43  1  0.49984607  0.49780830  0.49920520  1
  Pb  Pb44  1  0.16680203  0.83556747  0.49997739  1
  Pb  Pb45  1  0.49928127  0.83075916  0.83506563  1
  Pb  Pb46  1  0.50184676  0.16894932  0.83384465  1
  Pb  Pb47  1  0.83342939  0.83311870  0.50032114  1
  Pb  Pb48  1  0.83280786  0.16656854  0.50256718  1
  Pb  Pb49  1  0.49981380  0.83583059  0.49661767  1
  Pb  Pb50  1  0.16664891  0.49768331  0.49927958  1
  Pb  Pb51  1  0.16497227  0.16645066  0.83179379  1
  Pb  Pb52  1  0.83058073  0.16410493  0.16399656  1
  Pb  Pb53  1  0.83347980  0.50033616  0.50332385  1
  I  I54  1  0.16770463  -0.00311251  0.16309213  1
  I  I55  1  0.17112161  0.00316501  0.50013466  1
  I  I56  1  0.16149750  -0.00312331  0.83696989  1
  I  I57  1  0.17252278  0.33652261  0.16206691  1
  I  I58  1  0.17199229  0.33018060  0.50169207  1
  I  I59  1  0.16550762  0.33654661  0.83635717  1
  I  I60  1  0.17174858  0.66697809  0.16227027  1
  I  I61  1  0.16565591  0.66664501  0.50056637  1
  I  I62  1  0.16136972  0.66634827  0.83706923  1
  I  I63  1  0.50039953  -0.00043326  0.17163203  1
  I  I64  1  0.49638749  0.00384249  0.49661221  1
  I  I65  1  0.50101011  -0.00014510  0.83355663  1
  I  I66  1  0.49450515  0.33428919  0.16604020  1
  I  I67  1  0.49617265  0.33003994  0.49521047  1
  I  I68  1  0.49968215  0.33698910  0.83847162  1
  I  I69  1  0.49964043  0.66633605  0.15998392  1
  I  I70  1  0.50135548  0.66654650  0.50054020  1
  I  I71  1  0.50484769  0.66274546  0.83906682  1
  I  I72  1  0.83485781  -0.00391856  0.16060251  1
  I  I73  1  0.83311362  0.00009768  0.50284268  1
  I  I74  1  0.83775930  -0.00146942  0.83647567  1
  I  I75  1  0.83341774  0.33344453  0.16543109  1
  I  I76  1  0.83360248  0.33306002  0.50096575  1
  I  I77  1  0.83263671  0.33435796  0.83113360  1
  I  I78  1  0.82835542  0.67026364  0.15982373  1
  I  I79  1  0.83292585  0.66685179  0.50090347  1
  I  I80  1  0.83445477  0.66699899  0.83830802  1
  I  I81  1  0.16732875  0.16651627  0.00001632  1
  I  I82  1  0.16909889  0.16594853  0.33597760  1
  I  I83  1  0.17340168  0.16683803  0.66403937  1
  I  I84  1  0.16776012  0.50284065  -0.00059736  1
  I  I85  1  0.17381178  0.50517422  0.32946192  1
  I  I86  1  0.16602012  0.50339648  0.67028076  1
  I  I87  1  0.16538674  0.83066825  0.00038977  1
  I  I88  1  0.16680358  0.82942129  0.32945939  1
  I  I89  1  0.16025329  0.82936921  0.67021464  1
  I  I90  1  0.50187590  0.16483274  0.00309323  1
  I  I91  1  0.49571589  0.16726473  0.33219456  1
  I  I92  1  0.49804947  0.16908958  0.66468744  1
  I  I93  1  0.49984958  0.49708515  0.00075639  1
  I  I94  1  0.49428931  0.50291140  0.32926299  1
  I  I95  1  0.50093513  0.49793050  0.66978472  1
  I  I96  1  0.50052528  0.83931745  0.00353423  1
  I  I97  1  0.49964580  0.82722098  0.32785322  1
  I  I98  1  0.50093773  0.83377484  0.66684929  1
  I  I99  1  0.83279335  0.16955121  -0.00378292  1
  I  I100  1  0.83477059  0.16494259  0.33300205  1
  I  I101  1  0.83132593  0.16500862  0.67057162  1
  I  I102  1  0.83234067  0.49774405  -0.00358897  1
  I  I103  1  0.83313201  0.50052703  0.33282191  1
  I  I104  1  0.83324683  0.50179556  0.67249548  1
  I  I105  1  0.83353941  0.83371915  -0.00083832  1
  I  I106  1  0.83354568  0.83443365  0.32966058  1
  I  I107  1  0.83862252  0.83347715  0.67094995  1
  I  I108  1  -0.00022006  0.16711998  0.16897236  1
  I  I109  1  0.00213595  0.16650214  0.50174980  1
  I  I110  1  -0.00293213  0.17069685  0.83082762  1
  I  I111  1  0.00311775  0.50368479  0.16247955  1
  I  I112  1  0.00028332  0.49552790  0.49847608  1
  I  I113  1  0.00050924  0.49995689  0.83662678  1
  I  I114  1  0.00079071  0.82927589  0.16149203  1
  I  I115  1  0.00022315  0.83774167  0.49567006  1
  I  I116  1  -0.00005725  0.82976970  0.84068677  1
  I  I117  1  0.33645145  0.16245536  0.16701606  1
  I  I118  1  0.33423987  0.16680193  0.49716935  1
  I  I119  1  0.33351598  0.16645184  0.83357408  1
  I  I120  1  0.33366098  0.50413508  0.15832704  1
  I  I121  1  0.33328681  0.50005777  0.50599141  1
  I  I122  1  0.33267704  0.50309899  0.83791462  1
  I  I123  1  0.33296697  0.83340039  0.16284672  1
  I  I124  1  0.33330998  0.83304261  0.50201260  1
  I  I125  1  0.33021885  0.83020666  0.83763631  1
  I  I126  1  0.66246405  0.16862268  0.17310062  1
  I  I127  1  0.66370982  0.16710167  0.49567271  1
  I  I128  1  0.66975002  0.16536981  0.83211222  1
  I  I129  1  0.66385182  0.50014950  0.16259600  1
  I  I130  1  0.66646094  0.49667848  0.49961305  1
  I  I131  1  0.66656422  0.49839631  0.83745599  1
  I  I132  1  0.66652452  0.83473301  0.16188799  1
  I  I133  1  0.66652797  0.83661221  0.50176849  1
  I  I134  1  0.66922142  0.83328594  0.83717424  1
