# generated using pymatgen
data_Cs27Sn14Pb13I81
_symmetry_space_group_name_H-M   'P 1'
_cell_length_a   18.96349361
_cell_length_b   18.96782039
_cell_length_c   18.95202195
_cell_angle_alpha   89.99797913
_cell_angle_beta   89.99958764
_cell_angle_gamma   90.00245530
_symmetry_Int_Tables_number   1
_chemical_formula_structural   Cs27Sn14Pb13I81
_chemical_formula_sum   'Cs27 Sn14 Pb13 I81'
_cell_volume   6816.96914482
_cell_formula_units_Z   1
loop_
 _symmetry_equiv_pos_site_id
 _symmetry_equiv_pos_as_xyz
  1  'x, y, z'
loop_
 _atom_site_type_symbol
 _atom_site_label
 _atom_site_symmetry_multiplicity
 _atom_site_fract_x
 _atom_site_fract_y
 _atom_site_fract_z
 _atom_site_occupancy
  Cs  Cs0  1  -0.00006953  0.00124300  -0.00230684  1
  Cs  Cs1  1  -0.00219294  -0.00313609  0.33476159  1
  Cs  Cs2  1  -0.00005173  -0.00032458  0.66721696  1
  Cs  Cs3  1  0.00441684  0.33122722  -0.00467055  1
  Cs  Cs4  1  0.00026390  0.33465772  0.33265907  1
  Cs  Cs5  1  -0.00215292  0.33094758  0.66964724  1
  Cs  Cs6  1  0.00155260  0.66638567  0.00147406  1
  Cs  Cs7  1  -0.00120034  0.66752787  0.33420513  1
  Cs  Cs8  1  0.00064027  0.66868712  0.66426790  1
  Cs  Cs9  1  0.33530729  -0.00124477  -0.00031487  1
  Cs  Cs10  1  0.33632460  0.00206479  0.33218161  1
  Cs  Cs11  1  0.33319468  -0.00058488  0.66695776  1
  Cs  Cs12  1  0.32227931  0.33309385  0.00086568  1
  Cs  Cs13  1  0.33349765  0.33204457  0.33334223  1
  Cs  Cs14  1  0.33711523  0.33385797  0.66377931  1
  Cs  Cs15  1  0.33443234  0.66890660  -0.00916191  1
  Cs  Cs16  1  0.33257013  0.66557965  0.33431666  1
  Cs  Cs17  1  0.33409108  0.66738246  0.66969521  1
  Cs  Cs18  1  0.66538782  -0.00140367  0.00209314  1
  Cs  Cs19  1  0.66619800  0.00052661  0.33216915  1
  Cs  Cs20  1  0.66824388  0.00306770  0.66501760  1
  Cs  Cs21  1  0.67004772  0.33526403  -0.00457225  1
  Cs  Cs22  1  0.66591830  0.33407907  0.33407102  1
  Cs  Cs23  1  0.66632244  0.33270907  0.66924712  1
  Cs  Cs24  1  0.66405945  0.66717822  0.00002785  1
  Cs  Cs25  1  0.66858684  0.66600143  0.33346047  1
  Cs  Cs26  1  0.66590085  0.66510588  0.66605364  1
  Sn  Sn27  1  0.83274675  0.49955979  0.16738884  1
  Sn  Sn28  1  0.49982837  0.16686445  0.83397956  1
  Sn  Sn29  1  0.49917014  0.83272509  0.49951792  1
  Sn  Sn30  1  0.83400531  0.83316199  0.16551161  1
  Sn  Sn31  1  0.16637002  0.83310310  0.16752046  1
  Sn  Sn32  1  0.50026215  0.49998609  0.16711960  1
  Sn  Sn33  1  0.83321121  0.83294873  0.83455100  1
  Sn  Sn34  1  0.83337283  0.49883781  0.49931247  1
  Sn  Sn35  1  0.16796273  0.83347622  0.49893786  1
  Sn  Sn36  1  0.83410289  0.16776119  0.49901980  1
  Sn  Sn37  1  0.16568422  0.16653860  0.49960295  1
  Sn  Sn38  1  0.16646471  0.49989523  0.49959735  1
  Sn  Sn39  1  0.83333317  0.16715883  0.16734454  1
  Sn  Sn40  1  0.50021092  0.50105944  0.49902742  1
  Pb  Pb41  1  0.16431663  0.16409741  0.16899792  1
  Pb  Pb42  1  0.16649014  0.50218884  0.16842869  1
  Pb  Pb43  1  0.16649649  0.50007328  0.83006184  1
  Pb  Pb44  1  0.50221873  0.16980363  0.16413875  1
  Pb  Pb45  1  0.16928566  0.16640988  0.83056187  1
  Pb  Pb46  1  0.49997177  0.83131889  0.16854106  1
  Pb  Pb47  1  0.50032923  0.16706235  0.50065013  1
  Pb  Pb48  1  0.50232849  0.83506829  0.83053369  1
  Pb  Pb49  1  0.50002008  0.49799107  0.83368558  1
  Pb  Pb50  1  0.83218554  0.16481374  0.83339475  1
  Pb  Pb51  1  0.83344517  0.50235660  0.83350862  1
  Pb  Pb52  1  0.83331212  0.83321265  0.49927896  1
  Pb  Pb53  1  0.16460887  0.83339459  0.83322102  1
  I  I54  1  0.16154196  -0.00388292  0.17315730  1
  I  I55  1  0.16595214  -0.00053904  0.49709112  1
  I  I56  1  0.16626274  -0.00016494  0.82944690  1
  I  I57  1  0.16667430  0.33345085  0.16781118  1
  I  I58  1  0.16662805  0.33378671  0.50098387  1
  I  I59  1  0.16572049  0.33308041  0.83349592  1
  I  I60  1  0.15988154  0.67001934  0.17413094  1
  I  I61  1  0.16612722  0.66679647  0.49635373  1
  I  I62  1  0.16695645  0.66703019  0.83083434  1
  I  I63  1  0.50147285  -0.00004416  0.16775440  1
  I  I64  1  0.49789735  -0.00207130  0.50241079  1
  I  I65  1  0.50165300  0.00248216  0.83020645  1
  I  I66  1  0.50504027  0.33762111  0.17535568  1
  I  I67  1  0.49811481  0.33637819  0.49848563  1
  I  I68  1  0.50354238  0.33069216  0.82842427  1
  I  I69  1  0.50651120  0.66340931  0.16994056  1
  I  I70  1  0.49867525  0.66572839  0.49758333  1
  I  I71  1  0.50072055  0.66670008  0.83332325  1
  I  I72  1  0.83763218  -0.00029660  0.16778915  1
  I  I73  1  0.83524707  0.00207104  0.49822929  1
  I  I74  1  0.83217859  -0.00295927  0.83521664  1
  I  I75  1  0.82768874  0.33396277  0.17301597  1
  I  I76  1  0.83534459  0.33379623  0.49404789  1
  I  I77  1  0.83188022  0.33323315  0.83404065  1
  I  I78  1  0.83335451  0.66642237  0.16819021  1
  I  I79  1  0.83463284  0.66414017  0.49777403  1
  I  I80  1  0.83285339  0.67018497  0.83507387  1
  I  I81  1  0.16601314  0.16522850  0.00035312  1
  I  I82  1  0.16651708  0.16879029  0.33750898  1
  I  I83  1  0.15957398  0.16426564  0.66174129  1
  I  I84  1  0.16720833  0.50193820  0.00049334  1
  I  I85  1  0.16615761  0.49897629  0.33722709  1
  I  I86  1  0.16663564  0.50341273  0.66078138  1
  I  I87  1  0.16342738  0.83269110  0.00315274  1
  I  I88  1  0.16283580  0.83285030  0.33482983  1
  I  I89  1  0.16817731  0.83269332  0.66278822  1
  I  I90  1  0.50394645  0.16593763  -0.00295501  1
  I  I91  1  0.49916217  0.16502729  0.33317690  1
  I  I92  1  0.50246809  0.16727311  0.66801906  1
  I  I93  1  0.50752979  0.49931724  0.00327228  1
  I  I94  1  0.50214061  0.50314622  0.33507906  1
  I  I95  1  0.50027164  0.50229555  0.66290728  1
  I  I96  1  0.49796811  0.83233162  0.00016432  1
  I  I97  1  0.50116528  0.83287870  0.33692141  1
  I  I98  1  0.49635996  0.82768000  0.66231989  1
  I  I99  1  0.83016594  0.16826071  0.00310107  1
  I  I100  1  0.83584102  0.16487682  0.33403569  1
  I  I101  1  0.83520202  0.16868083  0.66340607  1
  I  I102  1  0.82775524  0.49848072  0.00382508  1
  I  I103  1  0.83249849  0.50170355  0.33404928  1
  I  I104  1  0.83276407  0.49740726  0.66283480  1
  I  I105  1  0.83796038  0.83397971  0.00232015  1
  I  I106  1  0.83451486  0.83309581  0.33069081  1
  I  I107  1  0.83268727  0.83409809  0.66767174  1
  I  I108  1  -0.00421523  0.17142715  0.16793897  1
  I  I109  1  -0.00080836  0.16844712  0.49710509  1
  I  I110  1  -0.00001403  0.16547599  0.83351540  1
  I  I111  1  -0.00334068  0.49996946  0.17157447  1
  I  I112  1  -0.00061022  0.50069761  0.49629781  1
  I  I113  1  -0.00036941  0.49947640  0.83310670  1
  I  I114  1  -0.00135115  0.83138592  0.16985189  1
  I  I115  1  0.00221152  0.83137100  0.49951040  1
  I  I116  1  -0.00333348  0.83487897  0.83164327  1
  I  I117  1  0.33322153  0.16626232  0.16692120  1
  I  I118  1  0.33092747  0.16808355  0.50325195  1
  I  I119  1  0.33672572  0.16654178  0.83051987  1
  I  I120  1  0.33569859  0.50116924  0.17215654  1
  I  I121  1  0.33363281  0.50033833  0.49672424  1
  I  I122  1  0.33351684  0.50013535  0.83389459  1
  I  I123  1  0.33084289  0.83193347  0.17107699  1
  I  I124  1  0.33232722  0.83119797  0.49573062  1
  I  I125  1  0.33351189  0.83424396  0.83478809  1
  I  I126  1  0.67075478  0.16088113  0.17407210  1
  I  I127  1  0.66963874  0.16809129  0.49858915  1
  I  I128  1  0.66479155  0.16575571  0.82877092  1
  I  I129  1  0.66817947  0.50218633  0.17512698  1
  I  I130  1  0.66705261  0.50080451  0.49662629  1
  I  I131  1  0.66680097  0.50010883  0.82773225  1
  I  I132  1  0.66981497  0.83451537  0.16543024  1
  I  I133  1  0.66484195  0.83074441  0.50053597  1
  I  I134  1  0.67000056  0.83381987  0.83770659  1
