# generated using pymatgen
data_Cs27Sn13Pb14I81
_symmetry_space_group_name_H-M   'P 1'
_cell_length_a   18.98076465
_cell_length_b   18.97812899
_cell_length_c   18.97233219
_cell_angle_alpha   89.99735764
_cell_angle_beta   90.00221979
_cell_angle_gamma   90.00075088
_symmetry_Int_Tables_number   1
_chemical_formula_structural   Cs27Sn13Pb14I81
_chemical_formula_sum   'Cs27 Sn13 Pb14 I81'
_cell_volume   6834.20210541
_cell_formula_units_Z   1
loop_
 _symmetry_equiv_pos_site_id
 _symmetry_equiv_pos_as_xyz
  1  'x, y, z'
loop_
 _atom_site_type_symbol
 _atom_site_label
 _atom_site_symmetry_multiplicity
 _atom_site_fract_x
 _atom_site_fract_y
 _atom_site_fract_z
 _atom_site_occupancy
  Cs  Cs0  1  0.00210709  0.00033763  0.00365893  1
  Cs  Cs1  1  -0.00151468  -0.00081385  0.33114675  1
  Cs  Cs2  1  -0.00241165  0.00285452  0.66574826  1
  Cs  Cs3  1  -0.00060924  0.33322809  -0.00257167  1
  Cs  Cs4  1  -0.00009235  0.33421708  0.33468938  1
  Cs  Cs5  1  0.00258702  0.33344025  0.66899048  1
  Cs  Cs6  1  0.00213105  0.66667575  -0.00846124  1
  Cs  Cs7  1  0.00319507  0.66717266  0.33484978  1
  Cs  Cs8  1  -0.00915439  0.66488407  0.67084679  1
  Cs  Cs9  1  0.33298745  -0.00240470  0.00072139  1
  Cs  Cs10  1  0.33370402  -0.00196641  0.33359257  1
  Cs  Cs11  1  0.33288276  0.00187921  0.66643227  1
  Cs  Cs12  1  0.33504894  0.33361131  -0.00012756  1
  Cs  Cs13  1  0.33379482  0.33546110  0.33426343  1
  Cs  Cs14  1  0.33194728  0.33309925  0.66583145  1
  Cs  Cs15  1  0.33265663  0.67092287  -0.00149028  1
  Cs  Cs16  1  0.33245456  0.66627188  0.33443891  1
  Cs  Cs17  1  0.33598134  0.66486878  0.66325434  1
  Cs  Cs18  1  0.66586495  0.00247987  0.00090386  1
  Cs  Cs19  1  0.66639111  0.00107993  0.33297988  1
  Cs  Cs20  1  0.66807900  -0.00241172  0.66672289  1
  Cs  Cs21  1  0.66542778  0.33211261  0.00282266  1
  Cs  Cs22  1  0.66762695  0.33474208  0.33184082  1
  Cs  Cs23  1  0.66500798  0.33200121  0.66499720  1
  Cs  Cs24  1  0.66690290  0.66444253  -0.00096756  1
  Cs  Cs25  1  0.66634215  0.66390271  0.33266480  1
  Cs  Cs26  1  0.67053458  0.67031774  0.66780832  1
  Sn  Sn27  1  0.49976069  0.49938755  0.83240282  1
  Sn  Sn28  1  0.83237170  0.83328433  0.16674331  1
  Sn  Sn29  1  0.49959472  0.50080983  0.50084619  1
  Sn  Sn30  1  0.16712843  0.83258125  0.50015292  1
  Sn  Sn31  1  0.16700426  0.16779937  0.16697682  1
  Sn  Sn32  1  0.16678435  0.49951233  0.16687515  1
  Sn  Sn33  1  0.83230531  0.16669167  0.83423744  1
  Sn  Sn34  1  0.83312584  0.16613326  0.16615314  1
  Sn  Sn35  1  0.50099350  0.83390582  0.16749557  1
  Sn  Sn36  1  0.50069723  0.16739278  0.83409458  1
  Sn  Sn37  1  0.49978383  0.16600755  0.16619049  1
  Sn  Sn38  1  0.49924334  0.83255474  0.49904463  1
  Sn  Sn39  1  0.16730968  0.50107655  0.49930582  1
  Pb  Pb40  1  0.83011342  0.49714898  0.83352370  1
  Pb  Pb41  1  0.83316707  0.83621862  0.83659115  1
  Pb  Pb42  1  0.83327976  0.16674298  0.49974954  1
  Pb  Pb43  1  0.83649318  0.50016783  0.16661532  1
  Pb  Pb44  1  0.50008126  0.16656622  0.49996243  1
  Pb  Pb45  1  0.83331060  0.50002380  0.49993467  1
  Pb  Pb46  1  0.16671326  0.16681233  0.49759742  1
  Pb  Pb47  1  0.83298417  0.83329062  0.49760616  1
  Pb  Pb48  1  0.49830750  0.50036001  0.16679595  1
  Pb  Pb49  1  0.16714721  0.16653635  0.83594548  1
  Pb  Pb50  1  0.49984229  0.83379872  0.83319035  1
  Pb  Pb51  1  0.16672864  0.83324880  0.82903516  1
  Pb  Pb52  1  0.16909376  0.50009657  0.83277276  1
  Pb  Pb53  1  0.16679499  0.83306461  0.16780131  1
  I  I54  1  0.16646605  0.00250594  0.16763948  1
  I  I55  1  0.17178142  -0.00298003  0.49819383  1
  I  I56  1  0.16960776  0.00026344  0.83399775  1
  I  I57  1  0.16755026  0.33268180  0.17224812  1
  I  I58  1  0.17179161  0.33668093  0.49754678  1
  I  I59  1  0.16511058  0.33319717  0.82930771  1
  I  I60  1  0.16803119  0.66432606  0.16993367  1
  I  I61  1  0.17297821  0.66590995  0.49116601  1
  I  I62  1  0.16892619  0.66641105  0.84184600  1
  I  I63  1  0.49846073  0.00073489  0.16668407  1
  I  I64  1  0.49575724  -0.00302810  0.49816412  1
  I  I65  1  0.50397023  0.00332140  0.83488106  1
  I  I66  1  0.50208436  0.33064294  0.16600732  1
  I  I67  1  0.49519015  0.33623059  0.50069144  1
  I  I68  1  0.50298115  0.33245048  0.83404080  1
  I  I69  1  0.50260210  0.66940155  0.16744255  1
  I  I70  1  0.49529444  0.66675558  0.49902709  1
  I  I71  1  0.49730873  0.66415463  0.83306251  1
  I  I72  1  0.83473723  0.00120286  0.16366104  1
  I  I73  1  0.83381420  -0.00014388  0.50182731  1
  I  I74  1  0.82512493  0.00417075  0.83437672  1
  I  I75  1  0.83009586  0.32975473  0.16317802  1
  I  I76  1  0.83301453  0.33334412  0.49672858  1
  I  I77  1  0.83225324  0.32925801  0.84181893  1
  I  I78  1  0.82813310  0.66970051  0.16982863  1
  I  I79  1  0.83330203  0.66682627  0.49744018  1
  I  I80  1  0.83348881  0.66668837  0.83404855  1
  I  I81  1  0.16681185  0.17171300  0.00456547  1
  I  I82  1  0.16728906  0.16777452  0.32903617  1
  I  I83  1  0.16597401  0.16648201  0.66666477  1
  I  I84  1  0.16743807  0.49491889  0.00273334  1
  I  I85  1  0.17290587  0.49911492  0.33385643  1
  I  I86  1  0.16962076  0.50403317  0.66304691  1
  I  I87  1  0.16694191  0.83307541  0.00041690  1
  I  I88  1  0.16893352  0.83219636  0.33570505  1
  I  I89  1  0.17502532  0.82797705  0.66090048  1
  I  I90  1  0.50052767  0.16751470  0.00122620  1
  I  I91  1  0.50077112  0.16582884  0.32988810  1
  I  I92  1  0.50485398  0.16749337  0.66963137  1
  I  I93  1  0.49885572  0.49799872  -0.00186217  1
  I  I94  1  0.49701801  0.50072216  0.33583332  1
  I  I95  1  0.49398182  0.49880623  0.66572007  1
  I  I96  1  0.50359519  0.83435293  0.00324281  1
  I  I97  1  0.49965921  0.83396758  0.33278400  1
  I  I98  1  0.49464233  0.83276385  0.66348487  1
  I  I99  1  0.83200334  0.16284951  0.00159448  1
  I  I100  1  0.83221250  0.16281386  0.32910153  1
  I  I101  1  0.82767895  0.16786990  0.67011938  1
  I  I102  1  0.83354571  0.50282200  0.00020808  1
  I  I103  1  0.82851603  0.49619619  0.33300082  1
  I  I104  1  0.83788859  0.49763738  0.66683154  1
  I  I105  1  0.82708920  0.83513903  0.00472949  1
  I  I106  1  0.83189888  0.84196083  0.32966213  1
  I  I107  1  0.83396624  0.83481484  0.66673679  1
  I  I108  1  -0.00045379  0.16552184  0.16380622  1
  I  I109  1  0.00020364  0.16646929  0.49991289  1
  I  I110  1  -0.00287848  0.16504891  0.83756409  1
  I  I111  1  0.00445776  0.49604202  0.17377637  1
  I  I112  1  0.00378750  0.50357806  0.49430747  1
  I  I113  1  -0.00003493  0.49888273  0.83274396  1
  I  I114  1  -0.00198344  0.83821671  0.16862770  1
  I  I115  1  0.00293210  0.82937583  0.49747140  1
  I  I116  1  -0.00024186  0.83484703  0.83461464  1
  I  I117  1  0.33434076  0.16611183  0.16348838  1
  I  I118  1  0.33351715  0.16607805  0.49984641  1
  I  I119  1  0.33694959  0.17007754  0.83708676  1
  I  I120  1  0.33062325  0.49536957  0.16835295  1
  I  I121  1  0.33384843  0.50399906  0.49945677  1
  I  I122  1  0.33706214  0.49239678  0.83227822  1
  I  I123  1  0.33614977  0.83705480  0.16849258  1
  I  I124  1  0.33459333  0.82945208  0.49282924  1
  I  I125  1  0.33379893  0.83646881  0.84035281  1
  I  I126  1  0.66600273  0.16175567  0.16261157  1
  I  I127  1  0.66629813  0.16736280  0.49548850  1
  I  I128  1  0.66553515  0.17086465  0.84230056  1
  I  I129  1  0.66639933  0.49779136  0.16743723  1
  I  I130  1  0.66275531  0.50370376  0.50324785  1
  I  I131  1  0.66204591  0.49891064  0.82847389  1
  I  I132  1  0.66529378  0.84164436  0.17221616  1
  I  I133  1  0.66311093  0.82952697  0.49819599  1
  I  I134  1  0.66635263  0.83052971  0.82814571  1
