# generated using pymatgen
data_Cs27Sn14Pb13I81
_symmetry_space_group_name_H-M   'P 1'
_cell_length_a   18.97721577
_cell_length_b   18.97531963
_cell_length_c   18.97233975
_cell_angle_alpha   90.00026071
_cell_angle_beta   89.99973590
_cell_angle_gamma   90.00298989
_symmetry_Int_Tables_number   1
_chemical_formula_structural   Cs27Sn14Pb13I81
_chemical_formula_sum   'Cs27 Sn14 Pb13 I81'
_cell_volume   6831.91553272
_cell_formula_units_Z   1
loop_
 _symmetry_equiv_pos_site_id
 _symmetry_equiv_pos_as_xyz
  1  'x, y, z'
loop_
 _atom_site_type_symbol
 _atom_site_label
 _atom_site_symmetry_multiplicity
 _atom_site_fract_x
 _atom_site_fract_y
 _atom_site_fract_z
 _atom_site_occupancy
  Cs  Cs0  1  -0.00006723  -0.00288286  -0.01241543  1
  Cs  Cs1  1  0.00004920  0.00089354  0.33376132  1
  Cs  Cs2  1  0.00077805  -0.00017530  0.67545694  1
  Cs  Cs3  1  0.00387481  0.33348308  0.00399283  1
  Cs  Cs4  1  0.00148463  0.33409269  0.33201979  1
  Cs  Cs5  1  -0.00235912  0.33612537  0.66387107  1
  Cs  Cs6  1  -0.00187804  0.66875435  0.00131364  1
  Cs  Cs7  1  -0.00064978  0.66551292  0.33358518  1
  Cs  Cs8  1  0.00172688  0.66585508  0.66530519  1
  Cs  Cs9  1  0.32952776  -0.00369579  0.00082962  1
  Cs  Cs10  1  0.33527686  -0.00015416  0.33478830  1
  Cs  Cs11  1  0.33316693  0.00692746  0.66564794  1
  Cs  Cs12  1  0.33494017  0.33142671  0.00149365  1
  Cs  Cs13  1  0.32960338  0.33094131  0.33118678  1
  Cs  Cs14  1  0.33539667  0.33084539  0.66868928  1
  Cs  Cs15  1  0.33538611  0.66770366  -0.00092187  1
  Cs  Cs16  1  0.33387173  0.66826336  0.33382919  1
  Cs  Cs17  1  0.33168552  0.66601940  0.66686706  1
  Cs  Cs18  1  0.67002576  -0.00060355  0.00115794  1
  Cs  Cs19  1  0.66498440  0.00037925  0.33339844  1
  Cs  Cs20  1  0.66574528  0.00462600  0.66556092  1
  Cs  Cs21  1  0.66385069  0.33210639  -0.00244795  1
  Cs  Cs22  1  0.66882463  0.33291323  0.33278151  1
  Cs  Cs23  1  0.66734622  0.33523081  0.67089707  1
  Cs  Cs24  1  0.66512993  0.66809472  0.00256483  1
  Cs  Cs25  1  0.66742475  0.66768209  0.33337064  1
  Cs  Cs26  1  0.66533454  0.66274879  0.66307091  1
  Sn  Sn27  1  0.16684227  0.50063231  0.50053971  1
  Sn  Sn28  1  0.16673857  0.83320918  0.16750312  1
  Sn  Sn29  1  0.16577656  0.50022925  0.83281957  1
  Sn  Sn30  1  0.16592195  0.83288636  0.49926418  1
  Sn  Sn31  1  0.83441624  0.50045507  0.83326210  1
  Sn  Sn32  1  0.83311041  0.16637103  0.16716122  1
  Sn  Sn33  1  0.49943877  0.83343687  0.16598812  1
  Sn  Sn34  1  0.49967281  0.49981315  0.49890613  1
  Sn  Sn35  1  0.50074820  0.16643034  0.16694075  1
  Sn  Sn36  1  0.50007595  0.49994669  0.16769303  1
  Sn  Sn37  1  0.83418705  0.83357686  0.49989128  1
  Sn  Sn38  1  0.83344242  0.50007111  0.50021602  1
  Sn  Sn39  1  0.50020146  0.83340062  0.83331184  1
  Sn  Sn40  1  0.83363738  0.16661698  0.49921892  1
  Pb  Pb41  1  0.83129971  0.49826499  0.16676070  1
  Pb  Pb42  1  0.49986099  0.50128711  0.83331229  1
  Pb  Pb43  1  0.50221765  0.16992065  0.49790976  1
  Pb  Pb44  1  0.83348639  0.83558109  0.16851675  1
  Pb  Pb45  1  0.16669755  0.17034791  0.83320588  1
  Pb  Pb46  1  0.16893878  0.50210538  0.16693058  1
  Pb  Pb47  1  0.50011588  0.16340257  0.83636119  1
  Pb  Pb48  1  0.16395110  0.16664024  0.50001007  1
  Pb  Pb49  1  0.16618054  0.16325336  0.16675636  1
  Pb  Pb50  1  0.49965214  0.83193920  0.49980551  1
  Pb  Pb51  1  0.83338008  0.16942806  0.83347678  1
  Pb  Pb52  1  0.83083602  0.83064016  0.83014913  1
  Pb  Pb53  1  0.16848419  0.83128311  0.83249006  1
  I  I54  1  0.17335463  -0.00452589  0.17366963  1
  I  I55  1  0.16397403  -0.00344065  0.49489236  1
  I  I56  1  0.16822762  -0.00049935  0.83379608  1
  I  I57  1  0.16832233  0.33346672  0.16612827  1
  I  I58  1  0.16645592  0.33696417  0.50388126  1
  I  I59  1  0.16403667  0.33865156  0.82691834  1
  I  I60  1  0.17240361  0.66989212  0.16860900  1
  I  I61  1  0.16210107  0.66590392  0.49942082  1
  I  I62  1  0.16379513  0.66346435  0.83083272  1
  I  I63  1  0.50040413  -0.00065087  0.16186560  1
  I  I64  1  0.50049052  0.00015759  0.50011493  1
  I  I65  1  0.49963634  -0.00445851  0.83644186  1
  I  I66  1  0.50478119  0.33371774  0.17181851  1
  I  I67  1  0.49908235  0.33829516  0.49620372  1
  I  I68  1  0.49995531  0.33347615  0.83404242  1
  I  I69  1  0.49591582  0.66701229  0.16644457  1
  I  I70  1  0.50492349  0.66367113  0.49505137  1
  I  I71  1  0.50028274  0.66875179  0.84001671  1
  I  I72  1  0.82689087  0.00325260  0.17378850  1
  I  I73  1  0.83629944  -0.00029606  0.49363263  1
  I  I74  1  0.83170767  -0.00024145  0.83242506  1
  I  I75  1  0.82736748  0.33041713  0.17235449  1
  I  I76  1  0.83245120  0.33458845  0.49996936  1
  I  I77  1  0.83483003  0.33734011  0.82648978  1
  I  I78  1  0.83154551  0.66674845  0.16740323  1
  I  I79  1  0.83342429  0.66572156  0.50407511  1
  I  I80  1  0.83637233  0.66284081  0.82800230  1
  I  I81  1  0.16445015  0.16696731  0.00034678  1
  I  I82  1  0.16786961  0.17171563  0.33330528  1
  I  I83  1  0.16576881  0.16052464  0.66633868  1
  I  I84  1  0.16329382  0.50147173  -0.00224916  1
  I  I85  1  0.16376533  0.50195432  0.33650778  1
  I  I86  1  0.16749229  0.50629999  0.66471922  1
  I  I87  1  0.17064453  0.83249063  0.00219165  1
  I  I88  1  0.16918936  0.82738753  0.33421771  1
  I  I89  1  0.16376618  0.82996758  0.66335980  1
  I  I90  1  0.50703244  0.17411069  0.00469521  1
  I  I91  1  0.50192538  0.16100773  0.32982857  1
  I  I92  1  0.50113005  0.16627139  0.66649277  1
  I  I93  1  0.50033350  0.49896759  0.00277468  1
  I  I94  1  0.50108483  0.50303202  0.33362382  1
  I  I95  1  0.50097476  0.50356865  0.66386146  1
  I  I96  1  0.49470849  0.83028011  0.00225698  1
  I  I97  1  0.49917684  0.83425588  0.33057317  1
  I  I98  1  0.50096859  0.82772910  0.66819334  1
  I  I99  1  0.82790006  0.16814449  0.00299169  1
  I  I100  1  0.82896024  0.16924962  0.33422881  1
  I  I101  1  0.83421742  0.16558588  0.66338032  1
  I  I102  1  0.83596808  0.49805624  -0.00232982  1
  I  I103  1  0.83516675  0.50145676  0.33671993  1
  I  I104  1  0.83099728  0.49827932  0.66441151  1
  I  I105  1  0.83531590  0.83359155  -0.00010111  1
  I  I106  1  0.83183747  0.82703213  0.33673888  1
  I  I107  1  0.83815029  0.83740841  0.66205347  1
  I  I108  1  -0.00306727  0.16822959  0.17222833  1
  I  I109  1  -0.00419790  0.17225589  0.49249920  1
  I  I110  1  -0.00029177  0.16214095  0.83681202  1
  I  I111  1  0.00006165  0.49941287  0.16788876  1
  I  I112  1  -0.00038971  0.50052843  0.50502056  1
  I  I113  1  -0.00017027  0.50048004  0.82416898  1
  I  I114  1  0.00243498  0.83322322  0.17012605  1
  I  I115  1  0.00031971  0.82762884  0.49368208  1
  I  I116  1  -0.00004535  0.83430464  0.83679386  1
  I  I117  1  0.33642397  0.16914482  0.16568669  1
  I  I118  1  0.33341926  0.16646732  0.49874952  1
  I  I119  1  0.33368577  0.16967091  0.83436223  1
  I  I120  1  0.33713557  0.49612109  0.17000779  1
  I  I121  1  0.33275144  0.50672586  0.50027016  1
  I  I122  1  0.33111744  0.50277409  0.82952054  1
  I  I123  1  0.33448804  0.83428634  0.16888506  1
  I  I124  1  0.33077801  0.82652981  0.49854176  1
  I  I125  1  0.33607080  0.82863383  0.83453366  1
  I  I126  1  0.66592911  0.16502167  0.17148323  1
  I  I127  1  0.67035529  0.16500379  0.49782989  1
  I  I128  1  0.66669268  0.17001626  0.83094192  1
  I  I129  1  0.66310017  0.50539382  0.17043226  1
  I  I130  1  0.66747394  0.50101835  0.50038665  1
  I  I131  1  0.66874564  0.50096567  0.82871435  1
  I  I132  1  0.66374460  0.83149110  0.16482649  1
  I  I133  1  0.66902868  0.83118955  0.49982707  1
  I  I134  1  0.66349354  0.83002972  0.84030502  1
