# generated using pymatgen
data_Cs27Sn14Pb13I81
_symmetry_space_group_name_H-M   'P 1'
_cell_length_a   18.97430740
_cell_length_b   18.98127101
_cell_length_c   18.97317796
_cell_angle_alpha   90.00099711
_cell_angle_beta   90.00329970
_cell_angle_gamma   90.00001784
_symmetry_Int_Tables_number   1
_chemical_formula_structural   Cs27Sn14Pb13I81
_chemical_formula_sum   'Cs27 Sn14 Pb13 I81'
_cell_volume   6833.31280363
_cell_formula_units_Z   1
loop_
 _symmetry_equiv_pos_site_id
 _symmetry_equiv_pos_as_xyz
  1  'x, y, z'
loop_
 _atom_site_type_symbol
 _atom_site_label
 _atom_site_symmetry_multiplicity
 _atom_site_fract_x
 _atom_site_fract_y
 _atom_site_fract_z
 _atom_site_occupancy
  Cs  Cs0  1  0.00145169  -0.00112891  -0.00010283  1
  Cs  Cs1  1  0.00068422  0.00210435  0.33303317  1
  Cs  Cs2  1  0.00013814  0.00285314  0.66705632  1
  Cs  Cs3  1  0.00065829  0.33399298  -0.00179359  1
  Cs  Cs4  1  0.00276990  0.33117597  0.33527760  1
  Cs  Cs5  1  0.00057001  0.33377887  0.66677371  1
  Cs  Cs6  1  0.00076633  0.66728620  0.00010482  1
  Cs  Cs7  1  -0.00506800  0.66804253  0.33228010  1
  Cs  Cs8  1  -0.00192620  0.66042686  0.66732999  1
  Cs  Cs9  1  0.33165643  -0.00359646  0.00019008  1
  Cs  Cs10  1  0.33368056  -0.00153231  0.33341949  1
  Cs  Cs11  1  0.33445448  0.00041070  0.66680135  1
  Cs  Cs12  1  0.33483016  0.33374762  0.00156106  1
  Cs  Cs13  1  0.33134647  0.33340958  0.33488910  1
  Cs  Cs14  1  0.33403300  0.33367481  0.66507194  1
  Cs  Cs15  1  0.33032853  0.67045913  0.00160622  1
  Cs  Cs16  1  0.33331119  0.66652012  0.33412417  1
  Cs  Cs17  1  0.33531190  0.66472931  0.66557246  1
  Cs  Cs18  1  0.66589925  0.00278668  -0.00487642  1
  Cs  Cs19  1  0.66548482  -0.00410900  0.33272268  1
  Cs  Cs20  1  0.66552478  -0.00022265  0.66842845  1
  Cs  Cs21  1  0.66503958  0.33367981  0.00205067  1
  Cs  Cs22  1  0.66588822  0.33328934  0.32924887  1
  Cs  Cs23  1  0.66520619  0.33199910  0.66725221  1
  Cs  Cs24  1  0.66876101  0.66357168  0.00397838  1
  Cs  Cs25  1  0.67572467  0.67456245  0.32670551  1
  Cs  Cs26  1  0.66624669  0.66913234  0.66611272  1
  Sn  Sn27  1  0.16733702  0.49999454  0.49921987  1
  Sn  Sn28  1  0.16612826  0.16758472  0.16732233  1
  Sn  Sn29  1  0.50043456  0.16691186  0.83256785  1
  Sn  Sn30  1  0.16644654  0.83308830  0.50056696  1
  Sn  Sn31  1  0.83276220  0.16686792  0.49988870  1
  Sn  Sn32  1  0.16695106  0.16672770  0.49948779  1
  Sn  Sn33  1  0.83290747  0.83403099  0.83288883  1
  Sn  Sn34  1  0.50069153  0.83328054  0.83311320  1
  Sn  Sn35  1  0.49979309  0.49977559  0.83267686  1
  Sn  Sn36  1  0.83404055  0.16672597  0.16644280  1
  Sn  Sn37  1  0.50016412  0.16744273  0.50055205  1
  Sn  Sn38  1  0.50025298  0.49967300  0.49997227  1
  Sn  Sn39  1  0.83267010  0.16617381  0.83339793  1
  Sn  Sn40  1  0.16684330  0.49899880  0.16762938  1
  Pb  Pb41  1  0.83352835  0.83650244  0.16366588  1
  Pb  Pb42  1  0.49951566  0.16656172  0.16706272  1
  Pb  Pb43  1  0.83632618  0.49727162  0.16675380  1
  Pb  Pb44  1  0.16914514  0.49991371  0.83316966  1
  Pb  Pb45  1  0.16689741  0.16673325  0.83349755  1
  Pb  Pb46  1  0.49865557  0.83306833  0.50146325  1
  Pb  Pb47  1  0.16621672  0.83326403  0.83078701  1
  Pb  Pb48  1  0.83251198  0.49781018  0.49992415  1
  Pb  Pb49  1  0.83567609  0.83598781  0.50243093  1
  Pb  Pb50  1  0.16652569  0.83356422  0.16941555  1
  Pb  Pb51  1  0.50005764  0.83329291  0.16355332  1
  Pb  Pb52  1  0.83049941  0.49952621  0.83318228  1
  Pb  Pb53  1  0.49787805  0.49998354  0.16786420  1
  I  I54  1  0.16305822  0.00348722  0.17018745  1
  I  I55  1  0.16666891  0.00204820  0.49734708  1
  I  I56  1  0.17169600  0.00023792  0.83291560  1
  I  I57  1  0.16329357  0.33215252  0.17489156  1
  I  I58  1  0.16747994  0.33247758  0.49599209  1
  I  I59  1  0.16566646  0.33313594  0.83008915  1
  I  I60  1  0.17002526  0.66366202  0.16980596  1
  I  I61  1  0.17334601  0.66529840  0.49786236  1
  I  I62  1  0.16648977  0.66657774  0.83346990  1
  I  I63  1  0.49654110  0.00047272  0.16781599  1
  I  I64  1  0.49874153  0.00333985  0.50385409  1
  I  I65  1  0.50434873  0.00116923  0.82939428  1
  I  I66  1  0.50251085  0.33307019  0.16005517  1
  I  I67  1  0.49442633  0.33217091  0.50905683  1
  I  I68  1  0.50298222  0.33227310  0.82924412  1
  I  I69  1  0.49642625  0.66641442  0.16644296  1
  I  I70  1  0.49141822  0.66366746  0.50630205  1
  I  I71  1  0.50232453  0.66648242  0.82824488  1
  I  I72  1  0.84090759  0.00472681  0.16949806  1
  I  I73  1  0.83301223  0.00469886  0.49825101  1
  I  I74  1  0.82511099  0.00191842  0.83299371  1
  I  I75  1  0.83403905  0.32883303  0.16370727  1
  I  I76  1  0.83845715  0.32883491  0.50373723  1
  I  I77  1  0.83036649  0.32944067  0.83306018  1
  I  I78  1  0.83417150  0.66682876  0.16458532  1
  I  I79  1  0.83462294  0.66690848  0.50268058  1
  I  I80  1  0.83008317  0.66938572  0.83241570  1
  I  I81  1  0.16378724  0.17120547  0.00299619  1
  I  I82  1  0.16350332  0.16712898  0.33479750  1
  I  I83  1  0.16462153  0.16786125  0.66325867  1
  I  I84  1  0.16738633  0.49404562  0.00290652  1
  I  I85  1  0.17317730  0.49765482  0.33506320  1
  I  I86  1  0.16812405  0.49801924  0.66298546  1
  I  I87  1  0.16766251  0.83346046  -0.00005421  1
  I  I88  1  0.16784734  0.83516692  0.33735338  1
  I  I89  1  0.16752886  0.83556856  0.66294471  1
  I  I90  1  0.50314854  0.16666932  -0.00328390  1
  I  I91  1  0.50145166  0.17252478  0.33700782  1
  I  I92  1  0.50191823  0.16687136  0.66654054  1
  I  I93  1  0.49951697  0.49877010  -0.00293221  1
  I  I94  1  0.49571504  0.49117730  0.33734383  1
  I  I95  1  0.49339351  0.49807283  0.66619138  1
  I  I96  1  0.50192350  0.83546671  -0.00541673  1
  I  I97  1  0.49773424  0.83400798  0.33379287  1
  I  I98  1  0.50270930  0.83467853  0.66981569  1
  I  I99  1  0.83341389  0.16281013  -0.00074343  1
  I  I100  1  0.83532257  0.16913225  0.33401076  1
  I  I101  1  0.83334089  0.16295802  0.66663662  1
  I  I102  1  0.83361805  0.49735293  -0.00011997  1
  I  I103  1  0.82760263  0.49926898  0.33340928  1
  I  I104  1  0.84035054  0.49701820  0.66657533  1
  I  I105  1  0.82951896  0.83952908  -0.00427857  1
  I  I106  1  0.83466350  0.83371309  0.33350123  1
  I  I107  1  0.82927378  0.84041845  0.67015560  1
  I  I108  1  0.00043943  0.17014948  0.16984611  1
  I  I109  1  0.00051318  0.16606363  0.50012153  1
  I  I110  1  -0.00303113  0.16121982  0.83106563  1
  I  I111  1  0.00442755  0.49811244  0.17354447  1
  I  I112  1  0.00326743  0.49902215  0.49609860  1
  I  I113  1  -0.00001287  0.50051445  0.83326390  1
  I  I114  1  0.00011220  0.83138426  0.16284059  1
  I  I115  1  0.00367777  0.83319853  0.50213774  1
  I  I116  1  -0.00308504  0.84119966  0.83248351  1
  I  I117  1  0.33010669  0.17066062  0.16982846  1
  I  I118  1  0.33308605  0.16715646  0.50067267  1
  I  I119  1  0.33677761  0.16596823  0.82996847  1
  I  I120  1  0.32986583  0.49120507  0.16763879  1
  I  I121  1  0.33282484  0.49455316  0.50119823  1
  I  I122  1  0.33736538  0.49849630  0.83148108  1
  I  I123  1  0.33287793  0.83694784  0.16262130  1
  I  I124  1  0.33065259  0.83879929  0.50281198  1
  I  I125  1  0.33647606  0.83510831  0.83220605  1
  I  I126  1  0.66942416  0.16519396  0.16820347  1
  I  I127  1  0.66609866  0.17155484  0.50173423  1
  I  I128  1  0.66625269  0.16582564  0.83058500  1
  I  I129  1  0.66669083  0.49913503  0.16581964  1
  I  I130  1  0.66289894  0.49381221  0.50718247  1
  I  I131  1  0.66232939  0.49885077  0.82636955  1
  I  I132  1  0.66704225  0.83433241  0.17175418  1
  I  I133  1  0.66684273  0.83313044  0.49929065  1
  I  I134  1  0.66598059  0.83633950  0.83155824  1
