# generated using pymatgen
data_Cs27Sn13Pb14I81
_symmetry_space_group_name_H-M   'P 1'
_cell_length_a   18.97245709
_cell_length_b   18.97723074
_cell_length_c   18.98150973
_cell_angle_alpha   89.99773425
_cell_angle_beta   89.99965238
_cell_angle_gamma   89.99633712
_symmetry_Int_Tables_number   1
_chemical_formula_structural   Cs27Sn13Pb14I81
_chemical_formula_sum   'Cs27 Sn13 Pb14 I81'
_cell_volume   6834.19187993
_cell_formula_units_Z   1
loop_
 _symmetry_equiv_pos_site_id
 _symmetry_equiv_pos_as_xyz
  1  'x, y, z'
loop_
 _atom_site_type_symbol
 _atom_site_label
 _atom_site_symmetry_multiplicity
 _atom_site_fract_x
 _atom_site_fract_y
 _atom_site_fract_z
 _atom_site_occupancy
  Cs  Cs0  1  0.00244852  -0.00116986  0.00024282  1
  Cs  Cs1  1  -0.00046415  -0.00050682  0.33420936  1
  Cs  Cs2  1  -0.00121310  -0.00253667  0.66609901  1
  Cs  Cs3  1  0.00059663  0.33751988  0.00137399  1
  Cs  Cs4  1  0.00703233  0.33408541  0.33397873  1
  Cs  Cs5  1  -0.00106649  0.33262500  0.66603485  1
  Cs  Cs6  1  -0.00104795  0.66469791  0.00233704  1
  Cs  Cs7  1  0.00130492  0.66707213  0.32669076  1
  Cs  Cs8  1  -0.00042362  0.67033801  0.66914355  1
  Cs  Cs9  1  0.33359991  0.00012149  -0.00275790  1
  Cs  Cs10  1  0.33235981  -0.00113288  0.32865239  1
  Cs  Cs11  1  0.33212101  -0.00071794  0.67287290  1
  Cs  Cs12  1  0.33533574  0.33117531  -0.00141565  1
  Cs  Cs13  1  0.32948081  0.33622133  0.33468040  1
  Cs  Cs14  1  0.32969175  0.33403381  0.66704443  1
  Cs  Cs15  1  0.33360924  0.66828661  -0.00072781  1
  Cs  Cs16  1  0.33500905  0.66439150  0.33456169  1
  Cs  Cs17  1  0.33384099  0.66626294  0.66523318  1
  Cs  Cs18  1  0.66402217  0.00073531  0.00064408  1
  Cs  Cs19  1  0.66777596  0.00331410  0.33368527  1
  Cs  Cs20  1  0.66777292  0.00042893  0.66627915  1
  Cs  Cs21  1  0.66602133  0.33472433  0.00106037  1
  Cs  Cs22  1  0.66516378  0.32900588  0.33310107  1
  Cs  Cs23  1  0.66874827  0.33301137  0.66577015  1
  Cs  Cs24  1  0.66771314  0.66384367  0.00347926  1
  Cs  Cs25  1  0.66409906  0.66920583  0.33392090  1
  Cs  Cs26  1  0.66620276  0.66679476  0.66470343  1
  Sn  Sn27  1  0.83367167  0.83401025  0.83301218  1
  Sn  Sn28  1  0.50023221  0.49917987  0.16618871  1
  Sn  Sn29  1  0.83340668  0.50017878  0.49957936  1
  Sn  Sn30  1  0.83293854  0.16690537  0.49987163  1
  Sn  Sn31  1  0.16605710  0.83344505  0.50059325  1
  Sn  Sn32  1  0.83318891  0.16677580  0.16671034  1
  Sn  Sn33  1  0.16735979  0.50069458  0.83302571  1
  Sn  Sn34  1  0.49999617  0.16650125  0.49971394  1
  Sn  Sn35  1  0.16568587  0.83220932  0.83237093  1
  Sn  Sn36  1  0.50067124  0.16768161  0.16754530  1
  Sn  Sn37  1  0.49949706  0.50000666  0.83355948  1
  Sn  Sn38  1  0.83399615  0.83301503  0.50053739  1
  Sn  Sn39  1  0.83336067  0.16597132  0.83356520  1
  Pb  Pb40  1  0.50011290  0.83631390  0.50011414  1
  Pb  Pb41  1  0.83131341  0.49746756  0.16979476  1
  Pb  Pb42  1  0.16716041  0.16673610  0.16668357  1
  Pb  Pb43  1  0.50064203  0.83073329  0.83326096  1
  Pb  Pb44  1  0.16667285  0.16415854  0.50013580  1
  Pb  Pb45  1  0.50231032  0.16870404  0.83314304  1
  Pb  Pb46  1  0.50014969  0.83380783  0.16669096  1
  Pb  Pb47  1  0.16372322  0.16647257  0.83328677  1
  Pb  Pb48  1  0.83319644  0.83566772  0.16662788  1
  Pb  Pb49  1  0.83326410  0.50040969  0.83203855  1
  Pb  Pb50  1  0.16653807  0.83322321  0.16623995  1
  Pb  Pb51  1  0.16955627  0.50000416  0.16400239  1
  Pb  Pb52  1  0.16404409  0.50257558  0.50219073  1
  Pb  Pb53  1  0.50158922  0.49780303  0.50004324  1
  I  I54  1  0.16936841  -0.00002001  0.16418611  1
  I  I55  1  0.16074628  -0.00367327  0.50730077  1
  I  I56  1  0.16439186  -0.00332527  0.82940512  1
  I  I57  1  0.16335367  0.33348165  0.16498424  1
  I  I58  1  0.16512171  0.33347555  0.50108009  1
  I  I59  1  0.16941111  0.33606378  0.83462268  1
  I  I60  1  0.16831555  0.66650761  0.16891716  1
  I  I61  1  0.16175990  0.67047773  0.50239826  1
  I  I62  1  0.16468946  0.66748433  0.82926593  1
  I  I63  1  0.50454116  0.00406851  0.17126903  1
  I  I64  1  0.50670126  0.00422909  0.49425144  1
  I  I65  1  0.49747640  0.00021629  0.83421581  1
  I  I66  1  0.50544081  0.33240858  0.16572790  1
  I  I67  1  0.50762517  0.32992404  0.49942270  1
  I  I68  1  0.49632188  0.33656394  0.83437378  1
  I  I69  1  0.49925167  0.66338822  0.16205356  1
  I  I70  1  0.50205267  0.66660398  0.49912444  1
  I  I71  1  0.50140995  0.66272236  0.83865512  1
  I  I72  1  0.82652092  0.00401641  0.17041959  1
  I  I73  1  0.83324035  0.00041186  0.50073982  1
  I  I74  1  0.83765090  -0.00019618  0.82874556  1
  I  I75  1  0.83066694  0.32926486  0.16450302  1
  I  I76  1  0.82769702  0.33186856  0.50160303  1
  I  I77  1  0.83242692  0.33093473  0.83145674  1
  I  I78  1  0.83170717  0.66638720  0.16663137  1
  I  I79  1  0.83639589  0.66781836  0.50696507  1
  I  I80  1  0.83406953  0.66942493  0.82722482  1
  I  I81  1  0.16621339  0.16378915  -0.00025317  1
  I  I82  1  0.16241872  0.16424002  0.33357340  1
  I  I83  1  0.16848696  0.16937028  0.66677559  1
  I  I84  1  0.16484980  0.50656534  -0.00412123  1
  I  I85  1  0.16716496  0.50115570  0.33358756  1
  I  I86  1  0.17355038  0.50112777  0.67006025  1
  I  I87  1  0.16186188  0.82987041  -0.00405900  1
  I  I88  1  0.16121917  0.83579624  0.33661483  1
  I  I89  1  0.16137430  0.83025368  0.66749146  1
  I  I90  1  0.50494490  0.16907427  0.00259096  1
  I  I91  1  0.51004692  0.17155723  0.33309199  1
  I  I92  1  0.50569141  0.16736321  0.66423260  1
  I  I93  1  0.49733447  0.49399394  -0.00011273  1
  I  I94  1  0.50341292  0.49741586  0.33097218  1
  I  I95  1  0.49801005  0.49916628  0.66908619  1
  I  I96  1  0.49933000  0.83786712  -0.00027843  1
  I  I97  1  0.49948950  0.82863647  0.33362325  1
  I  I98  1  0.50059356  0.83336477  0.66668083  1
  I  I99  1  0.82938860  0.16208668  -0.00023166  1
  I  I100  1  0.82814008  0.16602514  0.33430767  1
  I  I101  1  0.82952033  0.16593672  0.66578974  1
  I  I102  1  0.83467532  0.49957887  0.00011135  1
  I  I103  1  0.83126482  0.50186663  0.33765228  1
  I  I104  1  0.83093160  0.49501194  0.66423566  1
  I  I105  1  0.83763440  0.83717705  -0.00345722  1
  I  I106  1  0.83713599  0.83409123  0.33690374  1
  I  I107  1  0.83705378  0.83837973  0.66633464  1
  I  I108  1  -0.00354099  0.16494861  0.16801771  1
  I  I109  1  -0.00384745  0.16821456  0.49978648  1
  I  I110  1  -0.00467491  0.16770684  0.83159090  1
  I  I111  1  -0.00018856  0.49866756  0.16592554  1
  I  I112  1  -0.00399575  0.49289165  0.50234175  1
  I  I113  1  0.00199042  0.50090017  0.83007732  1
  I  I114  1  -0.00034173  0.83548999  0.16687820  1
  I  I115  1  -0.00176579  0.83599708  0.50515751  1
  I  I116  1  -0.00060808  0.83219378  0.82859445  1
  I  I117  1  0.33739770  0.17032953  0.17192751  1
  I  I118  1  0.33634405  0.16643260  0.49421271  1
  I  I119  1  0.33349214  0.16435227  0.83403387  1
  I  I120  1  0.33759811  0.49243647  0.16709770  1
  I  I121  1  0.33324329  0.49982448  0.49867556  1
  I  I122  1  0.33326292  0.50487205  0.83656694  1
  I  I123  1  0.33329249  0.83656831  0.16675495  1
  I  I124  1  0.33032851  0.83468351  0.50502811  1
  I  I125  1  0.33027402  0.83137986  0.82894296  1
  I  I126  1  0.66701900  0.16985024  0.16795782  1
  I  I127  1  0.66859576  0.16470245  0.49931170  1
  I  I128  1  0.67054844  0.16270099  0.83209980  1
  I  I129  1  0.66350322  0.49820421  0.15854766  1
  I  I130  1  0.66973955  0.50406237  0.50353584  1
  I  I131  1  0.66455660  0.49873392  0.83586460  1
  I  I132  1  0.66693032  0.83106053  0.16607116  1
  I  I133  1  0.67038258  0.83227593  0.50453667  1
  I  I134  1  0.67030156  0.83674713  0.82829511  1
