# generated using pymatgen
data_Cs27Sn14Pb13I81
_symmetry_space_group_name_H-M   'P 1'
_cell_length_a   18.98448774
_cell_length_b   18.97380737
_cell_length_c   18.96882829
_cell_angle_alpha   89.99949772
_cell_angle_beta   90.00075834
_cell_angle_gamma   89.99939765
_symmetry_Int_Tables_number   1
_chemical_formula_structural   Cs27Sn14Pb13I81
_chemical_formula_sum   'Cs27 Sn14 Pb13 I81'
_cell_volume   6832.72395217
_cell_formula_units_Z   1
loop_
 _symmetry_equiv_pos_site_id
 _symmetry_equiv_pos_as_xyz
  1  'x, y, z'
loop_
 _atom_site_type_symbol
 _atom_site_label
 _atom_site_symmetry_multiplicity
 _atom_site_fract_x
 _atom_site_fract_y
 _atom_site_fract_z
 _atom_site_occupancy
  Cs  Cs0  1  -0.00034985  0.00104389  0.00366805  1
  Cs  Cs1  1  -0.00063520  0.00077082  0.33111904  1
  Cs  Cs2  1  -0.00184077  -0.00490870  0.66665667  1
  Cs  Cs3  1  -0.00077209  0.33506997  -0.00137710  1
  Cs  Cs4  1  -0.00174320  0.33201418  0.33229093  1
  Cs  Cs5  1  -0.00040602  0.33543723  0.66909238  1
  Cs  Cs6  1  0.00153154  0.66336493  -0.00198313  1
  Cs  Cs7  1  -0.00141801  0.66646614  0.33272916  1
  Cs  Cs8  1  0.00956953  0.67131406  0.67286420  1
  Cs  Cs9  1  0.33383164  0.00133757  0.00098639  1
  Cs  Cs10  1  0.33149495  0.00353912  0.33093626  1
  Cs  Cs11  1  0.33473590  -0.00143852  0.66804978  1
  Cs  Cs12  1  0.33605568  0.33124673  -0.00037102  1
  Cs  Cs13  1  0.33427366  0.33340391  0.33496597  1
  Cs  Cs14  1  0.33277190  0.33330972  0.66674768  1
  Cs  Cs15  1  0.33307102  0.66707244  -0.00064083  1
  Cs  Cs16  1  0.33468569  0.66128816  0.33863839  1
  Cs  Cs17  1  0.32574575  0.67264854  0.66124905  1
  Cs  Cs18  1  0.66575555  0.00051641  0.00035851  1
  Cs  Cs19  1  0.66839368  0.00107672  0.33250365  1
  Cs  Cs20  1  0.66680974  -0.00377898  0.66778407  1
  Cs  Cs21  1  0.66580710  0.33369625  -0.00211822  1
  Cs  Cs22  1  0.66714846  0.33479242  0.33388838  1
  Cs  Cs23  1  0.66745598  0.33068492  0.66877354  1
  Cs  Cs24  1  0.66632382  0.66583170  0.00184357  1
  Cs  Cs25  1  0.66650490  0.66348197  0.33286266  1
  Cs  Cs26  1  0.66594271  0.68067728  0.66694774  1
  Sn  Sn27  1  0.16608261  0.16691092  0.50140343  1
  Sn  Sn28  1  0.16706710  0.16691262  0.83229898  1
  Sn  Sn29  1  0.50016581  0.50003249  0.83221024  1
  Sn  Sn30  1  0.83349158  0.16766805  0.49928694  1
  Sn  Sn31  1  0.49924226  0.16768982  0.83317605  1
  Sn  Sn32  1  0.16630145  0.50050595  0.16689684  1
  Sn  Sn33  1  0.83322696  0.49966970  0.50030541  1
  Sn  Sn34  1  0.83326270  0.83319356  0.16690270  1
  Sn  Sn35  1  0.83415418  0.49961499  0.16723802  1
  Sn  Sn36  1  0.16701848  0.83169184  0.16695325  1
  Sn  Sn37  1  0.50035701  0.16691513  0.50000674  1
  Sn  Sn38  1  0.50115752  0.16630692  0.16685216  1
  Sn  Sn39  1  0.49976759  0.83387295  0.16691757  1
  Sn  Sn40  1  0.83213508  0.16711667  0.16724444  1
  Pb  Pb41  1  0.83355820  0.83315087  0.49789622  1
  Pb  Pb42  1  0.50266998  0.49816174  0.50334089  1
  Pb  Pb43  1  0.16906139  0.49780903  0.83539540  1
  Pb  Pb44  1  0.16660337  0.83602187  0.49711514  1
  Pb  Pb45  1  0.16685112  0.83634563  0.83605558  1
  Pb  Pb46  1  0.50023421  0.49969135  0.16568194  1
  Pb  Pb47  1  0.16418612  0.49766829  0.49800046  1
  Pb  Pb48  1  0.49990369  0.83594388  0.49685563  1
  Pb  Pb49  1  0.83316474  0.16663216  0.83297420  1
  Pb  Pb50  1  0.83106128  0.50008060  0.83244387  1
  Pb  Pb51  1  0.16656160  0.16708519  0.16668850  1
  Pb  Pb52  1  0.83352512  0.83313410  0.83634676  1
  Pb  Pb53  1  0.49978491  0.83366061  0.83557351  1
  I  I54  1  0.16448847  -0.00157030  0.16655565  1
  I  I55  1  0.16446831  0.00475394  0.50062738  1
  I  I56  1  0.17399687  0.00439991  0.83218014  1
  I  I57  1  0.16320918  0.33526678  0.16648752  1
  I  I58  1  0.16918798  0.32922142  0.49931535  1
  I  I59  1  0.16875949  0.32970274  0.83363082  1
  I  I60  1  0.16323229  0.66687191  0.16564666  1
  I  I61  1  0.16544559  0.66646583  0.50055928  1
  I  I62  1  0.16790530  0.66662068  0.83347452  1
  I  I63  1  0.50239543  0.00172583  0.16493486  1
  I  I64  1  0.50356141  0.00507930  0.50495699  1
  I  I65  1  0.49650537  0.00382658  0.83255765  1
  I  I66  1  0.50210421  0.32994175  0.16764696  1
  I  I67  1  0.49801916  0.32910074  0.49276639  1
  I  I68  1  0.49712203  0.33062253  0.83796249  1
  I  I69  1  0.50254762  0.66893095  0.16253489  1
  I  I70  1  0.50200991  0.66651766  0.50017279  1
  I  I71  1  0.50356947  0.66420873  0.83905610  1
  I  I72  1  0.83333310  0.00091739  0.16970327  1
  I  I73  1  0.83289910  0.00374605  0.49564984  1
  I  I74  1  0.83122417  0.00039373  0.83386999  1
  I  I75  1  0.83374924  0.33271430  0.17029700  1
  I  I76  1  0.83312640  0.33160345  0.48991453  1
  I  I77  1  0.83458427  0.33309066  0.84035537  1
  I  I78  1  0.83315495  0.66624219  0.17003479  1
  I  I79  1  0.83141549  0.66356516  0.49313669  1
  I  I80  1  0.82958995  0.66639265  0.83399058  1
  I  I81  1  0.17077278  0.16600000  -0.00156680  1
  I  I82  1  0.16875927  0.16602119  0.33525708  1
  I  I83  1  0.17018279  0.16821907  0.66614950  1
  I  I84  1  0.15975315  0.50080855  0.00367684  1
  I  I85  1  0.16667319  0.50097787  0.32959266  1
  I  I86  1  0.16518102  0.49988823  0.66658581  1
  I  I87  1  0.16613989  0.83318479  0.00456944  1
  I  I88  1  0.16578091  0.83362857  0.32865689  1
  I  I89  1  0.16654356  0.83211990  0.66659934  1
  I  I90  1  0.49910672  0.16624481  0.00076868  1
  I  I91  1  0.50001473  0.16140014  0.33277127  1
  I  I92  1  0.49940259  0.17286437  0.66666616  1
  I  I93  1  0.50136329  0.49256656  -0.00176348  1
  I  I94  1  0.49815936  0.49973122  0.33350239  1
  I  I95  1  0.50181315  0.49012153  0.67065029  1
  I  I96  1  0.50102823  0.84049810  0.00412145  1
  I  I97  1  0.50113812  0.83849520  0.32842784  1
  I  I98  1  0.50090790  0.83410523  0.66658514  1
  I  I99  1  0.83105497  0.16625780  0.00349713  1
  I  I100  1  0.83106392  0.16656510  0.33212313  1
  I  I101  1  0.83126632  0.17261802  0.66317405  1
  I  I102  1  0.83580732  0.49924439  0.00357363  1
  I  I103  1  0.83606176  0.49799685  0.33140839  1
  I  I104  1  0.83049918  0.48922238  0.66323925  1
  I  I105  1  0.83254530  0.83539330  0.00563912  1
  I  I106  1  0.83319357  0.83536968  0.32898776  1
  I  I107  1  0.83234862  0.83432118  0.66626430  1
  I  I108  1  -0.00251389  0.16434573  0.16919012  1
  I  I109  1  -0.00080161  0.16997917  0.49728990  1
  I  I110  1  0.00258665  0.16594366  0.83275098  1
  I  I111  1  -0.00121845  0.50140880  0.16922538  1
  I  I112  1  -0.00374884  0.49201719  0.49621084  1
  I  I113  1  0.00011942  0.49806009  0.83392334  1
  I  I114  1  -0.00055776  0.83537472  0.16696946  1
  I  I115  1  -0.00000641  0.83789287  0.49634852  1
  I  I116  1  0.00036607  0.83543922  0.83582420  1
  I  I117  1  0.33571923  0.16397118  0.16808611  1
  I  I118  1  0.33386275  0.16509282  0.49828331  1
  I  I119  1  0.33460239  0.17010324  0.83290040  1
  I  I120  1  0.33133488  0.50185112  0.16352280  1
  I  I121  1  0.33335662  0.49758101  0.49762240  1
  I  I122  1  0.33669811  0.49491558  0.83814165  1
  I  I123  1  0.33357472  0.83650029  0.16534435  1
  I  I124  1  0.33331007  0.83476750  0.49614186  1
  I  I125  1  0.33338143  0.83275080  0.83851281  1
  I  I126  1  0.66669782  0.16388572  0.16837581  1
  I  I127  1  0.66688662  0.17046755  0.49768032  1
  I  I128  1  0.66347979  0.16990002  0.83351349  1
  I  I129  1  0.66955466  0.50145842  0.16855124  1
  I  I130  1  0.67029433  0.49214688  0.48935058  1
  I  I131  1  0.66350049  0.48979947  0.83868817  1
  I  I132  1  0.66691738  0.83527880  0.16620723  1
  I  I133  1  0.66672721  0.83539513  0.49819084  1
  I  I134  1  0.66636984  0.83601059  0.83545149  1
