# generated using pymatgen
data_Cs27Sn13Pb14I81
_symmetry_space_group_name_H-M   'P 1'
_cell_length_a   18.97728100
_cell_length_b   18.97634545
_cell_length_c   18.97667985
_cell_angle_alpha   90.00326271
_cell_angle_beta   90.00005558
_cell_angle_gamma   89.99990662
_symmetry_Int_Tables_number   1
_chemical_formula_structural   Cs27Sn13Pb14I81
_chemical_formula_sum   'Cs27 Sn13 Pb14 I81'
_cell_volume   6833.87130802
_cell_formula_units_Z   1
loop_
 _symmetry_equiv_pos_site_id
 _symmetry_equiv_pos_as_xyz
  1  'x, y, z'
loop_
 _atom_site_type_symbol
 _atom_site_label
 _atom_site_symmetry_multiplicity
 _atom_site_fract_x
 _atom_site_fract_y
 _atom_site_fract_z
 _atom_site_occupancy
  Cs  Cs0  1  -0.00086337  0.00054034  -0.00254841  1
  Cs  Cs1  1  0.00036645  0.00191231  0.33585263  1
  Cs  Cs2  1  0.00031429  0.00141869  0.66647525  1
  Cs  Cs3  1  0.00155147  0.33405881  0.00173400  1
  Cs  Cs4  1  -0.00079386  0.33247667  0.33419931  1
  Cs  Cs5  1  0.00155012  0.33088707  0.66446432  1
  Cs  Cs6  1  -0.00774463  0.66533042  0.00609692  1
  Cs  Cs7  1  0.00162592  0.66642302  0.32720487  1
  Cs  Cs8  1  -0.00055223  0.66710553  0.66763059  1
  Cs  Cs9  1  0.33715197  0.00213333  -0.00144572  1
  Cs  Cs10  1  0.33579260  -0.00677513  0.33259515  1
  Cs  Cs11  1  0.33184445  -0.00194273  0.66843893  1
  Cs  Cs12  1  0.33456921  0.33175253  -0.00010466  1
  Cs  Cs13  1  0.33348849  0.33426895  0.33278651  1
  Cs  Cs14  1  0.33284807  0.33455568  0.66739590  1
  Cs  Cs15  1  0.33020998  0.66790537  0.00246065  1
  Cs  Cs16  1  0.33512868  0.67436148  0.33300891  1
  Cs  Cs17  1  0.33548417  0.66726626  0.66421090  1
  Cs  Cs18  1  0.66319929  -0.00132859  0.00252827  1
  Cs  Cs19  1  0.66477058  0.00024206  0.33162623  1
  Cs  Cs20  1  0.67133268  0.00128799  0.66656279  1
  Cs  Cs21  1  0.66148351  0.33518943  -0.00124381  1
  Cs  Cs22  1  0.66606738  0.33238604  0.33587678  1
  Cs  Cs23  1  0.66347674  0.33659865  0.66567457  1
  Cs  Cs24  1  0.67907973  0.66559991  -0.00088621  1
  Cs  Cs25  1  0.66277912  0.66843372  0.33322491  1
  Cs  Cs26  1  0.66554486  0.66337693  0.66784526  1
  Sn  Sn27  1  0.16825164  0.16711789  0.49978433  1
  Sn  Sn28  1  0.49980511  0.50009535  0.16652932  1
  Sn  Sn29  1  0.83387129  0.16696759  0.16527020  1
  Sn  Sn30  1  0.16604887  0.16690394  0.83347772  1
  Sn  Sn31  1  0.49833731  0.16662471  0.50031584  1
  Sn  Sn32  1  0.83373677  0.16708885  0.83458352  1
  Sn  Sn33  1  0.16599402  0.49971843  0.50041166  1
  Sn  Sn34  1  0.16642967  0.50023497  0.83289016  1
  Sn  Sn35  1  0.83434251  0.50138646  0.50007703  1
  Sn  Sn36  1  0.16621946  0.16661113  0.16677701  1
  Sn  Sn37  1  0.16709048  0.83294604  0.83329107  1
  Sn  Sn38  1  0.83375929  0.83182474  0.49996016  1
  Sn  Sn39  1  0.49985791  0.83301345  0.83335158  1
  Pb  Pb40  1  0.49971447  0.16548576  0.83137606  1
  Pb  Pb41  1  0.49900757  0.49868866  0.49871447  1
  Pb  Pb42  1  0.83385698  0.83528201  0.83185762  1
  Pb  Pb43  1  0.16797130  0.49812958  0.16710840  1
  Pb  Pb44  1  0.16651414  0.83647678  0.16348933  1
  Pb  Pb45  1  0.49963933  0.16770832  0.16872525  1
  Pb  Pb46  1  0.16507722  0.83306155  0.50179158  1
  Pb  Pb47  1  0.83393651  0.16715124  0.50008586  1
  Pb  Pb48  1  0.83352789  0.83620712  0.16952768  1
  Pb  Pb49  1  0.83143393  0.49734454  0.16929672  1
  Pb  Pb50  1  0.50234472  0.83572428  0.50216550  1
  Pb  Pb51  1  0.50018200  0.83033900  0.16363526  1
  Pb  Pb52  1  0.49737363  0.50262900  0.83537453  1
  Pb  Pb53  1  0.83584283  0.49717604  0.83127369  1
  I  I54  1  0.16375871  0.00505100  0.16923759  1
  I  I55  1  0.16727611  0.00322683  0.50115426  1
  I  I56  1  0.16646323  0.00143359  0.83274142  1
  I  I57  1  0.16383816  0.32973159  0.16307265  1
  I  I58  1  0.16423201  0.33238601  0.50467644  1
  I  I59  1  0.16189450  0.33220436  0.83184496  1
  I  I60  1  0.16892518  0.66657001  0.16682851  1
  I  I61  1  0.16422612  0.66359626  0.50529207  1
  I  I62  1  0.17313639  0.66625769  0.82619146  1
  I  I63  1  0.50043761  -0.00002160  0.16758889  1
  I  I64  1  0.49576451  0.00367997  0.49917180  1
  I  I65  1  0.49404498  -0.00217098  0.83200103  1
  I  I66  1  0.49965910  0.33516714  0.16702506  1
  I  I67  1  0.50153422  0.33054456  0.50052657  1
  I  I68  1  0.50015984  0.33351361  0.83308339  1
  I  I69  1  0.49761544  0.66304630  0.17006066  1
  I  I70  1  0.49877494  0.66675859  0.49901181  1
  I  I71  1  0.49437514  0.67019181  0.83180326  1
  I  I72  1  0.83644719  0.00438148  0.16574667  1
  I  I73  1  0.83294343  -0.00113526  0.50095954  1
  I  I74  1  0.83937313  0.00333932  0.83213595  1
  I  I75  1  0.83796871  0.32953786  0.16617174  1
  I  I76  1  0.83477134  0.33526351  0.49979156  1
  I  I77  1  0.83842538  0.32914952  0.83362720  1
  I  I78  1  0.83165757  0.66640386  0.16560485  1
  I  I79  1  0.83833649  0.66573512  0.50202775  1
  I  I80  1  0.83384208  0.66642314  0.83310715  1
  I  I81  1  0.16164767  0.16666064  -0.00105447  1
  I  I82  1  0.16496348  0.17275925  0.33425710  1
  I  I83  1  0.16557942  0.16704427  0.66701730  1
  I  I84  1  0.17019528  0.49792834  -0.00277303  1
  I  I85  1  0.16362290  0.49331550  0.33658857  1
  I  I86  1  0.16361619  0.49383706  0.66641303  1
  I  I87  1  0.16981188  0.83295116  -0.00491973  1
  I  I88  1  0.16570766  0.83370473  0.33339658  1
  I  I89  1  0.16861633  0.83903439  0.66985877  1
  I  I90  1  0.49860460  0.16643050  -0.00007037  1
  I  I91  1  0.49799449  0.16775207  0.33659931  1
  I  I92  1  0.49751085  0.16737265  0.66353632  1
  I  I93  1  0.49779998  0.49657525  0.00270311  1
  I  I94  1  0.49889111  0.49655338  0.33124322  1
  I  I95  1  0.50189702  0.49947131  0.66673896  1
  I  I96  1  0.49476638  0.83736836  -0.00393728  1
  I  I97  1  0.50139455  0.83412012  0.33343760  1
  I  I98  1  0.49485089  0.83391073  0.66958957  1
  I  I99  1  0.84190828  0.16589509  -0.00053701  1
  I  I100  1  0.83638468  0.16682744  0.33159285  1
  I  I101  1  0.83710604  0.16537903  0.66863399  1
  I  I102  1  0.83339630  0.50070025  -0.00005408  1
  I  I103  1  0.84031621  0.49978203  0.33720120  1
  I  I104  1  0.83349357  0.49984737  0.66328693  1
  I  I105  1  0.83296164  0.83336077  -0.00013059  1
  I  I106  1  0.83340083  0.83263310  0.33738502  1
  I  I107  1  0.83382522  0.83435952  0.66408493  1
  I  I108  1  0.00094564  0.16774444  0.16828596  1
  I  I109  1  0.00300235  0.16741526  0.50075104  1
  I  I110  1  0.00191985  0.16412783  0.83099635  1
  I  I111  1  0.00003281  0.50015972  0.16540073  1
  I  I112  1  0.00122707  0.49577875  0.50378282  1
  I  I113  1  0.00413626  0.50357018  0.83259026  1
  I  I114  1  0.00006633  0.83022799  0.16441967  1
  I  I115  1  -0.00255756  0.83666347  0.50382594  1
  I  I116  1  0.00303748  0.83449376  0.83055634  1
  I  I117  1  0.33020522  0.16909327  0.16366040  1
  I  I118  1  0.33084328  0.17240508  0.50082040  1
  I  I119  1  0.32965051  0.16793821  0.83513136  1
  I  I120  1  0.33534588  0.49549884  0.16805045  1
  I  I121  1  0.32981328  0.49534573  0.50337324  1
  I  I122  1  0.32909444  0.49309039  0.82677754  1
  I  I123  1  0.33326908  0.83537109  0.16972610  1
  I  I124  1  0.33320644  0.83222501  0.49968835  1
  I  I125  1  0.33160342  0.83703054  0.83188528  1
  I  I126  1  0.66916905  0.16808571  0.16503975  1
  I  I127  1  0.66538177  0.16641512  0.50002081  1
  I  I128  1  0.66916629  0.16330134  0.83471310  1
  I  I129  1  0.66402905  0.49669754  0.16814416  1
  I  I130  1  0.66885499  0.49988474  0.49775869  1
  I  I131  1  0.66685378  0.49979092  0.83241673  1
  I  I132  1  0.66681100  0.83670765  0.16461745  1
  I  I133  1  0.67005448  0.83089268  0.50308586  1
  I  I134  1  0.66482040  0.83680300  0.83110277  1
