# generated using pymatgen
data_Cs27Sn14Pb13I81
_symmetry_space_group_name_H-M   'P 1'
_cell_length_a   18.97240141
_cell_length_b   18.98103867
_cell_length_c   18.97177218
_cell_angle_alpha   89.99973631
_cell_angle_beta   90.00078280
_cell_angle_gamma   90.00070359
_symmetry_Int_Tables_number   1
_chemical_formula_structural   Cs27Sn14Pb13I81
_chemical_formula_sum   'Cs27 Sn14 Pb13 I81'
_cell_volume   6832.03652452
_cell_formula_units_Z   1
loop_
 _symmetry_equiv_pos_site_id
 _symmetry_equiv_pos_as_xyz
  1  'x, y, z'
loop_
 _atom_site_type_symbol
 _atom_site_label
 _atom_site_symmetry_multiplicity
 _atom_site_fract_x
 _atom_site_fract_y
 _atom_site_fract_z
 _atom_site_occupancy
  Cs  Cs0  1  0.01027412  0.00299430  0.00169437  1
  Cs  Cs1  1  0.00059285  -0.00162483  0.33523790  1
  Cs  Cs2  1  -0.00143288  -0.00073812  0.66395024  1
  Cs  Cs3  1  0.00070586  0.33138418  0.00128332  1
  Cs  Cs4  1  0.00032030  0.33269738  0.33291066  1
  Cs  Cs5  1  -0.00054899  0.33535121  0.66656549  1
  Cs  Cs6  1  0.00299699  0.66728619  0.00288587  1
  Cs  Cs7  1  -0.00549155  0.66757405  0.33227467  1
  Cs  Cs8  1  0.00105061  0.66498648  0.66598781  1
  Cs  Cs9  1  0.32689367  -0.00013287  0.00288637  1
  Cs  Cs10  1  0.33220593  -0.00007515  0.33363439  1
  Cs  Cs11  1  0.33573088  -0.00172205  0.66548936  1
  Cs  Cs12  1  0.32877612  0.32997819  -0.00102827  1
  Cs  Cs13  1  0.33498849  0.33718645  0.33830185  1
  Cs  Cs14  1  0.33292565  0.33829935  0.66240101  1
  Cs  Cs15  1  0.33309349  0.67116094  0.00173919  1
  Cs  Cs16  1  0.33694220  0.66210031  0.33249858  1
  Cs  Cs17  1  0.33013644  0.66567069  0.66619132  1
  Cs  Cs18  1  0.66512324  0.00310426  -0.00457858  1
  Cs  Cs19  1  0.66766907  -0.00061903  0.33427061  1
  Cs  Cs20  1  0.66633574  -0.00010549  0.66705715  1
  Cs  Cs21  1  0.66815280  0.33326729  -0.00119515  1
  Cs  Cs22  1  0.66423677  0.33315173  0.33213080  1
  Cs  Cs23  1  0.66679555  0.33190224  0.66808093  1
  Cs  Cs24  1  0.66559915  0.66487465  0.00235736  1
  Cs  Cs25  1  0.66846848  0.66734924  0.32165789  1
  Cs  Cs26  1  0.66878050  0.67038036  0.67003199  1
  Sn  Sn27  1  0.83259901  0.16642636  0.16647229  1
  Sn  Sn28  1  0.83391823  0.16757319  0.50009126  1
  Sn  Sn29  1  0.16765481  0.83371943  0.50032384  1
  Sn  Sn30  1  0.49970250  0.83294727  0.50035163  1
  Sn  Sn31  1  0.83305519  0.16641073  0.83342918  1
  Sn  Sn32  1  0.83254456  0.49937822  0.50038671  1
  Sn  Sn33  1  0.50057261  0.16648863  0.16586531  1
  Sn  Sn34  1  0.16669928  0.49976582  0.16665637  1
  Sn  Sn35  1  0.16607560  0.16623633  0.50053020  1
  Sn  Sn36  1  0.50028794  0.16680213  0.83401428  1
  Sn  Sn37  1  0.83259389  0.50000477  0.83265722  1
  Sn  Sn38  1  0.83312877  0.83363438  0.83354365  1
  Sn  Sn39  1  0.50044734  0.49986410  0.83313576  1
  Sn  Sn40  1  0.50067694  0.83347311  0.83259032  1
  Pb  Pb41  1  0.50062022  0.16539781  0.50050284  1
  Pb  Pb42  1  0.16631817  0.50001617  0.83518157  1
  Pb  Pb43  1  0.50021171  0.83601465  0.16591215  1
  Pb  Pb44  1  0.83278652  0.83321725  0.50147972  1
  Pb  Pb45  1  0.16694206  0.16678343  0.83044470  1
  Pb  Pb46  1  0.16700223  0.16797701  0.16950310  1
  Pb  Pb47  1  0.16687800  0.83343441  0.83123270  1
  Pb  Pb48  1  0.16434730  0.50034114  0.49843082  1
  Pb  Pb49  1  0.83439956  0.49775525  0.16592569  1
  Pb  Pb50  1  0.50337053  0.50319966  0.50208556  1
  Pb  Pb51  1  0.16672845  0.83078659  0.17015255  1
  Pb  Pb52  1  0.83323392  0.83679471  0.16258554  1
  Pb  Pb53  1  0.49811235  0.49713935  0.16355875  1
  I  I54  1  0.16640734  0.00021267  0.16577351  1
  I  I55  1  0.16353381  0.00052097  0.50019917  1
  I  I56  1  0.16573167  0.00020860  0.83576897  1
  I  I57  1  0.16580053  0.33524095  0.16835617  1
  I  I58  1  0.16403283  0.33099100  0.49856757  1
  I  I59  1  0.16759186  0.33327298  0.83106879  1
  I  I60  1  0.16549482  0.66339689  0.16646856  1
  I  I61  1  0.16933295  0.66924112  0.49967299  1
  I  I62  1  0.16567491  0.66669737  0.83134183  1
  I  I63  1  0.50352192  0.00391708  0.16118011  1
  I  I64  1  0.50082155  -0.00240637  0.50588913  1
  I  I65  1  0.50692645  0.00032745  0.83219645  1
  I  I66  1  0.50430581  0.32938887  0.16280989  1
  I  I67  1  0.49640497  0.33349463  0.50027494  1
  I  I68  1  0.50644740  0.33261002  0.83808840  1
  I  I69  1  0.49764328  0.66649993  0.16668432  1
  I  I70  1  0.49368584  0.67078045  0.50624743  1
  I  I71  1  0.50637204  0.66703337  0.82760068  1
  I  I72  1  0.83040449  0.00492871  0.17012723  1
  I  I73  1  0.83447471  0.00286244  0.50105409  1
  I  I74  1  0.82661601  0.00108404  0.83176874  1
  I  I75  1  0.83090343  0.32970316  0.16289849  1
  I  I76  1  0.83935299  0.33175080  0.50493794  1
  I  I77  1  0.82793714  0.33262668  0.83232819  1
  I  I78  1  0.83596636  0.66662883  0.16838006  1
  I  I79  1  0.83462361  0.66442080  0.50595500  1
  I  I80  1  0.82752648  0.66621057  0.82638132  1
  I  I81  1  0.16441540  0.16796152  0.00012315  1
  I  I82  1  0.16210342  0.16329494  0.33708315  1
  I  I83  1  0.16217195  0.16413649  0.66263635  1
  I  I84  1  0.16443903  0.49772665  0.00266145  1
  I  I85  1  0.16473497  0.49852113  0.33102486  1
  I  I86  1  0.16770891  0.49973186  0.66642716  1
  I  I87  1  0.16659754  0.83252670  0.00011698  1
  I  I88  1  0.17134672  0.83895194  0.33800584  1
  I  I89  1  0.16764962  0.83657454  0.66337564  1
  I  I90  1  0.50807034  0.16575877  -0.00159465  1
  I  I91  1  0.50301979  0.16422502  0.33154723  1
  I  I92  1  0.50335767  0.16724720  0.66988859  1
  I  I93  1  0.50748114  0.50519859  -0.00451186  1
  I  I94  1  0.49991814  0.50014850  0.33330724  1
  I  I95  1  0.50029503  0.49303936  0.67037138  1
  I  I96  1  0.50547573  0.83088374  -0.00396288  1
  I  I97  1  0.49526701  0.83615849  0.33600952  1
  I  I98  1  0.50008065  0.83699675  0.66806779  1
  I  I99  1  0.82794955  0.16727556  -0.00123329  1
  I  I100  1  0.83351491  0.17185624  0.33413784  1
  I  I101  1  0.83316554  0.16710255  0.66737105  1
  I  I102  1  0.83058539  0.49941123  -0.00362150  1
  I  I103  1  0.83701419  0.49593040  0.33563726  1
  I  I104  1  0.83164743  0.49463025  0.66780269  1
  I  I105  1  0.82538364  0.82998496  -0.00548021  1
  I  I106  1  0.83389553  0.83260059  0.33327831  1
  I  I107  1  0.83166916  0.83781806  0.66970613  1
  I  I108  1  -0.00281420  0.16863173  0.16318184  1
  I  I109  1  -0.00159213  0.16418219  0.50008441  1
  I  I110  1  -0.00364010  0.16703115  0.83616159  1
  I  I111  1  0.00194355  0.49686451  0.16568412  1
  I  I112  1  -0.00350227  0.50005637  0.50654972  1
  I  I113  1  -0.00383365  0.49918561  0.83033021  1
  I  I114  1  -0.00015218  0.83529858  0.16638564  1
  I  I115  1  0.00155894  0.83493801  0.50144542  1
  I  I116  1  -0.00323361  0.83359136  0.83170274  1
  I  I117  1  0.33598683  0.16753952  0.16168248  1
  I  I118  1  0.33154655  0.16370203  0.49934082  1
  I  I119  1  0.33691603  0.16583338  0.83774222  1
  I  I120  1  0.33075626  0.49732746  0.16746580  1
  I  I121  1  0.33359766  0.49761067  0.50027518  1
  I  I122  1  0.33657654  0.49980158  0.83516265  1
  I  I123  1  0.33346822  0.83629315  0.16173213  1
  I  I124  1  0.33361038  0.83993776  0.50623471  1
  I  I125  1  0.33692950  0.83334732  0.83139647  1
  I  I126  1  0.66744942  0.16767940  0.16760323  1
  I  I127  1  0.66986339  0.16857020  0.50067232  1
  I  I128  1  0.66745681  0.16643535  0.83192763  1
  I  I129  1  0.66661103  0.50095045  0.16901250  1
  I  I130  1  0.67100570  0.49196557  0.50137057  1
  I  I131  1  0.66756448  0.49923756  0.82977801  1
  I  I132  1  0.66679487  0.82944404  0.17447541  1
  I  I133  1  0.66424535  0.83516170  0.50432028  1
  I  I134  1  0.66616388  0.83478346  0.82632590  1
