# generated using pymatgen
data_Cs27Sn14Pb13I81
_symmetry_space_group_name_H-M   'P 1'
_cell_length_a   18.96543276
_cell_length_b   18.96107277
_cell_length_c   18.95784726
_cell_angle_alpha   90.00123806
_cell_angle_beta   90.00210935
_cell_angle_gamma   89.99890350
_symmetry_Int_Tables_number   1
_chemical_formula_structural   Cs27Sn14Pb13I81
_chemical_formula_sum   'Cs27 Sn14 Pb13 I81'
_cell_volume   6817.33572058
_cell_formula_units_Z   1
loop_
 _symmetry_equiv_pos_site_id
 _symmetry_equiv_pos_as_xyz
  1  'x, y, z'
loop_
 _atom_site_type_symbol
 _atom_site_label
 _atom_site_symmetry_multiplicity
 _atom_site_fract_x
 _atom_site_fract_y
 _atom_site_fract_z
 _atom_site_occupancy
  Cs  Cs0  1  0.00131124  -0.00027121  -0.00207763  1
  Cs  Cs1  1  -0.00043136  0.00021170  0.33368989  1
  Cs  Cs2  1  0.00139823  0.00101057  0.66822286  1
  Cs  Cs3  1  0.00006430  0.33357441  0.00026605  1
  Cs  Cs4  1  -0.00113515  0.33356745  0.33249904  1
  Cs  Cs5  1  -0.00015099  0.33400286  0.66742362  1
  Cs  Cs6  1  -0.00147787  0.66482260  0.00226283  1
  Cs  Cs7  1  0.00069613  0.66570338  0.33190928  1
  Cs  Cs8  1  -0.00053513  0.66497961  0.66732316  1
  Cs  Cs9  1  0.33070427  -0.00513699  0.00103301  1
  Cs  Cs10  1  0.33345014  -0.00047528  0.33399917  1
  Cs  Cs11  1  0.33132181  0.00231310  0.66540941  1
  Cs  Cs12  1  0.33273901  0.33260366  -0.00000183  1
  Cs  Cs13  1  0.33341141  0.33372429  0.33201285  1
  Cs  Cs14  1  0.33245116  0.33289267  0.66763354  1
  Cs  Cs15  1  0.33969981  0.67204836  0.00016913  1
  Cs  Cs16  1  0.33348267  0.66766156  0.33440634  1
  Cs  Cs17  1  0.33922197  0.66300876  0.66411507  1
  Cs  Cs18  1  0.66659152  0.00070056  -0.00002137  1
  Cs  Cs19  1  0.66657962  0.00155296  0.33484171  1
  Cs  Cs20  1  0.66691204  0.00025328  0.66500283  1
  Cs  Cs21  1  0.66722929  0.33267138  0.00130238  1
  Cs  Cs22  1  0.66824844  0.33308968  0.33214543  1
  Cs  Cs23  1  0.66785767  0.33238801  0.66620304  1
  Cs  Cs24  1  0.66432291  0.66596766  -0.00464555  1
  Cs  Cs25  1  0.66734365  0.66581836  0.33390106  1
  Cs  Cs26  1  0.66284680  0.66709933  0.67011171  1
  Sn  Sn27  1  0.83426812  0.16649491  0.16579931  1
  Sn  Sn28  1  0.83428588  0.49892751  0.83413004  1
  Sn  Sn29  1  0.16586960  0.16714675  0.16739954  1
  Sn  Sn30  1  0.83267204  0.16731825  0.83414598  1
  Sn  Sn31  1  0.83403535  0.49999933  0.16579471  1
  Sn  Sn32  1  0.16640260  0.83398704  0.50009601  1
  Sn  Sn33  1  0.50059714  0.16663212  0.83290728  1
  Sn  Sn34  1  0.16627534  0.49942274  0.16551611  1
  Sn  Sn35  1  0.83342257  0.83343418  0.16722111  1
  Sn  Sn36  1  0.16619188  0.50024529  0.83450151  1
  Sn  Sn37  1  0.16716148  0.16618894  0.49910379  1
  Sn  Sn38  1  0.50004842  0.83436468  0.49982170  1
  Sn  Sn39  1  0.83355237  0.83335597  0.49954050  1
  Sn  Sn40  1  0.49923140  0.16632305  0.50068090  1
  Pb  Pb41  1  0.16662869  0.82970252  0.83050868  1
  Pb  Pb42  1  0.16654812  0.49947773  0.49954688  1
  Pb  Pb43  1  0.49988145  0.49998913  0.16649703  1
  Pb  Pb44  1  0.83354161  0.83330271  0.83361168  1
  Pb  Pb45  1  0.49962742  0.16660539  0.16684405  1
  Pb  Pb46  1  0.50307181  0.83347375  0.16912530  1
  Pb  Pb47  1  0.50022751  0.49740061  0.83356763  1
  Pb  Pb48  1  0.16479703  0.83319207  0.16833135  1
  Pb  Pb49  1  0.83324121  0.50279595  0.50018967  1
  Pb  Pb50  1  0.49985215  0.83658167  0.83098279  1
  Pb  Pb51  1  0.16641648  0.16798884  0.83364366  1
  Pb  Pb52  1  0.83363225  0.16513195  0.50007260  1
  Pb  Pb53  1  0.50016224  0.49903792  0.49981743  1
  I  I54  1  0.16272390  0.00292920  0.16940581  1
  I  I55  1  0.16750958  0.00096676  0.49486784  1
  I  I56  1  0.16649242  0.00019839  0.83494056  1
  I  I57  1  0.15938294  0.33269158  0.16942411  1
  I  I58  1  0.17144598  0.33000778  0.49907428  1
  I  I59  1  0.16498570  0.33593023  0.83180349  1
  I  I60  1  0.16147736  0.66384117  0.16538759  1
  I  I61  1  0.16693001  0.66946027  0.50028259  1
  I  I62  1  0.15866781  0.66172372  0.83800455  1
  I  I63  1  0.50036216  0.00027945  0.16419512  1
  I  I64  1  0.49948798  0.00051396  0.50397920  1
  I  I65  1  0.50659735  0.00459468  0.83174459  1
  I  I66  1  0.50416843  0.33297311  0.17054987  1
  I  I67  1  0.49497234  0.32918205  0.50361307  1
  I  I68  1  0.50204640  0.32957896  0.82565257  1
  I  I69  1  0.49926412  0.66681790  0.16961388  1
  I  I70  1  0.49908842  0.66999678  0.49870131  1
  I  I71  1  0.50065732  0.66662968  0.83115998  1
  I  I72  1  0.83640911  0.00105334  0.16741783  1
  I  I73  1  0.83312341  -0.00294193  0.49610472  1
  I  I74  1  0.82932922  0.00315864  0.83581512  1
  I  I75  1  0.83685753  0.33299766  0.16242382  1
  I  I76  1  0.83299360  0.33315288  0.49811989  1
  I  I77  1  0.83298801  0.33293233  0.83972798  1
  I  I78  1  0.83751116  0.66589321  0.16816477  1
  I  I79  1  0.83403711  0.67113616  0.49595451  1
  I  I80  1  0.83778725  0.66357067  0.83541162  1
  I  I81  1  0.16543806  0.16944552  0.00278480  1
  I  I82  1  0.16617506  0.16847737  0.33312144  1
  I  I83  1  0.16727201  0.16428495  0.66422000  1
  I  I84  1  0.16103804  0.49266223  0.00095569  1
  I  I85  1  0.16105754  0.49875553  0.33011148  1
  I  I86  1  0.16215924  0.50000137  0.66921667  1
  I  I87  1  0.16429441  0.83666541  0.00022425  1
  I  I88  1  0.16809867  0.83304685  0.33678600  1
  I  I89  1  0.16335507  0.83979771  0.66192275  1
  I  I90  1  0.50238058  0.16985087  -0.00258997  1
  I  I91  1  0.49931743  0.16184765  0.33648092  1
  I  I92  1  0.50034918  0.16303120  0.66585982  1
  I  I93  1  0.49971512  0.49815097  -0.00014030  1
  I  I94  1  0.50060918  0.49806973  0.33326302  1
  I  I95  1  0.50013225  0.50230301  0.66680475  1
  I  I96  1  0.50119473  0.83340503  -0.00000213  1
  I  I97  1  0.49783315  0.84085849  0.33756422  1
  I  I98  1  0.50357179  0.83402326  0.66239892  1
  I  I99  1  0.83298028  0.16538510  0.00066992  1
  I  I100  1  0.83389517  0.16904355  0.33056799  1
  I  I101  1  0.83269979  0.16940876  0.66912520  1
  I  I102  1  0.83760144  0.50071768  0.00057128  1
  I  I103  1  0.83770142  0.49723809  0.32979089  1
  I  I104  1  0.83722318  0.49608303  0.67005997  1
  I  I105  1  0.83491628  0.83368786  0.00320936  1
  I  I106  1  0.83319721  0.83378709  0.33316921  1
  I  I107  1  0.83262730  0.83399433  0.66362977  1
  I  I108  1  -0.00060890  0.16749375  0.16766874  1
  I  I109  1  0.00258327  0.16255346  0.49909939  1
  I  I110  1  -0.00278136  0.16854204  0.83357450  1
  I  I111  1  -0.00075803  0.49908594  0.16313641  1
  I  I112  1  -0.00004554  0.50033412  0.50137576  1
  I  I113  1  -0.00110548  0.49406153  0.83609888  1
  I  I114  1  -0.00348098  0.83343513  0.17355188  1
  I  I115  1  -0.00001499  0.83703716  0.49602733  1
  I  I116  1  -0.00017322  0.83864317  0.82836041  1
  I  I117  1  0.32991788  0.17171408  0.16811260  1
  I  I118  1  0.33285797  0.15962042  0.50043377  1
  I  I119  1  0.33520481  0.16858353  0.83067981  1
  I  I120  1  0.32940395  0.49415503  0.16414633  1
  I  I121  1  0.33304424  0.50455049  0.50025285  1
  I  I122  1  0.33043627  0.49861078  0.83589626  1
  I  I123  1  0.33311469  0.83320437  0.16800936  1
  I  I124  1  0.33316774  0.83782735  0.50128656  1
  I  I125  1  0.33325467  0.83317848  0.83296565  1
  I  I126  1  0.67009329  0.16765080  0.16664665  1
  I  I127  1  0.66466898  0.16222333  0.50103441  1
  I  I128  1  0.66806331  0.17157956  0.83249708  1
  I  I129  1  0.67084357  0.49890138  0.16350748  1
  I  I130  1  0.66695960  0.50000956  0.49944808  1
  I  I131  1  0.67012389  0.49890102  0.83755620  1
  I  I132  1  0.67165286  0.83393399  0.17206660  1
  I  I133  1  0.66671728  0.83751229  0.49577325  1
  I  I134  1  0.66693428  0.82906226  0.83094285  1
