# generated using pymatgen
data_Cs27Sn13Pb14I81
_symmetry_space_group_name_H-M   'P 1'
_cell_length_a   18.97902873
_cell_length_b   18.97417825
_cell_length_c   18.97893827
_cell_angle_alpha   89.99920835
_cell_angle_beta   89.99952340
_cell_angle_gamma   89.99749108
_symmetry_Int_Tables_number   1
_chemical_formula_structural   Cs27Sn13Pb14I81
_chemical_formula_sum   'Cs27 Sn13 Pb14 I81'
_cell_volume   6834.53343074
_cell_formula_units_Z   1
loop_
 _symmetry_equiv_pos_site_id
 _symmetry_equiv_pos_as_xyz
  1  'x, y, z'
loop_
 _atom_site_type_symbol
 _atom_site_label
 _atom_site_symmetry_multiplicity
 _atom_site_fract_x
 _atom_site_fract_y
 _atom_site_fract_z
 _atom_site_occupancy
  Cs  Cs0  1  0.00064352  0.00546506  0.00283200  1
  Cs  Cs1  1  0.00079020  0.00105663  0.33219884  1
  Cs  Cs2  1  0.00006862  -0.00257549  0.66621673  1
  Cs  Cs3  1  0.00617654  0.32364357  0.00167513  1
  Cs  Cs4  1  0.00161576  0.33342217  0.33173915  1
  Cs  Cs5  1  -0.00040970  0.33435607  0.66769449  1
  Cs  Cs6  1  -0.00170955  0.66883523  -0.00231713  1
  Cs  Cs7  1  -0.00013605  0.66558659  0.33708112  1
  Cs  Cs8  1  -0.00098297  0.66780648  0.66506219  1
  Cs  Cs9  1  0.32981818  -0.00103527  0.00129929  1
  Cs  Cs10  1  0.33514330  0.00074825  0.33445255  1
  Cs  Cs11  1  0.33720634  -0.00127408  0.66531356  1
  Cs  Cs12  1  0.32757222  0.33935324  -0.00352718  1
  Cs  Cs13  1  0.33221161  0.33207454  0.32994498  1
  Cs  Cs14  1  0.33654175  0.33230390  0.67552131  1
  Cs  Cs15  1  0.33640853  0.66209784  0.00162812  1
  Cs  Cs16  1  0.33100871  0.66456410  0.33180351  1
  Cs  Cs17  1  0.32969345  0.66849921  0.66680772  1
  Cs  Cs18  1  0.66984490  -0.00025579  0.00438870  1
  Cs  Cs19  1  0.66486211  0.00007582  0.33163176  1
  Cs  Cs20  1  0.66524138  0.00067757  0.66580437  1
  Cs  Cs21  1  0.66575114  0.33338715  -0.00369564  1
  Cs  Cs22  1  0.66623122  0.33448557  0.33715568  1
  Cs  Cs23  1  0.66545888  0.33167274  0.66487214  1
  Cs  Cs24  1  0.66477243  0.66711910  0.00219043  1
  Cs  Cs25  1  0.66746024  0.66642269  0.33169545  1
  Cs  Cs26  1  0.66929363  0.66688747  0.66628797  1
  Sn  Sn27  1  0.83437425  0.16643084  0.50000096  1
  Sn  Sn28  1  0.50007661  0.16702045  0.16605735  1
  Sn  Sn29  1  0.50058162  0.83330750  0.83288456  1
  Sn  Sn30  1  0.83303027  0.83283422  0.83283892  1
  Sn  Sn31  1  0.50022624  0.50106738  0.50005134  1
  Sn  Sn32  1  0.83242180  0.83370572  0.50039268  1
  Sn  Sn33  1  0.83357524  0.50045245  0.83359010  1
  Sn  Sn34  1  0.83268881  0.50000592  0.50012428  1
  Sn  Sn35  1  0.16632724  0.16679814  0.50058450  1
  Sn  Sn36  1  0.16639259  0.83281640  0.16603668  1
  Sn  Sn37  1  0.50090255  0.83200815  0.50041120  1
  Sn  Sn38  1  0.16641850  0.83331642  0.83450479  1
  Sn  Sn39  1  0.83354335  0.49982864  0.16620520  1
  Pb  Pb40  1  0.16670131  0.16401865  0.83074010  1
  Pb  Pb41  1  0.50010429  0.16411253  0.83649210  1
  Pb  Pb42  1  0.83167677  0.16933747  0.16920994  1
  Pb  Pb43  1  0.50235869  0.50245122  0.83098481  1
  Pb  Pb44  1  0.16674248  0.83458753  0.50031665  1
  Pb  Pb45  1  0.16375129  0.50251287  0.83317015  1
  Pb  Pb46  1  0.50010610  0.16677976  0.49922682  1
  Pb  Pb47  1  0.49820384  0.83418277  0.16689829  1
  Pb  Pb48  1  0.83503349  0.83187481  0.16679240  1
  Pb  Pb49  1  0.16873696  0.16485955  0.16859993  1
  Pb  Pb50  1  0.83320659  0.16630765  0.83107969  1
  Pb  Pb51  1  0.16401105  0.50234146  0.16666396  1
  Pb  Pb52  1  0.50194489  0.49783773  0.16873997  1
  Pb  Pb53  1  0.16696016  0.49727760  0.50026721  1
  I  I54  1  0.16510242  -0.00308412  0.16296082  1
  I  I55  1  0.16229725  0.00218384  0.49994450  1
  I  I56  1  0.16271134  -0.00451509  0.83656250  1
  I  I57  1  0.16667279  0.33324093  0.16880598  1
  I  I58  1  0.16170219  0.32961406  0.49717467  1
  I  I59  1  0.16572302  0.33334535  0.83261841  1
  I  I60  1  0.16851691  0.67041013  0.16496267  1
  I  I61  1  0.16451737  0.66684628  0.49984496  1
  I  I62  1  0.16834723  0.67106755  0.83434100  1
  I  I63  1  0.50026152  0.00176130  0.17077327  1
  I  I64  1  0.50281990  -0.00293498  0.50230125  1
  I  I65  1  0.50271514  -0.00469449  0.82475586  1
  I  I66  1  0.50147393  0.33041204  0.17238179  1
  I  I67  1  0.50500492  0.33571263  0.49654706  1
  I  I68  1  0.50181506  0.33376509  0.83138567  1
  I  I69  1  0.49923104  0.66653091  0.16609374  1
  I  I70  1  0.50818712  0.66776585  0.50238552  1
  I  I71  1  0.49800288  0.67085880  0.83277685  1
  I  I72  1  0.83369213  0.00009218  0.16723090  1
  I  I73  1  0.83304971  -0.00134190  0.50469361  1
  I  I74  1  0.83336176  -0.00393580  0.82823760  1
  I  I75  1  0.83230339  0.33729664  0.16735826  1
  I  I76  1  0.83245820  0.33445148  0.49976944  1
  I  I77  1  0.83214976  0.33645550  0.83118273  1
  I  I78  1  0.83329439  0.66400836  0.17225189  1
  I  I79  1  0.82925833  0.66689123  0.50065534  1
  I  I80  1  0.83415199  0.66785690  0.82767495  1
  I  I81  1  0.16742301  0.16629751  -0.00002363  1
  I  I82  1  0.16250008  0.16273672  0.33634147  1
  I  I83  1  0.16288853  0.16449491  0.66287076  1
  I  I84  1  0.16566135  0.49820743  -0.00011135  1
  I  I85  1  0.16378099  0.50374620  0.33360181  1
  I  I86  1  0.16407848  0.50240916  0.66656834  1
  I  I87  1  0.16604347  0.83375730  -0.00115944  1
  I  I88  1  0.16639624  0.83577178  0.33187729  1
  I  I89  1  0.16600130  0.83503480  0.66916862  1
  I  I90  1  0.50111689  0.16422147  0.00383804  1
  I  I91  1  0.50061130  0.16360623  0.33198078  1
  I  I92  1  0.49973134  0.16763227  0.66656855  1
  I  I93  1  0.50262558  0.50056600  -0.00025434  1
  I  I94  1  0.50712959  0.50632547  0.33708674  1
  I  I95  1  0.50623159  0.49938653  0.66278405  1
  I  I96  1  0.50312472  0.83640108  -0.00292294  1
  I  I97  1  0.50350901  0.83220070  0.33663190  1
  I  I98  1  0.49886474  0.83117004  0.66576640  1
  I  I99  1  0.83206313  0.16636105  0.00016013  1
  I  I100  1  0.83587491  0.16503213  0.33758674  1
  I  I101  1  0.83498339  0.16971089  0.66250071  1
  I  I102  1  0.83323521  0.50816705  -0.00085315  1
  I  I103  1  0.82967745  0.50042607  0.33519924  1
  I  I104  1  0.83026606  0.50158766  0.66555752  1
  I  I105  1  0.83070771  0.82795273  -0.00312650  1
  I  I106  1  0.83075867  0.83236564  0.33679269  1
  I  I107  1  0.83519486  0.82943963  0.66600255  1
  I  I108  1  -0.00008448  0.16692305  0.16684363  1
  I  I109  1  -0.00173525  0.16512089  0.49935558  1
  I  I110  1  -0.00019996  0.16461196  0.83506921  1
  I  I111  1  -0.00427051  0.50054777  0.17179289  1
  I  I112  1  -0.00393014  0.50357005  0.50016494  1
  I  I113  1  -0.00470176  0.50658212  0.82816929  1
  I  I114  1  0.00275624  0.83309263  0.16395292  1
  I  I115  1  -0.00313778  0.83096456  0.50258319  1
  I  I116  1  -0.00120664  0.82875919  0.83137783  1
  I  I117  1  0.33604008  0.16442831  0.17265472  1
  I  I118  1  0.33161002  0.16367220  0.49703215  1
  I  I119  1  0.33338798  0.16405945  0.82875320  1
  I  I120  1  0.33345622  0.49952728  0.16947206  1
  I  I121  1  0.33657180  0.50484336  0.49865800  1
  I  I122  1  0.33357578  0.50098658  0.83140632  1
  I  I123  1  0.33043399  0.83549991  0.16425968  1
  I  I124  1  0.33611228  0.83197634  0.50265772  1
  I  I125  1  0.33365203  0.83619798  0.83140861  1
  I  I126  1  0.66435451  0.16321423  0.17045043  1
  I  I127  1  0.66944578  0.16677041  0.49859114  1
  I  I128  1  0.66677884  0.16413003  0.83078851  1
  I  I129  1  0.67009770  0.50218353  0.16666446  1
  I  I130  1  0.66852658  0.49885626  0.49994721  1
  I  I131  1  0.67059077  0.50621222  0.83425972  1
  I  I132  1  0.66676063  0.83403344  0.16515879  1
  I  I133  1  0.66763185  0.83490604  0.50642108  1
  I  I134  1  0.66750880  0.82978692  0.82738064  1
