# generated using pymatgen
data_Cs27Sn13Pb14I81
_symmetry_space_group_name_H-M   'P 1'
_cell_length_a   18.97576968
_cell_length_b   18.97562385
_cell_length_c   18.98058896
_cell_angle_alpha   89.99908630
_cell_angle_beta   89.99699662
_cell_angle_gamma   90.00352970
_symmetry_Int_Tables_number   1
_chemical_formula_structural   Cs27Sn13Pb14I81
_chemical_formula_sum   'Cs27 Sn13 Pb14 I81'
_cell_volume   6834.47479122
_cell_formula_units_Z   1
loop_
 _symmetry_equiv_pos_site_id
 _symmetry_equiv_pos_as_xyz
  1  'x, y, z'
loop_
 _atom_site_type_symbol
 _atom_site_label
 _atom_site_symmetry_multiplicity
 _atom_site_fract_x
 _atom_site_fract_y
 _atom_site_fract_z
 _atom_site_occupancy
  Cs  Cs0  1  -0.00029362  -0.00065568  -0.00064913  1
  Cs  Cs1  1  0.00007514  0.00212468  0.33304562  1
  Cs  Cs2  1  0.00043601  0.00082478  0.66689062  1
  Cs  Cs3  1  0.00184226  0.33291509  -0.00122650  1
  Cs  Cs4  1  0.00169758  0.33224162  0.33661909  1
  Cs  Cs5  1  0.00061925  0.33132582  0.66512079  1
  Cs  Cs6  1  -0.00090468  0.66773393  0.00164396  1
  Cs  Cs7  1  -0.00166945  0.66521791  0.33125208  1
  Cs  Cs8  1  -0.00010218  0.66761401  0.66643775  1
  Cs  Cs9  1  0.33241318  0.00078159  0.00049267  1
  Cs  Cs10  1  0.33457881  -0.00342618  0.33459201  1
  Cs  Cs11  1  0.33292048  -0.00501947  0.66476079  1
  Cs  Cs12  1  0.33244235  0.33357211  -0.00109111  1
  Cs  Cs13  1  0.33141893  0.33638528  0.33248441  1
  Cs  Cs14  1  0.33631404  0.33283665  0.66893035  1
  Cs  Cs15  1  0.33465782  0.66669682  0.00214726  1
  Cs  Cs16  1  0.33208334  0.66690092  0.33221109  1
  Cs  Cs17  1  0.33348251  0.67348201  0.66527323  1
  Cs  Cs18  1  0.66729496  0.00139212  0.00065088  1
  Cs  Cs19  1  0.66574939  0.00085673  0.32985341  1
  Cs  Cs20  1  0.66726055  -0.00004515  0.66983488  1
  Cs  Cs21  1  0.66474910  0.33161208  -0.00006320  1
  Cs  Cs22  1  0.66591684  0.33103571  0.33393914  1
  Cs  Cs23  1  0.66391427  0.33565809  0.66665432  1
  Cs  Cs24  1  0.66739727  0.66746561  0.00007226  1
  Cs  Cs25  1  0.66909331  0.66694380  0.33473834  1
  Cs  Cs26  1  0.66709180  0.66387130  0.66504030  1
  Sn  Sn27  1  0.83411665  0.83273332  0.16755950  1
  Sn  Sn28  1  0.83286333  0.50038913  0.49996061  1
  Sn  Sn29  1  0.49993418  0.16741348  0.50078677  1
  Sn  Sn30  1  0.16665059  0.16610462  0.16620618  1
  Sn  Sn31  1  0.16691386  0.49966390  0.83299725  1
  Sn  Sn32  1  0.49968919  0.49967114  0.83264666  1
  Sn  Sn33  1  0.83325543  0.50002308  0.16677354  1
  Sn  Sn34  1  0.16597523  0.83404207  0.16652393  1
  Sn  Sn35  1  0.49897253  0.16727930  0.83248319  1
  Sn  Sn36  1  0.16749590  0.16734224  0.83378692  1
  Sn  Sn37  1  0.83331199  0.83296850  0.49939994  1
  Sn  Sn38  1  0.83341556  0.49977894  0.83328438  1
  Sn  Sn39  1  0.50043077  0.49932727  0.50059820  1
  Pb  Pb40  1  0.50060038  0.83323745  0.16667384  1
  Pb  Pb41  1  0.50262079  0.83294177  0.50000693  1
  Pb  Pb42  1  0.16953132  0.16678813  0.50066801  1
  Pb  Pb43  1  0.49725876  0.16689762  0.16641511  1
  Pb  Pb44  1  0.16366066  0.83320298  0.49721572  1
  Pb  Pb45  1  0.16694568  0.49998053  0.50286062  1
  Pb  Pb46  1  0.83332612  0.83094990  0.83345244  1
  Pb  Pb47  1  0.16445282  0.49991287  0.16455898  1
  Pb  Pb48  1  0.50000985  0.83333143  0.83334593  1
  Pb  Pb49  1  0.83571274  0.16663022  0.16665743  1
  Pb  Pb50  1  0.16662949  0.83363026  0.83541858  1
  Pb  Pb51  1  0.83322154  0.16914089  0.83324352  1
  Pb  Pb52  1  0.50261061  0.49998908  0.16672783  1
  Pb  Pb53  1  0.83081115  0.16680411  0.50009902  1
  I  I54  1  0.16091566  0.00009730  0.16074152  1
  I  I55  1  0.16671026  0.00007495  0.50424278  1
  I  I56  1  0.17190431  0.00347915  0.83550166  1
  I  I57  1  0.16600018  0.33095892  0.16364552  1
  I  I58  1  0.16046890  0.33342435  0.49368460  1
  I  I59  1  0.16697028  0.33338510  0.83984483  1
  I  I60  1  0.16351348  0.66894870  0.16538530  1
  I  I61  1  0.17182829  0.66646312  0.50085185  1
  I  I62  1  0.16657745  0.66336221  0.83398688  1
  I  I63  1  0.50484496  0.00026503  0.16640103  1
  I  I64  1  0.49985009  0.00289913  0.50447825  1
  I  I65  1  0.49458198  0.00386279  0.82929536  1
  I  I66  1  0.50087886  0.33346442  0.16736768  1
  I  I67  1  0.50645200  0.33456240  0.50441822  1
  I  I68  1  0.49985750  0.33423328  0.82948071  1
  I  I69  1  0.49437897  0.66637960  0.16560066  1
  I  I70  1  0.50267491  0.66311110  0.50517111  1
  I  I71  1  0.50000624  0.66249620  0.82928915  1
  I  I72  1  0.83499807  -0.00323512  0.17212090  1
  I  I73  1  0.83264510  -0.00291929  0.49333261  1
  I  I74  1  0.83308054  0.00006182  0.83379444  1
  I  I75  1  0.83363228  0.33665004  0.16682034  1
  I  I76  1  0.83177857  0.33704804  0.49965148  1
  I  I77  1  0.83352743  0.33787590  0.83334022  1
  I  I78  1  0.83916716  0.66629081  0.16684779  1
  I  I79  1  0.82786772  0.66489345  0.49950599  1
  I  I80  1  0.83304953  0.66208232  0.83366341  1
  I  I81  1  0.17177336  0.16711992  -0.00103527  1
  I  I82  1  0.16626172  0.16224918  0.33065524  1
  I  I83  1  0.16755302  0.17236517  0.67024230  1
  I  I84  1  0.16724862  0.49872305  -0.00362788  1
  I  I85  1  0.16674403  0.49987024  0.33315888  1
  I  I86  1  0.16165019  0.49307490  0.67112379  1
  I  I87  1  0.15853256  0.83419375  0.00331208  1
  I  I88  1  0.16555096  0.83892221  0.32908591  1
  I  I89  1  0.16564705  0.83400397  0.66668439  1
  I  I90  1  0.49856333  0.17200650  -0.00347048  1
  I  I91  1  0.50088535  0.17098345  0.33626281  1
  I  I92  1  0.49514667  0.17207811  0.66774260  1
  I  I93  1  0.50075492  0.49557471  -0.00355429  1
  I  I94  1  0.50488501  0.49613491  0.33675449  1
  I  I95  1  0.50593102  0.49529670  0.66721136  1
  I  I96  1  0.50309850  0.83277460  0.00000323  1
  I  I97  1  0.49734761  0.83386736  0.33352420  1
  I  I98  1  0.50176154  0.83359037  0.66652376  1
  I  I99  1  0.82862904  0.16696015  -0.00006667  1
  I  I100  1  0.83319372  0.17166718  0.33334329  1
  I  I101  1  0.83913075  0.16440816  0.66670670  1
  I  I102  1  0.83378941  0.50365361  -0.00030824  1
  I  I103  1  0.82902860  0.50463775  0.33383010  1
  I  I104  1  0.83202487  0.50368023  0.66649757  1
  I  I105  1  0.83742097  0.82881291  0.00336004  1
  I  I106  1  0.83691631  0.82382244  0.33280922  1
  I  I107  1  0.83103321  0.82890162  0.66377186  1
  I  I108  1  0.00362218  0.16581840  0.15984320  1
  I  I109  1  0.00006796  0.16667439  0.50008265  1
  I  I110  1  0.00317072  0.17076976  0.83824605  1
  I  I111  1  -0.00375053  0.50142730  0.16698704  1
  I  I112  1  -0.00336175  0.50452545  0.50043006  1
  I  I113  1  -0.00027997  0.49681637  0.83437468  1
  I  I114  1  -0.00089785  0.83272874  0.17003223  1
  I  I115  1  -0.00436668  0.82594740  0.49935400  1
  I  I116  1  -0.00009044  0.83317182  0.83108710  1
  I  I117  1  0.32934409  0.16120590  0.16458914  1
  I  I118  1  0.33739330  0.17418468  0.50080115  1
  I  I119  1  0.33334970  0.17562463  0.83461056  1
  I  I120  1  0.33306670  0.50082733  0.16685540  1
  I  I121  1  0.33683483  0.49501847  0.50376809  1
  I  I122  1  0.33388748  0.49510168  0.82994651  1
  I  I123  1  0.33009962  0.83765557  0.16433624  1
  I  I124  1  0.33349418  0.83267053  0.49869946  1
  I  I125  1  0.33318339  0.82777769  0.83593639  1
  I  I126  1  0.66655947  0.16550683  0.16564680  1
  I  I127  1  0.66295264  0.16871229  0.50664810  1
  I  I128  1  0.66328753  0.17034568  0.82922207  1
  I  I129  1  0.67095515  0.50649583  0.16247032  1
  I  I130  1  0.66732833  0.50029092  0.50456265  1
  I  I131  1  0.66653470  0.49691775  0.83262391  1
  I  I132  1  0.67073114  0.82815051  0.17041559  1
  I  I133  1  0.67045674  0.83070689  0.49267035  1
  I  I134  1  0.66686792  0.83482190  0.83674861  1
