# generated using pymatgen
data_Cs27Sn14Pb13I81
_symmetry_space_group_name_H-M   'P 1'
_cell_length_a   18.95979743
_cell_length_b   18.96045897
_cell_length_c   18.96324501
_cell_angle_alpha   90.00105018
_cell_angle_beta   89.99915786
_cell_angle_gamma   90.00035379
_symmetry_Int_Tables_number   1
_chemical_formula_structural   Cs27Sn14Pb13I81
_chemical_formula_sum   'Cs27 Sn14 Pb13 I81'
_cell_volume   6817.02984427
_cell_formula_units_Z   1
loop_
 _symmetry_equiv_pos_site_id
 _symmetry_equiv_pos_as_xyz
  1  'x, y, z'
loop_
 _atom_site_type_symbol
 _atom_site_label
 _atom_site_symmetry_multiplicity
 _atom_site_fract_x
 _atom_site_fract_y
 _atom_site_fract_z
 _atom_site_occupancy
  Cs  Cs0  1  -0.00025502  0.00144153  -0.00076869  1
  Cs  Cs1  1  0.00004476  -0.00290622  0.33191267  1
  Cs  Cs2  1  -0.00064460  0.00359250  0.66859569  1
  Cs  Cs3  1  0.00140269  0.33172633  -0.00037342  1
  Cs  Cs4  1  0.00068259  0.33347172  0.33393060  1
  Cs  Cs5  1  0.00150458  0.33169346  0.66670468  1
  Cs  Cs6  1  -0.00017581  0.66701322  0.00105845  1
  Cs  Cs7  1  -0.00420260  0.67178023  0.33219229  1
  Cs  Cs8  1  0.00024289  0.66522629  0.66698463  1
  Cs  Cs9  1  0.33492126  -0.00104981  -0.00146447  1
  Cs  Cs10  1  0.33593562  -0.00147804  0.33530608  1
  Cs  Cs11  1  0.33458437  -0.00097198  0.66737777  1
  Cs  Cs12  1  0.33222870  0.33445420  0.00163872  1
  Cs  Cs13  1  0.33541351  0.33186655  0.33139188  1
  Cs  Cs14  1  0.33013642  0.33513482  0.66635487  1
  Cs  Cs15  1  0.33398988  0.66741052  -0.00127843  1
  Cs  Cs16  1  0.32976753  0.67154989  0.33753661  1
  Cs  Cs17  1  0.33430416  0.66623914  0.66666035  1
  Cs  Cs18  1  0.66556721  -0.00000715  -0.00144608  1
  Cs  Cs19  1  0.66325433  0.00192780  0.33637001  1
  Cs  Cs20  1  0.66679448  -0.00000653  0.66830957  1
  Cs  Cs21  1  0.66452416  0.33451703  0.00195316  1
  Cs  Cs22  1  0.66073788  0.33649157  0.33181505  1
  Cs  Cs23  1  0.66628441  0.33470898  0.66596635  1
  Cs  Cs24  1  0.66540482  0.66614067  -0.00011879  1
  Cs  Cs25  1  0.67574645  0.66009735  0.33947344  1
  Cs  Cs26  1  0.66534879  0.66449433  0.66397867  1
  Sn  Sn27  1  0.50025943  0.83415815  0.83419682  1
  Sn  Sn28  1  0.83415707  0.49967568  0.83367251  1
  Sn  Sn29  1  0.16650790  0.83237078  0.83350251  1
  Sn  Sn30  1  0.83374863  0.16663987  0.16682110  1
  Sn  Sn31  1  0.16654050  0.49973839  0.16693524  1
  Sn  Sn32  1  0.16583749  0.50100970  0.83356527  1
  Sn  Sn33  1  0.83401620  0.16683326  0.49967800  1
  Sn  Sn34  1  0.83315792  0.83306655  0.83356522  1
  Sn  Sn35  1  0.50063893  0.83264668  0.16644146  1
  Sn  Sn36  1  0.16585167  0.16722214  0.49871882  1
  Sn  Sn37  1  0.83219563  0.16695089  0.83354959  1
  Sn  Sn38  1  0.50093322  0.16651472  0.83344114  1
  Sn  Sn39  1  0.16622913  0.49927750  0.49957441  1
  Sn  Sn40  1  0.16604413  0.16699760  0.16771342  1
  Pb  Pb41  1  0.49708374  0.49986515  0.49973706  1
  Pb  Pb42  1  0.83545965  0.49775183  0.16454819  1
  Pb  Pb43  1  0.49966409  0.16685723  0.50272291  1
  Pb  Pb44  1  0.16792805  0.83377133  0.16451303  1
  Pb  Pb45  1  0.16636133  0.83388481  0.50266393  1
  Pb  Pb46  1  0.16668759  0.16686886  0.83347423  1
  Pb  Pb47  1  0.50033571  0.83322255  0.50016772  1
  Pb  Pb48  1  0.49994410  0.50022760  0.83337154  1
  Pb  Pb49  1  0.83344926  0.83598566  0.50248662  1
  Pb  Pb50  1  0.83570259  0.49743353  0.50216026  1
  Pb  Pb51  1  0.49734443  0.50337233  0.16675920  1
  Pb  Pb52  1  0.83081899  0.83567090  0.16470581  1
  Pb  Pb53  1  0.49970455  0.16529684  0.16456324  1
  I  I54  1  0.16409618  0.00321648  0.16854957  1
  I  I55  1  0.16354371  0.00362357  0.49759897  1
  I  I56  1  0.16531463  -0.00187889  0.83367525  1
  I  I57  1  0.16354765  0.33272662  0.16365529  1
  I  I58  1  0.16283308  0.33279278  0.50351363  1
  I  I59  1  0.16415533  0.33580258  0.83308202  1
  I  I60  1  0.16972049  0.66405974  0.16713801  1
  I  I61  1  0.16863579  0.66366415  0.49913188  1
  I  I62  1  0.16460610  0.66594024  0.83337420  1
  I  I63  1  0.49739494  -0.00243058  0.16140642  1
  I  I64  1  0.49657643  0.00028213  0.50017102  1
  I  I65  1  0.50170157  -0.00050170  0.83618687  1
  I  I66  1  0.50062374  0.33330081  0.16461923  1
  I  I67  1  0.50141243  0.33291887  0.50291464  1
  I  I68  1  0.50277512  0.33065170  0.83278034  1
  I  I69  1  0.49747357  0.67093289  0.15538041  1
  I  I70  1  0.49727827  0.66668725  0.50370286  1
  I  I71  1  0.50100793  0.66994745  0.83677982  1
  I  I72  1  0.84045563  0.00413792  0.16320663  1
  I  I73  1  0.83996247  0.00448974  0.50317559  1
  I  I74  1  0.83330569  0.00076131  0.83296306  1
  I  I75  1  0.83489045  0.32925002  0.16272814  1
  I  I76  1  0.83640927  0.32922478  0.50438117  1
  I  I77  1  0.83470875  0.33228259  0.83292868  1
  I  I78  1  0.83423559  0.66663301  0.16424734  1
  I  I79  1  0.83413010  0.66628714  0.50192101  1
  I  I80  1  0.83472143  0.66683326  0.83382323  1
  I  I81  1  0.16411785  0.16900994  0.00200513  1
  I  I82  1  0.15987557  0.17391257  0.33307053  1
  I  I83  1  0.16422751  0.16893933  0.66491808  1
  I  I84  1  0.16348353  0.49891646  -0.00072344  1
  I  I85  1  0.16958758  0.49322715  0.33323219  1
  I  I86  1  0.16333473  0.49893613  0.66744333  1
  I  I87  1  0.16516062  0.83095777  -0.00403490  1
  I  I88  1  0.17013915  0.83133633  0.33316201  1
  I  I89  1  0.16888890  0.83099669  0.67134879  1
  I  I90  1  0.50299255  0.16393851  -0.00364641  1
  I  I91  1  0.50189631  0.16408378  0.33316409  1
  I  I92  1  0.50279619  0.16019422  0.67099905  1
  I  I93  1  0.49651733  0.49752464  -0.00027700  1
  I  I94  1  0.49976169  0.50054253  0.33306098  1
  I  I95  1  0.49739656  0.50126159  0.66716294  1
  I  I96  1  0.49894941  0.83808519  -0.00269292  1
  I  I97  1  0.49572532  0.83553431  0.33039292  1
  I  I98  1  0.49943165  0.83754564  0.67087960  1
  I  I99  1  0.83472073  0.16607097  -0.00118838  1
  I  I100  1  0.83966087  0.16581860  0.33317186  1
  I  I101  1  0.83459065  0.16588557  0.66794694  1
  I  I102  1  0.83945239  0.49772267  -0.00405984  1
  I  I103  1  0.83405252  0.49937408  0.33336675  1
  I  I104  1  0.83887826  0.49833474  0.67077494  1
  I  I105  1  0.83604767  0.83644313  -0.00427533  1
  I  I106  1  0.83170004  0.83450580  0.33314288  1
  I  I107  1  0.83165833  0.83566637  0.67164740  1
  I  I108  1  0.00043351  0.16940166  0.16353667  1
  I  I109  1  0.00043048  0.17003559  0.50361838  1
  I  I110  1  -0.00258776  0.16429656  0.83322397  1
  I  I111  1  0.00402745  0.49895185  0.16661008  1
  I  I112  1  0.00398336  0.49720370  0.50045166  1
  I  I113  1  0.00091644  0.50205442  0.83312808  1
  I  I114  1  -0.00016364  0.83265243  0.16435360  1
  I  I115  1  0.00009934  0.83248070  0.50173704  1
  I  I116  1  -0.00030061  0.83409540  0.83231193  1
  I  I117  1  0.33014699  0.16932470  0.16857273  1
  I  I118  1  0.32972753  0.17042686  0.49752470  1
  I  I119  1  0.33509221  0.16299103  0.83360909  1
  I  I120  1  0.32860622  0.49222131  0.16203237  1
  I  I121  1  0.32815461  0.49357015  0.50489558  1
  I  I122  1  0.32972963  0.50208624  0.83275688  1
  I  I123  1  0.33565006  0.83535693  0.15805416  1
  I  I124  1  0.33304373  0.83507585  0.50384816  1
  I  I125  1  0.33341468  0.83438934  0.83645294  1
  I  I126  1  0.66942301  0.16388727  0.16686190  1
  I  I127  1  0.66984804  0.16447614  0.49955198  1
  I  I128  1  0.66842783  0.16330591  0.83322887  1
  I  I129  1  0.66696258  0.49846138  0.16373092  1
  I  I130  1  0.66733579  0.49943044  0.50274086  1
  I  I131  1  0.66984894  0.50074932  0.83325574  1
  I  I132  1  0.66324543  0.83677918  0.15779201  1
  I  I133  1  0.66690983  0.83595452  0.50279289  1
  I  I134  1  0.66688868  0.83607162  0.83698845  1
