# generated using pymatgen
data_Cs27Sn14Pb13I81
_symmetry_space_group_name_H-M   'P 1'
_cell_length_a   18.97739087
_cell_length_b   18.97837406
_cell_length_c   18.97169947
_cell_angle_alpha   90.00133361
_cell_angle_beta   90.00224601
_cell_angle_gamma   90.00001499
_symmetry_Int_Tables_number   1
_chemical_formula_structural   Cs27Sn14Pb13I81
_chemical_formula_sum   'Cs27 Sn14 Pb13 I81'
_cell_volume   6832.84770250
_cell_formula_units_Z   1
loop_
 _symmetry_equiv_pos_site_id
 _symmetry_equiv_pos_as_xyz
  1  'x, y, z'
loop_
 _atom_site_type_symbol
 _atom_site_label
 _atom_site_symmetry_multiplicity
 _atom_site_fract_x
 _atom_site_fract_y
 _atom_site_fract_z
 _atom_site_occupancy
  Cs  Cs0  1  0.00194665  -0.00024472  0.00429295  1
  Cs  Cs1  1  0.00099123  -0.00343431  0.32787505  1
  Cs  Cs2  1  0.00112186  0.00221347  0.66693209  1
  Cs  Cs3  1  -0.00129690  0.33390598  -0.00140600  1
  Cs  Cs4  1  -0.00052933  0.33296170  0.33529334  1
  Cs  Cs5  1  0.00024589  0.33309418  0.66748511  1
  Cs  Cs6  1  0.00073066  0.66536517  0.00091384  1
  Cs  Cs7  1  -0.00137112  0.66976864  0.33193631  1
  Cs  Cs8  1  0.00146495  0.66517570  0.66608677  1
  Cs  Cs9  1  0.33007077  -0.00307053  0.00015954  1
  Cs  Cs10  1  0.33032223  0.00480495  0.33103572  1
  Cs  Cs11  1  0.33324168  -0.00009983  0.66791986  1
  Cs  Cs12  1  0.33506160  0.33370490  0.00082124  1
  Cs  Cs13  1  0.34536052  0.33503001  0.33251120  1
  Cs  Cs14  1  0.32909445  0.33341834  0.66442743  1
  Cs  Cs15  1  0.33486176  0.66843152  0.00005595  1
  Cs  Cs16  1  0.33600606  0.66090476  0.33233807  1
  Cs  Cs17  1  0.33080200  0.66735298  0.66370596  1
  Cs  Cs18  1  0.66794645  -0.00012307  -0.00186375  1
  Cs  Cs19  1  0.66685759  -0.00188453  0.33469753  1
  Cs  Cs20  1  0.66487136  -0.00195339  0.66686266  1
  Cs  Cs21  1  0.66763937  0.33459303  -0.00028561  1
  Cs  Cs22  1  0.65858361  0.33302599  0.33156267  1
  Cs  Cs23  1  0.67117864  0.33136040  0.66961575  1
  Cs  Cs24  1  0.66397321  0.66461020  -0.00169960  1
  Cs  Cs25  1  0.66549664  0.66833992  0.33602848  1
  Cs  Cs26  1  0.66702941  0.67262333  0.66788927  1
  Sn  Sn27  1  0.16647088  0.83403207  0.50056796  1
  Sn  Sn28  1  0.83422050  0.16724063  0.50060606  1
  Sn  Sn29  1  0.16600213  0.49931463  0.16671329  1
  Sn  Sn30  1  0.50041819  0.49933312  0.83275274  1
  Sn  Sn31  1  0.83411452  0.49970125  0.16694389  1
  Sn  Sn32  1  0.83339012  0.49927047  0.50016011  1
  Sn  Sn33  1  0.16651675  0.16594271  0.83292730  1
  Sn  Sn34  1  0.16559274  0.83382902  0.83259969  1
  Sn  Sn35  1  0.49981243  0.16760965  0.83320703  1
  Sn  Sn36  1  0.83365204  0.16631954  0.83281183  1
  Sn  Sn37  1  0.16559625  0.16606250  0.50050727  1
  Sn  Sn38  1  0.83468323  0.83352622  0.83347764  1
  Sn  Sn39  1  0.50016799  0.83378853  0.16670429  1
  Sn  Sn40  1  0.83271159  0.50026873  0.83305062  1
  Pb  Pb41  1  0.16798272  0.83131174  0.16669095  1
  Pb  Pb42  1  0.83146477  0.83090117  0.16399517  1
  Pb  Pb43  1  0.83524563  0.83402438  0.50210004  1
  Pb  Pb44  1  0.16652257  0.16937383  0.16714869  1
  Pb  Pb45  1  0.50022388  0.16658488  0.50259069  1
  Pb  Pb46  1  0.16645837  0.49984110  0.83444763  1
  Pb  Pb47  1  0.16463704  0.49924127  0.49750896  1
  Pb  Pb48  1  0.50075131  0.50128340  0.16445561  1
  Pb  Pb49  1  0.49951255  0.83355562  0.83403058  1
  Pb  Pb50  1  0.50349865  0.49998866  0.50360125  1
  Pb  Pb51  1  0.50019502  0.16394939  0.16367015  1
  Pb  Pb52  1  0.83334596  0.16890414  0.16713771  1
  Pb  Pb53  1  0.49656691  0.83365753  0.49730899  1
  I  I54  1  0.16923290  0.00004018  0.16606059  1
  I  I55  1  0.16141926  0.00089644  0.50435175  1
  I  I56  1  0.16473096  0.00041434  0.83089939  1
  I  I57  1  0.16222893  0.33698714  0.16388729  1
  I  I58  1  0.16352231  0.33012407  0.50581269  1
  I  I59  1  0.16483336  0.33035764  0.83048423  1
  I  I60  1  0.16285819  0.66376068  0.16505383  1
  I  I61  1  0.16558718  0.66882541  0.50423628  1
  I  I62  1  0.16412191  0.66913058  0.83130519  1
  I  I63  1  0.49786914  -0.00336315  0.16359162  1
  I  I64  1  0.50611987  0.00014568  0.50224196  1
  I  I65  1  0.50281958  0.00272140  0.83512121  1
  I  I66  1  0.49936675  0.33343023  0.16727295  1
  I  I67  1  0.49371378  0.33338947  0.49592539  1
  I  I68  1  0.50369779  0.33307747  0.83472878  1
  I  I69  1  0.49912309  0.66859203  0.16139546  1
  I  I70  1  0.49962011  0.66662304  0.50274449  1
  I  I71  1  0.50438478  0.66453630  0.83635649  1
  I  I72  1  0.83171946  -0.00019111  0.16596949  1
  I  I73  1  0.83431710  0.00323439  0.50614968  1
  I  I74  1  0.83199840  0.00095792  0.82846922  1
  I  I75  1  0.83635017  0.33717494  0.16014377  1
  I  I76  1  0.83998499  0.33292480  0.50612121  1
  I  I77  1  0.83263148  0.33338035  0.83340914  1
  I  I78  1  0.83708635  0.66273804  0.16636361  1
  I  I79  1  0.83462783  0.66415964  0.50131394  1
  I  I80  1  0.83237543  0.66575515  0.83382623  1
  I  I81  1  0.16569668  0.16311831  -0.00355295  1
  I  I82  1  0.16007298  0.16168573  0.33693821  1
  I  I83  1  0.16592920  0.16350549  0.66800531  1
  I  I84  1  0.16120789  0.50088625  0.00199973  1
  I  I85  1  0.16064049  0.50203341  0.33005488  1
  I  I86  1  0.16739924  0.50119548  0.66654465  1
  I  I87  1  0.16461805  0.83670957  -0.00310454  1
  I  I88  1  0.16808908  0.83723698  0.33603808  1
  I  I89  1  0.16357516  0.83586431  0.66809795  1
  I  I90  1  0.50084082  0.17121748  -0.00486529  1
  I  I91  1  0.49936524  0.16597749  0.33349120  1
  I  I92  1  0.50062466  0.16915664  0.67100391  1
  I  I93  1  0.50602311  0.49688985  -0.00334167  1
  I  I94  1  0.49982612  0.50200377  0.33336307  1
  I  I95  1  0.50327385  0.49755744  0.67155554  1
  I  I96  1  0.49800400  0.83199690  0.00136535  1
  I  I97  1  0.50010413  0.82998081  0.32976648  1
  I  I98  1  0.50162750  0.83272963  0.66682760  1
  I  I99  1  0.83370379  0.16744765  -0.00383955  1
  I  I100  1  0.83929283  0.17085501  0.33707228  1
  I  I101  1  0.83444895  0.17211336  0.66830873  1
  I  I102  1  0.83310382  0.50035279  -0.00156431  1
  I  I103  1  0.84012160  0.49601669  0.33360351  1
  I  I104  1  0.82884083  0.49875080  0.66784555  1
  I  I105  1  0.83912159  0.83460582  -0.00461300  1
  I  I106  1  0.83361596  0.83279905  0.33342799  1
  I  I107  1  0.83302608  0.82805962  0.67057514  1
  I  I108  1  0.00000023  0.16476326  0.16092176  1
  I  I109  1  -0.00017516  0.16803821  0.50945096  1
  I  I110  1  -0.00042807  0.16731987  0.82951072  1
  I  I111  1  -0.00142118  0.50113821  0.16224224  1
  I  I112  1  -0.00341621  0.49877031  0.50688888  1
  I  I113  1  -0.00326885  0.49830276  0.83237704  1
  I  I114  1  -0.00007823  0.83280482  0.16708156  1
  I  I115  1  0.00312115  0.83370700  0.50144167  1
  I  I116  1  0.00013249  0.83466510  0.83083953  1
  I  I117  1  0.33321468  0.17048542  0.16638048  1
  I  I118  1  0.32998883  0.16187739  0.50436514  1
  I  I119  1  0.33237646  0.16627732  0.83039676  1
  I  I120  1  0.33158137  0.50201343  0.16431972  1
  I  I121  1  0.33324968  0.50047523  0.49836420  1
  I  I122  1  0.33527325  0.49767090  0.83816958  1
  I  I123  1  0.33531539  0.82924654  0.16228955  1
  I  I124  1  0.32851859  0.83845586  0.50861055  1
  I  I125  1  0.33036816  0.83595935  0.83218547  1
  I  I126  1  0.66677980  0.16895333  0.16630816  1
  I  I127  1  0.67024999  0.17200505  0.50423175  1
  I  I128  1  0.66807825  0.16736760  0.83063668  1
  I  I129  1  0.66981281  0.50125650  0.16660779  1
  I  I130  1  0.67175684  0.49375363  0.49396915  1
  I  I131  1  0.66866052  0.49742392  0.83614608  1
  I  I132  1  0.66410197  0.83087833  0.16284824  1
  I  I133  1  0.66697945  0.83275374  0.50047857  1
  I  I134  1  0.66923708  0.83433656  0.83579006  1
