# generated using pymatgen
data_Cs27Sn14Pb13I81
_symmetry_space_group_name_H-M   'P 1'
_cell_length_a   18.96504723
_cell_length_b   18.96228470
_cell_length_c   18.95739240
_cell_angle_alpha   90.00142947
_cell_angle_beta   90.00033583
_cell_angle_gamma   89.99909921
_symmetry_Int_Tables_number   1
_chemical_formula_structural   Cs27Sn14Pb13I81
_chemical_formula_sum   'Cs27 Sn14 Pb13 I81'
_cell_volume   6817.46929687
_cell_formula_units_Z   1
loop_
 _symmetry_equiv_pos_site_id
 _symmetry_equiv_pos_as_xyz
  1  'x, y, z'
loop_
 _atom_site_type_symbol
 _atom_site_label
 _atom_site_symmetry_multiplicity
 _atom_site_fract_x
 _atom_site_fract_y
 _atom_site_fract_z
 _atom_site_occupancy
  Cs  Cs0  1  0.00184621  0.00015754  0.00111884  1
  Cs  Cs1  1  -0.00037340  -0.00154306  0.33368986  1
  Cs  Cs2  1  -0.00030631  0.00193980  0.66559837  1
  Cs  Cs3  1  0.00144948  0.33408119  -0.00041208  1
  Cs  Cs4  1  -0.00102697  0.33472993  0.33350275  1
  Cs  Cs5  1  0.00068110  0.33153896  0.66647536  1
  Cs  Cs6  1  -0.00077993  0.66614713  -0.00034613  1
  Cs  Cs7  1  -0.00607105  0.66758069  0.33180818  1
  Cs  Cs8  1  0.00194569  0.66640602  0.66925325  1
  Cs  Cs9  1  0.33565064  -0.00036518  0.00114788  1
  Cs  Cs10  1  0.33284174  0.00088144  0.33272978  1
  Cs  Cs11  1  0.33315717  -0.00319371  0.66554269  1
  Cs  Cs12  1  0.33294965  0.33294388  0.00278165  1
  Cs  Cs13  1  0.33295036  0.33187194  0.33333920  1
  Cs  Cs14  1  0.33038672  0.33604495  0.66315222  1
  Cs  Cs15  1  0.33312736  0.66750985  -0.00120525  1
  Cs  Cs16  1  0.33406496  0.66765240  0.33390078  1
  Cs  Cs17  1  0.33309123  0.66796845  0.66591795  1
  Cs  Cs18  1  0.66369230  0.00476198  -0.00272731  1
  Cs  Cs19  1  0.66728651  -0.00349956  0.33519987  1
  Cs  Cs20  1  0.66788646  0.00472742  0.66713131  1
  Cs  Cs21  1  0.66605943  0.33208066  -0.00117864  1
  Cs  Cs22  1  0.66884797  0.33628431  0.33529072  1
  Cs  Cs23  1  0.66929774  0.33042976  0.66656617  1
  Cs  Cs24  1  0.66757883  0.66555131  0.00196070  1
  Cs  Cs25  1  0.67085345  0.66786747  0.33161159  1
  Cs  Cs26  1  0.66539141  0.66529381  0.66698602  1
  Sn  Sn27  1  0.16765684  0.16578847  0.50075760  1
  Sn  Sn28  1  0.83322486  0.16652280  0.16677031  1
  Sn  Sn29  1  0.83318074  0.83315945  0.83333812  1
  Sn  Sn30  1  0.49896968  0.50084435  0.16597936  1
  Sn  Sn31  1  0.49910369  0.16597969  0.49986041  1
  Sn  Sn32  1  0.83341763  0.50075778  0.83357432  1
  Sn  Sn33  1  0.49957274  0.49999563  0.83401692  1
  Sn  Sn34  1  0.16728987  0.83384958  0.49898119  1
  Sn  Sn35  1  0.16706047  0.49921455  0.83418889  1
  Sn  Sn36  1  0.16748776  0.50109132  0.16610105  1
  Sn  Sn37  1  0.49916847  0.83407373  0.49928273  1
  Sn  Sn38  1  0.16733831  0.83233436  0.16744418  1
  Sn  Sn39  1  0.16724225  0.16710344  0.83287567  1
  Sn  Sn40  1  0.49910420  0.83259399  0.16719803  1
  Pb  Pb41  1  0.83330122  0.49829341  0.16468174  1
  Pb  Pb42  1  0.50205895  0.83155128  0.83328437  1
  Pb  Pb43  1  0.83332339  0.83326453  0.50257041  1
  Pb  Pb44  1  0.49994469  0.50051900  0.49932799  1
  Pb  Pb45  1  0.83555843  0.16698340  0.83491668  1
  Pb  Pb46  1  0.16652021  0.50059750  0.49930988  1
  Pb  Pb47  1  0.83302130  0.83506610  0.16452680  1
  Pb  Pb48  1  0.83345104  0.50014416  0.50324910  1
  Pb  Pb49  1  0.83378155  0.16647088  0.49767584  1
  Pb  Pb50  1  0.16561518  0.16666912  0.16715808  1
  Pb  Pb51  1  0.16553275  0.83315531  0.83344560  1
  Pb  Pb52  1  0.50196231  0.16681040  0.16890560  1
  Pb  Pb53  1  0.49717096  0.16939252  0.83088189  1
  I  I54  1  0.16886134  -0.00275373  0.16664505  1
  I  I55  1  0.17023302  -0.00022072  0.50051935  1
  I  I56  1  0.16275637  0.00199696  0.83245683  1
  I  I57  1  0.16884429  0.33604836  0.16490637  1
  I  I58  1  0.17011154  0.33063325  0.50131310  1
  I  I59  1  0.16430075  0.33462135  0.83323170  1
  I  I60  1  0.16946787  0.66661719  0.16562621  1
  I  I61  1  0.17183127  0.66994991  0.50062177  1
  I  I62  1  0.16719114  0.66373907  0.83393654  1
  I  I63  1  0.49674944  -0.00300029  0.16864529  1
  I  I64  1  0.49590615  -0.00100891  0.49469261  1
  I  I65  1  0.50137648  0.00011721  0.83581990  1
  I  I66  1  0.49702907  0.33637019  0.16374135  1
  I  I67  1  0.49592863  0.33088385  0.50063455  1
  I  I68  1  0.50498407  0.33757558  0.83831604  1
  I  I69  1  0.49686358  0.66680820  0.16826347  1
  I  I70  1  0.49486931  0.66991811  0.50015129  1
  I  I71  1  0.49499895  0.66321808  0.83227226  1
  I  I72  1  0.83497050  0.00232691  0.16347223  1
  I  I73  1  0.83335512  -0.00013103  0.50344601  1
  I  I74  1  0.83544329  -0.00193548  0.83484832  1
  I  I75  1  0.83452129  0.33093906  0.16482218  1
  I  I76  1  0.83267280  0.33301053  0.50066830  1
  I  I77  1  0.83218390  0.33630033  0.83521334  1
  I  I78  1  0.83365711  0.66659438  0.16668963  1
  I  I79  1  0.83322569  0.66700397  0.49708652  1
  I  I80  1  0.83651088  0.66533049  0.83425316  1
  I  I81  1  0.16282565  0.16835026  -0.00194622  1
  I  I82  1  0.16878148  0.16594455  0.33610998  1
  I  I83  1  0.16849839  0.16737584  0.66626360  1
  I  I84  1  0.16671628  0.49967029  -0.00040833  1
  I  I85  1  0.17254031  0.49950062  0.32987701  1
  I  I86  1  0.16640179  0.49898584  0.66971539  1
  I  I87  1  0.16906261  0.83279104  0.00275499  1
  I  I88  1  0.16978090  0.83420711  0.33306019  1
  I  I89  1  0.16934146  0.83417771  0.66418278  1
  I  I90  1  0.50021079  0.16438694  0.00001339  1
  I  I91  1  0.49313786  0.16753449  0.33671625  1
  I  I92  1  0.49992559  0.16135214  0.66297594  1
  I  I93  1  0.49932699  0.50528172  0.00048496  1
  I  I94  1  0.49415919  0.49997044  0.32990851  1
  I  I95  1  0.50005756  0.49988853  0.66949199  1
  I  I96  1  0.49650422  0.83081148  0.00298636  1
  I  I97  1  0.49659504  0.83151067  0.33289586  1
  I  I98  1  0.49650443  0.83501369  0.66384742  1
  I  I99  1  0.83506051  0.16649978  0.00234842  1
  I  I100  1  0.83581027  0.16659193  0.33023431  1
  I  I101  1  0.83232963  0.16760557  0.66676699  1
  I  I102  1  0.83431012  0.50292172  -0.00339562  1
  I  I103  1  0.83339978  0.49771340  0.33274038  1
  I  I104  1  0.83352962  0.50243162  0.67192767  1
  I  I105  1  0.83500427  0.82924815  -0.00298511  1
  I  I106  1  0.83373592  0.83535632  0.33312671  1
  I  I107  1  0.83438996  0.82902924  0.67036074  1
  I  I108  1  -0.00180782  0.16691840  0.16681843  1
  I  I109  1  0.00358125  0.16311048  0.50313640  1
  I  I110  1  0.00346435  0.17173366  0.82822306  1
  I  I111  1  0.00305177  0.50239049  0.16308332  1
  I  I112  1  0.00049886  0.49922907  0.49903431  1
  I  I113  1  0.00108024  0.50000213  0.83682682  1
  I  I114  1  0.00304769  0.83058463  0.16942850  1
  I  I115  1  0.00348698  0.83737650  0.49682675  1
  I  I116  1  -0.00210667  0.82797743  0.83393113  1
  I  I117  1  0.33338508  0.16716423  0.16513539  1
  I  I118  1  0.33238299  0.16286522  0.50310260  1
  I  I119  1  0.32916067  0.17059302  0.83375901  1
  I  I120  1  0.33304345  0.50284601  0.15827270  1
  I  I121  1  0.33324758  0.49913685  0.50586210  1
  I  I122  1  0.33259245  0.49550093  0.83734098  1
  I  I123  1  0.33308073  0.83010006  0.16955605  1
  I  I124  1  0.33303583  0.83770257  0.49712750  1
  I  I125  1  0.33344531  0.83273594  0.83302807  1
  I  I126  1  0.66922255  0.16681011  0.16657059  1
  I  I127  1  0.66382008  0.16290420  0.49831652  1
  I  I128  1  0.66644363  0.16764185  0.83243356  1
  I  I129  1  0.66364740  0.50267595  0.16357920  1
  I  I130  1  0.66623330  0.49913384  0.49958414  1
  I  I131  1  0.66634388  0.50556733  0.83675621  1
  I  I132  1  0.66345382  0.82975740  0.17025630  1
  I  I133  1  0.66318918  0.83663052  0.49652449  1
  I  I134  1  0.66965273  0.82773114  0.83399942  1
