# generated using pymatgen
data_Cs27Sn14Pb13I81
_symmetry_space_group_name_H-M   'P 1'
_cell_length_a   18.97827646
_cell_length_b   18.97902295
_cell_length_c   18.96835337
_cell_angle_alpha   90.00104567
_cell_angle_beta   90.00251513
_cell_angle_gamma   90.00068624
_symmetry_Int_Tables_number   1
_chemical_formula_structural   Cs27Sn14Pb13I81
_chemical_formula_sum   'Cs27 Sn14 Pb13 I81'
_cell_volume   6832.19496589
_cell_formula_units_Z   1
loop_
 _symmetry_equiv_pos_site_id
 _symmetry_equiv_pos_as_xyz
  1  'x, y, z'
loop_
 _atom_site_type_symbol
 _atom_site_label
 _atom_site_symmetry_multiplicity
 _atom_site_fract_x
 _atom_site_fract_y
 _atom_site_fract_z
 _atom_site_occupancy
  Cs  Cs0  1  0.00008749  -0.00752412  0.00264614  1
  Cs  Cs1  1  0.00079975  0.00186878  0.33135017  1
  Cs  Cs2  1  -0.00063688  0.00444713  0.66589062  1
  Cs  Cs3  1  -0.00237584  0.33436259  -0.00425210  1
  Cs  Cs4  1  0.00152926  0.33222616  0.33396168  1
  Cs  Cs5  1  -0.00002031  0.33065088  0.66843817  1
  Cs  Cs6  1  0.00165491  0.67161498  0.00451660  1
  Cs  Cs7  1  -0.00312515  0.66620491  0.33233906  1
  Cs  Cs8  1  0.00128276  0.66475008  0.66545993  1
  Cs  Cs9  1  0.33060284  0.00018893  -0.00342730  1
  Cs  Cs10  1  0.33682106  0.00502970  0.33333813  1
  Cs  Cs11  1  0.33356310  -0.00053812  0.66846974  1
  Cs  Cs12  1  0.33454393  0.33337323  0.00872047  1
  Cs  Cs13  1  0.33308354  0.33176557  0.32592691  1
  Cs  Cs14  1  0.33048762  0.33175669  0.66586313  1
  Cs  Cs15  1  0.33148959  0.66522459  -0.00321188  1
  Cs  Cs16  1  0.33440056  0.66360251  0.33729536  1
  Cs  Cs17  1  0.33328340  0.66819186  0.66664524  1
  Cs  Cs18  1  0.66761752  0.00042660  0.00342087  1
  Cs  Cs19  1  0.66619723  -0.00266685  0.33317447  1
  Cs  Cs20  1  0.66632809  0.00132992  0.66660046  1
  Cs  Cs21  1  0.66660499  0.33534493  -0.00124009  1
  Cs  Cs22  1  0.66624669  0.33347456  0.33193565  1
  Cs  Cs23  1  0.66980197  0.33262700  0.66941427  1
  Cs  Cs24  1  0.66550028  0.66445288  -0.00418163  1
  Cs  Cs25  1  0.66915580  0.66982999  0.33535316  1
  Cs  Cs26  1  0.66630450  0.66652790  0.66585874  1
  Sn  Sn27  1  0.49977893  0.83336956  0.49936491  1
  Sn  Sn28  1  0.16658381  0.50044000  0.50061740  1
  Sn  Sn29  1  0.49931290  0.16696286  0.83282503  1
  Sn  Sn30  1  0.83325847  0.49900657  0.16746121  1
  Sn  Sn31  1  0.83340123  0.50026922  0.49955282  1
  Sn  Sn32  1  0.83316589  0.83310836  0.83189907  1
  Sn  Sn33  1  0.83378662  0.83295890  0.50115868  1
  Sn  Sn34  1  0.50006868  0.49952241  0.50025552  1
  Sn  Sn35  1  0.49945618  0.83288892  0.16696921  1
  Sn  Sn36  1  0.83341817  0.16776767  0.16690924  1
  Sn  Sn37  1  0.50020982  0.16700665  0.50082715  1
  Sn  Sn38  1  0.16676050  0.49925343  0.83271368  1
  Sn  Sn39  1  0.16751041  0.16761203  0.83323851  1
  Sn  Sn40  1  0.16652260  0.83306481  0.49989617  1
  Pb  Pb41  1  0.83179414  0.83265912  0.16742774  1
  Pb  Pb42  1  0.16473821  0.83321580  0.83091292  1
  Pb  Pb43  1  0.83117540  0.16679650  0.49847877  1
  Pb  Pb44  1  0.49750636  0.49756267  0.83093169  1
  Pb  Pb45  1  0.83332525  0.16457428  0.83548571  1
  Pb  Pb46  1  0.16401710  0.16665424  0.16329982  1
  Pb  Pb47  1  0.16898309  0.16703135  0.50126200  1
  Pb  Pb48  1  0.50233665  0.50254847  0.16902339  1
  Pb  Pb49  1  0.17014983  0.83311340  0.17025317  1
  Pb  Pb50  1  0.50161959  0.83508819  0.83271661  1
  Pb  Pb51  1  0.83550915  0.50209921  0.83280195  1
  Pb  Pb52  1  0.50159272  0.16501524  0.16649181  1
  Pb  Pb53  1  0.16436717  0.50010093  0.16723277  1
  I  I54  1  0.16210753  -0.00015998  0.16645825  1
  I  I55  1  0.16609137  -0.00265101  0.50159452  1
  I  I56  1  0.16944166  0.00226977  0.83204934  1
  I  I57  1  0.16924931  0.33337374  0.17192218  1
  I  I58  1  0.16532540  0.33651516  0.50262307  1
  I  I59  1  0.16800393  0.33368884  0.82572521  1
  I  I60  1  0.16332187  0.66669044  0.16029943  1
  I  I61  1  0.17041617  0.66603468  0.50575563  1
  I  I62  1  0.16406555  0.66419600  0.83040290  1
  I  I63  1  0.50501566  -0.00257385  0.17433610  1
  I  I64  1  0.50054449  -0.00085299  0.49964666  1
  I  I65  1  0.49482196  0.00294256  0.82728417  1
  I  I66  1  0.50031623  0.33355291  0.16785308  1
  I  I67  1  0.50095347  0.33373055  0.50541082  1
  I  I68  1  0.50107719  0.32961774  0.82779587  1
  I  I69  1  0.50344233  0.67014785  0.17307685  1
  I  I70  1  0.50049481  0.66693615  0.49482073  1
  I  I71  1  0.49985827  0.66655092  0.83389928  1
  I  I72  1  0.83088655  0.00129083  0.16552234  1
  I  I73  1  0.83293208  -0.00294717  0.50173183  1
  I  I74  1  0.83455417  -0.00309563  0.82832434  1
  I  I75  1  0.83223800  0.33427029  0.17222333  1
  I  I76  1  0.83346877  0.33641839  0.49752433  1
  I  I77  1  0.83243336  0.33344849  0.83216983  1
  I  I78  1  0.83256073  0.66425881  0.16921940  1
  I  I79  1  0.82971482  0.66665069  0.49810065  1
  I  I80  1  0.83371912  0.66980773  0.83336399  1
  I  I81  1  0.17433300  0.17250097  -0.00468919  1
  I  I82  1  0.16763971  0.16640767  0.33340100  1
  I  I83  1  0.16689704  0.16757238  0.66919768  1
  I  I84  1  0.16445317  0.49536385  -0.00285131  1
  I  I85  1  0.16836270  0.50496045  0.33732640  1
  I  I86  1  0.16445575  0.50015407  0.66486725  1
  I  I87  1  0.16495625  0.83350088  -0.00021546  1
  I  I88  1  0.15989400  0.82676952  0.33855194  1
  I  I89  1  0.17212283  0.83156649  0.66276937  1
  I  I90  1  0.49763639  0.16316183  -0.00266671  1
  I  I91  1  0.50184288  0.16709900  0.33636079  1
  I  I92  1  0.49779099  0.16356392  0.66556176  1
  I  I93  1  0.50063473  0.50062239  -0.00003254  1
  I  I94  1  0.49453296  0.49522742  0.33791154  1
  I  I95  1  0.50563212  0.50632641  0.66222118  1
  I  I96  1  0.50528650  0.83679579  0.00184550  1
  I  I97  1  0.50329778  0.83562556  0.33634368  1
  I  I98  1  0.49893473  0.83164860  0.66278382  1
  I  I99  1  0.83093972  0.17061298  0.00306240  1
  I  I100  1  0.83037656  0.16524636  0.33084354  1
  I  I101  1  0.83387732  0.16776819  0.66668721  1
  I  I102  1  0.83502540  0.49832976  0.00214379  1
  I  I103  1  0.83474406  0.50275836  0.33545737  1
  I  I104  1  0.83123969  0.50306806  0.66311492  1
  I  I105  1  0.83166980  0.83457306  -0.00157907  1
  I  I106  1  0.83386779  0.83192920  0.33681676  1
  I  I107  1  0.83042611  0.82873747  0.66409752  1
  I  I108  1  -0.00383451  0.16856021  0.16754348  1
  I  I109  1  -0.00000531  0.16564257  0.50053926  1
  I  I110  1  0.00244131  0.16960774  0.83418537  1
  I  I111  1  -0.00365797  0.49807999  0.17306128  1
  I  I112  1  -0.00019735  0.50758567  0.49944801  1
  I  I113  1  0.00310145  0.49348340  0.82651955  1
  I  I114  1  -0.00007407  0.83401314  0.16618408  1
  I  I115  1  -0.00069016  0.82605264  0.50520164  1
  I  I116  1  -0.00312081  0.83548628  0.82927319  1
  I  I117  1  0.33352236  0.16492906  0.16823944  1
  I  I118  1  0.33715320  0.16505591  0.50116886  1
  I  I119  1  0.33358125  0.16807009  0.82779982  1
  I  I120  1  0.33352092  0.50092838  0.16729760  1
  I  I121  1  0.33332807  0.50443495  0.50567811  1
  I  I122  1  0.32960057  0.50122947  0.82706469  1
  I  I123  1  0.33784146  0.83538066  0.17152015  1
  I  I124  1  0.33398770  0.83027373  0.49560700  1
  I  I125  1  0.33318156  0.83279822  0.83352585  1
  I  I126  1  0.66926847  0.16921106  0.16513078  1
  I  I127  1  0.66299043  0.16560056  0.50542040  1
  I  I128  1  0.66425164  0.16355425  0.82992705  1
  I  I129  1  0.67025264  0.49708784  0.17169012  1
  I  I130  1  0.66685429  0.50344202  0.49486295  1
  I  I131  1  0.66676045  0.49931225  0.83311261  1
  I  I132  1  0.66436423  0.83416874  0.17381219  1
  I  I133  1  0.66659093  0.83097015  0.49950893  1
  I  I134  1  0.66948481  0.83480434  0.82789943  1
