# generated using pymatgen
data_Cs27Sn13Pb14I81
_symmetry_space_group_name_H-M   'P 1'
_cell_length_a   18.97058427
_cell_length_b   18.97993700
_cell_length_c   18.97996075
_cell_angle_alpha   90.00003754
_cell_angle_beta   89.99893717
_cell_angle_gamma   90.00229404
_symmetry_Int_Tables_number   1
_chemical_formula_structural   Cs27Sn13Pb14I81
_chemical_formula_sum   'Cs27 Sn13 Pb14 I81'
_cell_volume   6833.93404193
_cell_formula_units_Z   1
loop_
 _symmetry_equiv_pos_site_id
 _symmetry_equiv_pos_as_xyz
  1  'x, y, z'
loop_
 _atom_site_type_symbol
 _atom_site_label
 _atom_site_symmetry_multiplicity
 _atom_site_fract_x
 _atom_site_fract_y
 _atom_site_fract_z
 _atom_site_occupancy
  Cs  Cs0  1  -0.00301502  -0.00215210  -0.00578134  1
  Cs  Cs1  1  -0.00051894  0.00159614  0.33452668  1
  Cs  Cs2  1  0.00056114  0.00065837  0.66835500  1
  Cs  Cs3  1  -0.00070302  0.33598576  0.00155988  1
  Cs  Cs4  1  -0.00072236  0.33081696  0.33019764  1
  Cs  Cs5  1  0.00037305  0.33219834  0.66819229  1
  Cs  Cs6  1  0.00222246  0.66355299  0.00115092  1
  Cs  Cs7  1  -0.00137842  0.66710872  0.33339871  1
  Cs  Cs8  1  0.00056563  0.66667106  0.66578498  1
  Cs  Cs9  1  0.34100857  -0.00033398  0.00254010  1
  Cs  Cs10  1  0.33449843  0.00291345  0.33548729  1
  Cs  Cs11  1  0.33031551  -0.00107369  0.66208187  1
  Cs  Cs12  1  0.33592116  0.33211940  0.00400426  1
  Cs  Cs13  1  0.33123994  0.32925441  0.32991657  1
  Cs  Cs14  1  0.33410432  0.33510854  0.66631564  1
  Cs  Cs15  1  0.33191862  0.66657705  -0.00103353  1
  Cs  Cs16  1  0.33186862  0.66704841  0.33392828  1
  Cs  Cs17  1  0.33338841  0.66612205  0.66662093  1
  Cs  Cs18  1  0.66052758  -0.00405623  -0.00384442  1
  Cs  Cs19  1  0.66571364  -0.00074073  0.33165636  1
  Cs  Cs20  1  0.66892386  0.00154004  0.67223381  1
  Cs  Cs21  1  0.66799668  0.33160228  -0.00018355  1
  Cs  Cs22  1  0.66882486  0.33514041  0.33426342  1
  Cs  Cs23  1  0.66347335  0.33529365  0.66669798  1
  Cs  Cs24  1  0.66372210  0.67183124  0.00165584  1
  Cs  Cs25  1  0.67046245  0.66588070  0.33501469  1
  Cs  Cs26  1  0.66450146  0.66386015  0.66321807  1
  Sn  Sn27  1  0.49972592  0.83392443  0.49995327  1
  Sn  Sn28  1  0.16670047  0.83339612  0.83348601  1
  Sn  Sn29  1  0.83328195  0.16649248  0.16670849  1
  Sn  Sn30  1  0.16602402  0.49957604  0.83254645  1
  Sn  Sn31  1  0.16709799  0.16704435  0.83381252  1
  Sn  Sn32  1  0.16640416  0.50027784  0.50029350  1
  Sn  Sn33  1  0.16637414  0.83382775  0.16690691  1
  Sn  Sn34  1  0.50104209  0.50010660  0.16680761  1
  Sn  Sn35  1  0.83228971  0.49954310  0.16572835  1
  Sn  Sn36  1  0.50124219  0.16604466  0.50009841  1
  Sn  Sn37  1  0.83232829  0.16670918  0.49964866  1
  Sn  Sn38  1  0.16708540  0.83243734  0.49964766  1
  Sn  Sn39  1  0.83364626  0.50027946  0.83388721  1
  Pb  Pb40  1  0.49778653  0.83126985  0.16926528  1
  Pb  Pb41  1  0.49740759  0.16676952  0.83074853  1
  Pb  Pb42  1  0.83473270  0.16861672  0.83359920  1
  Pb  Pb43  1  0.49983422  0.50000806  0.83567909  1
  Pb  Pb44  1  0.16647815  0.16670315  0.50123332  1
  Pb  Pb45  1  0.16615128  0.50119068  0.16658346  1
  Pb  Pb46  1  0.83342866  0.83592647  0.50009841  1
  Pb  Pb47  1  0.83514904  0.83001447  0.83314306  1
  Pb  Pb48  1  0.83571265  0.49797114  0.49998662  1
  Pb  Pb49  1  0.16434624  0.16374530  0.16374349  1
  Pb  Pb50  1  0.49751977  0.83314337  0.83043270  1
  Pb  Pb51  1  0.49751024  0.49989869  0.49795043  1
  Pb  Pb52  1  0.83508163  0.83337040  0.16659664  1
  Pb  Pb53  1  0.50268396  0.16831697  0.16874254  1
  I  I54  1  0.16554142  -0.00394834  0.16964694  1
  I  I55  1  0.16746852  -0.00271368  0.50138648  1
  I  I56  1  0.16629752  -0.00079707  0.83131025  1
  I  I57  1  0.16831769  0.33318424  0.16736777  1
  I  I58  1  0.16660460  0.33555366  0.50499043  1
  I  I59  1  0.16243273  0.33467056  0.82714070  1
  I  I60  1  0.16526600  0.66912486  0.16404627  1
  I  I61  1  0.17137098  0.66752946  0.50417149  1
  I  I62  1  0.16275067  0.66639030  0.83215492  1
  I  I63  1  0.49977796  -0.00008384  0.16618996  1
  I  I64  1  0.49522004  -0.00029700  0.49898865  1
  I  I65  1  0.49885951  -0.00006068  0.83636554  1
  I  I66  1  0.49838748  0.33626628  0.16906518  1
  I  I67  1  0.50185766  0.33087940  0.49896493  1
  I  I68  1  0.49534277  0.33349478  0.83005903  1
  I  I69  1  0.50599233  0.66350622  0.16854466  1
  I  I70  1  0.49513874  0.66900848  0.49883660  1
  I  I71  1  0.49806112  0.66650615  0.83111871  1
  I  I72  1  0.83786346  0.00292455  0.17247591  1
  I  I73  1  0.83566438  0.00394372  0.49418722  1
  I  I74  1  0.83675389  0.00010587  0.83316612  1
  I  I75  1  0.83163004  0.33424210  0.16735208  1
  I  I76  1  0.83007517  0.33020368  0.49882340  1
  I  I77  1  0.84180848  0.33649225  0.83465542  1
  I  I78  1  0.83181055  0.66329366  0.16281581  1
  I  I79  1  0.83212353  0.66639172  0.49957596  1
  I  I80  1  0.83998556  0.66191846  0.83892447  1
  I  I81  1  0.16365599  0.16970450  -0.00395726  1
  I  I82  1  0.16765155  0.16706372  0.33319469  1
  I  I83  1  0.16444516  0.16369266  0.66910498  1
  I  I84  1  0.16529042  0.50168846  -0.00274941  1
  I  I85  1  0.16707748  0.50515656  0.33555040  1
  I  I86  1  0.16223372  0.50410145  0.66750181  1
  I  I87  1  0.16359297  0.83137922  -0.00089903  1
  I  I88  1  0.16966826  0.82756295  0.33466709  1
  I  I89  1  0.17044440  0.83216555  0.66641133  1
  I  I90  1  0.49950508  0.16783466  0.00021968  1
  I  I91  1  0.49841476  0.16347070  0.33675084  1
  I  I92  1  0.50614643  0.16418712  0.66250318  1
  I  I93  1  0.49817832  0.49962052  0.00347391  1
  I  I94  1  0.50441697  0.50039134  0.33046702  1
  I  I95  1  0.50143620  0.50024789  0.66632060  1
  I  I96  1  0.49801324  0.83251088  0.00020827  1
  I  I97  1  0.49185129  0.83687663  0.33693675  1
  I  I98  1  0.49349797  0.83534779  0.66241767  1
  I  I99  1  0.83842898  0.17071139  0.00254986  1
  I  I100  1  0.83192672  0.17288102  0.33336149  1
  I  I101  1  0.83190582  0.16730834  0.66423362  1
  I  I102  1  0.83759661  0.49399099  0.00049421  1
  I  I103  1  0.83191722  0.49786404  0.33069448  1
  I  I104  1  0.83810642  0.49872137  0.66898912  1
  I  I105  1  0.83642777  0.83749548  -0.00006070  1
  I  I106  1  0.83820594  0.82893351  0.33342102  1
  I  I107  1  0.83634638  0.83405074  0.66650337  1
  I  I108  1  -0.00317664  0.17484212  0.17467788  1
  I  I109  1  -0.00211089  0.16769066  0.49767221  1
  I  I110  1  0.00306397  0.16439110  0.82979489  1
  I  I111  1  -0.00255364  0.49764346  0.16544082  1
  I  I112  1  0.00377397  0.50476479  0.49995207  1
  I  I113  1  0.00147704  0.50035406  0.83572369  1
  I  I114  1  0.00365383  0.83029046  0.16926678  1
  I  I115  1  0.00373085  0.83056421  0.50076960  1
  I  I116  1  0.00440602  0.83568048  0.82976842  1
  I  I117  1  0.33325308  0.16852461  0.16743816  1
  I  I118  1  0.33509965  0.16545152  0.50252957  1
  I  I119  1  0.32886935  0.16917545  0.83133393  1
  I  I120  1  0.33469937  0.50271547  0.16781327  1
  I  I121  1  0.32950344  0.50000090  0.50440643  1
  I  I122  1  0.32949800  0.50137108  0.83043538  1
  I  I123  1  0.32956638  0.83027436  0.16388698  1
  I  I124  1  0.33160238  0.83564422  0.50062169  1
  I  I125  1  0.32853715  0.82948550  0.83531086  1
  I  I126  1  0.67068613  0.16903823  0.16822149  1
  I  I127  1  0.66671888  0.16235361  0.49576551  1
  I  I128  1  0.66677863  0.16917023  0.83380159  1
  I  I129  1  0.66816616  0.49601613  0.16272419  1
  I  I130  1  0.66674740  0.50235181  0.50228223  1
  I  I131  1  0.66975348  0.49748369  0.83483175  1
  I  I132  1  0.66646936  0.83373831  0.16914388  1
  I  I133  1  0.66368457  0.83454288  0.49815795  1
  I  I134  1  0.66645787  0.83262389  0.83230874  1
