# generated using pymatgen
data_Cs27Sn13Pb14I81
_symmetry_space_group_name_H-M   'P 1'
_cell_length_a   18.97005044
_cell_length_b   18.98111029
_cell_length_c   18.97712795
_cell_angle_alpha   89.99941964
_cell_angle_beta   90.00294092
_cell_angle_gamma   89.99720188
_symmetry_Int_Tables_number   1
_chemical_formula_structural   Cs27Sn13Pb14I81
_chemical_formula_sum   'Cs27 Sn13 Pb14 I81'
_cell_volume   6833.14415709
_cell_formula_units_Z   1
loop_
 _symmetry_equiv_pos_site_id
 _symmetry_equiv_pos_as_xyz
  1  'x, y, z'
loop_
 _atom_site_type_symbol
 _atom_site_label
 _atom_site_symmetry_multiplicity
 _atom_site_fract_x
 _atom_site_fract_y
 _atom_site_fract_z
 _atom_site_occupancy
  Cs  Cs0  1  -0.00164818  0.00555884  -0.00477074  1
  Cs  Cs1  1  0.00252524  -0.00136784  0.33471622  1
  Cs  Cs2  1  -0.00015441  0.00118767  0.66882946  1
  Cs  Cs3  1  0.00889947  0.33589450  -0.00127422  1
  Cs  Cs4  1  -0.00308292  0.33508959  0.32885528  1
  Cs  Cs5  1  0.00075994  0.33477177  0.67085201  1
  Cs  Cs6  1  0.00263820  0.65983334  0.00080706  1
  Cs  Cs7  1  -0.00134585  0.66679329  0.33316158  1
  Cs  Cs8  1  0.00068739  0.66651488  0.66579473  1
  Cs  Cs9  1  0.33674841  -0.00336453  0.00530875  1
  Cs  Cs10  1  0.32348158  -0.00193948  0.33414248  1
  Cs  Cs11  1  0.32945208  0.00005902  0.66180815  1
  Cs  Cs12  1  0.33071687  0.33400858  -0.00160674  1
  Cs  Cs13  1  0.33855103  0.32745637  0.33648462  1
  Cs  Cs14  1  0.33521614  0.33254037  0.66604283  1
  Cs  Cs15  1  0.33345347  0.66911703  0.00054778  1
  Cs  Cs16  1  0.33232089  0.67275224  0.33393328  1
  Cs  Cs17  1  0.33155971  0.66542462  0.66713774  1
  Cs  Cs18  1  0.66548688  -0.00072442  -0.00189114  1
  Cs  Cs19  1  0.66803297  0.00101572  0.33192582  1
  Cs  Cs20  1  0.66943924  -0.00179080  0.66952718  1
  Cs  Cs21  1  0.66621842  0.33278003  0.00190402  1
  Cs  Cs22  1  0.66605513  0.33310176  0.33290774  1
  Cs  Cs23  1  0.66454253  0.33426809  0.66563628  1
  Cs  Cs24  1  0.66442396  0.66796566  -0.00040946  1
  Cs  Cs25  1  0.66874383  0.66626470  0.33418480  1
  Cs  Cs26  1  0.66658088  0.66664329  0.66639508  1
  Sn  Sn27  1  0.50079206  0.83358709  0.49997871  1
  Sn  Sn28  1  0.83419092  0.49977064  0.50087189  1
  Sn  Sn29  1  0.83242060  0.83358465  0.49942341  1
  Sn  Sn30  1  0.16652084  0.83343294  0.83360232  1
  Sn  Sn31  1  0.83240464  0.50000909  0.83290358  1
  Sn  Sn32  1  0.83310438  0.83416836  0.16683730  1
  Sn  Sn33  1  0.50043262  0.16710679  0.83381549  1
  Sn  Sn34  1  0.50089238  0.49933001  0.83417851  1
  Sn  Sn35  1  0.83298711  0.16671050  0.49960080  1
  Sn  Sn36  1  0.83273180  0.16584776  0.16717244  1
  Sn  Sn37  1  0.16595881  0.49952914  0.49946004  1
  Sn  Sn38  1  0.50084333  0.16735593  0.16593964  1
  Sn  Sn39  1  0.50023685  0.49961636  0.16611720  1
  Pb  Pb40  1  0.16661172  0.16676260  0.16668792  1
  Pb  Pb41  1  0.49852145  0.83332709  0.83123986  1
  Pb  Pb42  1  0.16303302  0.16967847  0.50002013  1
  Pb  Pb43  1  0.50205991  0.16399895  0.49968048  1
  Pb  Pb44  1  0.17061910  0.49989811  0.16988694  1
  Pb  Pb45  1  0.50181901  0.83386252  0.16887320  1
  Pb  Pb46  1  0.83163443  0.16923475  0.83389390  1
  Pb  Pb47  1  0.17032296  0.16416686  0.83338407  1
  Pb  Pb48  1  0.16545434  0.83174333  0.50127732  1
  Pb  Pb49  1  0.50047094  0.50147404  0.49991138  1
  Pb  Pb50  1  0.83487847  0.83096084  0.83355932  1
  Pb  Pb51  1  0.16744840  0.50116897  0.83175669  1
  Pb  Pb52  1  0.83184020  0.49960703  0.16664611  1
  Pb  Pb53  1  0.16280305  0.83331610  0.16395442  1
  I  I54  1  0.17205195  -0.00015476  0.16749519  1
  I  I55  1  0.16762311  0.00000362  0.50140542  1
  I  I56  1  0.16514686  -0.00325177  0.83062487  1
  I  I57  1  0.16044210  0.33356634  0.16570606  1
  I  I58  1  0.16417232  0.33750150  0.50209694  1
  I  I59  1  0.16479856  0.33341759  0.83218196  1
  I  I60  1  0.16667950  0.66656991  0.16646762  1
  I  I61  1  0.16181495  0.66407062  0.50186875  1
  I  I62  1  0.16778963  0.66865913  0.83102229  1
  I  I63  1  0.50351747  0.00299872  0.16202967  1
  I  I64  1  0.50551660  -0.00345355  0.50140217  1
  I  I65  1  0.49912103  0.00254618  0.83709073  1
  I  I66  1  0.50649118  0.33286946  0.16427332  1
  I  I67  1  0.50003176  0.33312816  0.50010969  1
  I  I68  1  0.50400296  0.33434234  0.83575511  1
  I  I69  1  0.50206004  0.66447012  0.16362150  1
  I  I70  1  0.50552026  0.66907086  0.50028653  1
  I  I71  1  0.50243521  0.66366521  0.83579452  1
  I  I72  1  0.82739169  0.00062228  0.17470286  1
  I  I73  1  0.82752431  -0.00043176  0.49553851  1
  I  I74  1  0.83332641  0.00012232  0.83081293  1
  I  I75  1  0.82961284  0.33069843  0.17115911  1
  I  I76  1  0.83716507  0.33378316  0.49944283  1
  I  I77  1  0.83175614  0.33709483  0.82829343  1
  I  I78  1  0.83150221  0.66844761  0.17031259  1
  I  I79  1  0.83305280  0.66661160  0.49976843  1
  I  I80  1  0.82785518  0.66310402  0.82909985  1
  I  I81  1  0.16044325  0.16734567  -0.00011519  1
  I  I82  1  0.17268341  0.16585294  0.33358890  1
  I  I83  1  0.16724383  0.16596403  0.66658988  1
  I  I84  1  0.16331855  0.50145538  -0.00001442  1
  I  I85  1  0.15856144  0.50248471  0.33742260  1
  I  I86  1  0.16579457  0.50235461  0.66397402  1
  I  I87  1  0.16855001  0.83087325  -0.00333977  1
  I  I88  1  0.16911797  0.83210211  0.33337413  1
  I  I89  1  0.16595881  0.83124751  0.66873040  1
  I  I90  1  0.50621166  0.16988626  0.00068244  1
  I  I91  1  0.50346598  0.17201844  0.33043796  1
  I  I92  1  0.50129324  0.17090245  0.66887300  1
  I  I93  1  0.50635658  0.49753261  -0.00089618  1
  I  I94  1  0.50091682  0.49641576  0.33110020  1
  I  I95  1  0.50119608  0.49738211  0.66913512  1
  I  I96  1  0.50002665  0.83272047  0.00013228  1
  I  I97  1  0.50212389  0.83084515  0.33661341  1
  I  I98  1  0.50651184  0.83204738  0.66355736  1
  I  I99  1  0.83002341  0.16172426  0.00298029  1
  I  I100  1  0.82718628  0.16836594  0.33342106  1
  I  I101  1  0.83159062  0.16423441  0.66410837  1
  I  I102  1  0.83027878  0.50151449  -0.00230516  1
  I  I103  1  0.83501785  0.50072654  0.33613861  1
  I  I104  1  0.83118494  0.50075431  0.66555391  1
  I  I105  1  0.83414038  0.83701584  0.00263448  1
  I  I106  1  0.82937674  0.83109877  0.33473710  1
  I  I107  1  0.83116205  0.83481650  0.66362770  1
  I  I108  1  -0.00395126  0.16229077  0.17190853  1
  I  I109  1  -0.00534918  0.16066544  0.49492056  1
  I  I110  1  -0.00023517  0.16754020  0.83336209  1
  I  I111  1  -0.00019444  0.50012906  0.16388901  1
  I  I112  1  -0.00264728  0.50251441  0.50578571  1
  I  I113  1  -0.00245639  0.50229591  0.83062857  1
  I  I114  1  -0.00515749  0.83733241  0.17472861  1
  I  I115  1  -0.00385066  0.83398760  0.49748610  1
  I  I116  1  0.00220954  0.83040536  0.83081999  1
  I  I117  1  0.33721794  0.17138570  0.16234327  1
  I  I118  1  0.33355849  0.16599661  0.49988632  1
  I  I119  1  0.33834632  0.17396745  0.83800706  1
  I  I120  1  0.33858004  0.49500045  0.16116326  1
  I  I121  1  0.33189890  0.50427394  0.50042140  1
  I  I122  1  0.33675605  0.49790280  0.83476169  1
  I  I123  1  0.33346419  0.83327281  0.16883512  1
  I  I124  1  0.33511533  0.83055014  0.50194783  1
  I  I125  1  0.33114114  0.83088744  0.82958559  1
  I  I126  1  0.66683841  0.16714858  0.16730935  1
  I  I127  1  0.67024554  0.17211594  0.49856011  1
  I  I128  1  0.66364083  0.16758228  0.83421041  1
  I  I129  1  0.66396499  0.49884362  0.16757939  1
  I  I130  1  0.66975743  0.49957842  0.50123936  1
  I  I131  1  0.66622551  0.49832566  0.82991029  1
  I  I132  1  0.66988906  0.83390874  0.16846437  1
  I  I133  1  0.66873227  0.82979685  0.49820270  1
  I  I134  1  0.66678590  0.83344414  0.83331421  1
