# generated using pymatgen
data_Cs27Sn13Pb14I81
_symmetry_space_group_name_H-M   'P 1'
_cell_length_a   18.97732925
_cell_length_b   18.97618038
_cell_length_c   18.97745675
_cell_angle_alpha   90.00076899
_cell_angle_beta   89.99815737
_cell_angle_gamma   90.00030846
_symmetry_Int_Tables_number   1
_chemical_formula_structural   Cs27Sn13Pb14I81
_chemical_formula_sum   'Cs27 Sn13 Pb14 I81'
_cell_volume   6834.10902215
_cell_formula_units_Z   1
loop_
 _symmetry_equiv_pos_site_id
 _symmetry_equiv_pos_as_xyz
  1  'x, y, z'
loop_
 _atom_site_type_symbol
 _atom_site_label
 _atom_site_symmetry_multiplicity
 _atom_site_fract_x
 _atom_site_fract_y
 _atom_site_fract_z
 _atom_site_occupancy
  Cs  Cs0  1  -0.00059449  -0.00427452  0.00204926  1
  Cs  Cs1  1  0.00535560  -0.00104949  0.33347270  1
  Cs  Cs2  1  -0.00093994  -0.00006122  0.66488367  1
  Cs  Cs3  1  -0.00024610  0.33343013  -0.00195716  1
  Cs  Cs4  1  -0.00068208  0.33299193  0.33403999  1
  Cs  Cs5  1  -0.00226408  0.33449680  0.67066282  1
  Cs  Cs6  1  0.00115585  0.67093449  -0.00243921  1
  Cs  Cs7  1  -0.00074511  0.66704037  0.33329584  1
  Cs  Cs8  1  0.00294337  0.66642780  0.67050714  1
  Cs  Cs9  1  0.33522471  -0.00066134  0.00037205  1
  Cs  Cs10  1  0.32340938  -0.00008440  0.33928620  1
  Cs  Cs11  1  0.34184808  -0.00456357  0.65877038  1
  Cs  Cs12  1  0.33381056  0.33558381  0.00073141  1
  Cs  Cs13  1  0.33165786  0.33182152  0.33335596  1
  Cs  Cs14  1  0.33449061  0.33015120  0.66751876  1
  Cs  Cs15  1  0.33167429  0.66285446  -0.00214795  1
  Cs  Cs16  1  0.33514488  0.66697754  0.33483628  1
  Cs  Cs17  1  0.33001014  0.67473282  0.66705855  1
  Cs  Cs18  1  0.66680958  -0.00081138  -0.00172047  1
  Cs  Cs19  1  0.66916479  0.00001742  0.33145744  1
  Cs  Cs20  1  0.66168257  -0.00037237  0.66918358  1
  Cs  Cs21  1  0.66668395  0.33264493  0.00133489  1
  Cs  Cs22  1  0.66773355  0.33585694  0.33219205  1
  Cs  Cs23  1  0.66759501  0.33277230  0.66504817  1
  Cs  Cs24  1  0.66722077  0.66727042  0.00251757  1
  Cs  Cs25  1  0.66627309  0.66360646  0.33321614  1
  Cs  Cs26  1  0.66547428  0.66753759  0.66202007  1
  Sn  Sn27  1  0.83206718  0.49947801  0.83434119  1
  Sn  Sn28  1  0.83294624  0.16722001  0.16652304  1
  Sn  Sn29  1  0.50029057  0.16645734  0.16692591  1
  Sn  Sn30  1  0.16645254  0.16632039  0.83330923  1
  Sn  Sn31  1  0.50112801  0.49984151  0.83362332  1
  Sn  Sn32  1  0.16623194  0.49968401  0.16756960  1
  Sn  Sn33  1  0.83323898  0.16574491  0.49987535  1
  Sn  Sn34  1  0.83429897  0.16726921  0.83372110  1
  Sn  Sn35  1  0.49986781  0.83365215  0.16680815  1
  Sn  Sn36  1  0.16656834  0.49952856  0.49968288  1
  Sn  Sn37  1  0.83320931  0.83425512  0.49986137  1
  Sn  Sn38  1  0.50002111  0.49972795  0.16603358  1
  Sn  Sn39  1  0.83386175  0.49939197  0.16566458  1
  Pb  Pb40  1  0.83476730  0.49960466  0.50025753  1
  Pb  Pb41  1  0.50031710  0.83020939  0.83573677  1
  Pb  Pb42  1  0.50252940  0.16697708  0.49682174  1
  Pb  Pb43  1  0.50241015  0.83333901  0.49711405  1
  Pb  Pb44  1  0.16422740  0.16871748  0.50263232  1
  Pb  Pb45  1  0.16673428  0.83760230  0.83336526  1
  Pb  Pb46  1  0.16409698  0.83092154  0.49993764  1
  Pb  Pb47  1  0.16957458  0.83036872  0.16648080  1
  Pb  Pb48  1  0.49743712  0.49992225  0.50023823  1
  Pb  Pb49  1  0.83322267  0.83334367  0.83117888  1
  Pb  Pb50  1  0.16622707  0.16853575  0.16497163  1
  Pb  Pb51  1  0.16668667  0.49888206  0.83354363  1
  Pb  Pb52  1  0.50049019  0.16843063  0.83534095  1
  Pb  Pb53  1  0.83193112  0.83335721  0.16817142  1
  I  I54  1  0.16691295  0.00024366  0.16514476  1
  I  I55  1  0.16718044  0.00025536  0.50107512  1
  I  I56  1  0.15744919  0.00532564  0.83561188  1
  I  I57  1  0.17048622  0.33683148  0.16925634  1
  I  I58  1  0.16410635  0.33632626  0.49481051  1
  I  I59  1  0.16335212  0.33131911  0.83391446  1
  I  I60  1  0.16473204  0.66161988  0.16883618  1
  I  I61  1  0.16424522  0.66293161  0.49648699  1
  I  I62  1  0.16664198  0.66633493  0.83284087  1
  I  I63  1  0.50792383  0.00106035  0.16634503  1
  I  I64  1  0.49800768  0.00024384  0.49937905  1
  I  I65  1  0.50001852  0.00019692  0.83570541  1
  I  I66  1  0.50155333  0.33438469  0.16299612  1
  I  I67  1  0.50254822  0.33349024  0.49741513  1
  I  I68  1  0.50123738  0.33654480  0.84032925  1
  I  I69  1  0.50053497  0.66478462  0.16338953  1
  I  I70  1  0.50361294  0.66643460  0.49739506  1
  I  I71  1  0.50502302  0.66175336  0.83933552  1
  I  I72  1  0.82814571  0.00340134  0.16409665  1
  I  I73  1  0.83323261  0.00165279  0.49903354  1
  I  I74  1  0.83778155  0.00376437  0.83670726  1
  I  I75  1  0.82903023  0.33366698  0.16830767  1
  I  I76  1  0.83501841  0.33068713  0.49958408  1
  I  I77  1  0.83361721  0.33336510  0.83234370  1
  I  I78  1  0.83226415  0.66311768  0.16484349  1
  I  I79  1  0.83481183  0.66811664  0.49871064  1
  I  I80  1  0.83025704  0.66301878  0.83696742  1
  I  I81  1  0.16061404  0.17136869  -0.00262151  1
  I  I82  1  0.16652840  0.16675747  0.33327253  1
  I  I83  1  0.16016636  0.17227968  0.67019569  1
  I  I84  1  0.16777716  0.49804268  0.00276356  1
  I  I85  1  0.16584596  0.49903260  0.33160765  1
  I  I86  1  0.16416369  0.49790542  0.66498899  1
  I  I87  1  0.16495563  0.82948774  0.00019744  1
  I  I88  1  0.16670538  0.83554172  0.33314594  1
  I  I89  1  0.16593735  0.82766568  0.66650703  1
  I  I90  1  0.50565758  0.16641415  0.00370186  1
  I  I91  1  0.50502625  0.17167449  0.32827609  1
  I  I92  1  0.50035653  0.16914555  0.66686797  1
  I  I93  1  0.49874827  0.49978346  0.00183932  1
  I  I94  1  0.50354263  0.50020388  0.32940556  1
  I  I95  1  0.50482908  0.49812156  0.66988884  1
  I  I96  1  0.50289051  0.83501458  0.00386101  1
  I  I97  1  0.50185461  0.82826913  0.32921140  1
  I  I98  1  0.49985285  0.83166560  0.66653510  1
  I  I99  1  0.83296644  0.17275911  0.00046106  1
  I  I100  1  0.82787147  0.16832293  0.33214830  1
  I  I101  1  0.83891544  0.16843143  0.66743261  1
  I  I102  1  0.83391106  0.49291835  0.00101734  1
  I  I103  1  0.83085858  0.49741547  0.33021592  1
  I  I104  1  0.83125185  0.49676394  0.66957329  1
  I  I105  1  0.83209667  0.83478078  0.00014901  1
  I  I106  1  0.83160182  0.83620115  0.33594251  1
  I  I107  1  0.83386199  0.83574052  0.66330300  1
  I  I108  1  -0.00360748  0.17201763  0.16824326  1
  I  I109  1  -0.00408601  0.16424325  0.49416868  1
  I  I110  1  -0.00254179  0.17451857  0.83471129  1
  I  I111  1  -0.00136005  0.49433704  0.16712019  1
  I  I112  1  0.00228043  0.49950707  0.49530782  1
  I  I113  1  -0.00295155  0.49723892  0.83573979  1
  I  I114  1  -0.00002439  0.83287071  0.16814572  1
  I  I115  1  -0.00360608  0.83780265  0.49760464  1
  I  I116  1  -0.00030495  0.82675947  0.83391350  1
  I  I117  1  0.33592259  0.16923308  0.16307654  1
  I  I118  1  0.33311628  0.16791886  0.50061524  1
  I  I119  1  0.33159475  0.17130997  0.83706632  1
  I  I120  1  0.33445298  0.49989741  0.16591093  1
  I  I121  1  0.32975842  0.49941650  0.49519043  1
  I  I122  1  0.33553627  0.49758506  0.83830512  1
  I  I123  1  0.33774842  0.83422379  0.16634057  1
  I  I124  1  0.33329868  0.83195931  0.49969286  1
  I  I125  1  0.33357422  0.83159515  0.83372783  1
  I  I126  1  0.66785175  0.17166466  0.16557583  1
  I  I127  1  0.67112211  0.16548612  0.50508459  1
  I  I128  1  0.67019959  0.16902707  0.83186802  1
  I  I129  1  0.66691984  0.49935166  0.16267332  1
  I  I130  1  0.66696914  0.50034590  0.49789667  1
  I  I131  1  0.66783207  0.49461803  0.84117580  1
  I  I132  1  0.66407418  0.82802055  0.16813200  1
  I  I133  1  0.67018798  0.83531780  0.50019764  1
  I  I134  1  0.66680396  0.83710034  0.83248995  1
