# generated using pymatgen
data_Cs27Sn13Pb14I81
_symmetry_space_group_name_H-M   'P 1'
_cell_length_a   18.97870791
_cell_length_b   18.99682766
_cell_length_c   19.00194908
_cell_angle_alpha   90.00156180
_cell_angle_beta   89.99930334
_cell_angle_gamma   90.00080296
_symmetry_Int_Tables_number   1
_chemical_formula_structural   Cs27Sn13Pb14I81
_chemical_formula_sum   'Cs27 Sn13 Pb14 I81'
_cell_volume   6850.87233143
_cell_formula_units_Z   1
loop_
 _symmetry_equiv_pos_site_id
 _symmetry_equiv_pos_as_xyz
  1  'x, y, z'
loop_
 _atom_site_type_symbol
 _atom_site_label
 _atom_site_symmetry_multiplicity
 _atom_site_fract_x
 _atom_site_fract_y
 _atom_site_fract_z
 _atom_site_occupancy
  Cs  Cs0  1  -0.00160205  -0.00161352  -0.00188043  1
  Cs  Cs1  1  0.00131838  -0.00294533  0.33259920  1
  Cs  Cs2  1  -0.00125422  -0.00112647  0.66938683  1
  Cs  Cs3  1  0.00135651  0.33764137  0.00085537  1
  Cs  Cs4  1  -0.00150401  0.33423329  0.33327694  1
  Cs  Cs5  1  -0.00151235  0.33383531  0.66648941  1
  Cs  Cs6  1  -0.00013227  0.66552316  0.00115810  1
  Cs  Cs7  1  0.00109001  0.66788755  0.33098518  1
  Cs  Cs8  1  0.00041342  0.66668310  0.66813856  1
  Cs  Cs9  1  0.33716326  0.00396475  -0.00080570  1
  Cs  Cs10  1  0.33240347  -0.00070337  0.33551352  1
  Cs  Cs11  1  0.33249424  0.00258885  0.66377194  1
  Cs  Cs12  1  0.33774245  0.33236938  -0.00280190  1
  Cs  Cs13  1  0.33172611  0.33169967  0.33353754  1
  Cs  Cs14  1  0.33262906  0.33075372  0.66882321  1
  Cs  Cs15  1  0.33459430  0.66472324  0.00161769  1
  Cs  Cs16  1  0.33405548  0.66875504  0.33324707  1
  Cs  Cs17  1  0.33542393  0.66670546  0.66557515  1
  Cs  Cs18  1  0.66140669  0.00710622  -0.00741746  1
  Cs  Cs19  1  0.66593938  0.00293100  0.32983096  1
  Cs  Cs20  1  0.67018376  -0.00327712  0.67672745  1
  Cs  Cs21  1  0.65703659  0.32758073  0.00253792  1
  Cs  Cs22  1  0.66915376  0.33075575  0.33541680  1
  Cs  Cs23  1  0.66829452  0.33617402  0.66097582  1
  Cs  Cs24  1  0.66426330  0.66820227  -0.00312487  1
  Cs  Cs25  1  0.66138820  0.66567836  0.33580253  1
  Cs  Cs26  1  0.65828044  0.66687548  0.66704709  1
  Sn  Sn27  1  0.16600081  0.16659488  0.16729163  1
  Sn  Sn28  1  0.16595217  0.50117049  0.83344438  1
  Sn  Sn29  1  0.16662127  0.16663130  0.49901712  1
  Sn  Sn30  1  0.16625214  0.50020324  0.49987333  1
  Sn  Sn31  1  0.16650553  0.83239225  0.83361052  1
  Sn  Sn32  1  0.83416954  0.49998837  0.83461387  1
  Sn  Sn33  1  0.16583126  0.83316087  0.50019421  1
  Sn  Sn34  1  0.16643358  0.49996532  0.16671031  1
  Sn  Sn35  1  0.49965430  0.16619912  0.50011471  1
  Sn  Sn36  1  0.83398186  0.50104197  0.16575126  1
  Sn  Sn37  1  0.16637621  0.83347864  0.16619829  1
  Sn  Sn38  1  0.83383331  0.83254053  0.16715203  1
  Sn  Sn39  1  0.83414167  0.83298514  0.49903696  1
  Pb  Pb40  1  0.83429096  0.16356613  0.49991797  1
  Pb  Pb41  1  0.49702963  0.16659316  0.16914075  1
  Pb  Pb42  1  0.83543191  0.50260548  0.49949278  1
  Pb  Pb43  1  0.50025020  0.83564938  0.49983775  1
  Pb  Pb44  1  0.50067348  0.50018578  0.16691199  1
  Pb  Pb45  1  0.83579320  0.16654682  0.16656052  1
  Pb  Pb46  1  0.49638209  0.83316946  0.83335949  1
  Pb  Pb47  1  0.49696191  0.49764814  0.49974461  1
  Pb  Pb48  1  0.16626875  0.16696532  0.83335828  1
  Pb  Pb49  1  0.49981512  0.16689113  0.82979044  1
  Pb  Pb50  1  0.50001741  0.50005628  0.83331676  1
  Pb  Pb51  1  0.83388810  0.17054999  0.83361869  1
  Pb  Pb52  1  0.50080534  0.83332658  0.16673127  1
  Pb  Pb53  1  0.83527253  0.83120619  0.83407688  1
  I  I54  1  0.16365450  -0.00095162  0.17029939  1
  I  I55  1  0.16783491  -0.00059606  0.49728830  1
  I  I56  1  0.16705365  -0.00302579  0.83278157  1
  I  I57  1  0.16314560  0.33428130  0.17016964  1
  I  I58  1  0.17157006  0.33354003  0.49747319  1
  I  I59  1  0.16346767  0.33689194  0.83282835  1
  I  I60  1  0.16356552  0.66665008  0.16892406  1
  I  I61  1  0.16186010  0.66707874  0.49837474  1
  I  I62  1  0.16300918  0.66604452  0.83232255  1
  I  I63  1  0.49914613  0.00006136  0.16755129  1
  I  I64  1  0.48980304  0.00290500  0.49864540  1
  I  I65  1  0.49926615  0.00004809  0.83377013  1
  I  I66  1  0.49961905  0.33330695  0.16713209  1
  I  I67  1  0.49354783  0.32993178  0.49977647  1
  I  I68  1  0.49670790  0.33349925  0.83366435  1
  I  I69  1  0.49309504  0.66670857  0.16795817  1
  I  I70  1  0.49911866  0.66685070  0.50116338  1
  I  I71  1  0.50091734  0.66652672  0.83105434  1
  I  I72  1  0.83936305  -0.00359675  0.17318882  1
  I  I73  1  0.84053329  -0.00425249  0.49364112  1
  I  I74  1  0.83396426  -0.00050196  0.83251033  1
  I  I75  1  0.83895876  0.33676620  0.16296566  1
  I  I76  1  0.83338815  0.33348335  0.50070744  1
  I  I77  1  0.84335949  0.33882971  0.83766664  1
  I  I78  1  0.84394355  0.66665731  0.16703673  1
  I  I79  1  0.84125881  0.67018410  0.49877044  1
  I  I80  1  0.83835864  0.66350834  0.83450699  1
  I  I81  1  0.16471523  0.16627632  0.00316594  1
  I  I82  1  0.17043782  0.16703446  0.33385973  1
  I  I83  1  0.17123279  0.16657632  0.66336997  1
  I  I84  1  0.16292936  0.50250583  0.00053669  1
  I  I85  1  0.16379242  0.50102538  0.33290183  1
  I  I86  1  0.16344604  0.50229589  0.66672551  1
  I  I87  1  0.16278588  0.83098045  0.00098262  1
  I  I88  1  0.16387383  0.83190391  0.33333642  1
  I  I89  1  0.16329540  0.83125961  0.66571965  1
  I  I90  1  0.49935140  0.16676635  0.00001211  1
  I  I91  1  0.49616959  0.16633640  0.33659339  1
  I  I92  1  0.48857895  0.16672117  0.66236209  1
  I  I93  1  0.49389610  0.49833744  0.00006922  1
  I  I94  1  0.49964100  0.49982882  0.33344350  1
  I  I95  1  0.50045825  0.49897801  0.66651799  1
  I  I96  1  0.49971701  0.83445403  0.00001004  1
  I  I97  1  0.49446196  0.83352585  0.33340749  1
  I  I98  1  0.50081308  0.83430026  0.66648523  1
  I  I99  1  0.83604473  0.16021979  0.00018040  1
  I  I100  1  0.83107295  0.17258479  0.33336919  1
  I  I101  1  0.83547305  0.16593311  0.66645297  1
  I  I102  1  0.84523997  0.50637915  0.00110159  1
  I  I103  1  0.83883590  0.50099279  0.33025096  1
  I  I104  1  0.83914341  0.49997678  0.66867506  1
  I  I105  1  0.84003812  0.83075725  0.00326625  1
  I  I106  1  0.84358651  0.82832663  0.33265578  1
  I  I107  1  0.83880739  0.83427721  0.66449976  1
  I  I108  1  0.00429087  0.16710422  0.17497941  1
  I  I109  1  0.00411274  0.16896174  0.49623744  1
  I  I110  1  0.00069214  0.16383839  0.82887861  1
  I  I111  1  0.00204042  0.50041724  0.16616719  1
  I  I112  1  0.00425469  0.49429872  0.50031949  1
  I  I113  1  0.00211344  0.50360085  0.83417465  1
  I  I114  1  0.00201878  0.83251311  0.16854595  1
  I  I115  1  0.00262071  0.83558091  0.49892987  1
  I  I116  1  0.00376854  0.83200280  0.83199197  1
  I  I117  1  0.32824456  0.16666332  0.16776310  1
  I  I118  1  0.33018675  0.16506112  0.49594761  1
  I  I119  1  0.33261956  0.16844564  0.83642229  1
  I  I120  1  0.32876763  0.50076384  0.16612206  1
  I  I121  1  0.32767938  0.50607546  0.49967555  1
  I  I122  1  0.32913287  0.50321063  0.83378027  1
  I  I123  1  0.32874256  0.83222221  0.16812142  1
  I  I124  1  0.32920579  0.83123781  0.49935522  1
  I  I125  1  0.32750904  0.82650096  0.83264100  1
  I  I126  1  0.66670910  0.16728614  0.16816979  1
  I  I127  1  0.66430700  0.16625625  0.50077834  1
  I  I128  1  0.66664161  0.16655148  0.83199379  1
  I  I129  1  0.67076622  0.50595196  0.16147777  1
  I  I130  1  0.66700733  0.49946049  0.50083444  1
  I  I131  1  0.67014993  0.50006971  0.83839612  1
  I  I132  1  0.67089249  0.82642171  0.17390534  1
  I  I133  1  0.67004315  0.83393421  0.49432808  1
  I  I134  1  0.66714756  0.83187187  0.83178960  1
