# generated using pymatgen
data_Cs27Sn13Pb14I81
_symmetry_space_group_name_H-M   'P 1'
_cell_length_a   18.98227482
_cell_length_b   18.96719557
_cell_length_c   18.97858956
_cell_angle_alpha   90.00096188
_cell_angle_beta   89.99774155
_cell_angle_gamma   89.99935905
_symmetry_Int_Tables_number   1
_chemical_formula_structural   Cs27Sn13Pb14I81
_chemical_formula_sum   'Cs27 Sn13 Pb14 I81'
_cell_volume   6833.06122357
_cell_formula_units_Z   1
loop_
 _symmetry_equiv_pos_site_id
 _symmetry_equiv_pos_as_xyz
  1  'x, y, z'
loop_
 _atom_site_type_symbol
 _atom_site_label
 _atom_site_symmetry_multiplicity
 _atom_site_fract_x
 _atom_site_fract_y
 _atom_site_fract_z
 _atom_site_occupancy
  Cs  Cs0  1  0.00161672  -0.00370059  -0.00061376  1
  Cs  Cs1  1  -0.00331946  0.00741676  0.33551565  1
  Cs  Cs2  1  0.00245419  -0.00213010  0.66520003  1
  Cs  Cs3  1  -0.00409815  0.33483349  0.00080470  1
  Cs  Cs4  1  -0.00054825  0.32965244  0.33340150  1
  Cs  Cs5  1  0.00185623  0.33479740  0.66593339  1
  Cs  Cs6  1  0.00101405  0.66866861  0.00092096  1
  Cs  Cs7  1  0.00256837  0.66554770  0.33225884  1
  Cs  Cs8  1  -0.00080868  0.66495924  0.66674388  1
  Cs  Cs9  1  0.33198688  -0.00352348  -0.00623425  1
  Cs  Cs10  1  0.33448905  -0.00000390  0.33266345  1
  Cs  Cs11  1  0.33306106  0.00249904  0.67518724  1
  Cs  Cs12  1  0.33506200  0.33265441  0.00140140  1
  Cs  Cs13  1  0.33449351  0.33340667  0.33257034  1
  Cs  Cs14  1  0.33372597  0.33203963  0.66647202  1
  Cs  Cs15  1  0.33054895  0.67215886  0.01129123  1
  Cs  Cs16  1  0.33280449  0.66922048  0.32833462  1
  Cs  Cs17  1  0.33235000  0.66463132  0.66329074  1
  Cs  Cs18  1  0.66547058  0.00107263  -0.00352116  1
  Cs  Cs19  1  0.66874192  0.00084656  0.33588694  1
  Cs  Cs20  1  0.66534998  -0.01210121  0.66731190  1
  Cs  Cs21  1  0.66797826  0.33344805  -0.00084313  1
  Cs  Cs22  1  0.66593892  0.33175047  0.33229325  1
  Cs  Cs23  1  0.66429694  0.33598301  0.66940924  1
  Cs  Cs24  1  0.66715523  0.66727442  0.00149456  1
  Cs  Cs25  1  0.66418696  0.66835440  0.33381787  1
  Cs  Cs26  1  0.66758197  0.66773642  0.66554040  1
  Sn  Sn27  1  0.83324557  0.50080974  0.16692095  1
  Sn  Sn28  1  0.49906402  0.16696528  0.16700111  1
  Sn  Sn29  1  0.49948212  0.50008680  0.83323150  1
  Sn  Sn30  1  0.83316487  0.83277010  0.16704928  1
  Sn  Sn31  1  0.83332577  0.49923721  0.83325364  1
  Sn  Sn32  1  0.50031092  0.16717212  0.49977613  1
  Sn  Sn33  1  0.16690766  0.50059098  0.50037462  1
  Sn  Sn34  1  0.83320727  0.49958086  0.49973909  1
  Sn  Sn35  1  0.16714527  0.49981819  0.83332379  1
  Sn  Sn36  1  0.16767673  0.16694561  0.16633834  1
  Sn  Sn37  1  0.49986775  0.49931339  0.50040557  1
  Sn  Sn38  1  0.83337895  0.16706550  0.83239956  1
  Sn  Sn39  1  0.16686234  0.83310037  0.50006669  1
  Pb  Pb40  1  0.16443619  0.16918657  0.83544783  1
  Pb  Pb41  1  0.83282769  0.16674590  0.16510016  1
  Pb  Pb42  1  0.83545094  0.83072198  0.49795078  1
  Pb  Pb43  1  0.16451274  0.49844670  0.16701660  1
  Pb  Pb44  1  0.50228119  0.49860054  0.16688297  1
  Pb  Pb45  1  0.16657568  0.83014820  0.83095352  1
  Pb  Pb46  1  0.49975242  0.82909911  0.83338247  1
  Pb  Pb47  1  0.49752248  0.83296578  0.50000839  1
  Pb  Pb48  1  0.16453829  0.83632159  0.16911929  1
  Pb  Pb49  1  0.83062275  0.16864773  0.50310487  1
  Pb  Pb50  1  0.50189477  0.16839526  0.83293450  1
  Pb  Pb51  1  0.50238777  0.83683250  0.16684357  1
  Pb  Pb52  1  0.83345407  0.83244595  0.83507765  1
  Pb  Pb53  1  0.16879410  0.16729010  0.49891225  1
  I  I54  1  0.16733303  0.00381729  0.16882510  1
  I  I55  1  0.16704964  -0.00189637  0.49553602  1
  I  I56  1  0.16413359  0.00013982  0.83257793  1
  I  I57  1  0.16713381  0.33085034  0.16887463  1
  I  I58  1  0.16475406  0.33700816  0.50263263  1
  I  I59  1  0.16724392  0.33752633  0.82610370  1
  I  I60  1  0.16643380  0.66650206  0.16477806  1
  I  I61  1  0.16724713  0.66388102  0.50343343  1
  I  I62  1  0.16259497  0.66160642  0.83281452  1
  I  I63  1  0.49924084  0.00484714  0.17348929  1
  I  I64  1  0.49936037  0.00293666  0.49441364  1
  I  I65  1  0.50326421  0.00021075  0.83282581  1
  I  I66  1  0.49963104  0.33072222  0.16830592  1
  I  I67  1  0.49822070  0.33516429  0.49955658  1
  I  I68  1  0.49981534  0.33697180  0.83160649  1
  I  I69  1  0.49978578  0.66654283  0.16625936  1
  I  I70  1  0.50296205  0.66264510  0.50510435  1
  I  I71  1  0.50505543  0.66068359  0.82596254  1
  I  I72  1  0.83396843  -0.00188417  0.16452441  1
  I  I73  1  0.83390893  0.00009574  0.49907618  1
  I  I74  1  0.83207226  0.00245428  0.83751602  1
  I  I75  1  0.83352307  0.33612741  0.16722586  1
  I  I76  1  0.83857255  0.33757202  0.49491607  1
  I  I77  1  0.83315933  0.33618100  0.83677253  1
  I  I78  1  0.83410993  0.66454344  0.16458628  1
  I  I79  1  0.82867250  0.66182227  0.50515114  1
  I  I80  1  0.83318279  0.66223284  0.83133626  1
  I  I81  1  0.17176523  0.16885062  0.00326892  1
  I  I82  1  0.16594636  0.16937469  0.33088637  1
  I  I83  1  0.16704694  0.16491706  0.66674972  1
  I  I84  1  0.16540106  0.49629851  -0.00248560  1
  I  I85  1  0.16649642  0.50204763  0.33653410  1
  I  I86  1  0.16229257  0.50270004  0.66598905  1
  I  I87  1  0.16559103  0.83272906  0.00023868  1
  I  I88  1  0.16652146  0.82375709  0.33646975  1
  I  I89  1  0.16556610  0.83218726  0.66303979  1
  I  I90  1  0.49930341  0.16897648  0.00219597  1
  I  I91  1  0.49751127  0.17368516  0.33368035  1
  I  I92  1  0.50081620  0.17109774  0.66397760  1
  I  I93  1  0.50178502  0.49721894  -0.00251203  1
  I  I94  1  0.50028057  0.49758306  0.33641379  1
  I  I95  1  0.50384400  0.49426976  0.66575572  1
  I  I96  1  0.50004443  0.83337649  0.00023092  1
  I  I97  1  0.50023620  0.82839785  0.33342395  1
  I  I98  1  0.50124848  0.83870605  0.66646741  1
  I  I99  1  0.83156269  0.17432327  -0.00233053  1
  I  I100  1  0.83453135  0.16784607  0.33355051  1
  I  I101  1  0.83335643  0.17466926  0.67045932  1
  I  I102  1  0.83329609  0.49897911  -0.00070949  1
  I  I103  1  0.83365197  0.50399818  0.33377069  1
  I  I104  1  0.83354568  0.49501674  0.66678196  1
  I  I105  1  0.83444382  0.82755974  0.00294667  1
  I  I106  1  0.83395064  0.82904729  0.33021547  1
  I  I107  1  0.83371503  0.83364084  0.66642748  1
  I  I108  1  0.00136701  0.16768483  0.16568649  1
  I  I109  1  -0.00012296  0.16769877  0.49763537  1
  I  I110  1  -0.00326124  0.17420609  0.83632691  1
  I  I111  1  -0.00360575  0.49977480  0.16623368  1
  I  I112  1  -0.00004072  0.50440369  0.50266414  1
  I  I113  1  -0.00069693  0.49628969  0.83048537  1
  I  I114  1  -0.00304990  0.82990517  0.16629272  1
  I  I115  1  0.00312640  0.82763651  0.49951369  1
  I  I116  1  -0.00003627  0.83196730  0.83396406  1
  I  I117  1  0.33390953  0.16963888  0.17107421  1
  I  I118  1  0.33659048  0.17349430  0.49816614  1
  I  I119  1  0.33348131  0.16847055  0.83281292  1
  I  I120  1  0.33338659  0.49942724  0.16580641  1
  I  I121  1  0.33339421  0.49918199  0.50741579  1
  I  I122  1  0.33338728  0.49906660  0.82409378  1
  I  I123  1  0.33311085  0.83191930  0.16750924  1
  I  I124  1  0.33001878  0.82532748  0.49809599  1
  I  I125  1  0.33305350  0.83491259  0.83401245  1
  I  I126  1  0.66440810  0.16796829  0.16932477  1
  I  I127  1  0.66298864  0.17337372  0.49187927  1
  I  I128  1  0.66954024  0.17524560  0.83719936  1
  I  I129  1  0.67041350  0.50009237  0.16618913  1
  I  I130  1  0.66666420  0.49501553  0.50232504  1
  I  I131  1  0.66733637  0.49565057  0.83100875  1
  I  I132  1  0.67021784  0.82882720  0.16715281  1
  I  I133  1  0.66673314  0.83302990  0.49906773  1
  I  I134  1  0.66685777  0.83243599  0.83327551  1
