# generated using pymatgen
data_Cs27Sn14Pb13I81
_symmetry_space_group_name_H-M   'P 1'
_cell_length_a   18.96293053
_cell_length_b   18.98346525
_cell_length_c   18.98197419
_cell_angle_alpha   89.99999990
_cell_angle_beta   90.00121347
_cell_angle_gamma   90.00000001
_symmetry_Int_Tables_number   1
_chemical_formula_structural   Cs27Sn14Pb13I81
_chemical_formula_sum   'Cs27 Sn14 Pb13 I81'
_cell_volume   6833.17155457
_cell_formula_units_Z   1
loop_
 _symmetry_equiv_pos_site_id
 _symmetry_equiv_pos_as_xyz
  1  'x, y, z'
loop_
 _atom_site_type_symbol
 _atom_site_label
 _atom_site_symmetry_multiplicity
 _atom_site_fract_x
 _atom_site_fract_y
 _atom_site_fract_z
 _atom_site_occupancy
  Cs  Cs0  1  -0.00766185  0.00000002  -0.00653047  1
  Cs  Cs1  1  -0.00006630  0.00000006  0.33348302  1
  Cs  Cs2  1  0.00937071  0.00000003  0.67285190  1
  Cs  Cs3  1  0.00101767  0.33236317  -0.00233973  1
  Cs  Cs4  1  0.00026719  0.33527480  0.33324127  1
  Cs  Cs5  1  0.00364659  0.32802535  0.66824477  1
  Cs  Cs6  1  0.00101762  0.66763678  -0.00233971  1
  Cs  Cs7  1  0.00026718  0.66472516  0.33324127  1
  Cs  Cs8  1  0.00364676  0.67197462  0.66824494  1
  Cs  Cs9  1  0.33710082  0.00000008  0.00354870  1
  Cs  Cs10  1  0.33558088  0.00000000  0.33216136  1
  Cs  Cs11  1  0.32979446  -0.00000000  0.66692533  1
  Cs  Cs12  1  0.33241707  0.33528326  0.00213486  1
  Cs  Cs13  1  0.33099561  0.33293135  0.33151764  1
  Cs  Cs14  1  0.32801327  0.33860122  0.66869247  1
  Cs  Cs15  1  0.33241708  0.66471672  0.00213490  1
  Cs  Cs16  1  0.33099546  0.66706873  0.33151764  1
  Cs  Cs17  1  0.32801316  0.66139882  0.66869251  1
  Cs  Cs18  1  0.66764853  0.00000003  -0.00010316  1
  Cs  Cs19  1  0.66586145  0.00000001  0.33355876  1
  Cs  Cs20  1  0.66542414  -0.00000010  0.66476665  1
  Cs  Cs21  1  0.66716743  0.33240662  -0.00026426  1
  Cs  Cs22  1  0.66712245  0.33279767  0.33490932  1
  Cs  Cs23  1  0.66615208  0.33669669  0.66402007  1
  Cs  Cs24  1  0.66716744  0.66759336  -0.00026416  1
  Cs  Cs25  1  0.66712237  0.66720233  0.33490931  1
  Cs  Cs26  1  0.66615205  0.66330334  0.66402008  1
  Sn  Sn27  1  0.83283311  0.83387929  0.50003336  1
  Sn  Sn28  1  0.83303365  0.50000002  0.50034943  1
  Sn  Sn29  1  0.83283309  0.16612070  0.50003339  1
  Sn  Sn30  1  0.16683532  0.83506470  0.16678021  1
  Sn  Sn31  1  0.83240869  0.49999998  0.16642727  1
  Sn  Sn32  1  0.50039559  0.16626201  0.50050257  1
  Sn  Sn33  1  0.49983493  0.16670234  0.16676866  1
  Sn  Sn34  1  0.83294727  0.49999999  0.83312573  1
  Sn  Sn35  1  0.50032842  0.16630427  0.83287592  1
  Sn  Sn36  1  0.16683530  0.16493532  0.16678023  1
  Sn  Sn37  1  0.50124845  0.50000002  0.16702832  1
  Sn  Sn38  1  0.49983492  0.83329769  0.16676869  1
  Sn  Sn39  1  0.50039556  0.83373800  0.50050262  1
  Sn  Sn40  1  0.50032842  0.83369572  0.83287589  1
  Pb  Pb41  1  0.16999173  0.16641605  0.83666653  1
  Pb  Pb42  1  0.83305279  0.16849573  0.16834342  1
  Pb  Pb43  1  0.16337883  0.50000000  0.83360068  1
  Pb  Pb44  1  0.83066214  0.16828873  0.83026293  1
  Pb  Pb45  1  0.16652281  0.50000000  0.16673569  1
  Pb  Pb46  1  0.16762723  0.16644964  0.49773563  1
  Pb  Pb47  1  0.50103338  0.50000003  0.49790131  1
  Pb  Pb48  1  0.16321391  0.50000000  0.49989375  1
  Pb  Pb49  1  0.16999175  0.83358395  0.83666653  1
  Pb  Pb50  1  0.16762718  0.83355040  0.49773566  1
  Pb  Pb51  1  0.50144989  0.50000002  0.83564007  1
  Pb  Pb52  1  0.83305276  0.83150428  0.16834341  1
  Pb  Pb53  1  0.83066208  0.83171128  0.83026299  1
  I  I54  1  0.17747966  -0.00000001  0.16870245  1
  I  I55  1  0.15979564  -0.00000000  0.50022344  1
  I  I56  1  0.16155270  -0.00000002  0.83106646  1
  I  I57  1  0.17101111  0.33063138  0.16733364  1
  I  I58  1  0.16748892  0.33306392  0.49615909  1
  I  I59  1  0.16924806  0.33305100  0.83601169  1
  I  I60  1  0.17101112  0.66936862  0.16733359  1
  I  I61  1  0.16748921  0.66693609  0.49615904  1
  I  I62  1  0.16924788  0.66694902  0.83601174  1
  I  I63  1  0.49518588  -0.00000002  0.16723988  1
  I  I64  1  0.50867566  0.00000003  0.49465565  1
  I  I65  1  0.50115990  -0.00000001  0.83837559  1
  I  I66  1  0.50001168  0.33249206  0.16669748  1
  I  I67  1  0.50487276  0.33031135  0.49895328  1
  I  I68  1  0.50242017  0.33055882  0.83393068  1
  I  I69  1  0.50001177  0.66750791  0.16669755  1
  I  I70  1  0.50487275  0.66968860  0.49895342  1
  I  I71  1  0.50242044  0.66944117  0.83393048  1
  I  I72  1  0.83194550  -0.00000001  0.16889480  1
  I  I73  1  0.82667023  -0.00000003  0.49680634  1
  I  I74  1  0.83446708  0.00000002  0.83340252  1
  I  I75  1  0.82892111  0.33666759  0.16983475  1
  I  I76  1  0.82811768  0.33324752  0.49868755  1
  I  I77  1  0.82976047  0.33627962  0.83278292  1
  I  I78  1  0.82892111  0.66333245  0.16983476  1
  I  I79  1  0.82811741  0.66675248  0.49868767  1
  I  I80  1  0.82976034  0.66372034  0.83278272  1
  I  I81  1  0.17177487  0.16425485  0.00463619  1
  I  I82  1  0.17326652  0.16380713  0.32989025  1
  I  I83  1  0.16609578  0.16840282  0.66684051  1
  I  I84  1  0.16440946  0.49999998  0.00058351  1
  I  I85  1  0.16435445  0.50000002  0.33279510  1
  I  I86  1  0.16835433  0.50000005  0.66680482  1
  I  I87  1  0.17177499  0.83574527  0.00463619  1
  I  I88  1  0.17326665  0.83619281  0.32989027  1
  I  I89  1  0.16609566  0.83159712  0.66684049  1
  I  I90  1  0.49555275  0.16486434  0.00107950  1
  I  I91  1  0.50054390  0.16447355  0.33299755  1
  I  I92  1  0.50740067  0.15932299  0.66574315  1
  I  I93  1  0.50574465  0.50000010  0.00388753  1
  I  I94  1  0.50589679  0.49999998  0.32959605  1
  I  I95  1  0.50247766  0.49999988  0.66662789  1
  I  I96  1  0.49555257  0.83513558  0.00107947  1
  I  I97  1  0.50054392  0.83552644  0.33299756  1
  I  I98  1  0.50740093  0.84067720  0.66574316  1
  I  I99  1  0.83326169  0.16986815  -0.00009986  1
  I  I100  1  0.82751557  0.16906436  0.33642722  1
  I  I101  1  0.82708130  0.16969555  0.66214289  1
  I  I102  1  0.82833137  0.50000006  0.00081690  1
  I  I103  1  0.82901345  0.50000003  0.33352009  1
  I  I104  1  0.83170980  0.49999987  0.66560528  1
  I  I105  1  0.83326176  0.83013177  -0.00009988  1
  I  I106  1  0.82751550  0.83093561  0.33642725  1
  I  I107  1  0.82708123  0.83030458  0.66214288  1
  I  I108  1  0.00223193  0.16483673  0.17035861  1
  I  I109  1  -0.00295350  0.16907996  0.49679927  1
  I  I110  1  -0.00012180  0.16949574  0.83354130  1
  I  I111  1  -0.00328651  0.50000003  0.16846992  1
  I  I112  1  -0.00591025  0.50000017  0.49446772  1
  I  I113  1  -0.00502029  0.50000003  0.83646717  1
  I  I114  1  0.00223193  0.83516321  0.17035868  1
  I  I115  1  -0.00295350  0.83091988  0.49679921  1
  I  I116  1  -0.00012174  0.83050421  0.83354126  1
  I  I117  1  0.33592872  0.16857275  0.16872611  1
  I  I118  1  0.33755240  0.16016748  0.50054649  1
  I  I119  1  0.33831763  0.16347568  0.82764427  1
  I  I120  1  0.33660333  0.50000002  0.16621880  1
  I  I121  1  0.33352112  0.49999987  0.49764231  1
  I  I122  1  0.33369648  0.50000013  0.83560456  1
  I  I123  1  0.33592873  0.83142719  0.16872620  1
  I  I124  1  0.33755237  0.83983258  0.50054660  1
  I  I125  1  0.33831762  0.83652409  0.82764388  1
  I  I126  1  0.66300583  0.16433061  0.16555602  1
  I  I127  1  0.66554856  0.16674902  0.49656289  1
  I  I128  1  0.66265091  0.16309640  0.84058097  1
  I  I129  1  0.66611272  0.50000000  0.16738985  1
  I  I130  1  0.66967163  0.49999991  0.50053140  1
  I  I131  1  0.66936537  0.49999988  0.83125931  1
  I  I132  1  0.66300582  0.83566939  0.16555590  1
  I  I133  1  0.66554857  0.83325104  0.49656287  1
  I  I134  1  0.66265093  0.83690373  0.84058109  1
