# generated using pymatgen
data_Cs27Sn14Pb13I81
_symmetry_space_group_name_H-M   'P 1'
_cell_length_a   18.96368564
_cell_length_b   18.95786551
_cell_length_c   18.95973260
_cell_angle_alpha   90.00278477
_cell_angle_beta   90.00069895
_cell_angle_gamma   90.00019130
_symmetry_Int_Tables_number   1
_chemical_formula_structural   Cs27Sn14Pb13I81
_chemical_formula_sum   'Cs27 Sn14 Pb13 I81'
_cell_volume   6816.23245509
_cell_formula_units_Z   1
loop_
 _symmetry_equiv_pos_site_id
 _symmetry_equiv_pos_as_xyz
  1  'x, y, z'
loop_
 _atom_site_type_symbol
 _atom_site_label
 _atom_site_symmetry_multiplicity
 _atom_site_fract_x
 _atom_site_fract_y
 _atom_site_fract_z
 _atom_site_occupancy
  Cs  Cs0  1  0.00036982  0.00311606  -0.00502002  1
  Cs  Cs1  1  -0.00152543  -0.00217956  0.33572974  1
  Cs  Cs2  1  -0.00169690  -0.00043245  0.66962002  1
  Cs  Cs3  1  0.00304387  0.33116529  0.00015294  1
  Cs  Cs4  1  -0.00034757  0.33487220  0.33326572  1
  Cs  Cs5  1  -0.00074801  0.33343307  0.66662792  1
  Cs  Cs6  1  -0.00003631  0.66600296  0.00338821  1
  Cs  Cs7  1  -0.00290767  0.66645536  0.33260129  1
  Cs  Cs8  1  0.00325511  0.66476462  0.66379638  1
  Cs  Cs9  1  0.33134923  0.00147956  0.00240637  1
  Cs  Cs10  1  0.33523497  -0.00097594  0.33380644  1
  Cs  Cs11  1  0.33502446  -0.00265761  0.66151518  1
  Cs  Cs12  1  0.33270199  0.33159427  0.00126937  1
  Cs  Cs13  1  0.33353235  0.33275850  0.33330336  1
  Cs  Cs14  1  0.33336260  0.33561524  0.66508225  1
  Cs  Cs15  1  0.33421580  0.66714172  -0.00164942  1
  Cs  Cs16  1  0.33179698  0.66734287  0.33290044  1
  Cs  Cs17  1  0.33176373  0.66674996  0.66984420  1
  Cs  Cs18  1  0.66899863  0.00055114  -0.00055522  1
  Cs  Cs19  1  0.66447480  0.00238233  0.33378670  1
  Cs  Cs20  1  0.66589155  -0.00622864  0.66849912  1
  Cs  Cs21  1  0.66445582  0.33264193  -0.00014624  1
  Cs  Cs22  1  0.66648393  0.33204486  0.33462153  1
  Cs  Cs23  1  0.66799002  0.33436361  0.66456694  1
  Cs  Cs24  1  0.66619854  0.66961882  -0.00069164  1
  Cs  Cs25  1  0.67150643  0.66607476  0.33043375  1
  Cs  Cs26  1  0.66514501  0.66816354  0.67148910  1
  Sn  Sn27  1  0.49984323  0.50009270  0.16740538  1
  Sn  Sn28  1  0.83423971  0.49964372  0.83296462  1
  Sn  Sn29  1  0.49937239  0.83332160  0.16679014  1
  Sn  Sn30  1  0.16666562  0.49913228  0.50041341  1
  Sn  Sn31  1  0.16578248  0.16733753  0.49993714  1
  Sn  Sn32  1  0.16569390  0.50036177  0.83303564  1
  Sn  Sn33  1  0.50067954  0.16667962  0.16579155  1
  Sn  Sn34  1  0.16671971  0.83270194  0.83430495  1
  Sn  Sn35  1  0.83329673  0.49926907  0.50087135  1
  Sn  Sn36  1  0.83301195  0.16702243  0.16718818  1
  Sn  Sn37  1  0.16698150  0.83335378  0.16587747  1
  Sn  Sn38  1  0.49989714  0.16678780  0.83347895  1
  Sn  Sn39  1  0.83410985  0.16716974  0.49935736  1
  Sn  Sn40  1  0.50012872  0.50012253  0.49918928  1
  Pb  Pb41  1  0.83118543  0.49789229  0.16647755  1
  Pb  Pb42  1  0.83346749  0.83644429  0.16657195  1
  Pb  Pb43  1  0.49774689  0.83608445  0.83565852  1
  Pb  Pb44  1  0.50039704  0.16815894  0.49980151  1
  Pb  Pb45  1  0.83139381  0.16868452  0.83272517  1
  Pb  Pb46  1  0.50022632  0.82966547  0.49742250  1
  Pb  Pb47  1  0.83314523  0.83312283  0.50013784  1
  Pb  Pb48  1  0.49970189  0.49878309  0.83340970  1
  Pb  Pb49  1  0.83613757  0.83016986  0.83342242  1
  Pb  Pb50  1  0.16865119  0.50165082  0.16674810  1
  Pb  Pb51  1  0.16869234  0.16695994  0.83069338  1
  Pb  Pb52  1  0.16667125  0.16450405  0.16906723  1
  Pb  Pb53  1  0.16657938  0.83299512  0.49993269  1
  I  I54  1  0.17237771  -0.00328554  0.16246332  1
  I  I55  1  0.16302363  0.00272911  0.49945517  1
  I  I56  1  0.16984256  -0.00215406  0.83628043  1
  I  I57  1  0.16844087  0.33323362  0.16461579  1
  I  I58  1  0.16654204  0.33478690  0.50450651  1
  I  I59  1  0.16471245  0.33637103  0.83047045  1
  I  I60  1  0.17230319  0.66960821  0.16725318  1
  I  I61  1  0.16652267  0.66307083  0.50088772  1
  I  I62  1  0.16459848  0.66532592  0.83083430  1
  I  I63  1  0.49954862  0.00072911  0.16192654  1
  I  I64  1  0.49899722  0.00011805  0.49988607  1
  I  I65  1  0.49942304  0.00383005  0.83708500  1
  I  I66  1  0.50399032  0.33292361  0.16690318  1
  I  I67  1  0.49923240  0.33646264  0.49495616  1
  I  I68  1  0.49793305  0.33114590  0.83952886  1
  I  I69  1  0.49522727  0.66632858  0.17185857  1
  I  I70  1  0.49873165  0.66123509  0.49684066  1
  I  I71  1  0.50148683  0.66664301  0.83380647  1
  I  I72  1  0.82775947  0.00441290  0.17261901  1
  I  I73  1  0.83798923  0.00375138  0.49529209  1
  I  I74  1  0.83331493  0.00024606  0.83331152  1
  I  I75  1  0.82780318  0.32995945  0.16876187  1
  I  I76  1  0.83409772  0.33407381  0.49944125  1
  I  I77  1  0.83909630  0.33672458  0.83152176  1
  I  I78  1  0.83178721  0.66639407  0.16737348  1
  I  I79  1  0.83472119  0.66242887  0.50281815  1
  I  I80  1  0.83194590  0.66194410  0.82722925  1
  I  I81  1  0.16539256  0.16839393  0.00001340  1
  I  I82  1  0.16788201  0.17215021  0.33688103  1
  I  I83  1  0.16301156  0.16700267  0.66286537  1
  I  I84  1  0.16421119  0.50245307  -0.00267427  1
  I  I85  1  0.16498000  0.49777561  0.33633110  1
  I  I86  1  0.16843713  0.50202331  0.66608273  1
  I  I87  1  0.17123635  0.82800892  -0.00010179  1
  I  I88  1  0.17165175  0.83403074  0.33066598  1
  I  I89  1  0.16609346  0.83136187  0.66920504  1
  I  I90  1  0.50418019  0.16942393  0.00208310  1
  I  I91  1  0.50083107  0.16547603  0.33052087  1
  I  I92  1  0.49870455  0.17060906  0.66835282  1
  I  I93  1  0.49990926  0.50055776  0.00271219  1
  I  I94  1  0.49936256  0.49764957  0.33345114  1
  I  I95  1  0.49975817  0.49578563  0.66410538  1
  I  I96  1  0.49799772  0.82773786  0.00393219  1
  I  I97  1  0.49279631  0.83940744  0.32901850  1
  I  I98  1  0.49849475  0.83481454  0.66689107  1
  I  I99  1  0.82960444  0.16766863  0.00222662  1
  I  I100  1  0.83111839  0.17194006  0.33398662  1
  I  I101  1  0.83589199  0.17010704  0.66351945  1
  I  I102  1  0.83644319  0.49865048  -0.00246166  1
  I  I103  1  0.83552088  0.49803987  0.33627720  1
  I  I104  1  0.83221428  0.49417428  0.66523910  1
  I  I105  1  0.83167455  0.83264536  0.00009906  1
  I  I106  1  0.83618423  0.82866231  0.33310167  1
  I  I107  1  0.83444543  0.83884185  0.66684951  1
  I  I108  1  -0.00235827  0.16587356  0.16931993  1
  I  I109  1  -0.00056057  0.17416921  0.49490937  1
  I  I110  1  0.00011557  0.16509321  0.83588459  1
  I  I111  1  -0.00001286  0.50064806  0.16850521  1
  I  I112  1  0.00020890  0.49616916  0.50505102  1
  I  I113  1  0.00081880  0.50266299  0.82565298  1
  I  I114  1  0.00296073  0.83356129  0.16393904  1
  I  I115  1  0.00023186  0.83021442  0.49658348  1
  I  I116  1  0.00427003  0.83415285  0.83963618  1
  I  I117  1  0.33624396  0.16810625  0.16493057  1
  I  I118  1  0.33138956  0.17105521  0.50045219  1
  I  I119  1  0.33627960  0.16934292  0.83904628  1
  I  I120  1  0.33695199  0.49527427  0.17017749  1
  I  I121  1  0.33258677  0.49578644  0.50006761  1
  I  I122  1  0.33061508  0.50243128  0.82984449  1
  I  I123  1  0.33404990  0.83490217  0.16348293  1
  I  I124  1  0.33327084  0.83498581  0.50087708  1
  I  I125  1  0.32992307  0.82590570  0.83433827  1
  I  I126  1  0.66549482  0.16565544  0.16908613  1
  I  I127  1  0.66926442  0.17238724  0.49783142  1
  I  I128  1  0.66360555  0.16992216  0.83419271  1
  I  I129  1  0.66288302  0.50324644  0.17003498  1
  I  I130  1  0.66728328  0.49513017  0.49963066  1
  I  I131  1  0.66862107  0.49619520  0.82983072  1
  I  I132  1  0.66346360  0.83137519  0.16807112  1
  I  I133  1  0.66649987  0.83479899  0.49801028  1
  I  I134  1  0.66647028  0.83255445  0.83419466  1
