# generated using pymatgen
data_Cs27Sn14Pb13I81
_symmetry_space_group_name_H-M   'P 1'
_cell_length_a   18.98138650
_cell_length_b   18.97226921
_cell_length_c   18.97222589
_cell_angle_alpha   90.00064627
_cell_angle_beta   90.00170279
_cell_angle_gamma   89.99834677
_symmetry_Int_Tables_number   1
_chemical_formula_structural   Cs27Sn14Pb13I81
_chemical_formula_sum   'Cs27 Sn14 Pb13 I81'
_cell_volume   6832.27749753
_cell_formula_units_Z   1
loop_
 _symmetry_equiv_pos_site_id
 _symmetry_equiv_pos_as_xyz
  1  'x, y, z'
loop_
 _atom_site_type_symbol
 _atom_site_label
 _atom_site_symmetry_multiplicity
 _atom_site_fract_x
 _atom_site_fract_y
 _atom_site_fract_z
 _atom_site_occupancy
  Cs  Cs0  1  0.00172808  -0.00311977  0.00511471  1
  Cs  Cs1  1  0.00075223  -0.00133671  0.33207804  1
  Cs  Cs2  1  -0.00319970  0.00020037  0.66329914  1
  Cs  Cs3  1  -0.00029411  0.33989709  -0.00108208  1
  Cs  Cs4  1  0.00141972  0.33338420  0.33480806  1
  Cs  Cs5  1  -0.00016103  0.33515312  0.66586757  1
  Cs  Cs6  1  -0.00270915  0.66477410  -0.00277208  1
  Cs  Cs7  1  0.00233459  0.66645339  0.33599412  1
  Cs  Cs8  1  0.00128537  0.66448472  0.66759487  1
  Cs  Cs9  1  0.33452385  0.00034974  0.00112664  1
  Cs  Cs10  1  0.33007897  0.00115529  0.33092837  1
  Cs  Cs11  1  0.33372769  0.00136619  0.66836352  1
  Cs  Cs12  1  0.33232877  0.33145071  -0.00121903  1
  Cs  Cs13  1  0.33322260  0.33334951  0.33425045  1
  Cs  Cs14  1  0.33137469  0.33203180  0.66583438  1
  Cs  Cs15  1  0.33456661  0.66820958  -0.00362780  1
  Cs  Cs16  1  0.33471962  0.66536910  0.33803651  1
  Cs  Cs17  1  0.33490485  0.66699049  0.66698687  1
  Cs  Cs18  1  0.66509233  -0.00104457  -0.00082103  1
  Cs  Cs19  1  0.66903177  0.00078676  0.33222783  1
  Cs  Cs20  1  0.67077485  0.00308823  0.66640449  1
  Cs  Cs21  1  0.66939966  0.33360722  0.00072881  1
  Cs  Cs22  1  0.66512691  0.33660317  0.33104717  1
  Cs  Cs23  1  0.66964738  0.32549552  0.66836914  1
  Cs  Cs24  1  0.66768712  0.66812778  0.00232482  1
  Cs  Cs25  1  0.66216730  0.66279348  0.33274930  1
  Cs  Cs26  1  0.66045538  0.67024955  0.66361091  1
  Sn  Sn27  1  0.49937797  0.16635492  0.49894474  1
  Sn  Sn28  1  0.16656809  0.83453334  0.83308861  1
  Sn  Sn29  1  0.16621729  0.16575058  0.83275651  1
  Sn  Sn30  1  0.83248005  0.83390004  0.16620647  1
  Sn  Sn31  1  0.50038163  0.50007531  0.83347905  1
  Sn  Sn32  1  0.50031206  0.83280250  0.83405286  1
  Sn  Sn33  1  0.50049281  0.83403228  0.16634425  1
  Sn  Sn34  1  0.16702960  0.50033478  0.16731113  1
  Sn  Sn35  1  0.83277139  0.16638358  0.16658672  1
  Sn  Sn36  1  0.83346914  0.50012862  0.50009835  1
  Sn  Sn37  1  0.83310890  0.83337406  0.83368355  1
  Sn  Sn38  1  0.16728931  0.16697514  0.50077153  1
  Sn  Sn39  1  0.16611073  0.49927903  0.49916340  1
  Sn  Sn40  1  0.50079022  0.16602041  0.16744892  1
  Pb  Pb41  1  0.16801023  0.50001774  0.83259180  1
  Pb  Pb42  1  0.49997337  0.83643793  0.49954899  1
  Pb  Pb43  1  0.49874262  0.16599507  0.83382305  1
  Pb  Pb44  1  0.49798365  0.50006426  0.16485767  1
  Pb  Pb45  1  0.16667452  0.16816064  0.16674642  1
  Pb  Pb46  1  0.49961595  0.49735274  0.50238631  1
  Pb  Pb47  1  0.16676567  0.83359334  0.50262518  1
  Pb  Pb48  1  0.83648087  0.16441266  0.83610894  1
  Pb  Pb49  1  0.83517757  0.50068027  0.16828124  1
  Pb  Pb50  1  0.16698380  0.83074288  0.16461876  1
  Pb  Pb51  1  0.83035444  0.50258160  0.83092922  1
  Pb  Pb52  1  0.83375598  0.16828101  0.49760630  1
  Pb  Pb53  1  0.83316033  0.83095490  0.49915936  1
  I  I54  1  0.16622935  -0.00018924  0.16845039  1
  I  I55  1  0.17105258  0.00335402  0.50221291  1
  I  I56  1  0.16998533  -0.00029552  0.82879276  1
  I  I57  1  0.16677950  0.33582477  0.16525120  1
  I  I58  1  0.16704603  0.33294091  0.50243528  1
  I  I59  1  0.17065815  0.33117799  0.83295099  1
  I  I60  1  0.16655506  0.66326881  0.17128724  1
  I  I61  1  0.16255068  0.66363861  0.49720074  1
  I  I62  1  0.16597920  0.66936847  0.83465558  1
  I  I63  1  0.50253657  -0.00017343  0.16392461  1
  I  I64  1  0.49367674  0.00430694  0.50120879  1
  I  I65  1  0.50046857  -0.00305563  0.83461340  1
  I  I66  1  0.50251259  0.33043869  0.16866931  1
  I  I67  1  0.49788542  0.32972794  0.49550043  1
  I  I68  1  0.49519285  0.33467925  0.83270318  1
  I  I69  1  0.50364585  0.66963513  0.16313535  1
  I  I70  1  0.49944951  0.66654676  0.49858185  1
  I  I71  1  0.49689037  0.66870037  0.83764455  1
  I  I72  1  0.83042936  -0.00062811  0.16361962  1
  I  I73  1  0.83360371  0.00010387  0.50182134  1
  I  I74  1  0.82695694  -0.00376035  0.83301507  1
  I  I75  1  0.83000664  0.33106455  0.16933727  1
  I  I76  1  0.83528948  0.33600250  0.49823930  1
  I  I77  1  0.83330415  0.33328792  0.83448399  1
  I  I78  1  0.82993028  0.66996017  0.16293899  1
  I  I79  1  0.84095365  0.66323770  0.49913409  1
  I  I80  1  0.83959090  0.67065491  0.84065666  1
  I  I81  1  0.16797574  0.16452065  -0.00215351  1
  I  I82  1  0.16810859  0.17069633  0.33579155  1
  I  I83  1  0.17318005  0.16885513  0.66588903  1
  I  I84  1  0.16847813  0.49904754  0.00132705  1
  I  I85  1  0.16403049  0.49421084  0.33460649  1
  I  I86  1  0.16428628  0.49845815  0.66395718  1
  I  I87  1  0.16771111  0.83792097  -0.00349442  1
  I  I88  1  0.16624868  0.83475135  0.33313809  1
  I  I89  1  0.16753800  0.83196878  0.67109296  1
  I  I90  1  0.50129278  0.16546335  0.00275145  1
  I  I91  1  0.49702912  0.16234882  0.33243087  1
  I  I92  1  0.49628222  0.16825590  0.66483270  1
  I  I93  1  0.49644461  0.49996446  -0.00284658  1
  I  I94  1  0.50045854  0.50244591  0.33347629  1
  I  I95  1  0.49717376  0.50656658  0.66990629  1
  I  I96  1  0.49996292  0.83547570  -0.00027462  1
  I  I97  1  0.50557197  0.83467818  0.32976039  1
  I  I98  1  0.49947750  0.82974849  0.66991588  1
  I  I99  1  0.82723590  0.16654751  0.00383058  1
  I  I100  1  0.83450200  0.15980944  0.32985254  1
  I  I101  1  0.83074193  0.16607426  0.66670010  1
  I  I102  1  0.83560059  0.49797712  -0.00001170  1
  I  I103  1  0.83522474  0.50125984  0.33608596  1
  I  I104  1  0.84177339  0.49973813  0.66352322  1
  I  I105  1  0.83284159  0.83667375  0.00013523  1
  I  I106  1  0.82859514  0.83640446  0.32955377  1
  I  I107  1  0.83302777  0.83117282  0.66967833  1
  I  I108  1  -0.00212791  0.16268467  0.16625195  1
  I  I109  1  0.00296535  0.16946574  0.50304698  1
  I  I110  1  0.00431813  0.16319698  0.82806073  1
  I  I111  1  0.00301904  0.49865784  0.16696104  1
  I  I112  1  0.00176001  0.49444874  0.49685863  1
  I  I113  1  -0.00010668  0.50092612  0.83488440  1
  I  I114  1  -0.00261671  0.83709735  0.16227018  1
  I  I115  1  0.00004072  0.83718869  0.49980278  1
  I  I116  1  -0.00007262  0.83796496  0.83749482  1
  I  I117  1  0.33585055  0.16325108  0.16707273  1
  I  I118  1  0.33251437  0.17241281  0.49839605  1
  I  I119  1  0.33078246  0.16220903  0.83414141  1
  I  I120  1  0.33038363  0.49894959  0.17238472  1
  I  I121  1  0.33052931  0.49739627  0.49768340  1
  I  I122  1  0.33558525  0.50609607  0.83235432  1
  I  I123  1  0.33628655  0.83749331  0.16168207  1
  I  I124  1  0.33335246  0.82832227  0.49999049  1
  I  I125  1  0.33396400  0.83281482  0.83696067  1
  I  I126  1  0.66557427  0.16358402  0.17195240  1
  I  I127  1  0.66435547  0.16824447  0.49873812  1
  I  I128  1  0.66684734  0.16725916  0.82977593  1
  I  I129  1  0.66657379  0.49950768  0.16788156  1
  I  I130  1  0.66846111  0.49999773  0.50123316  1
  I  I131  1  0.66284701  0.50396124  0.83306773  1
  I  I132  1  0.66630721  0.83704794  0.15800746  1
  I  I133  1  0.66653039  0.83245001  0.50587563  1
  I  I134  1  0.66605792  0.82742919  0.83780754  1
