# generated using pymatgen
data_Cs27Sn13Pb14I81
_symmetry_space_group_name_H-M   'P 1'
_cell_length_a   18.97729949
_cell_length_b   18.98215533
_cell_length_c   18.97135627
_cell_angle_alpha   90.00100017
_cell_angle_beta   89.99915095
_cell_angle_gamma   90.00125252
_symmetry_Int_Tables_number   1
_chemical_formula_structural   Cs27Sn13Pb14I81
_chemical_formula_sum   'Cs27 Sn13 Pb14 I81'
_cell_volume   6834.05254979
_cell_formula_units_Z   1
loop_
 _symmetry_equiv_pos_site_id
 _symmetry_equiv_pos_as_xyz
  1  'x, y, z'
loop_
 _atom_site_type_symbol
 _atom_site_label
 _atom_site_symmetry_multiplicity
 _atom_site_fract_x
 _atom_site_fract_y
 _atom_site_fract_z
 _atom_site_occupancy
  Cs  Cs0  1  0.00113211  0.00191653  0.00095166  1
  Cs  Cs1  1  0.00035580  0.00132916  0.33052850  1
  Cs  Cs2  1  -0.00124872  -0.00068788  0.66635653  1
  Cs  Cs3  1  0.00149915  0.33304070  -0.00069540  1
  Cs  Cs4  1  -0.00118293  0.33000166  0.32826981  1
  Cs  Cs5  1  -0.00168034  0.33366277  0.66865560  1
  Cs  Cs6  1  0.00038738  0.66592385  -0.00097080  1
  Cs  Cs7  1  -0.00024449  0.66800704  0.33604927  1
  Cs  Cs8  1  -0.00020473  0.66708138  0.66544053  1
  Cs  Cs9  1  0.33353068  -0.00093563  -0.00000619  1
  Cs  Cs10  1  0.33235277  0.00471815  0.33225142  1
  Cs  Cs11  1  0.33254737  -0.00171838  0.66790774  1
  Cs  Cs12  1  0.32980437  0.33283315  -0.00211656  1
  Cs  Cs13  1  0.34207499  0.33172370  0.33447537  1
  Cs  Cs14  1  0.33382981  0.33399764  0.66709770  1
  Cs  Cs15  1  0.33339830  0.66794798  -0.00253079  1
  Cs  Cs16  1  0.33204326  0.66280275  0.33965475  1
  Cs  Cs17  1  0.33260595  0.66678865  0.66577352  1
  Cs  Cs18  1  0.66597519  -0.00489822  0.00625377  1
  Cs  Cs19  1  0.66498896  0.00442850  0.33072088  1
  Cs  Cs20  1  0.66830673  -0.00011598  0.66531045  1
  Cs  Cs21  1  0.66983382  0.33570963  0.00258665  1
  Cs  Cs22  1  0.65662667  0.32966874  0.33014516  1
  Cs  Cs23  1  0.66800363  0.33030844  0.66547744  1
  Cs  Cs24  1  0.66544115  0.66863026  0.00563489  1
  Cs  Cs25  1  0.66795546  0.66565643  0.32602596  1
  Cs  Cs26  1  0.66950868  0.66860705  0.66782395  1
  Sn  Sn27  1  0.83304558  0.50111330  0.83248766  1
  Sn  Sn28  1  0.16660050  0.50026297  0.83356448  1
  Sn  Sn29  1  0.16737174  0.16662627  0.83191535  1
  Sn  Sn30  1  0.83330744  0.50018497  0.50030815  1
  Sn  Sn31  1  0.16663991  0.50115707  0.16634707  1
  Sn  Sn32  1  0.16575326  0.83317292  0.83380320  1
  Sn  Sn33  1  0.83211080  0.83251058  0.50059748  1
  Sn  Sn34  1  0.83411069  0.83255149  0.83270982  1
  Sn  Sn35  1  0.50039409  0.49937902  0.83290071  1
  Sn  Sn36  1  0.16623878  0.16704233  0.50106317  1
  Sn  Sn37  1  0.50119936  0.83302126  0.50018376  1
  Sn  Sn38  1  0.16668364  0.83187469  0.16594602  1
  Sn  Sn39  1  0.49972993  0.16709449  0.83315220  1
  Pb  Pb40  1  0.83566252  0.83325050  0.16674823  1
  Pb  Pb41  1  0.49964206  0.16663511  0.16284952  1
  Pb  Pb42  1  0.49689483  0.50026752  0.16375790  1
  Pb  Pb43  1  0.83553462  0.49999203  0.16657152  1
  Pb  Pb44  1  0.83313319  0.16684462  0.16659567  1
  Pb  Pb45  1  0.50031485  0.83322165  0.83229452  1
  Pb  Pb46  1  0.49662364  0.83301274  0.17012582  1
  Pb  Pb47  1  0.83514596  0.16677220  0.50010042  1
  Pb  Pb48  1  0.16676935  0.16710236  0.16600867  1
  Pb  Pb49  1  0.16474703  0.49767876  0.50004758  1
  Pb  Pb50  1  0.49792996  0.16452603  0.50259741  1
  Pb  Pb51  1  0.83306092  0.16636657  0.83363838  1
  Pb  Pb52  1  0.16600136  0.83481105  0.50012008  1
  Pb  Pb53  1  0.50298165  0.50190456  0.50249499  1
  I  I54  1  0.16572678  -0.00266834  0.16350085  1
  I  I55  1  0.16565258  0.00241188  0.50503511  1
  I  I56  1  0.16697082  -0.00050427  0.83307493  1
  I  I57  1  0.16467663  0.33628363  0.16164078  1
  I  I58  1  0.16468098  0.33024992  0.50559470  1
  I  I59  1  0.16679162  0.33411114  0.83380855  1
  I  I60  1  0.16609040  0.66671826  0.15764636  1
  I  I61  1  0.16833826  0.66663121  0.50140320  1
  I  I62  1  0.16650652  0.66652314  0.83782300  1
  I  I63  1  0.49738163  -0.00030284  0.16410577  1
  I  I64  1  0.50533783  -0.00315925  0.50363785  1
  I  I65  1  0.49476605  0.00203242  0.83067091  1
  I  I66  1  0.49754218  0.33354089  0.17065174  1
  I  I67  1  0.50017969  0.33336398  0.49889022  1
  I  I68  1  0.49505327  0.33399786  0.83247451  1
  I  I69  1  0.50089882  0.66667453  0.16314363  1
  I  I70  1  0.49765502  0.66963794  0.50412024  1
  I  I71  1  0.49641779  0.66406372  0.83129357  1
  I  I72  1  0.83747158  -0.00058340  0.16545702  1
  I  I73  1  0.83197506  -0.00345228  0.50574619  1
  I  I74  1  0.83754830  -0.00345609  0.82864471  1
  I  I75  1  0.83851527  0.33394621  0.16514640  1
  I  I76  1  0.83782638  0.33653375  0.50688864  1
  I  I77  1  0.83647983  0.33671818  0.82952399  1
  I  I78  1  0.83327737  0.66667851  0.16647314  1
  I  I79  1  0.83239432  0.66733940  0.50600258  1
  I  I80  1  0.83754387  0.66650089  0.82885063  1
  I  I81  1  0.16992925  0.16661554  -0.00385234  1
  I  I82  1  0.16419303  0.16448049  0.33564564  1
  I  I83  1  0.16955558  0.16575813  0.66920417  1
  I  I84  1  0.16480974  0.49848581  -0.00259618  1
  I  I85  1  0.16324844  0.50421546  0.33100125  1
  I  I86  1  0.16801491  0.50258410  0.67031638  1
  I  I87  1  0.16199139  0.83491874  -0.00243420  1
  I  I88  1  0.16699307  0.83098266  0.33111867  1
  I  I89  1  0.16599629  0.83130801  0.66984841  1
  I  I90  1  0.49137877  0.16874069  -0.00523532  1
  I  I91  1  0.49779657  0.16545333  0.33363583  1
  I  I92  1  0.49645041  0.17061556  0.67038361  1
  I  I93  1  0.50479318  0.49762621  -0.00492458  1
  I  I94  1  0.49916846  0.50101046  0.33355427  1
  I  I95  1  0.49308138  0.49715400  0.67077848  1
  I  I96  1  0.50210331  0.83439138  -0.00012222  1
  I  I97  1  0.50530956  0.83343408  0.33781252  1
  I  I98  1  0.49836000  0.83353467  0.66467719  1
  I  I99  1  0.83657454  0.16680737  -0.00083914  1
  I  I100  1  0.83883635  0.16570464  0.33388945  1
  I  I101  1  0.83353085  0.16634057  0.66704282  1
  I  I102  1  0.83192527  0.50364756  -0.00399366  1
  I  I103  1  0.83775989  0.50551943  0.33636529  1
  I  I104  1  0.83673103  0.50435218  0.66854737  1
  I  I105  1  0.83534398  0.82955509  -0.00352599  1
  I  I106  1  0.83207823  0.82900441  0.33668736  1
  I  I107  1  0.83652997  0.82942826  0.66766651  1
  I  I108  1  0.00089677  0.16628090  0.16514650  1
  I  I109  1  0.00324802  0.16406031  0.50735552  1
  I  I110  1  0.00333949  0.16841714  0.83066967  1
  I  I111  1  0.00364644  0.50307043  0.16004383  1
  I  I112  1  -0.00291841  0.50721405  0.50684176  1
  I  I113  1  0.00065742  0.50027726  0.83357487  1
  I  I114  1  0.00376100  0.83015401  0.16646859  1
  I  I115  1  -0.00266896  0.83098319  0.50191297  1
  I  I116  1  0.00079414  0.83087209  0.83106863  1
  I  I117  1  0.33275523  0.16599814  0.16957085  1
  I  I118  1  0.32992129  0.16469691  0.50237173  1
  I  I119  1  0.33151198  0.16944061  0.82977290  1
  I  I120  1  0.32873073  0.50366755  0.16147396  1
  I  I121  1  0.33330852  0.50122908  0.50043816  1
  I  I122  1  0.33208294  0.49945635  0.83804214  1
  I  I123  1  0.32869263  0.83081297  0.15944182  1
  I  I124  1  0.33457215  0.83608166  0.50103103  1
  I  I125  1  0.33040631  0.83163164  0.83450608  1
  I  I126  1  0.66613602  0.16617992  0.16605623  1
  I  I127  1  0.66650243  0.16732041  0.50148495  1
  I  I128  1  0.66382012  0.17020286  0.83279968  1
  I  I129  1  0.66659834  0.49907845  0.16556683  1
  I  I130  1  0.67094873  0.50123308  0.50715092  1
  I  I131  1  0.66740672  0.49947135  0.82734089  1
  I  I132  1  0.66665597  0.83449859  0.16331110  1
  I  I133  1  0.66818817  0.83047592  0.50887766  1
  I  I134  1  0.66955483  0.83089018  0.82977830  1
