# generated using pymatgen
data_Cs27Sn13Pb14I81
_symmetry_space_group_name_H-M   'P 1'
_cell_length_a   18.97340266
_cell_length_b   18.97383787
_cell_length_c   18.98251180
_cell_angle_alpha   89.99996706
_cell_angle_beta   89.99978582
_cell_angle_gamma   90.00023258
_symmetry_Int_Tables_number   1
_chemical_formula_structural   Cs27Sn13Pb14I81
_chemical_formula_sum   'Cs27 Sn13 Pb14 I81'
_cell_volume   6833.67133113
_cell_formula_units_Z   1
loop_
 _symmetry_equiv_pos_site_id
 _symmetry_equiv_pos_as_xyz
  1  'x, y, z'
loop_
 _atom_site_type_symbol
 _atom_site_label
 _atom_site_symmetry_multiplicity
 _atom_site_fract_x
 _atom_site_fract_y
 _atom_site_fract_z
 _atom_site_occupancy
  Cs  Cs0  1  -0.00034515  0.00079383  -0.00074526  1
  Cs  Cs1  1  -0.00025959  0.00027143  0.33394637  1
  Cs  Cs2  1  -0.00197734  -0.00042679  0.66584451  1
  Cs  Cs3  1  0.00252470  0.32832611  0.00131654  1
  Cs  Cs4  1  -0.00152054  0.33320414  0.33416086  1
  Cs  Cs5  1  -0.00005359  0.33062580  0.66273269  1
  Cs  Cs6  1  0.00150840  0.66838886  0.00217404  1
  Cs  Cs7  1  0.00007492  0.66612648  0.33270110  1
  Cs  Cs8  1  0.00224870  0.66859271  0.66647608  1
  Cs  Cs9  1  0.33378077  0.00463575  0.00323891  1
  Cs  Cs10  1  0.34323516  -0.00095981  0.33370446  1
  Cs  Cs11  1  0.33614312  -0.00158714  0.66228892  1
  Cs  Cs12  1  0.33232453  0.32900547  -0.00079062  1
  Cs  Cs13  1  0.33260021  0.33379462  0.33319617  1
  Cs  Cs14  1  0.33521475  0.33423101  0.66732034  1
  Cs  Cs15  1  0.33262365  0.66641060  -0.00013666  1
  Cs  Cs16  1  0.33284402  0.66756862  0.33308229  1
  Cs  Cs17  1  0.33113107  0.66702198  0.66678743  1
  Cs  Cs18  1  0.66763777  -0.00107143  0.00102928  1
  Cs  Cs19  1  0.66335936  0.00013443  0.33300313  1
  Cs  Cs20  1  0.66902210  0.00299477  0.66645046  1
  Cs  Cs21  1  0.66537833  0.33727712  -0.01091391  1
  Cs  Cs22  1  0.67030434  0.33440562  0.33493768  1
  Cs  Cs23  1  0.66266043  0.33509028  0.67382277  1
  Cs  Cs24  1  0.66689052  0.66620824  -0.00293157  1
  Cs  Cs25  1  0.66756015  0.66569688  0.33137854  1
  Cs  Cs26  1  0.66967900  0.66302276  0.67367704  1
  Sn  Sn27  1  0.49922886  0.49993901  0.16741818  1
  Sn  Sn28  1  0.83313715  0.16610197  0.16737452  1
  Sn  Sn29  1  0.16653368  0.16694695  0.49942971  1
  Sn  Sn30  1  0.16787472  0.83302600  0.83429350  1
  Sn  Sn31  1  0.16653641  0.50042656  0.83357401  1
  Sn  Sn32  1  0.83338564  0.83366840  0.49905675  1
  Sn  Sn33  1  0.49932068  0.50043340  0.49903693  1
  Sn  Sn34  1  0.83416395  0.83406262  0.16785798  1
  Sn  Sn35  1  0.16638708  0.83315359  0.16627885  1
  Sn  Sn36  1  0.16733852  0.49925958  0.49982025  1
  Sn  Sn37  1  0.16747104  0.50046755  0.16658158  1
  Sn  Sn38  1  0.83401555  0.16584556  0.49886385  1
  Sn  Sn39  1  0.49863735  0.83360546  0.83343632  1
  Pb  Pb40  1  0.50352124  0.17010837  0.16671559  1
  Pb  Pb41  1  0.49954884  0.16326871  0.83339878  1
  Pb  Pb42  1  0.83415698  0.83341352  0.83382022  1
  Pb  Pb43  1  0.50059363  0.16923436  0.49984794  1
  Pb  Pb44  1  0.83739514  0.50001951  0.83350483  1
  Pb  Pb45  1  0.83337766  0.49981042  0.50012867  1
  Pb  Pb46  1  0.16677194  0.16579702  0.83053018  1
  Pb  Pb47  1  0.83363293  0.49992904  0.16648381  1
  Pb  Pb48  1  0.50340890  0.83039919  0.50214083  1
  Pb  Pb49  1  0.83358757  0.16654880  0.83317357  1
  Pb  Pb50  1  0.16543171  0.16621556  0.16909661  1
  Pb  Pb51  1  0.16556300  0.83331514  0.49951228  1
  Pb  Pb52  1  0.50001772  0.83138327  0.16516344  1
  Pb  Pb53  1  0.49722738  0.50159133  0.83356343  1
  I  I54  1  0.16290068  -0.00313316  0.16219084  1
  I  I55  1  0.16194591  0.00212572  0.50122109  1
  I  I56  1  0.16890494  -0.00371819  0.83746983  1
  I  I57  1  0.16826784  0.33637641  0.16427005  1
  I  I58  1  0.16371523  0.33471103  0.50013068  1
  I  I59  1  0.16593658  0.33642498  0.83617920  1
  I  I60  1  0.16398243  0.66637483  0.16770973  1
  I  I61  1  0.16815751  0.66387426  0.50042922  1
  I  I62  1  0.16972022  0.66669656  0.83156760  1
  I  I63  1  0.49757871  -0.00016567  0.16478581  1
  I  I64  1  0.49734164  -0.00028264  0.50198724  1
  I  I65  1  0.49336181  -0.00474401  0.83356932  1
  I  I66  1  0.49347966  0.33809599  0.17020658  1
  I  I67  1  0.49995544  0.33738966  0.49736452  1
  I  I68  1  0.50093272  0.33384054  0.83276359  1
  I  I69  1  0.50018170  0.66345676  0.17007195  1
  I  I70  1  0.49335518  0.66279884  0.49647097  1
  I  I71  1  0.49884145  0.66923054  0.83302683  1
  I  I72  1  0.83939876  -0.00131706  0.17020629  1
  I  I73  1  0.83999977  0.00022633  0.49725639  1
  I  I74  1  0.83529590  -0.00029006  0.83234167  1
  I  I75  1  0.83422642  0.33065143  0.17301833  1
  I  I76  1  0.83594612  0.33042132  0.49454195  1
  I  I77  1  0.83261274  0.33329129  0.83337572  1
  I  I78  1  0.83527389  0.66970326  0.17092652  1
  I  I79  1  0.83423520  0.66924422  0.49583710  1
  I  I80  1  0.83033726  0.66703844  0.83202856  1
  I  I81  1  0.16426714  0.16960746  0.00033505  1
  I  I82  1  0.16291062  0.17185259  0.33685560  1
  I  I83  1  0.15984620  0.17094522  0.66252950  1
  I  I84  1  0.16944223  0.50570197  0.00083515  1
  I  I85  1  0.17007451  0.50070868  0.33316067  1
  I  I86  1  0.16954125  0.50074504  0.66605218  1
  I  I87  1  0.16378313  0.82473786  0.00071421  1
  I  I88  1  0.16257275  0.82893326  0.33051731  1
  I  I89  1  0.16778244  0.82964175  0.66873897  1
  I  I90  1  0.50168621  0.17028610  0.00024818  1
  I  I91  1  0.49792425  0.16359404  0.33332126  1
  I  I92  1  0.50246066  0.16973278  0.66637687  1
  I  I93  1  0.49783101  0.50151499  0.00255917  1
  I  I94  1  0.49171171  0.50103568  0.33340325  1
  I  I95  1  0.49702935  0.50089471  0.66437815  1
  I  I96  1  0.50082061  0.82910504  -0.00257378  1
  I  I97  1  0.49808741  0.83328705  0.33335271  1
  I  I98  1  0.49351651  0.83049998  0.66965515  1
  I  I99  1  0.83413375  0.16203447  0.00335972  1
  I  I100  1  0.83798833  0.16260842  0.33415385  1
  I  I101  1  0.83773177  0.16209179  0.66285557  1
  I  I102  1  0.83018855  0.50042764  0.00033091  1
  I  I103  1  0.83683237  0.50091058  0.33333091  1
  I  I104  1  0.83173679  0.50087735  0.66641519  1
  I  I105  1  0.83478582  0.83675443  0.00333490  1
  I  I106  1  0.83922720  0.83632911  0.33249193  1
  I  I107  1  0.83393423  0.83694474  0.66405872  1
  I  I108  1  -0.00270361  0.16763501  0.16935503  1
  I  I109  1  -0.00024477  0.16988767  0.49737359  1
  I  I110  1  0.00029480  0.16617302  0.83412392  1
  I  I111  1  0.00356706  0.50169037  0.16763880  1
  I  I112  1  0.00336198  0.49916860  0.49926697  1
  I  I113  1  0.00560105  0.50781891  0.83293225  1
  I  I114  1  0.00065606  0.83020490  0.16459264  1
  I  I115  1  -0.00245178  0.83217454  0.50075797  1
  I  I116  1  0.00335094  0.82840102  0.83421635  1
  I  I117  1  0.33337038  0.16410828  0.16814002  1
  I  I118  1  0.33056748  0.16928581  0.50116061  1
  I  I119  1  0.33279639  0.16927531  0.83197422  1
  I  I120  1  0.33142337  0.50616002  0.16806693  1
  I  I121  1  0.33145630  0.49513548  0.49975858  1
  I  I122  1  0.32939002  0.50309919  0.83230849  1
  I  I123  1  0.33022811  0.82995518  0.16457328  1
  I  I124  1  0.33339182  0.83600801  0.49837920  1
  I  I125  1  0.33136215  0.82781368  0.83763689  1
  I  I126  1  0.67148517  0.15971365  0.17433912  1
  I  I127  1  0.67022391  0.16299842  0.49601292  1
  I  I128  1  0.66673463  0.16635260  0.83116078  1
  I  I129  1  0.66405035  0.50025531  0.17278600  1
  I  I130  1  0.66398218  0.50141582  0.49460140  1
  I  I131  1  0.66614992  0.50131603  0.83284124  1
  I  I132  1  0.66957606  0.83523117  0.16855315  1
  I  I133  1  0.67112852  0.83827574  0.49520779  1
  I  I134  1  0.66466395  0.83256862  0.83264875  1
