# generated using pymatgen
data_Cs27Sn14Pb13I81
_symmetry_space_group_name_H-M   'P 1'
_cell_length_a   18.98301344
_cell_length_b   18.97318884
_cell_length_c   18.97423907
_cell_angle_alpha   90.00292781
_cell_angle_beta   89.99999995
_cell_angle_gamma   89.99999994
_symmetry_Int_Tables_number   1
_chemical_formula_structural   Cs27Sn14Pb13I81
_chemical_formula_sum   'Cs27 Sn14 Pb13 I81'
_cell_volume   6833.91939988
_cell_formula_units_Z   1
loop_
 _symmetry_equiv_pos_site_id
 _symmetry_equiv_pos_as_xyz
  1  'x, y, z'
loop_
 _atom_site_type_symbol
 _atom_site_label
 _atom_site_symmetry_multiplicity
 _atom_site_fract_x
 _atom_site_fract_y
 _atom_site_fract_z
 _atom_site_occupancy
  Cs  Cs0  1  0.00190189  -0.00428513  -0.00189780  1
  Cs  Cs1  1  0.00137375  0.00271652  0.33349499  1
  Cs  Cs2  1  0.00222079  0.00134241  0.66874387  1
  Cs  Cs3  1  -0.00342853  0.33641698  -0.00167708  1
  Cs  Cs4  1  0.00060860  0.33252170  0.33388408  1
  Cs  Cs5  1  0.00093007  0.33175172  0.66728843  1
  Cs  Cs6  1  0.00158568  0.66648348  0.00276072  1
  Cs  Cs7  1  0.00169200  0.66726932  0.33199228  1
  Cs  Cs8  1  -0.00484897  0.66664980  0.66420845  1
  Cs  Cs9  1  0.33143147  -0.00428538  -0.00189774  1
  Cs  Cs10  1  0.33195955  0.00271650  0.33349494  1
  Cs  Cs11  1  0.33111263  0.00134239  0.66874381  1
  Cs  Cs12  1  0.33676201  0.33641701  -0.00167707  1
  Cs  Cs13  1  0.33272477  0.33252170  0.33388421  1
  Cs  Cs14  1  0.33240336  0.33175170  0.66728840  1
  Cs  Cs15  1  0.33174772  0.66648345  0.00276069  1
  Cs  Cs16  1  0.33164137  0.66726929  0.33199230  1
  Cs  Cs17  1  0.33818234  0.66664977  0.66420820  1
  Cs  Cs18  1  0.66666665  0.00151676  0.00311431  1
  Cs  Cs19  1  0.66666671  0.00262276  0.32911176  1
  Cs  Cs20  1  0.66666675  -0.00594397  0.66691001  1
  Cs  Cs21  1  0.66666661  0.33255422  -0.00036273  1
  Cs  Cs22  1  0.66666669  0.33142151  0.33308823  1
  Cs  Cs23  1  0.66666667  0.33508072  0.66787693  1
  Cs  Cs24  1  0.66666678  0.66589181  -0.00092351  1
  Cs  Cs25  1  0.66666671  0.66688446  0.33890339  1
  Cs  Cs26  1  0.66666669  0.67344364  0.65890491  1
  Sn  Sn27  1  0.50083654  0.83208320  0.16662504  1
  Sn  Sn28  1  0.83211760  0.50086010  0.16635377  1
  Sn  Sn29  1  0.16666668  0.50086279  0.50095745  1
  Sn  Sn30  1  0.50118417  0.16692205  0.50123074  1
  Sn  Sn31  1  0.16666671  0.50012458  0.83218653  1
  Sn  Sn32  1  0.50070146  0.49971190  0.83362700  1
  Sn  Sn33  1  0.83263188  0.49971185  0.83362700  1
  Sn  Sn34  1  0.83223232  0.16719488  0.83229054  1
  Sn  Sn35  1  0.83214919  0.16692206  0.50123076  1
  Sn  Sn36  1  0.83249682  0.83208324  0.16662507  1
  Sn  Sn37  1  0.50110105  0.16719487  0.83229050  1
  Sn  Sn38  1  0.16666667  0.83237930  0.50033807  1
  Sn  Sn39  1  0.50121576  0.50086012  0.16635376  1
  Sn  Sn40  1  0.16666668  0.16713186  0.16563929  1
  Pb  Pb41  1  0.49822726  0.83632281  0.49734620  1
  Pb  Pb42  1  0.83491816  0.16716842  0.16573507  1
  Pb  Pb43  1  0.83318849  0.83309449  0.83548646  1
  Pb  Pb44  1  0.50014490  0.83309447  0.83548642  1
  Pb  Pb45  1  0.49841509  0.16716841  0.16573506  1
  Pb  Pb46  1  0.16666664  0.83531275  0.16811346  1
  Pb  Pb47  1  0.83510117  0.49821645  0.50002472  1
  Pb  Pb48  1  0.16666667  0.49865921  0.16640070  1
  Pb  Pb49  1  0.16666666  0.82972514  0.83054074  1
  Pb  Pb50  1  0.16666667  0.16872572  0.83564301  1
  Pb  Pb51  1  0.16666665  0.16703388  0.49914829  1
  Pb  Pb52  1  0.49823219  0.49821646  0.50002472  1
  Pb  Pb53  1  0.83510607  0.83632279  0.49734617  1
  I  I54  1  0.16666661  0.00283321  0.17004765  1
  I  I55  1  0.16666667  -0.00137028  0.49390249  1
  I  I56  1  0.16666655  0.00014032  0.83383613  1
  I  I57  1  0.16666646  0.33132448  0.17054694  1
  I  I58  1  0.16666681  0.33563464  0.50197691  1
  I  I59  1  0.16666652  0.33677952  0.82738993  1
  I  I60  1  0.16666683  0.66649336  0.16594802  1
  I  I61  1  0.16666660  0.66554925  0.50184823  1
  I  I62  1  0.16666672  0.66138226  0.83571301  1
  I  I63  1  0.50222773  -0.00180104  0.16810530  1
  I  I64  1  0.50035489  0.00425843  0.50381320  1
  I  I65  1  0.50395184  0.00338003  0.83134845  1
  I  I66  1  0.50268126  0.33621655  0.16537657  1
  I  I67  1  0.50007765  0.33025956  0.49769011  1
  I  I68  1  0.49989034  0.33409211  0.83631228  1
  I  I69  1  0.50174683  0.66521171  0.16078757  1
  I  I70  1  0.49931339  0.66665756  0.50204459  1
  I  I71  1  0.49947370  0.66283274  0.83649322  1
  I  I72  1  0.83110568  -0.00180107  0.16810521  1
  I  I73  1  0.83297835  0.00425842  0.50381285  1
  I  I74  1  0.82938152  0.00338001  0.83134867  1
  I  I75  1  0.83065219  0.33621657  0.16537643  1
  I  I76  1  0.83325548  0.33025957  0.49769018  1
  I  I77  1  0.83344304  0.33409212  0.83631239  1
  I  I78  1  0.83158626  0.66521170  0.16078782  1
  I  I79  1  0.83401999  0.66665757  0.50204473  1
  I  I80  1  0.83385946  0.66283275  0.83649280  1
  I  I81  1  0.16666666  0.16784776  0.00289330  1
  I  I82  1  0.16666661  0.16898391  0.33148428  1
  I  I83  1  0.16666661  0.16493207  0.66713205  1
  I  I84  1  0.16666661  0.49562909  -0.00256784  1
  I  I85  1  0.16666664  0.50066498  0.33530407  1
  I  I86  1  0.16666670  0.50181859  0.66738479  1
  I  I87  1  0.16666661  0.83466744  0.00009438  1
  I  I88  1  0.16666681  0.82742964  0.33573118  1
  I  I89  1  0.16666662  0.83578376  0.66277599  1
  I  I90  1  0.50344915  0.16860314  -0.00298367  1
  I  I91  1  0.50137047  0.16631395  0.33498104  1
  I  I92  1  0.50161289  0.17335502  0.66765680  1
  I  I93  1  0.49777857  0.49713144  -0.00045312  1
  I  I94  1  0.50200240  0.50125960  0.33039398  1
  I  I95  1  0.50109711  0.49631862  0.66982513  1
  I  I96  1  0.50214327  0.83524447  0.00362268  1
  I  I97  1  0.50304870  0.82848906  0.32948714  1
  I  I98  1  0.49808289  0.83123905  0.66643479  1
  I  I99  1  0.82988423  0.16860311  -0.00298366  1
  I  I100  1  0.83196285  0.16631409  0.33498103  1
  I  I101  1  0.83172039  0.17335480  0.66765679  1
  I  I102  1  0.83555478  0.49713175  -0.00045313  1
  I  I103  1  0.83133098  0.50125950  0.33039396  1
  I  I104  1  0.83223621  0.49631842  0.66982515  1
  I  I105  1  0.83119013  0.83524413  0.00362269  1
  I  I106  1  0.83028449  0.82848904  0.32948714  1
  I  I107  1  0.83525042  0.83123935  0.66643480  1
  I  I108  1  0.00220362  0.16722778  0.16926024  1
  I  I109  1  -0.00217784  0.16707694  0.50184605  1
  I  I110  1  -0.00287853  0.17113153  0.83061039  1
  I  I111  1  -0.00258810  0.50185970  0.16353160  1
  I  I112  1  0.00310017  0.49982099  0.50252777  1
  I  I113  1  -0.00099067  0.49531330  0.83432182  1
  I  I114  1  -0.00256663  0.83024892  0.16765279  1
  I  I115  1  0.00279373  0.83125497  0.49644411  1
  I  I116  1  -0.00003591  0.83547201  0.83721266  1
  I  I117  1  0.33112965  0.16722788  0.16926035  1
  I  I118  1  0.33551111  0.16707683  0.50184602  1
  I  I119  1  0.33621182  0.17113157  0.83061033  1
  I  I120  1  0.33592142  0.50185946  0.16353158  1
  I  I121  1  0.33023317  0.49982121  0.50252767  1
  I  I122  1  0.33432401  0.49531314  0.83432194  1
  I  I123  1  0.33589994  0.83024923  0.16765259  1
  I  I124  1  0.33053964  0.83125488  0.49644425  1
  I  I125  1  0.33336924  0.83547227  0.83721281  1
  I  I126  1  0.66666667  0.16547968  0.16842552  1
  I  I127  1  0.66666668  0.16797072  0.50124120  1
  I  I128  1  0.66666666  0.17547163  0.83077580  1
  I  I129  1  0.66666666  0.50210578  0.15893363  1
  I  I130  1  0.66666669  0.49972206  0.50088250  1
  I  I131  1  0.66666669  0.49332964  0.84115509  1
  I  I132  1  0.66666667  0.83126328  0.16663407  1
  I  I133  1  0.66666670  0.83287662  0.50037951  1
  I  I134  1  0.66666668  0.83001116  0.83081873  1
