# generated using pymatgen
data_Cs27Sn13Pb14I81
_symmetry_space_group_name_H-M   'P 1'
_cell_length_a   18.97280329
_cell_length_b   18.98045472
_cell_length_c   18.97975405
_cell_angle_alpha   89.99969554
_cell_angle_beta   89.99860236
_cell_angle_gamma   89.99991337
_symmetry_Int_Tables_number   1
_chemical_formula_structural   Cs27Sn13Pb14I81
_chemical_formula_sum   'Cs27 Sn13 Pb14 I81'
_cell_volume   6834.84542294
_cell_formula_units_Z   1
loop_
 _symmetry_equiv_pos_site_id
 _symmetry_equiv_pos_as_xyz
  1  'x, y, z'
loop_
 _atom_site_type_symbol
 _atom_site_label
 _atom_site_symmetry_multiplicity
 _atom_site_fract_x
 _atom_site_fract_y
 _atom_site_fract_z
 _atom_site_occupancy
  Cs  Cs0  1  -0.00015189  -0.00029502  -0.00118045  1
  Cs  Cs1  1  -0.00214037  0.00103003  0.33235188  1
  Cs  Cs2  1  0.00293478  -0.00228417  0.66956919  1
  Cs  Cs3  1  -0.00252338  0.33324201  0.00147243  1
  Cs  Cs4  1  -0.00071366  0.33421711  0.33151050  1
  Cs  Cs5  1  -0.00047748  0.33448211  0.66627724  1
  Cs  Cs6  1  0.00204573  0.66800202  -0.00110955  1
  Cs  Cs7  1  0.00586768  0.66491331  0.33231835  1
  Cs  Cs8  1  0.00099730  0.66787149  0.66774913  1
  Cs  Cs9  1  0.33226406  0.00123945  0.00200266  1
  Cs  Cs10  1  0.33278587  -0.00035405  0.33177149  1
  Cs  Cs11  1  0.32753840  0.00781562  0.66715714  1
  Cs  Cs12  1  0.33795118  0.33137066  -0.00247815  1
  Cs  Cs13  1  0.33096877  0.33117233  0.33365607  1
  Cs  Cs14  1  0.33230790  0.32939712  0.66727357  1
  Cs  Cs15  1  0.33505982  0.66826538  0.00633758  1
  Cs  Cs16  1  0.32593565  0.66844976  0.32752816  1
  Cs  Cs17  1  0.33863649  0.66424965  0.66570898  1
  Cs  Cs18  1  0.66683341  -0.00025185  0.00117727  1
  Cs  Cs19  1  0.66722671  -0.00050763  0.33454526  1
  Cs  Cs20  1  0.66727316  -0.00337348  0.66460711  1
  Cs  Cs21  1  0.66678225  0.33462937  0.00022575  1
  Cs  Cs22  1  0.66759731  0.33338554  0.33304370  1
  Cs  Cs23  1  0.66705583  0.33556364  0.66687158  1
  Cs  Cs24  1  0.66532067  0.66499536  -0.00186464  1
  Cs  Cs25  1  0.66701629  0.66778636  0.33633384  1
  Cs  Cs26  1  0.66577390  0.66696533  0.66634566  1
  Sn  Sn27  1  0.16687338  0.50031162  0.83323609  1
  Sn  Sn28  1  0.83357652  0.16578681  0.16664308  1
  Sn  Sn29  1  0.83316003  0.16662293  0.50034069  1
  Sn  Sn30  1  0.16576378  0.16694017  0.16654810  1
  Sn  Sn31  1  0.50005511  0.83315244  0.83235146  1
  Sn  Sn32  1  0.83278419  0.50039365  0.50081227  1
  Sn  Sn33  1  0.83295572  0.16714284  0.83307742  1
  Sn  Sn34  1  0.83297490  0.83348218  0.16743210  1
  Sn  Sn35  1  0.83326403  0.83289334  0.49917625  1
  Sn  Sn36  1  0.50037149  0.83257585  0.50104369  1
  Sn  Sn37  1  0.83348927  0.49952585  0.83249148  1
  Sn  Sn38  1  0.50067910  0.50081091  0.50037344  1
  Sn  Sn39  1  0.49991225  0.50092067  0.83235403  1
  Pb  Pb40  1  0.50241071  0.16666896  0.83315545  1
  Pb  Pb41  1  0.50237212  0.83322680  0.16731774  1
  Pb  Pb42  1  0.17054142  0.83088710  0.83308861  1
  Pb  Pb43  1  0.16665489  0.49741637  0.16382266  1
  Pb  Pb44  1  0.16699743  0.50003639  0.50197418  1
  Pb  Pb45  1  0.16385454  0.16879984  0.83517032  1
  Pb  Pb46  1  0.50010819  0.50004573  0.16763639  1
  Pb  Pb47  1  0.16720162  0.83323834  0.50031730  1
  Pb  Pb48  1  0.83317339  0.50029237  0.16699440  1
  Pb  Pb49  1  0.83202616  0.83288472  0.83302903  1
  Pb  Pb50  1  0.16358142  0.83563178  0.16652606  1
  Pb  Pb51  1  0.16362198  0.16678564  0.49793489  1
  Pb  Pb52  1  0.50198599  0.16666986  0.50007335  1
  Pb  Pb53  1  0.50071735  0.16663613  0.16681676  1
  I  I54  1  0.16352872  0.00346715  0.16541885  1
  I  I55  1  0.16727506  0.00010685  0.50065169  1
  I  I56  1  0.16644387  0.00022722  0.83452832  1
  I  I57  1  0.15661871  0.32986269  0.16740222  1
  I  I58  1  0.16697885  0.33342078  0.49946803  1
  I  I59  1  0.17127125  0.33672056  0.83366443  1
  I  I60  1  0.16602353  0.66666597  0.16632081  1
  I  I61  1  0.16026178  0.66651130  0.49929267  1
  I  I62  1  0.15796248  0.66276052  0.83321056  1
  I  I63  1  0.49904900  -0.00021044  0.16554321  1
  I  I64  1  0.50581375  -0.00342324  0.50338665  1
  I  I65  1  0.50406110  -0.00293584  0.82987159  1
  I  I66  1  0.50271416  0.33332407  0.16552327  1
  I  I67  1  0.50470526  0.33685801  0.50501501  1
  I  I68  1  0.49866127  0.33699004  0.82956241  1
  I  I69  1  0.50244362  0.66678963  0.16468963  1
  I  I70  1  0.51079615  0.66634263  0.50597928  1
  I  I71  1  0.50348691  0.66531652  0.82957724  1
  I  I72  1  0.83627804  0.00080419  0.16928587  1
  I  I73  1  0.82929484  -0.00021614  0.49848979  1
  I  I74  1  0.83114045  0.00227598  0.83216699  1
  I  I75  1  0.83720670  0.33031314  0.16834571  1
  I  I76  1  0.83002652  0.33375415  0.50048178  1
  I  I77  1  0.83167173  0.33423435  0.83152541  1
  I  I78  1  0.83096504  0.66950046  0.16930416  1
  I  I79  1  0.82891678  0.66644029  0.50033862  1
  I  I80  1  0.83443484  0.66347594  0.83142579  1
  I  I81  1  0.15863450  0.16760264  0.00289718  1
  I  I82  1  0.16026537  0.16717063  0.32999582  1
  I  I83  1  0.16600784  0.16728237  0.66692606  1
  I  I84  1  0.16490883  0.49976426  -0.00429848  1
  I  I85  1  0.16643202  0.49928551  0.33331757  1
  I  I86  1  0.16498554  0.49841679  0.66998261  1
  I  I87  1  0.16574540  0.83251260  -0.00016257  1
  I  I88  1  0.17070112  0.83259808  0.33325222  1
  I  I89  1  0.15933267  0.83496685  0.66685922  1
  I  I90  1  0.50379209  0.16748861  -0.00025401  1
  I  I91  1  0.50262356  0.16759739  0.33357609  1
  I  I92  1  0.50124243  0.16617998  0.66667504  1
  I  I93  1  0.50160961  0.50327553  -0.00384709  1
  I  I94  1  0.50776129  0.50324749  0.33767386  1
  I  I95  1  0.50238233  0.50448326  0.66725487  1
  I  I96  1  0.50201093  0.82821967  -0.00278792  1
  I  I97  1  0.50360302  0.82927289  0.33711084  1
  I  I98  1  0.50861806  0.82766344  0.66591290  1
  I  I99  1  0.83666188  0.16696243  -0.00002154  1
  I  I100  1  0.83657349  0.16617311  0.33363857  1
  I  I101  1  0.83106494  0.16815139  0.66642814  1
  I  I102  1  0.83223009  0.49663500  -0.00334324  1
  I  I103  1  0.82799123  0.49735051  0.33692146  1
  I  I104  1  0.83272290  0.49642194  0.66685405  1
  I  I105  1  0.83189372  0.83728528  0.00179936  1
  I  I106  1  0.82771671  0.83721081  0.33464732  1
  I  I107  1  0.83105117  0.83583764  0.66367523  1
  I  I108  1  -0.00269616  0.16302817  0.16666484  1
  I  I109  1  -0.00541012  0.16724810  0.50233291  1
  I  I110  1  -0.00466206  0.17115200  0.83114835  1
  I  I111  1  -0.00044007  0.50212403  0.16637803  1
  I  I112  1  -0.00370754  0.49969840  0.50355679  1
  I  I113  1  -0.00177606  0.49435115  0.83033393  1
  I  I114  1  -0.00470466  0.83466756  0.17192717  1
  I  I115  1  -0.00411726  0.83308648  0.49575761  1
  I  I116  1  -0.00020502  0.83274225  0.83395252  1
  I  I117  1  0.33039260  0.16865232  0.16544846  1
  I  I118  1  0.33331847  0.16692528  0.49727730  1
  I  I119  1  0.33327663  0.16735857  0.83663646  1
  I  I120  1  0.33330402  0.49752024  0.16691758  1
  I  I121  1  0.33713863  0.50516652  0.50418693  1
  I  I122  1  0.33473435  0.50453873  0.83009049  1
  I  I123  1  0.33336190  0.83508976  0.16663162  1
  I  I124  1  0.33748614  0.82708009  0.50405714  1
  I  I125  1  0.33870830  0.82860441  0.82749888  1
  I  I126  1  0.67116632  0.16330075  0.16680151  1
  I  I127  1  0.67105361  0.16696372  0.49713304  1
  I  I128  1  0.67097190  0.17260069  0.83627602  1
  I  I129  1  0.66705617  0.49648237  0.16097851  1
  I  I130  1  0.66804893  0.50018633  0.50744710  1
  I  I131  1  0.66710652  0.49935458  0.82990996  1
  I  I132  1  0.67045398  0.84099477  0.16814528  1
  I  I133  1  0.66800058  0.83290714  0.49981803  1
  I  I134  1  0.66427341  0.82798596  0.83260099  1
