# generated using pymatgen
data_Cs27Sn13Pb14I81
_symmetry_space_group_name_H-M   'P 1'
_cell_length_a   18.97805903
_cell_length_b   18.98188809
_cell_length_c   18.97212848
_cell_angle_alpha   90.00239822
_cell_angle_beta   90.00117159
_cell_angle_gamma   90.00264501
_symmetry_Int_Tables_number   1
_chemical_formula_structural   Cs27Sn13Pb14I81
_chemical_formula_sum   'Cs27 Sn13 Pb14 I81'
_cell_volume   6834.50802639
_cell_formula_units_Z   1
loop_
 _symmetry_equiv_pos_site_id
 _symmetry_equiv_pos_as_xyz
  1  'x, y, z'
loop_
 _atom_site_type_symbol
 _atom_site_label
 _atom_site_symmetry_multiplicity
 _atom_site_fract_x
 _atom_site_fract_y
 _atom_site_fract_z
 _atom_site_occupancy
  Cs  Cs0  1  -0.00062775  0.00041223  -0.00062302  1
  Cs  Cs1  1  -0.00153301  -0.00281570  0.33269782  1
  Cs  Cs2  1  0.00205163  -0.00004757  0.66810505  1
  Cs  Cs3  1  -0.00363958  0.33192546  -0.00302641  1
  Cs  Cs4  1  0.00200068  0.33758554  0.33451297  1
  Cs  Cs5  1  -0.00069905  0.33471448  0.66797551  1
  Cs  Cs6  1  0.00252884  0.66890025  0.00202679  1
  Cs  Cs7  1  -0.00325896  0.66400083  0.33009588  1
  Cs  Cs8  1  -0.00202270  0.66692272  0.66537254  1
  Cs  Cs9  1  0.33298479  -0.00219561  -0.00107906  1
  Cs  Cs10  1  0.33335038  0.00230157  0.33662452  1
  Cs  Cs11  1  0.33230059  0.00093890  0.66612606  1
  Cs  Cs12  1  0.33394035  0.33431168  0.00138286  1
  Cs  Cs13  1  0.33357726  0.33440557  0.33348749  1
  Cs  Cs14  1  0.33155989  0.33001836  0.66428410  1
  Cs  Cs15  1  0.33923254  0.66608964  0.00469737  1
  Cs  Cs16  1  0.33039907  0.66308783  0.32800907  1
  Cs  Cs17  1  0.33457728  0.66904144  0.66797454  1
  Cs  Cs18  1  0.66801657  0.00009193  0.00881354  1
  Cs  Cs19  1  0.66963769  -0.00050393  0.32969520  1
  Cs  Cs20  1  0.66449811  -0.00017497  0.66472052  1
  Cs  Cs21  1  0.67121828  0.33572337  0.00284829  1
  Cs  Cs22  1  0.66412967  0.33116946  0.33103498  1
  Cs  Cs23  1  0.66793284  0.33428842  0.66830034  1
  Cs  Cs24  1  0.65545767  0.66423947  -0.00191631  1
  Cs  Cs25  1  0.67342726  0.66938391  0.33404673  1
  Cs  Cs26  1  0.66779245  0.66484409  0.66826394  1
  Sn  Sn27  1  0.16666952  0.16646157  0.16668633  1
  Sn  Sn28  1  0.16744214  0.16669797  0.83341740  1
  Sn  Sn29  1  0.49977296  0.16645358  0.83295779  1
  Sn  Sn30  1  0.49906060  0.83316003  0.50021090  1
  Sn  Sn31  1  0.16694253  0.50033592  0.83308013  1
  Sn  Sn32  1  0.49979933  0.50022584  0.50029227  1
  Sn  Sn33  1  0.16728445  0.83358247  0.50055404  1
  Sn  Sn34  1  0.83340338  0.83364692  0.83337033  1
  Sn  Sn35  1  0.83364024  0.16673359  0.50040143  1
  Sn  Sn36  1  0.83346153  0.49998824  0.16637116  1
  Sn  Sn37  1  0.16620831  0.16605581  0.49987708  1
  Sn  Sn38  1  0.50025697  0.16650948  0.50094351  1
  Sn  Sn39  1  0.16600593  0.83304596  0.83249079  1
  Pb  Pb40  1  0.83607886  0.16802723  0.16933168  1
  Pb  Pb41  1  0.16674831  0.83543185  0.16687197  1
  Pb  Pb42  1  0.83531803  0.50258796  0.83497912  1
  Pb  Pb43  1  0.83094991  0.49755198  0.49887363  1
  Pb  Pb44  1  0.83305425  0.16498942  0.83173255  1
  Pb  Pb45  1  0.16531930  0.49753289  0.16385422  1
  Pb  Pb46  1  0.16817605  0.50054517  0.50166330  1
  Pb  Pb47  1  0.49968323  0.83357775  0.17038598  1
  Pb  Pb48  1  0.83348520  0.83105793  0.16333090  1
  Pb  Pb49  1  0.49777131  0.16659039  0.16665238  1
  Pb  Pb50  1  0.50213740  0.49976183  0.16942257  1
  Pb  Pb51  1  0.49950575  0.83581107  0.83163010  1
  Pb  Pb52  1  0.49770887  0.49715608  0.83127151  1
  Pb  Pb53  1  0.83380085  0.83519419  0.50160935  1
  I  I54  1  0.16604112  0.00359560  0.16383389  1
  I  I55  1  0.17074745  0.00130379  0.50400074  1
  I  I56  1  0.16643152  0.00074997  0.83187658  1
  I  I57  1  0.16657164  0.32958738  0.16910016  1
  I  I58  1  0.16772445  0.32994779  0.50105402  1
  I  I59  1  0.17079364  0.33150734  0.83265099  1
  I  I60  1  0.16525443  0.66649099  0.16726384  1
  I  I61  1  0.17129862  0.66986099  0.50546172  1
  I  I62  1  0.16087634  0.66788185  0.82702024  1
  I  I63  1  0.50132321  0.00037975  0.16781085  1
  I  I64  1  0.49800885  0.00114764  0.50427325  1
  I  I65  1  0.49375639  0.00363682  0.82613936  1
  I  I66  1  0.49943596  0.33306522  0.16972180  1
  I  I67  1  0.49950308  0.33147330  0.50300590  1
  I  I68  1  0.49453504  0.32921278  0.82642883  1
  I  I69  1  0.49926852  0.66651738  0.16627493  1
  I  I70  1  0.49482846  0.66753104  0.49992706  1
  I  I71  1  0.49955012  0.66684417  0.83125956  1
  I  I72  1  0.83347636  0.00005331  0.16710274  1
  I  I73  1  0.83018143  0.00318081  0.50034627  1
  I  I74  1  0.84034160  -0.00257440  0.83133197  1
  I  I75  1  0.83404855  0.33554164  0.16624669  1
  I  I76  1  0.83532492  0.32943051  0.50090126  1
  I  I77  1  0.83441320  0.33321742  0.83321106  1
  I  I78  1  0.83571570  0.66364859  0.17008276  1
  I  I79  1  0.83279843  0.66677704  0.49929438  1
  I  I80  1  0.83936105  0.67033956  0.83136833  1
  I  I81  1  0.17092836  0.16682242  -0.00177641  1
  I  I82  1  0.16709556  0.16257190  0.33535688  1
  I  I83  1  0.16801844  0.16579422  0.66639936  1
  I  I84  1  0.16608902  0.50001218  -0.00416915  1
  I  I85  1  0.16698297  0.49929656  0.33337945  1
  I  I86  1  0.16657559  0.49473812  0.66959595  1
  I  I87  1  0.16178670  0.83543641  -0.00358789  1
  I  I88  1  0.17121638  0.83883391  0.33708504  1
  I  I89  1  0.16683914  0.83884665  0.66671403  1
  I  I90  1  0.49430738  0.16629870  -0.00322577  1
  I  I91  1  0.49888413  0.16658620  0.33738920  1
  I  I92  1  0.49459864  0.16660533  0.66501509  1
  I  I93  1  0.50016960  0.49842988  -0.00026951  1
  I  I94  1  0.49759461  0.49572848  0.33764734  1
  I  I95  1  0.50061181  0.50065386  0.66324924  1
  I  I96  1  0.50022973  0.83471299  -0.00040860  1
  I  I97  1  0.49447930  0.83768162  0.33910809  1
  I  I98  1  0.49826800  0.83325836  0.66325676  1
  I  I99  1  0.83338416  0.16664129  -0.00000794  1
  I  I100  1  0.83145358  0.16588613  0.33743613  1
  I  I101  1  0.83693311  0.16674737  0.66357303  1
  I  I102  1  0.83503378  0.49747352  0.00253915  1
  I  I103  1  0.83456861  0.49930153  0.33114049  1
  I  I104  1  0.83304916  0.49981611  0.66677770  1
  I  I105  1  0.84182456  0.83620205  -0.00441276  1
  I  I106  1  0.83301151  0.83354577  0.33348306  1
  I  I107  1  0.83661949  0.83359263  0.66927220  1
  I  I108  1  0.00389395  0.16716921  0.16520698  1
  I  I109  1  0.00188211  0.16221951  0.50043266  1
  I  I110  1  0.00358099  0.16790585  0.83177437  1
  I  I111  1  -0.00221976  0.49874105  0.16858743  1
  I  I112  1  0.00003226  0.49888700  0.49973104  1
  I  I113  1  0.00349047  0.49350374  0.83200569  1
  I  I114  1  0.00015512  0.83338905  0.17157159  1
  I  I115  1  0.00332711  0.83939033  0.50271275  1
  I  I116  1  0.00256272  0.83578961  0.82761798  1
  I  I117  1  0.32972925  0.16759024  0.17069408  1
  I  I118  1  0.33285500  0.16598965  0.50079504  1
  I  I119  1  0.33149160  0.16515911  0.82826682  1
  I  I120  1  0.33327844  0.49932105  0.16663190  1
  I  I121  1  0.33607987  0.49447270  0.50114071  1
  I  I122  1  0.32970160  0.50380338  0.83316448  1
  I  I123  1  0.33297752  0.83227028  0.16174191  1
  I  I124  1  0.33238802  0.83935887  0.50618310  1
  I  I125  1  0.32988897  0.83339589  0.83053229  1
  I  I126  1  0.66687102  0.16784938  0.16691642  1
  I  I127  1  0.66514320  0.16686462  0.50512587  1
  I  I128  1  0.66397542  0.16488442  0.82606319  1
  I  I129  1  0.66968340  0.49821068  0.16613147  1
  I  I130  1  0.66290105  0.50011512  0.49998706  1
  I  I131  1  0.66639920  0.50029863  0.83378635  1
  I  I132  1  0.66679857  0.83426787  0.16642036  1
  I  I133  1  0.66404249  0.83502236  0.50172605  1
  I  I134  1  0.66840898  0.83489547  0.83078932  1
