# generated using pymatgen
data_Cs27Sn13Pb14I81
_symmetry_space_group_name_H-M   'P 1'
_cell_length_a   18.97503889
_cell_length_b   18.97990659
_cell_length_c   18.97589817
_cell_angle_alpha   90.00349921
_cell_angle_beta   90.00015861
_cell_angle_gamma   90.00164141
_symmetry_Int_Tables_number   1
_chemical_formula_structural   Cs27Sn13Pb14I81
_chemical_formula_sum   'Cs27 Sn13 Pb14 I81'
_cell_volume   6834.06468914
_cell_formula_units_Z   1
loop_
 _symmetry_equiv_pos_site_id
 _symmetry_equiv_pos_as_xyz
  1  'x, y, z'
loop_
 _atom_site_type_symbol
 _atom_site_label
 _atom_site_symmetry_multiplicity
 _atom_site_fract_x
 _atom_site_fract_y
 _atom_site_fract_z
 _atom_site_occupancy
  Cs  Cs0  1  -0.00174925  -0.00067799  0.00211795  1
  Cs  Cs1  1  -0.00341991  -0.00030277  0.33086872  1
  Cs  Cs2  1  0.00411950  -0.00152954  0.66678685  1
  Cs  Cs3  1  -0.00310821  0.33117833  -0.00157538  1
  Cs  Cs4  1  -0.00126128  0.33068812  0.33583958  1
  Cs  Cs5  1  -0.00017656  0.33527941  0.66641373  1
  Cs  Cs6  1  0.00307421  0.67006715  -0.00095983  1
  Cs  Cs7  1  -0.00163692  0.67086632  0.33235430  1
  Cs  Cs8  1  -0.00075966  0.66575350  0.66730878  1
  Cs  Cs9  1  0.33429065  -0.00060828  -0.00063012  1
  Cs  Cs10  1  0.33415205  0.00347239  0.33531491  1
  Cs  Cs11  1  0.33727149  0.00078002  0.66506562  1
  Cs  Cs12  1  0.33323421  0.33627744  0.00228041  1
  Cs  Cs13  1  0.33406455  0.33381989  0.33340370  1
  Cs  Cs14  1  0.33160633  0.33284736  0.66448253  1
  Cs  Cs15  1  0.33258945  0.66471870  0.00184159  1
  Cs  Cs16  1  0.33222825  0.66259747  0.32844355  1
  Cs  Cs17  1  0.33288822  0.66670638  0.66823024  1
  Cs  Cs18  1  0.66650356  0.00391832  -0.00062450  1
  Cs  Cs19  1  0.66955133  -0.00355434  0.33365504  1
  Cs  Cs20  1  0.65498873  -0.00143844  0.66660293  1
  Cs  Cs21  1  0.67109046  0.33072882  -0.00020276  1
  Cs  Cs22  1  0.66840041  0.33515490  0.33075325  1
  Cs  Cs23  1  0.67049128  0.33384350  0.66974758  1
  Cs  Cs24  1  0.66305988  0.66433111  -0.00047006  1
  Cs  Cs25  1  0.66918919  0.66756707  0.33661849  1
  Cs  Cs26  1  0.66879761  0.66753422  0.66293111  1
  Sn  Sn27  1  0.49937606  0.16572762  0.16662483  1
  Sn  Sn28  1  0.49945104  0.49980839  0.83222932  1
  Sn  Sn29  1  0.16616717  0.83340027  0.83260098  1
  Sn  Sn30  1  0.49941143  0.49986714  0.50102243  1
  Sn  Sn31  1  0.83299375  0.16625785  0.50084552  1
  Sn  Sn32  1  0.16736021  0.49987314  0.83266887  1
  Sn  Sn33  1  0.49971838  0.83423855  0.16673474  1
  Sn  Sn34  1  0.16726492  0.50109362  0.50053786  1
  Sn  Sn35  1  0.83327919  0.83356531  0.83313368  1
  Sn  Sn36  1  0.16690853  0.16663392  0.83421667  1
  Sn  Sn37  1  0.16693859  0.83241607  0.50032552  1
  Sn  Sn38  1  0.16724988  0.16676430  0.16595115  1
  Sn  Sn39  1  0.83406283  0.50046296  0.16645448  1
  Pb  Pb40  1  0.49914898  0.83129499  0.83474217  1
  Pb  Pb41  1  0.16821148  0.83567809  0.16661130  1
  Pb  Pb42  1  0.83551329  0.16397574  0.83088855  1
  Pb  Pb43  1  0.16578481  0.16676662  0.50022356  1
  Pb  Pb44  1  0.16450953  0.49792285  0.16668058  1
  Pb  Pb45  1  0.50148248  0.49955761  0.16665968  1
  Pb  Pb46  1  0.83096450  0.83134475  0.16439181  1
  Pb  Pb47  1  0.83339340  0.16778448  0.16791204  1
  Pb  Pb48  1  0.83400969  0.49904305  0.49857846  1
  Pb  Pb49  1  0.49758104  0.16938488  0.83522054  1
  Pb  Pb50  1  0.49724105  0.83084133  0.49775045  1
  Pb  Pb51  1  0.83551530  0.83564425  0.50243089  1
  Pb  Pb52  1  0.50240569  0.16918493  0.49786304  1
  Pb  Pb53  1  0.83391525  0.50174407  0.83487499  1
  I  I54  1  0.16734066  0.00354811  0.16360689  1
  I  I55  1  0.16374043  -0.00220694  0.50287365  1
  I  I56  1  0.16109292  -0.00046926  0.83358897  1
  I  I57  1  0.17230182  0.33013301  0.16375160  1
  I  I58  1  0.16848649  0.33612427  0.50255658  1
  I  I59  1  0.17126590  0.33411812  0.83325432  1
  I  I60  1  0.16784366  0.66666447  0.16478934  1
  I  I61  1  0.16923569  0.66578213  0.50733883  1
  I  I62  1  0.16631941  0.66638044  0.82893320  1
  I  I63  1  0.49585836  0.00069660  0.16568221  1
  I  I64  1  0.49963138  -0.00009749  0.49995080  1
  I  I65  1  0.49988015  0.00010964  0.83398482  1
  I  I66  1  0.49726927  0.33112242  0.16691941  1
  I  I67  1  0.49233582  0.33704608  0.50064487  1
  I  I68  1  0.49541906  0.33735007  0.83244540  1
  I  I69  1  0.50173652  0.66806811  0.16588367  1
  I  I70  1  0.49986228  0.66291951  0.50084423  1
  I  I71  1  0.49445279  0.66341090  0.83412396  1
  I  I72  1  0.83440893  -0.00011470  0.16741910  1
  I  I73  1  0.83711148  0.00291482  0.49708204  1
  I  I74  1  0.83982413  -0.00355960  0.83480682  1
  I  I75  1  0.83081890  0.33552399  0.16626955  1
  I  I76  1  0.83642623  0.33143152  0.49832002  1
  I  I77  1  0.83382591  0.33323364  0.83428012  1
  I  I78  1  0.83167037  0.66383621  0.16798223  1
  I  I79  1  0.83188426  0.66689650  0.49870865  1
  I  I80  1  0.83974717  0.66927621  0.83431678  1
  I  I81  1  0.16955210  0.16742076  -0.00069953  1
  I  I82  1  0.16854092  0.16740296  0.33118007  1
  I  I83  1  0.16337959  0.16721549  0.66943351  1
  I  I84  1  0.17036591  0.50264069  -0.00316481  1
  I  I85  1  0.17002204  0.50242446  0.33622424  1
  I  I86  1  0.16981539  0.49828139  0.66734216  1
  I  I87  1  0.16474431  0.83054359  -0.00315720  1
  I  I88  1  0.16893869  0.82930416  0.33584861  1
  I  I89  1  0.16299301  0.83412799  0.66784678  1
  I  I90  1  0.49944348  0.16595476  0.00325914  1
  I  I91  1  0.49254450  0.16641116  0.32989135  1
  I  I92  1  0.49981785  0.16576977  0.66674817  1
  I  I93  1  0.49592684  0.50107610  -0.00232200  1
  I  I94  1  0.49635757  0.49966268  0.33559639  1
  I  I95  1  0.49582090  0.50056121  0.66687787  1
  I  I96  1  0.49802867  0.83357579  0.00254698  1
  I  I97  1  0.49894452  0.83480978  0.33010178  1
  I  I98  1  0.50204795  0.83368183  0.66661340  1
  I  I99  1  0.83240172  0.16749694  -0.00032853  1
  I  I100  1  0.83697698  0.16860716  0.33544407  1
  I  I101  1  0.83689791  0.17033359  0.66375697  1
  I  I102  1  0.83160077  0.49861882  0.00241101  1
  I  I103  1  0.83178691  0.49837804  0.33093185  1
  I  I104  1  0.83265726  0.49935044  0.66677381  1
  I  I105  1  0.84195388  0.83272775  -0.00313140  1
  I  I106  1  0.83425550  0.83315515  0.33345262  1
  I  I107  1  0.83587421  0.83099304  0.67011392  1
  I  I108  1  0.00265170  0.16929304  0.16426861  1
  I  I109  1  -0.00156453  0.16939902  0.49726478  1
  I  I110  1  0.00409879  0.17202185  0.83923541  1
  I  I111  1  -0.00257609  0.49767104  0.16671319  1
  I  I112  1  0.00341767  0.50128169  0.50367377  1
  I  I113  1  0.00366181  0.49837399  0.83025926  1
  I  I114  1  0.00023237  0.83376616  0.16819840  1
  I  I115  1  0.00372904  0.82690780  0.50071917  1
  I  I116  1  0.00240289  0.83057355  0.83099029  1
  I  I117  1  0.33292743  0.16472485  0.16367459  1
  I  I118  1  0.33333743  0.16573731  0.50024113  1
  I  I119  1  0.32916637  0.16174304  0.83341580  1
  I  I120  1  0.33311990  0.50053275  0.16677627  1
  I  I121  1  0.33220631  0.50236326  0.50270825  1
  I  I122  1  0.33184973  0.50200041  0.83108671  1
  I  I123  1  0.33591174  0.83277142  0.16439615  1
  I  I124  1  0.32934481  0.83402354  0.50761087  1
  I  I125  1  0.32971609  0.83458227  0.83105088  1
  I  I126  1  0.66411237  0.16566075  0.16912259  1
  I  I127  1  0.66969600  0.16889144  0.49758547  1
  I  I128  1  0.66651393  0.16713355  0.83456257  1
  I  I129  1  0.66876086  0.49807640  0.16647264  1
  I  I130  1  0.66420778  0.49716908  0.50188427  1
  I  I131  1  0.66421184  0.50262137  0.83163455  1
  I  I132  1  0.66323406  0.83862278  0.16475503  1
  I  I133  1  0.66644274  0.83260743  0.50040714  1
  I  I134  1  0.66836956  0.83049004  0.83657059  1
