# generated using pymatgen
data_Cs27Sn13Pb14I81
_symmetry_space_group_name_H-M   'P 1'
_cell_length_a   18.97480955
_cell_length_b   18.98557347
_cell_length_c   18.97238867
_cell_angle_alpha   90.00046326
_cell_angle_beta   90.00250570
_cell_angle_gamma   89.99988229
_symmetry_Int_Tables_number   1
_chemical_formula_structural   Cs27Sn13Pb14I81
_chemical_formula_sum   'Cs27 Sn13 Pb14 I81'
_cell_volume   6834.75824960
_cell_formula_units_Z   1
loop_
 _symmetry_equiv_pos_site_id
 _symmetry_equiv_pos_as_xyz
  1  'x, y, z'
loop_
 _atom_site_type_symbol
 _atom_site_label
 _atom_site_symmetry_multiplicity
 _atom_site_fract_x
 _atom_site_fract_y
 _atom_site_fract_z
 _atom_site_occupancy
  Cs  Cs0  1  0.00185870  0.00084974  -0.00532215  1
  Cs  Cs1  1  0.00290915  0.00172582  0.33322279  1
  Cs  Cs2  1  -0.00537286  0.00060742  0.67265036  1
  Cs  Cs3  1  0.00078386  0.33118501  -0.00029503  1
  Cs  Cs4  1  0.00052666  0.33713997  0.33380369  1
  Cs  Cs5  1  -0.00413864  0.33259819  0.66612422  1
  Cs  Cs6  1  -0.00245915  0.66851672  -0.00027216  1
  Cs  Cs7  1  -0.00343464  0.65980060  0.33300858  1
  Cs  Cs8  1  -0.00288032  0.66685572  0.66647325  1
  Cs  Cs9  1  0.33085945  0.00034313  0.00182584  1
  Cs  Cs10  1  0.33201917  0.00049069  0.33482287  1
  Cs  Cs11  1  0.33332479  -0.00112257  0.66474506  1
  Cs  Cs12  1  0.33453394  0.33382251  0.00007140  1
  Cs  Cs13  1  0.33108199  0.33168990  0.33267588  1
  Cs  Cs14  1  0.33506453  0.33365782  0.66647080  1
  Cs  Cs15  1  0.33338280  0.66523634  -0.00074944  1
  Cs  Cs16  1  0.33031304  0.66826417  0.33491675  1
  Cs  Cs17  1  0.33519157  0.66717198  0.66592159  1
  Cs  Cs18  1  0.66757450  -0.00247265  0.00521906  1
  Cs  Cs19  1  0.66881198  -0.00163099  0.33141274  1
  Cs  Cs20  1  0.66870887  0.00077131  0.66513747  1
  Cs  Cs21  1  0.66326939  0.33446391  0.00002700  1
  Cs  Cs22  1  0.66898878  0.33220428  0.33084768  1
  Cs  Cs23  1  0.66483711  0.33306361  0.66727133  1
  Cs  Cs24  1  0.66838514  0.66716165  0.00533321  1
  Cs  Cs25  1  0.67496112  0.66882959  0.32538156  1
  Cs  Cs26  1  0.66236371  0.66606912  0.66684072  1
  Sn  Sn27  1  0.49964302  0.83325266  0.50042807  1
  Sn  Sn28  1  0.83292706  0.49993785  0.83303034  1
  Sn  Sn29  1  0.16674376  0.49993007  0.83288835  1
  Sn  Sn30  1  0.49984705  0.50022915  0.83266937  1
  Sn  Sn31  1  0.49959982  0.16609978  0.83274511  1
  Sn  Sn32  1  0.16687837  0.83414838  0.49954948  1
  Sn  Sn33  1  0.16696933  0.83380520  0.16747031  1
  Sn  Sn34  1  0.49993337  0.50020872  0.49980985  1
  Sn  Sn35  1  0.83462791  0.16662196  0.16671943  1
  Sn  Sn36  1  0.49923181  0.16658022  0.50065516  1
  Sn  Sn37  1  0.49963870  0.83356765  0.83296716  1
  Sn  Sn38  1  0.16584107  0.16593560  0.16731515  1
  Sn  Sn39  1  0.16709226  0.16586352  0.49993175  1
  Pb  Pb40  1  0.83351415  0.49750703  0.16420643  1
  Pb  Pb41  1  0.83366296  0.83345986  0.50003625  1
  Pb  Pb42  1  0.49916972  0.16659075  0.16741644  1
  Pb  Pb43  1  0.16857059  0.16830212  0.83269706  1
  Pb  Pb44  1  0.83012619  0.16830730  0.83541382  1
  Pb  Pb45  1  0.49979010  0.50022807  0.16732317  1
  Pb  Pb46  1  0.83342126  0.16660766  0.49825551  1
  Pb  Pb47  1  0.49765843  0.83333719  0.16751601  1
  Pb  Pb48  1  0.82997188  0.83113665  0.83323586  1
  Pb  Pb49  1  0.16848386  0.83144293  0.83260460  1
  Pb  Pb50  1  0.83715220  0.83581293  0.16673949  1
  Pb  Pb51  1  0.82998912  0.49992559  0.50216426  1
  Pb  Pb52  1  0.16834178  0.49996975  0.50210669  1
  Pb  Pb53  1  0.16685433  0.49987611  0.16446206  1
  I  I54  1  0.16412201  0.00082842  0.16980014  1
  I  I55  1  0.17647651  0.00041728  0.49487144  1
  I  I56  1  0.16908841  -0.00000899  0.83486456  1
  I  I57  1  0.16369739  0.32992588  0.17023253  1
  I  I58  1  0.17150894  0.33036610  0.49645774  1
  I  I59  1  0.17069923  0.33618309  0.83398775  1
  I  I60  1  0.16995709  0.66963419  0.17006686  1
  I  I61  1  0.17203061  0.66954831  0.49707959  1
  I  I62  1  0.17014009  0.66356420  0.83384255  1
  I  I63  1  0.50282014  0.00012016  0.16310126  1
  I  I64  1  0.49540325  0.00017398  0.50683261  1
  I  I65  1  0.49849633  0.00010819  0.82754076  1
  I  I66  1  0.49809680  0.33310944  0.16509852  1
  I  I67  1  0.49614860  0.33272680  0.50697001  1
  I  I68  1  0.50007987  0.33388956  0.82837185  1
  I  I69  1  0.49795895  0.66688503  0.16503186  1
  I  I70  1  0.49459799  0.66715497  0.50876053  1
  I  I71  1  0.49924231  0.66603943  0.82718596  1
  I  I72  1  0.83230206  0.00347181  0.16580771  1
  I  I73  1  0.82764384  0.00018666  0.50029738  1
  I  I74  1  0.83232907  0.00014137  0.83454485  1
  I  I75  1  0.83959646  0.32989408  0.16707118  1
  I  I76  1  0.83357710  0.33324568  0.49941046  1
  I  I77  1  0.83049893  0.33634278  0.83419343  1
  I  I78  1  0.83322669  0.66675222  0.16568767  1
  I  I79  1  0.83421573  0.66657899  0.49975922  1
  I  I80  1  0.83208199  0.66290574  0.83364700  1
  I  I81  1  0.16481165  0.16415016  0.00239956  1
  I  I82  1  0.16966354  0.16371896  0.33390447  1
  I  I83  1  0.17080214  0.16357954  0.66347160  1
  I  I84  1  0.17103610  0.49953180  -0.00377936  1
  I  I85  1  0.16926796  0.49981844  0.33371234  1
  I  I86  1  0.16703073  0.49970157  0.67009521  1
  I  I87  1  0.16823509  0.83659093  0.00210336  1
  I  I88  1  0.17427763  0.83762229  0.33431503  1
  I  I89  1  0.17045969  0.83662758  0.66335512  1
  I  I90  1  0.50008479  0.16902103  -0.00273334  1
  I  I91  1  0.49913690  0.16686033  0.33707297  1
  I  I92  1  0.49490197  0.16800617  0.66605506  1
  I  I93  1  0.50026612  0.49901339  -0.00404522  1
  I  I94  1  0.49773760  0.49827511  0.33726936  1
  I  I95  1  0.49979828  0.49962699  0.66775924  1
  I  I96  1  0.49895326  0.83207425  -0.00288143  1
  I  I97  1  0.49771058  0.83460689  0.33723577  1
  I  I98  1  0.49415736  0.83238908  0.66617842  1
  I  I99  1  0.83939290  0.16780271  0.00311151  1
  I  I100  1  0.83191350  0.16705288  0.33027928  1
  I  I101  1  0.83545227  0.16812204  0.66687782  1
  I  I102  1  0.82878095  0.49969450  -0.00386782  1
  I  I103  1  0.83150976  0.49994758  0.33327505  1
  I  I104  1  0.83501390  0.49825556  0.67037938  1
  I  I105  1  0.83248068  0.83268211  0.00000226  1
  I  I106  1  0.82606063  0.83263728  0.33319447  1
  I  I107  1  0.83869100  0.83428211  0.66684703  1
  I  I108  1  0.00190329  0.16341527  0.17116689  1
  I  I109  1  0.00368612  0.16234495  0.49799103  1
  I  I110  1  0.00007442  0.16990365  0.83146848  1
  I  I111  1  0.00028431  0.50192411  0.16426578  1
  I  I112  1  0.00011031  0.49990643  0.50276825  1
  I  I113  1  0.00017731  0.49923403  0.83531259  1
  I  I114  1  0.00498804  0.83392917  0.17196482  1
  I  I115  1  0.00411822  0.83823175  0.49605147  1
  I  I116  1  0.00016750  0.83050446  0.83356007  1
  I  I117  1  0.33012726  0.16322094  0.16751572  1
  I  I118  1  0.33394893  0.16652068  0.49785300  1
  I  I119  1  0.33688333  0.17021807  0.83438598  1
  I  I120  1  0.33315371  0.49651566  0.16139975  1
  I  I121  1  0.33665456  0.49967748  0.50742932  1
  I  I122  1  0.33519706  0.49989469  0.83059475  1
  I  I123  1  0.32996916  0.84101226  0.16732540  1
  I  I124  1  0.33410232  0.83405003  0.50020321  1
  I  I125  1  0.33685716  0.83030368  0.83211691  1
  I  I126  1  0.66832197  0.16936574  0.16509505  1
  I  I127  1  0.66286835  0.16695322  0.50306999  1
  I  I128  1  0.66190781  0.16937378  0.82874513  1
  I  I129  1  0.66669491  0.49767185  0.16482478  1
  I  I130  1  0.66138186  0.49869188  0.50662737  1
  I  I131  1  0.66480190  0.49903691  0.82932422  1
  I  I132  1  0.66684701  0.83396110  0.16608792  1
  I  I133  1  0.66256590  0.83409336  0.50569312  1
  I  I134  1  0.66139914  0.83219055  0.82713416  1
