# generated using pymatgen
data_Cs27Sn13Pb14I81
_symmetry_space_group_name_H-M   'P 1'
_cell_length_a   18.97806290
_cell_length_b   18.97417448
_cell_length_c   18.97819744
_cell_angle_alpha   89.99915460
_cell_angle_beta   90.00006894
_cell_angle_gamma   89.99938875
_symmetry_Int_Tables_number   1
_chemical_formula_structural   Cs27Sn13Pb14I81
_chemical_formula_sum   'Cs27 Sn13 Pb14 I81'
_cell_volume   6833.91750547
_cell_formula_units_Z   1
loop_
 _symmetry_equiv_pos_site_id
 _symmetry_equiv_pos_as_xyz
  1  'x, y, z'
loop_
 _atom_site_type_symbol
 _atom_site_label
 _atom_site_symmetry_multiplicity
 _atom_site_fract_x
 _atom_site_fract_y
 _atom_site_fract_z
 _atom_site_occupancy
  Cs  Cs0  1  -0.00047554  -0.00067638  -0.00201108  1
  Cs  Cs1  1  -0.00120659  -0.00161477  0.33535170  1
  Cs  Cs2  1  -0.00012013  0.00232571  0.66915610  1
  Cs  Cs3  1  -0.00366919  0.33070581  0.00133239  1
  Cs  Cs4  1  0.00632672  0.33245931  0.33482618  1
  Cs  Cs5  1  -0.00087749  0.33260895  0.66371826  1
  Cs  Cs6  1  0.00007716  0.66918816  -0.00031762  1
  Cs  Cs7  1  -0.00041151  0.66832998  0.33246161  1
  Cs  Cs8  1  0.00465675  0.66523167  0.66853556  1
  Cs  Cs9  1  0.33345995  -0.00098807  0.00006539  1
  Cs  Cs10  1  0.33529058  0.00391179  0.33369107  1
  Cs  Cs11  1  0.33631407  -0.00176219  0.66683627  1
  Cs  Cs12  1  0.33615890  0.33812307  0.00835690  1
  Cs  Cs13  1  0.32635041  0.32717478  0.32552210  1
  Cs  Cs14  1  0.32977230  0.33767075  0.66540842  1
  Cs  Cs15  1  0.33347835  0.66429947  -0.00048921  1
  Cs  Cs16  1  0.33154670  0.66703117  0.33283697  1
  Cs  Cs17  1  0.32992925  0.66545271  0.66823775  1
  Cs  Cs18  1  0.66715685  0.00011630  -0.00079820  1
  Cs  Cs19  1  0.66463407  -0.00293117  0.34253926  1
  Cs  Cs20  1  0.66482028  0.00004168  0.66423191  1
  Cs  Cs21  1  0.66697785  0.33383389  -0.00071345  1
  Cs  Cs22  1  0.66472049  0.33329019  0.33290556  1
  Cs  Cs23  1  0.66825830  0.33476538  0.66813350  1
  Cs  Cs24  1  0.66690639  0.66623320  0.00099820  1
  Cs  Cs25  1  0.66821789  0.66946609  0.33634654  1
  Cs  Cs26  1  0.66571164  0.66485252  0.66465983  1
  Sn  Sn27  1  0.83288400  0.16649238  0.83390733  1
  Sn  Sn28  1  0.49972036  0.16662409  0.83345877  1
  Sn  Sn29  1  0.83231143  0.83341207  0.83322859  1
  Sn  Sn30  1  0.50096169  0.83362688  0.83415214  1
  Sn  Sn31  1  0.49992936  0.49938099  0.49948353  1
  Sn  Sn32  1  0.83317896  0.50008993  0.83338762  1
  Sn  Sn33  1  0.83321993  0.49917476  0.16695215  1
  Sn  Sn34  1  0.49954627  0.83341989  0.16613292  1
  Sn  Sn35  1  0.16765665  0.83360136  0.16740719  1
  Sn  Sn36  1  0.83265773  0.49993451  0.49975515  1
  Sn  Sn37  1  0.16675012  0.83373903  0.49917306  1
  Sn  Sn38  1  0.83281720  0.16682225  0.16648695  1
  Sn  Sn39  1  0.16734990  0.16715469  0.83372922  1
  Pb  Pb40  1  0.83529194  0.83107191  0.50334269  1
  Pb  Pb41  1  0.16406382  0.49671644  0.83376409  1
  Pb  Pb42  1  0.50236427  0.50222492  0.16911059  1
  Pb  Pb43  1  0.16674459  0.50155011  0.49978591  1
  Pb  Pb44  1  0.83287071  0.83377261  0.16512336  1
  Pb  Pb45  1  0.16436257  0.16409341  0.16442296  1
  Pb  Pb46  1  0.16399331  0.50231017  0.16644268  1
  Pb  Pb47  1  0.49985865  0.16977050  0.50252310  1
  Pb  Pb48  1  0.16677316  0.16406878  0.50226599  1
  Pb  Pb49  1  0.50266021  0.16433459  0.16463292  1
  Pb  Pb50  1  0.83318266  0.16903270  0.49990680  1
  Pb  Pb51  1  0.50170882  0.50007653  0.83216193  1
  Pb  Pb52  1  0.16723309  0.83478428  0.83375757  1
  Pb  Pb53  1  0.49811454  0.83160944  0.50054163  1
  I  I54  1  0.16727670  -0.00374470  0.16924153  1
  I  I55  1  0.16677123  -0.00382733  0.49645556  1
  I  I56  1  0.16011455  0.00244825  0.83334095  1
  I  I57  1  0.16722807  0.33292165  0.16576256  1
  I  I58  1  0.16561708  0.33331181  0.50254931  1
  I  I59  1  0.16669986  0.32871347  0.83196649  1
  I  I60  1  0.16741253  0.67051553  0.16836014  1
  I  I61  1  0.16546749  0.66960776  0.49886759  1
  I  I62  1  0.16523612  0.66682148  0.83239655  1
  I  I63  1  0.49865358  -0.00370976  0.16478205  1
  I  I64  1  0.49878340  -0.00018461  0.49911357  1
  I  I65  1  0.50518614  -0.00057956  0.83612626  1
  I  I66  1  0.49970858  0.33324490  0.16589722  1
  I  I67  1  0.50691622  0.33746274  0.50327096  1
  I  I68  1  0.50229707  0.33060399  0.83015286  1
  I  I69  1  0.49847071  0.67025015  0.15916980  1
  I  I70  1  0.50544657  0.66408642  0.50247774  1
  I  I71  1  0.50482102  0.66969609  0.83521966  1
  I  I72  1  0.83476014  0.00226830  0.15860750  1
  I  I73  1  0.83469457  -0.00023556  0.49990017  1
  I  I74  1  0.83391438  0.00065663  0.83896231  1
  I  I75  1  0.83275052  0.33361332  0.16013501  1
  I  I76  1  0.83057928  0.33724350  0.50591963  1
  I  I77  1  0.83359215  0.33295410  0.83364148  1
  I  I78  1  0.83375890  0.66433063  0.16496617  1
  I  I79  1  0.83002127  0.66306015  0.49915090  1
  I  I80  1  0.82900663  0.66673253  0.83378474  1
  I  I81  1  0.16585722  0.16260231  -0.00351273  1
  I  I82  1  0.16422679  0.16745230  0.33288853  1
  I  I83  1  0.16188725  0.16387431  0.67063623  1
  I  I84  1  0.16600379  0.50433937  -0.00002332  1
  I  I85  1  0.16331321  0.49936139  0.33319274  1
  I  I86  1  0.16414215  0.50343535  0.66683084  1
  I  I87  1  0.16624398  0.83503256  0.00210665  1
  I  I88  1  0.17059767  0.83161018  0.33246628  1
  I  I89  1  0.16536228  0.83397938  0.66529020  1
  I  I90  1  0.49970693  0.16549831  -0.00397018  1
  I  I91  1  0.50250498  0.16485068  0.33301761  1
  I  I92  1  0.50441236  0.15879891  0.67133112  1
  I  I93  1  0.50143071  0.49924195  0.00012435  1
  I  I94  1  0.50814741  0.50406594  0.33660923  1
  I  I95  1  0.50714596  0.50209724  0.66443560  1
  I  I96  1  0.49856792  0.83612156  -0.00117742  1
  I  I97  1  0.49871210  0.83057888  0.33095939  1
  I  I98  1  0.50278304  0.83625755  0.66992713  1
  I  I99  1  0.83373517  0.17125358  -0.00199761  1
  I  I100  1  0.83423642  0.17023842  0.33022243  1
  I  I101  1  0.83377327  0.16683796  0.67049178  1
  I  I102  1  0.83443439  0.49918770  -0.00073576  1
  I  I103  1  0.82931266  0.49686087  0.33309230  1
  I  I104  1  0.82963958  0.50047500  0.66754762  1
  I  I105  1  0.83482551  0.82975628  -0.00319264  1
  I  I106  1  0.83185734  0.83320081  0.33340444  1
  I  I107  1  0.82946711  0.83523501  0.67160104  1
  I  I108  1  -0.00362498  0.16869616  0.15940507  1
  I  I109  1  -0.00020785  0.16829601  0.50362873  1
  I  I110  1  -0.00177773  0.16570686  0.83654248  1
  I  I111  1  -0.00464050  0.49872336  0.16778555  1
  I  I112  1  -0.00334714  0.50131283  0.50156886  1
  I  I113  1  -0.00502471  0.50280875  0.83043195  1
  I  I114  1  0.00162736  0.83260821  0.16819144  1
  I  I115  1  0.00280838  0.83120654  0.49505204  1
  I  I116  1  -0.00263358  0.83367387  0.83359838  1
  I  I117  1  0.33347916  0.16733795  0.16462078  1
  I  I118  1  0.33337982  0.16947355  0.50271000  1
  I  I119  1  0.33416183  0.15783149  0.83046864  1
  I  I120  1  0.33359097  0.49945037  0.16867748  1
  I  I121  1  0.33595369  0.50344152  0.50392911  1
  I  I122  1  0.33353910  0.50111530  0.82911030  1
  I  I123  1  0.33375279  0.83318060  0.16361585  1
  I  I124  1  0.33058518  0.82977328  0.50211905  1
  I  I125  1  0.33619260  0.83831087  0.83345498  1
  I  I126  1  0.67055756  0.16909189  0.15891766  1
  I  I127  1  0.66669571  0.16300143  0.50235279  1
  I  I128  1  0.66782182  0.16585526  0.83689991  1
  I  I129  1  0.67065988  0.49919657  0.16281715  1
  I  I130  1  0.66828823  0.50190190  0.50174390  1
  I  I131  1  0.67046371  0.49665959  0.83482428  1
  I  I132  1  0.66446982  0.83231922  0.16242311  1
  I  I133  1  0.66671601  0.83338051  0.49795271  1
  I  I134  1  0.66679050  0.83711120  0.83851448  1
