# generated using pymatgen
data_Cs27Sn14Pb13I81
_symmetry_space_group_name_H-M   'P 1'
_cell_length_a   18.96149221
_cell_length_b   18.95774593
_cell_length_c   18.96231854
_cell_angle_alpha   89.99910397
_cell_angle_beta   89.99797751
_cell_angle_gamma   89.99879387
_symmetry_Int_Tables_number   1
_chemical_formula_structural   Cs27Sn14Pb13I81
_chemical_formula_sum   'Cs27 Sn14 Pb13 I81'
_cell_volume   6816.33062673
_cell_formula_units_Z   1
loop_
 _symmetry_equiv_pos_site_id
 _symmetry_equiv_pos_as_xyz
  1  'x, y, z'
loop_
 _atom_site_type_symbol
 _atom_site_label
 _atom_site_symmetry_multiplicity
 _atom_site_fract_x
 _atom_site_fract_y
 _atom_site_fract_z
 _atom_site_occupancy
  Cs  Cs0  1  -0.00143415  -0.00096916  0.00106414  1
  Cs  Cs1  1  -0.00293169  0.00189667  0.33544228  1
  Cs  Cs2  1  0.00147314  0.00246529  0.66250231  1
  Cs  Cs3  1  -0.00247300  0.33374290  0.00065993  1
  Cs  Cs4  1  0.00143151  0.32780220  0.33041105  1
  Cs  Cs5  1  -0.00254488  0.32617080  0.66893341  1
  Cs  Cs6  1  0.00123435  0.66642630  -0.00069981  1
  Cs  Cs7  1  0.00203546  0.66856139  0.33247687  1
  Cs  Cs8  1  -0.00068521  0.66749850  0.66903272  1
  Cs  Cs9  1  0.33747771  -0.00276490  -0.00142029  1
  Cs  Cs10  1  0.33363468  -0.00069986  0.33258567  1
  Cs  Cs11  1  0.33407043  0.00256404  0.66801718  1
  Cs  Cs12  1  0.33300687  0.33502997  0.00108132  1
  Cs  Cs13  1  0.33483824  0.33432885  0.33369161  1
  Cs  Cs14  1  0.33167700  0.33179421  0.66612191  1
  Cs  Cs15  1  0.33233112  0.66779874  0.00064536  1
  Cs  Cs16  1  0.33261006  0.66643656  0.33265832  1
  Cs  Cs17  1  0.33180361  0.66586543  0.66585716  1
  Cs  Cs18  1  0.66380731  0.00045482  -0.00269131  1
  Cs  Cs19  1  0.66854611  0.00155141  0.33436179  1
  Cs  Cs20  1  0.66371016  -0.00094796  0.66785516  1
  Cs  Cs21  1  0.66911859  0.33222695  0.00120459  1
  Cs  Cs22  1  0.66335128  0.33373287  0.33260742  1
  Cs  Cs23  1  0.67271593  0.33843593  0.66908595  1
  Cs  Cs24  1  0.66666862  0.66761669  -0.00048178  1
  Cs  Cs25  1  0.66699772  0.66567136  0.33680311  1
  Cs  Cs26  1  0.67073305  0.66451726  0.66267341  1
  Sn  Sn27  1  0.16673188  0.49937693  0.16669664  1
  Sn  Sn28  1  0.16604027  0.83280449  0.83256270  1
  Sn  Sn29  1  0.16729220  0.50052337  0.83312320  1
  Sn  Sn30  1  0.16763000  0.83258801  0.50082037  1
  Sn  Sn31  1  0.83321227  0.83250553  0.16591324  1
  Sn  Sn32  1  0.16791320  0.16713061  0.16627485  1
  Sn  Sn33  1  0.49872739  0.16723801  0.16728167  1
  Sn  Sn34  1  0.49985977  0.16615649  0.49955118  1
  Sn  Sn35  1  0.83430202  0.83311604  0.83416939  1
  Sn  Sn36  1  0.49928562  0.50025317  0.83402277  1
  Sn  Sn37  1  0.49995820  0.49965129  0.16580875  1
  Sn  Sn38  1  0.83342976  0.50118588  0.16694714  1
  Sn  Sn39  1  0.49899743  0.83396122  0.49984382  1
  Sn  Sn40  1  0.16647467  0.50029795  0.50021200  1
  Pb  Pb41  1  0.83392107  0.50168320  0.83532498  1
  Pb  Pb42  1  0.16677601  0.16650562  0.83616141  1
  Pb  Pb43  1  0.82968750  0.16691711  0.49998218  1
  Pb  Pb44  1  0.16844742  0.16647155  0.49793579  1
  Pb  Pb45  1  0.83339879  0.16313176  0.83341065  1
  Pb  Pb46  1  0.16521103  0.83345713  0.16669856  1
  Pb  Pb47  1  0.49988453  0.16979212  0.83344259  1
  Pb  Pb48  1  0.49971363  0.83077775  0.83086228  1
  Pb  Pb49  1  0.83390552  0.83326363  0.50024245  1
  Pb  Pb50  1  0.83270820  0.16668859  0.16657470  1
  Pb  Pb51  1  0.49827582  0.49984987  0.50006436  1
  Pb  Pb52  1  0.83730319  0.49982129  0.49711074  1
  Pb  Pb53  1  0.50240954  0.83309169  0.16861729  1
  I  I54  1  0.16928761  0.00227472  0.16726329  1
  I  I55  1  0.16810296  -0.00295728  0.50286212  1
  I  I56  1  0.16220573  -0.00347035  0.82977407  1
  I  I57  1  0.16522093  0.33544829  0.16750498  1
  I  I58  1  0.16858210  0.33617436  0.50092079  1
  I  I59  1  0.17132374  0.33699116  0.83110714  1
  I  I60  1  0.16888191  0.66361593  0.16685121  1
  I  I61  1  0.17275940  0.66685124  0.49776240  1
  I  I62  1  0.16671719  0.66596630  0.83502945  1
  I  I63  1  0.49675801  0.00252486  0.16941745  1
  I  I64  1  0.49494168  -0.00032348  0.49469631  1
  I  I65  1  0.50063663  -0.00032279  0.83532064  1
  I  I66  1  0.50075286  0.33438971  0.16920456  1
  I  I67  1  0.49786442  0.33123489  0.49697583  1
  I  I68  1  0.49338661  0.33788332  0.83329532  1
  I  I69  1  0.49672492  0.66342659  0.16483597  1
  I  I70  1  0.49799947  0.66870985  0.49960752  1
  I  I71  1  0.49771426  0.66295904  0.83937498  1
  I  I72  1  0.83437624  -0.00284474  0.16353283  1
  I  I73  1  0.83796757  -0.00036782  0.49682563  1
  I  I74  1  0.83830012  -0.00522530  0.84051233  1
  I  I75  1  0.83400988  0.33654519  0.16706156  1
  I  I76  1  0.83330703  0.33366276  0.49845457  1
  I  I77  1  0.83305075  0.33376331  0.83437198  1
  I  I78  1  0.83419312  0.66590622  0.16348657  1
  I  I79  1  0.82684542  0.66664915  0.49970486  1
  I  I80  1  0.83506534  0.66961911  0.83587933  1
  I  I81  1  0.17227765  0.17067747  0.00433989  1
  I  I82  1  0.16831186  0.17084236  0.32984336  1
  I  I83  1  0.16774216  0.16924378  0.66650945  1
  I  I84  1  0.16752413  0.50061293  0.00051675  1
  I  I85  1  0.16727183  0.50111058  0.33243539  1
  I  I86  1  0.17340023  0.50615904  0.66727496  1
  I  I87  1  0.16404622  0.83003061  -0.00241713  1
  I  I88  1  0.16888917  0.82990838  0.33570936  1
  I  I89  1  0.16492588  0.82548987  0.66678587  1
  I  I90  1  0.49706535  0.16873931  0.00347974  1
  I  I91  1  0.49624623  0.16901764  0.33201909  1
  I  I92  1  0.49949412  0.16259328  0.66386026  1
  I  I93  1  0.49573929  0.49610693  0.00161957  1
  I  I94  1  0.49914998  0.49913864  0.33038332  1
  I  I95  1  0.49525467  0.50112713  0.66893612  1
  I  I96  1  0.49850701  0.83542059  -0.00004594  1
  I  I97  1  0.49490865  0.83189181  0.33644043  1
  I  I98  1  0.50034161  0.83745771  0.66305088  1
  I  I99  1  0.83144838  0.16796532  0.00050888  1
  I  I100  1  0.83633974  0.16348731  0.33278814  1
  I  I101  1  0.83310317  0.16614205  0.66665355  1
  I  I102  1  0.83692562  0.50200725  0.00364605  1
  I  I103  1  0.83091416  0.50650104  0.32855286  1
  I  I104  1  0.83074524  0.50209000  0.66692069  1
  I  I105  1  0.83899212  0.82906381  0.00014795  1
  I  I106  1  0.83358795  0.82988379  0.33067830  1
  I  I107  1  0.83433733  0.83278399  0.66945305  1
  I  I108  1  0.00263477  0.17025278  0.16621099  1
  I  I109  1  0.00045097  0.16573132  0.49758751  1
  I  I110  1  0.00041420  0.17178794  0.83591597  1
  I  I111  1  0.00128037  0.50017725  0.16685983  1
  I  I112  1  0.00549331  0.50815774  0.50092304  1
  I  I113  1  0.00342119  0.50289751  0.83458408  1
  I  I114  1  -0.00260786  0.82932662  0.16720413  1
  I  I115  1  0.00342369  0.82819790  0.50035197  1
  I  I116  1  0.00139720  0.82687224  0.83261754  1
  I  I117  1  0.33389115  0.17453439  0.17022122  1
  I  I118  1  0.33631236  0.16535288  0.49644740  1
  I  I119  1  0.33333538  0.16168648  0.83272767  1
  I  I120  1  0.33285677  0.49545951  0.16632006  1
  I  I121  1  0.33014622  0.50189581  0.49542009  1
  I  I122  1  0.33191573  0.50537493  0.83849013  1
  I  I123  1  0.33339752  0.83181487  0.16517770  1
  I  I124  1  0.33226816  0.83269560  0.50387199  1
  I  I125  1  0.33035070  0.83066895  0.83162888  1
  I  I126  1  0.66321145  0.17013004  0.17082023  1
  I  I127  1  0.66146054  0.16039320  0.49190125  1
  I  I128  1  0.66630632  0.16697089  0.83518052  1
  I  I129  1  0.66560766  0.49957676  0.16214537  1
  I  I130  1  0.66651116  0.50027600  0.50011014  1
  I  I131  1  0.66435134  0.50053393  0.83736485  1
  I  I132  1  0.67017236  0.82950727  0.16259525  1
  I  I133  1  0.66406899  0.83753299  0.49892405  1
  I  I134  1  0.66876176  0.83216977  0.83653848  1
