# generated using pymatgen
data_Cs27Sn13Pb14I81
_symmetry_space_group_name_H-M   'P 1'
_cell_length_a   18.98083961
_cell_length_b   18.98382502
_cell_length_c   18.96989977
_cell_angle_alpha   90.00165680
_cell_angle_beta   89.99858406
_cell_angle_gamma   89.99887666
_symmetry_Int_Tables_number   1
_chemical_formula_structural   Cs27Sn13Pb14I81
_chemical_formula_sum   'Cs27 Sn13 Pb14 I81'
_cell_volume   6835.40382870
_cell_formula_units_Z   1
loop_
 _symmetry_equiv_pos_site_id
 _symmetry_equiv_pos_as_xyz
  1  'x, y, z'
loop_
 _atom_site_type_symbol
 _atom_site_label
 _atom_site_symmetry_multiplicity
 _atom_site_fract_x
 _atom_site_fract_y
 _atom_site_fract_z
 _atom_site_occupancy
  Cs  Cs0  1  0.00095574  0.00104164  0.00750637  1
  Cs  Cs1  1  0.00017447  -0.00061888  0.32685159  1
  Cs  Cs2  1  -0.00045574  -0.00119295  0.66589240  1
  Cs  Cs3  1  0.00407159  0.33003912  -0.00339873  1
  Cs  Cs4  1  -0.00790899  0.33456913  0.33465997  1
  Cs  Cs5  1  0.00111803  0.33312236  0.66862023  1
  Cs  Cs6  1  -0.00081677  0.66656618  0.00234249  1
  Cs  Cs7  1  0.00100609  0.66727248  0.33121383  1
  Cs  Cs8  1  0.00100467  0.66687028  0.66623659  1
  Cs  Cs9  1  0.33320378  0.00154342  0.00315690  1
  Cs  Cs10  1  0.33304943  0.00029187  0.33223084  1
  Cs  Cs11  1  0.33378568  -0.00319975  0.66547531  1
  Cs  Cs12  1  0.33069680  0.33098455  0.00016111  1
  Cs  Cs13  1  0.34165434  0.33481549  0.33253843  1
  Cs  Cs14  1  0.33062373  0.33328420  0.66740362  1
  Cs  Cs15  1  0.33489486  0.66670115  -0.00046125  1
  Cs  Cs16  1  0.33234306  0.66614256  0.33353433  1
  Cs  Cs17  1  0.33241196  0.66893067  0.66607081  1
  Cs  Cs18  1  0.66709961  -0.00012375  -0.00337638  1
  Cs  Cs19  1  0.66702125  0.00708021  0.33221314  1
  Cs  Cs20  1  0.66696023  -0.00059922  0.66879023  1
  Cs  Cs21  1  0.66525785  0.33449231  0.00258351  1
  Cs  Cs22  1  0.66448038  0.33351038  0.33140212  1
  Cs  Cs23  1  0.66757005  0.33217481  0.66317888  1
  Cs  Cs24  1  0.66641646  0.66588832  -0.00109289  1
  Cs  Cs25  1  0.66662063  0.65953062  0.33036043  1
  Cs  Cs26  1  0.66698319  0.66816111  0.66849012  1
  Sn  Sn27  1  0.16657531  0.49991804  0.16785177  1
  Sn  Sn28  1  0.50062951  0.49868718  0.83272361  1
  Sn  Sn29  1  0.16666798  0.16655836  0.49983387  1
  Sn  Sn30  1  0.83265984  0.16647896  0.83289108  1
  Sn  Sn31  1  0.50039589  0.83326548  0.16810687  1
  Sn  Sn32  1  0.16618313  0.83357605  0.50053273  1
  Sn  Sn33  1  0.50062267  0.83311429  0.49848981  1
  Sn  Sn34  1  0.83330937  0.83317140  0.50027230  1
  Sn  Sn35  1  0.83489847  0.83340401  0.83267336  1
  Sn  Sn36  1  0.16671857  0.49982034  0.49882758  1
  Sn  Sn37  1  0.83248087  0.50005840  0.83295171  1
  Sn  Sn38  1  0.50045051  0.16795095  0.83273855  1
  Sn  Sn39  1  0.16555666  0.83341883  0.83321888  1
  Pb  Pb40  1  0.50014766  0.83345474  0.83284259  1
  Pb  Pb41  1  0.83328551  0.16685191  0.16408404  1
  Pb  Pb42  1  0.16656779  0.16366928  0.83183804  1
  Pb  Pb43  1  0.49829497  0.50197532  0.50226825  1
  Pb  Pb44  1  0.83559044  0.49999427  0.16403646  1
  Pb  Pb45  1  0.83056805  0.83324107  0.16694513  1
  Pb  Pb46  1  0.16652562  0.50202655  0.83293446  1
  Pb  Pb47  1  0.49836917  0.16453914  0.50221824  1
  Pb  Pb48  1  0.16676934  0.16991030  0.17041290  1
  Pb  Pb49  1  0.83526255  0.50201724  0.50206698  1
  Pb  Pb50  1  0.50001476  0.16446348  0.16416060  1
  Pb  Pb51  1  0.83520937  0.16445183  0.50197274  1
  Pb  Pb52  1  0.49822457  0.50171896  0.16427674  1
  Pb  Pb53  1  0.16830589  0.83204659  0.16713769  1
  I  I54  1  0.16787769  0.00009375  0.16552095  1
  I  I55  1  0.16749248  -0.00192588  0.50739691  1
  I  I56  1  0.16511886  -0.00424488  0.82740911  1
  I  I57  1  0.16759668  0.33753827  0.16687493  1
  I  I58  1  0.16697457  0.33389074  0.49799329  1
  I  I59  1  0.16481273  0.33328354  0.83216770  1
  I  I60  1  0.16798561  0.66446535  0.17064616  1
  I  I61  1  0.16710493  0.66806284  0.50116826  1
  I  I62  1  0.16479917  0.66986186  0.82783836  1
  I  I63  1  0.49738379  -0.00363882  0.16783467  1
  I  I64  1  0.49667410  -0.00408823  0.50062201  1
  I  I65  1  0.50247673  0.00162362  0.83292604  1
  I  I66  1  0.49804663  0.33348484  0.16571299  1
  I  I67  1  0.49639930  0.33337600  0.50109685  1
  I  I68  1  0.50624643  0.33358597  0.83346290  1
  I  I69  1  0.49845261  0.66963757  0.16724155  1
  I  I70  1  0.49660881  0.67052844  0.50099645  1
  I  I71  1  0.50182866  0.66512812  0.83333445  1
  I  I72  1  0.83463339  -0.00037171  0.16376856  1
  I  I73  1  0.83511215  -0.00413919  0.50744387  1
  I  I74  1  0.83175741  -0.00088068  0.82864885  1
  I  I75  1  0.83434203  0.33354956  0.16543820  1
  I  I76  1  0.83763443  0.33335804  0.50333120  1
  I  I77  1  0.82947491  0.33341499  0.83460215  1
  I  I78  1  0.83352789  0.66682661  0.16263291  1
  I  I79  1  0.83550661  0.67056043  0.50733863  1
  I  I80  1  0.83302309  0.66753674  0.82966000  1
  I  I81  1  0.16653465  0.16665209  -0.00009690  1
  I  I82  1  0.16682110  0.15717483  0.33810170  1
  I  I83  1  0.16693352  0.17004160  0.66406490  1
  I  I84  1  0.16690409  0.50405175  0.00127806  1
  I  I85  1  0.16750363  0.50481959  0.33485120  1
  I  I86  1  0.16681503  0.50088625  0.66411806  1
  I  I87  1  0.16471629  0.83068778  -0.00256200  1
  I  I88  1  0.16459162  0.83443271  0.33711760  1
  I  I89  1  0.16876422  0.83052653  0.66553483  1
  I  I90  1  0.50236428  0.16668772  -0.00437828  1
  I  I91  1  0.49791542  0.16640230  0.33364608  1
  I  I92  1  0.50322147  0.16672692  0.67042301  1
  I  I93  1  0.50066698  0.50103400  -0.00395483  1
  I  I94  1  0.49939236  0.50070588  0.33354750  1
  I  I95  1  0.50069266  0.50052036  0.67048650  1
  I  I96  1  0.49864189  0.83285459  0.00119357  1
  I  I97  1  0.49669563  0.83265703  0.33488542  1
  I  I98  1  0.49802076  0.83321425  0.66439320  1
  I  I99  1  0.83133340  0.16243427  -0.00529607  1
  I  I100  1  0.83556313  0.16389488  0.33393631  1
  I  I101  1  0.83025371  0.16731718  0.67059461  1
  I  I102  1  0.83202786  0.50444842  -0.00484975  1
  I  I103  1  0.83381486  0.50280440  0.33364803  1
  I  I104  1  0.83269792  0.49983969  0.67068071  1
  I  I105  1  0.83620071  0.83348060  -0.00379118  1
  I  I106  1  0.83850501  0.83314488  0.33677759  1
  I  I107  1  0.83289206  0.83300467  0.66777562  1
  I  I108  1  0.00037717  0.16480228  0.16303393  1
  I  I109  1  0.00337281  0.16463533  0.50420715  1
  I  I110  1  -0.00265460  0.16938924  0.83110606  1
  I  I111  1  0.00355262  0.50360984  0.16914429  1
  I  I112  1  0.00378634  0.50339971  0.49989620  1
  I  I113  1  -0.00242356  0.49894095  0.83294327  1
  I  I114  1  -0.00007712  0.83226590  0.16688186  1
  I  I115  1  0.00094187  0.83258891  0.50734870  1
  I  I116  1  -0.00060549  0.83207467  0.82535139  1
  I  I117  1  0.33324069  0.16537194  0.16186655  1
  I  I118  1  0.33020761  0.16346355  0.50424658  1
  I  I119  1  0.33556684  0.16939394  0.83178777  1
  I  I120  1  0.33037249  0.50259520  0.16823958  1
  I  I121  1  0.32980818  0.50385225  0.50041657  1
  I  I122  1  0.33527078  0.49862385  0.83313282  1
  I  I123  1  0.33597094  0.83175401  0.16779062  1
  I  I124  1  0.33212865  0.83289662  0.50225892  1
  I  I125  1  0.33143068  0.83214241  0.82965277  1
  I  I126  1  0.66646854  0.16571992  0.16872480  1
  I  I127  1  0.66675470  0.16337116  0.50092733  1
  I  I128  1  0.66717068  0.16310160  0.83283658  1
  I  I129  1  0.66651879  0.50209935  0.16564540  1
  I  I130  1  0.66673933  0.50303566  0.50083149  1
  I  I131  1  0.66707345  0.50377880  0.83360659  1
  I  I132  1  0.66291229  0.83234904  0.16762715  1
  I  I133  1  0.66690041  0.83347921  0.50399172  1
  I  I134  1  0.66931206  0.83324030  0.83037946  1
