# generated using pymatgen
data_Cs27Sn13Pb14I81
_symmetry_space_group_name_H-M   'P 1'
_cell_length_a   18.97921737
_cell_length_b   18.97652309
_cell_length_c   18.97533810
_cell_angle_alpha   90.00189144
_cell_angle_beta   90.00050686
_cell_angle_gamma   89.99756634
_symmetry_Int_Tables_number   1
_chemical_formula_structural   Cs27Sn13Pb14I81
_chemical_formula_sum   'Cs27 Sn13 Pb14 I81'
_cell_volume   6834.14934469
_cell_formula_units_Z   1
loop_
 _symmetry_equiv_pos_site_id
 _symmetry_equiv_pos_as_xyz
  1  'x, y, z'
loop_
 _atom_site_type_symbol
 _atom_site_label
 _atom_site_symmetry_multiplicity
 _atom_site_fract_x
 _atom_site_fract_y
 _atom_site_fract_z
 _atom_site_occupancy
  Cs  Cs0  1  0.00145837  -0.00244987  0.00096482  1
  Cs  Cs1  1  0.00071144  0.00111303  0.33012693  1
  Cs  Cs2  1  -0.00112857  -0.00032916  0.66762567  1
  Cs  Cs3  1  -0.00123314  0.33490325  -0.00061220  1
  Cs  Cs4  1  0.00109996  0.33406364  0.33595608  1
  Cs  Cs5  1  -0.00006904  0.33343949  0.66487240  1
  Cs  Cs6  1  0.00107003  0.66721287  0.00249604  1
  Cs  Cs7  1  -0.00167117  0.66628999  0.33180767  1
  Cs  Cs8  1  0.00011027  0.66670421  0.66617933  1
  Cs  Cs9  1  0.33082303  0.00015729  -0.00088328  1
  Cs  Cs10  1  0.33667403  0.00896151  0.33218023  1
  Cs  Cs11  1  0.33699892  -0.00343360  0.67034650  1
  Cs  Cs12  1  0.33521029  0.33256840  0.00270717  1
  Cs  Cs13  1  0.33639853  0.32837819  0.33548631  1
  Cs  Cs14  1  0.32896380  0.33761717  0.66189597  1
  Cs  Cs15  1  0.33192991  0.66733322  -0.00009490  1
  Cs  Cs16  1  0.33768360  0.66273660  0.34166165  1
  Cs  Cs17  1  0.33292510  0.66697636  0.66116016  1
  Cs  Cs18  1  0.66752414  -0.00100812  -0.00080802  1
  Cs  Cs19  1  0.66601444  -0.00041185  0.33688465  1
  Cs  Cs20  1  0.66744391  -0.00048585  0.66612119  1
  Cs  Cs21  1  0.66600151  0.33599385  -0.00136535  1
  Cs  Cs22  1  0.66386472  0.32923757  0.33086553  1
  Cs  Cs23  1  0.66870822  0.33277330  0.67086380  1
  Cs  Cs24  1  0.66670050  0.66507075  -0.00003887  1
  Cs  Cs25  1  0.66713974  0.66905713  0.33250762  1
  Cs  Cs26  1  0.66639843  0.66639679  0.66782754  1
  Sn  Sn27  1  0.16649951  0.16765672  0.83345414  1
  Sn  Sn28  1  0.16567761  0.83405737  0.49954552  1
  Sn  Sn29  1  0.83399460  0.49908464  0.16756103  1
  Sn  Sn30  1  0.50010649  0.16623360  0.83351496  1
  Sn  Sn31  1  0.50097577  0.83367042  0.83465737  1
  Sn  Sn32  1  0.16647975  0.50013726  0.16635445  1
  Sn  Sn33  1  0.83359255  0.16742659  0.16567727  1
  Sn  Sn34  1  0.83286646  0.83382230  0.83286705  1
  Sn  Sn35  1  0.16641346  0.49946511  0.83418761  1
  Sn  Sn36  1  0.49976653  0.83311613  0.16583067  1
  Sn  Sn37  1  0.83348241  0.16581684  0.83436890  1
  Sn  Sn38  1  0.83469866  0.83250015  0.50080168  1
  Sn  Sn39  1  0.83324071  0.50062570  0.49900169  1
  Pb  Pb40  1  0.83340799  0.16647079  0.50011503  1
  Pb  Pb41  1  0.16954237  0.83099239  0.16969477  1
  Pb  Pb42  1  0.50010233  0.16674604  0.50336662  1
  Pb  Pb43  1  0.83496564  0.50027113  0.83358261  1
  Pb  Pb44  1  0.50380030  0.49970472  0.50006381  1
  Pb  Pb45  1  0.16648592  0.16382865  0.50260388  1
  Pb  Pb46  1  0.49685594  0.50023061  0.83334359  1
  Pb  Pb47  1  0.16452259  0.16885487  0.16450928  1
  Pb  Pb48  1  0.16662662  0.83322154  0.83233760  1
  Pb  Pb49  1  0.50007640  0.50186074  0.16658466  1
  Pb  Pb50  1  0.50057959  0.83346571  0.50048065  1
  Pb  Pb51  1  0.83228480  0.83326877  0.16660866  1
  Pb  Pb52  1  0.16468434  0.50141316  0.49954611  1
  Pb  Pb53  1  0.50260054  0.16451786  0.16412906  1
  I  I54  1  0.16548740  -0.00004184  0.16607382  1
  I  I55  1  0.15913311  -0.00405590  0.50214680  1
  I  I56  1  0.16624043  0.00243925  0.83047538  1
  I  I57  1  0.16453120  0.33700281  0.16496620  1
  I  I58  1  0.16513771  0.33342846  0.50033471  1
  I  I59  1  0.16534357  0.33287474  0.83649353  1
  I  I60  1  0.15822451  0.66325393  0.15828090  1
  I  I61  1  0.16467311  0.66927955  0.50395382  1
  I  I62  1  0.16530692  0.66443803  0.83509481  1
  I  I63  1  0.50206475  -0.00331326  0.16504334  1
  I  I64  1  0.50233694  -0.00036283  0.49746851  1
  I  I65  1  0.49912015  -0.00051165  0.83653383  1
  I  I66  1  0.49955543  0.33303521  0.16531171  1
  I  I67  1  0.50006727  0.33325387  0.50097563  1
  I  I68  1  0.50494241  0.33012611  0.83305791  1
  I  I69  1  0.50313696  0.66982575  0.15962280  1
  I  I70  1  0.49751078  0.66704226  0.50304337  1
  I  I71  1  0.50476040  0.67007549  0.83594153  1
  I  I72  1  0.83085622  0.00215465  0.16483116  1
  I  I73  1  0.83549034  -0.00317091  0.50196566  1
  I  I74  1  0.83450746  0.00010737  0.83309084  1
  I  I75  1  0.83659134  0.33381805  0.16572899  1
  I  I76  1  0.83400627  0.33600849  0.49998905  1
  I  I77  1  0.83088451  0.33068001  0.83366604  1
  I  I78  1  0.83533713  0.66417728  0.16719185  1
  I  I79  1  0.83704460  0.66761806  0.50056821  1
  I  I80  1  0.83046704  0.66943383  0.83216786  1
  I  I81  1  0.16792892  0.16625228  -0.00401113  1
  I  I82  1  0.16486612  0.16696597  0.33310698  1
  I  I83  1  0.16317805  0.17347027  0.67141266  1
  I  I84  1  0.15998459  0.49780547  -0.00020775  1
  I  I85  1  0.16286777  0.50433313  0.33065577  1
  I  I86  1  0.16567584  0.49711554  0.66906628  1
  I  I87  1  0.16478384  0.83391097  0.00003859  1
  I  I88  1  0.15923921  0.83026035  0.33705744  1
  I  I89  1  0.16613538  0.83121653  0.66460799  1
  I  I90  1  0.49847762  0.16407399  -0.00400871  1
  I  I91  1  0.50173983  0.16444177  0.33276169  1
  I  I92  1  0.50417273  0.15843924  0.67206358  1
  I  I93  1  0.50488195  0.50010037  -0.00018638  1
  I  I94  1  0.49531123  0.50407360  0.33318037  1
  I  I95  1  0.49924304  0.50246480  0.66703659  1
  I  I96  1  0.50610100  0.83623602  -0.00195389  1
  I  I97  1  0.50130348  0.83058893  0.33116138  1
  I  I98  1  0.50130268  0.83812046  0.67001971  1
  I  I99  1  0.83329471  0.16664809  -0.00158282  1
  I  I100  1  0.83353669  0.16723864  0.33049159  1
  I  I101  1  0.83254350  0.16576538  0.67028308  1
  I  I102  1  0.83562133  0.49941941  0.00245156  1
  I  I103  1  0.83945675  0.50130068  0.33254452  1
  I  I104  1  0.83525560  0.50159673  0.66493973  1
  I  I105  1  0.83081746  0.83441439  -0.00283137  1
  I  I106  1  0.83455301  0.83210566  0.33568704  1
  I  I107  1  0.83144245  0.83326585  0.66761817  1
  I  I108  1  -0.00362441  0.16604466  0.16041891  1
  I  I109  1  -0.00027567  0.16739301  0.50382895  1
  I  I110  1  -0.00102100  0.16592275  0.83633807  1
  I  I111  1  -0.00114414  0.49776224  0.16582693  1
  I  I112  1  -0.00326062  0.50301511  0.49937861  1
  I  I113  1  0.00272253  0.49695678  0.83393773  1
  I  I114  1  -0.00003312  0.83439216  0.16444612  1
  I  I115  1  -0.00194397  0.82942101  0.50689047  1
  I  I116  1  -0.00277315  0.83636478  0.83048336  1
  I  I117  1  0.33346643  0.16701457  0.16572377  1
  I  I118  1  0.33313504  0.16452332  0.50037405  1
  I  I119  1  0.33341184  0.16469854  0.83204839  1
  I  I120  1  0.33036868  0.50339181  0.16063301  1
  I  I121  1  0.33293006  0.50329231  0.50105255  1
  I  I122  1  0.32884006  0.49718609  0.83881569  1
  I  I123  1  0.33689113  0.83222292  0.15924098  1
  I  I124  1  0.33119751  0.83183821  0.50204619  1
  I  I125  1  0.33573439  0.83649319  0.83480256  1
  I  I126  1  0.67057572  0.17303846  0.16126685  1
  I  I127  1  0.66716699  0.16466064  0.50151434  1
  I  I128  1  0.66764650  0.16134978  0.83635187  1
  I  I129  1  0.67022499  0.49757799  0.17040912  1
  I  I130  1  0.67209330  0.50788106  0.49562687  1
  I  I131  1  0.66689786  0.49824807  0.83282972  1
  I  I132  1  0.66456819  0.83184016  0.16595230  1
  I  I133  1  0.67001907  0.82968367  0.50171173  1
  I  I134  1  0.66763225  0.84021944  0.83110662  1
