# generated using pymatgen
data_Cs27Sn14Pb13I81
_symmetry_space_group_name_H-M   'P 1'
_cell_length_a   18.96212414
_cell_length_b   18.96214773
_cell_length_c   18.96013875
_cell_angle_alpha   89.99965343
_cell_angle_beta   89.99932426
_cell_angle_gamma   90.00003423
_symmetry_Int_Tables_number   1
_chemical_formula_structural   Cs27Sn14Pb13I81
_chemical_formula_sum   'Cs27 Sn14 Pb13 I81'
_cell_volume   6817.35677003
_cell_formula_units_Z   1
loop_
 _symmetry_equiv_pos_site_id
 _symmetry_equiv_pos_as_xyz
  1  'x, y, z'
loop_
 _atom_site_type_symbol
 _atom_site_label
 _atom_site_symmetry_multiplicity
 _atom_site_fract_x
 _atom_site_fract_y
 _atom_site_fract_z
 _atom_site_occupancy
  Cs  Cs0  1  -0.00122023  -0.00267496  0.00164788  1
  Cs  Cs1  1  0.00564676  -0.00296327  0.32986294  1
  Cs  Cs2  1  -0.00210408  0.00119447  0.66645899  1
  Cs  Cs3  1  -0.00110747  0.33568001  -0.00297830  1
  Cs  Cs4  1  0.00082002  0.33295991  0.33234148  1
  Cs  Cs5  1  -0.00020818  0.33230998  0.66809622  1
  Cs  Cs6  1  -0.00102296  0.66666600  0.00043685  1
  Cs  Cs7  1  -0.00115546  0.66936139  0.32893785  1
  Cs  Cs8  1  -0.00141045  0.66605328  0.66861917  1
  Cs  Cs9  1  0.33585092  0.00045086  -0.00046250  1
  Cs  Cs10  1  0.32401069  0.00060256  0.33260770  1
  Cs  Cs11  1  0.33400573  -0.00210064  0.66634460  1
  Cs  Cs12  1  0.33418278  0.33548659  -0.00090568  1
  Cs  Cs13  1  0.33271043  0.33321865  0.33152263  1
  Cs  Cs14  1  0.33219149  0.33326595  0.66808887  1
  Cs  Cs15  1  0.33437364  0.66451619  -0.00077168  1
  Cs  Cs16  1  0.33427643  0.66677712  0.33483253  1
  Cs  Cs17  1  0.33586784  0.66807543  0.66562312  1
  Cs  Cs18  1  0.66587205  0.00094888  0.00050936  1
  Cs  Cs19  1  0.66941492  0.00391688  0.33134807  1
  Cs  Cs20  1  0.66767904  -0.00018114  0.66763461  1
  Cs  Cs21  1  0.66537869  0.33251121  0.00119674  1
  Cs  Cs22  1  0.66757151  0.33261975  0.33478813  1
  Cs  Cs23  1  0.66778514  0.33195676  0.66524383  1
  Cs  Cs24  1  0.66528574  0.66698039  0.00105182  1
  Cs  Cs25  1  0.66649379  0.66422433  0.33524893  1
  Cs  Cs26  1  0.66608573  0.66796574  0.66231673  1
  Sn  Sn27  1  0.83319392  0.16579941  0.83289700  1
  Sn  Sn28  1  0.49933119  0.50097379  0.16596321  1
  Sn  Sn29  1  0.16744917  0.50009361  0.16637794  1
  Sn  Sn30  1  0.83336617  0.83420951  0.50066192  1
  Sn  Sn31  1  0.16648497  0.50022920  0.50033185  1
  Sn  Sn32  1  0.83288722  0.16552590  0.50083286  1
  Sn  Sn33  1  0.16755613  0.50034291  0.83326880  1
  Sn  Sn34  1  0.16674265  0.16627996  0.83320092  1
  Sn  Sn35  1  0.16609445  0.83319591  0.83310100  1
  Sn  Sn36  1  0.50010017  0.16649857  0.50076439  1
  Sn  Sn37  1  0.83382784  0.83399576  0.83255557  1
  Sn  Sn38  1  0.49994798  0.83297803  0.16694919  1
  Sn  Sn39  1  0.50009288  0.16753467  0.83233825  1
  Sn  Sn40  1  0.49960295  0.49941690  0.83350755  1
  Pb  Pb41  1  0.83114483  0.83336804  0.16643722  1
  Pb  Pb42  1  0.16441311  0.83107630  0.50230675  1
  Pb  Pb43  1  0.16663450  0.16915307  0.16341573  1
  Pb  Pb44  1  0.16896650  0.83107714  0.16399621  1
  Pb  Pb45  1  0.83280825  0.49992823  0.16662440  1
  Pb  Pb46  1  0.49989137  0.16718382  0.16681328  1
  Pb  Pb47  1  0.49821700  0.49796727  0.50017938  1
  Pb  Pb48  1  0.83587200  0.49960429  0.50005881  1
  Pb  Pb49  1  0.50200366  0.83632986  0.49721099  1
  Pb  Pb50  1  0.83259493  0.50009132  0.83331779  1
  Pb  Pb51  1  0.83367576  0.16661356  0.16660489  1
  Pb  Pb52  1  0.50045612  0.83334790  0.83416919  1
  Pb  Pb53  1  0.16627903  0.16813755  0.50198000  1
  I  I54  1  0.16807753  -0.00030971  0.16598186  1
  I  I55  1  0.16876607  -0.00004048  0.50125683  1
  I  I56  1  0.16671244  0.00051220  0.83236266  1
  I  I57  1  0.17393758  0.33755059  0.16500888  1
  I  I58  1  0.16541965  0.33625418  0.50262798  1
  I  I59  1  0.16693378  0.33381656  0.83358768  1
  I  I60  1  0.16812685  0.66285051  0.16395564  1
  I  I61  1  0.16629332  0.66305594  0.50281596  1
  I  I62  1  0.16628826  0.66562419  0.83375884  1
  I  I63  1  0.50287907  -0.00199095  0.16438004  1
  I  I64  1  0.50080959  0.00416777  0.50688912  1
  I  I65  1  0.49762668  0.00283810  0.83220537  1
  I  I66  1  0.49528798  0.33654934  0.16429301  1
  I  I67  1  0.50626798  0.33003610  0.50057878  1
  I  I68  1  0.49710701  0.33323332  0.83567566  1
  I  I69  1  0.49695228  0.66499090  0.15992594  1
  I  I70  1  0.50107861  0.66663831  0.50191602  1
  I  I71  1  0.49633006  0.66402293  0.83654556  1
  I  I72  1  0.82995212  -0.00011416  0.16526896  1
  I  I73  1  0.82890878  0.00084471  0.50591836  1
  I  I74  1  0.83599284  0.00059898  0.82987612  1
  I  I75  1  0.83149399  0.33328272  0.16644753  1
  I  I76  1  0.83053336  0.32977486  0.50515529  1
  I  I77  1  0.83564175  0.33008418  0.82915651  1
  I  I78  1  0.83473726  0.66679078  0.16633210  1
  I  I79  1  0.83517803  0.66951531  0.50469919  1
  I  I80  1  0.83685573  0.66970626  0.83019391  1
  I  I81  1  0.16749771  0.16848704  -0.00530996  1
  I  I82  1  0.16671934  0.16932064  0.33346063  1
  I  I83  1  0.16667243  0.17036968  0.67064750  1
  I  I84  1  0.17106112  0.49937604  -0.00145940  1
  I  I85  1  0.17026221  0.49908121  0.33274959  1
  I  I86  1  0.16967668  0.49910618  0.66868486  1
  I  I87  1  0.16034786  0.83224108  -0.00438726  1
  I  I88  1  0.16545955  0.83162409  0.33325235  1
  I  I89  1  0.16692383  0.83097383  0.67084588  1
  I  I90  1  0.50017963  0.16793244  -0.00354377  1
  I  I91  1  0.50667035  0.16740147  0.33623375  1
  I  I92  1  0.50100578  0.17219349  0.66863472  1
  I  I93  1  0.49276688  0.49799016  -0.00107305  1
  I  I94  1  0.49563049  0.50215659  0.33073948  1
  I  I95  1  0.49534166  0.49757789  0.66970240  1
  I  I96  1  0.50101868  0.83286230  0.00191628  1
  I  I97  1  0.50196083  0.82622769  0.32978264  1
  I  I98  1  0.49850220  0.83060684  0.66662130  1
  I  I99  1  0.83246809  0.16334375  -0.00426589  1
  I  I100  1  0.82718756  0.16420469  0.33713455  1
  I  I101  1  0.83233535  0.16300419  0.66801398  1
  I  I102  1  0.83731219  0.49970978  -0.00046206  1
  I  I103  1  0.83383193  0.49971227  0.33354000  1
  I  I104  1  0.83392455  0.50072909  0.66689108  1
  I  I105  1  0.83650041  0.83714141  -0.00347507  1
  I  I106  1  0.83126954  0.83730996  0.33627349  1
  I  I107  1  0.83647982  0.83725840  0.66792238  1
  I  I108  1  0.00025131  0.16903873  0.16707777  1
  I  I109  1  -0.00297211  0.16552974  0.50515896  1
  I  I110  1  -0.00008833  0.16777644  0.82987641  1
  I  I111  1  0.00355239  0.49863797  0.16456599  1
  I  I112  1  0.00396064  0.49777533  0.50206359  1
  I  I113  1  0.00325009  0.49759489  0.83432491  1
  I  I114  1  0.00025360  0.83172214  0.16761506  1
  I  I115  1  -0.00361623  0.83982436  0.50132880  1
  I  I116  1  0.00003162  0.83517197  0.83055023  1
  I  I117  1  0.33346226  0.16377316  0.16805092  1
  I  I118  1  0.33562802  0.16987133  0.50404478  1
  I  I119  1  0.33364627  0.16826973  0.83029633  1
  I  I120  1  0.33357291  0.50335693  0.16404465  1
  I  I121  1  0.33021838  0.49776515  0.50152844  1
  I  I122  1  0.33258184  0.49689694  0.83450080  1
  I  I123  1  0.33661681  0.83192598  0.16436890  1
  I  I124  1  0.33322560  0.83389742  0.50041535  1
  I  I125  1  0.33095764  0.83463110  0.83624040  1
  I  I126  1  0.66647555  0.16923581  0.16212945  1
  I  I127  1  0.66705598  0.16493268  0.50776781  1
  I  I128  1  0.66648330  0.16669184  0.83026132  1
  I  I129  1  0.66269729  0.50288435  0.16095820  1
  I  I130  1  0.66659848  0.50100467  0.49980703  1
  I  I131  1  0.66316656  0.49688584  0.83863411  1
  I  I132  1  0.66343673  0.82641861  0.16330346  1
  I  I133  1  0.67005227  0.83312304  0.50781658  1
  I  I134  1  0.66939657  0.83636341  0.83187962  1
