# generated using pymatgen
data_Cs27Sn13Pb14I81
_symmetry_space_group_name_H-M   'P 1'
_cell_length_a   18.98501478
_cell_length_b   18.97166395
_cell_length_c   18.97609672
_cell_angle_alpha   90.00213450
_cell_angle_beta   90.00002974
_cell_angle_gamma   90.00084207
_symmetry_Int_Tables_number   1
_chemical_formula_structural   Cs27Sn13Pb14I81
_chemical_formula_sum   'Cs27 Sn13 Pb14 I81'
_cell_volume   6834.75966068
_cell_formula_units_Z   1
loop_
 _symmetry_equiv_pos_site_id
 _symmetry_equiv_pos_as_xyz
  1  'x, y, z'
loop_
 _atom_site_type_symbol
 _atom_site_label
 _atom_site_symmetry_multiplicity
 _atom_site_fract_x
 _atom_site_fract_y
 _atom_site_fract_z
 _atom_site_occupancy
  Cs  Cs0  1  -0.00196841  -0.00260078  0.00232987  1
  Cs  Cs1  1  -0.00039262  0.00171762  0.33215059  1
  Cs  Cs2  1  0.00069797  -0.00152130  0.66645217  1
  Cs  Cs3  1  -0.00040744  0.33650435  -0.00520547  1
  Cs  Cs4  1  0.00326205  0.33052797  0.33296374  1
  Cs  Cs5  1  0.00107031  0.33545526  0.67279601  1
  Cs  Cs6  1  0.00096515  0.66677798  -0.00293998  1
  Cs  Cs7  1  0.00034559  0.66707621  0.33642475  1
  Cs  Cs8  1  -0.00078797  0.66582456  0.66661766  1
  Cs  Cs9  1  0.33533759  -0.00179667  0.00022243  1
  Cs  Cs10  1  0.33262182  0.00157533  0.33228750  1
  Cs  Cs11  1  0.33333916  -0.00004268  0.66764083  1
  Cs  Cs12  1  0.33351260  0.33320382  -0.00040505  1
  Cs  Cs13  1  0.33181929  0.33275177  0.33292261  1
  Cs  Cs14  1  0.33123497  0.33095979  0.66771052  1
  Cs  Cs15  1  0.33417652  0.66847393  -0.00159698  1
  Cs  Cs16  1  0.33340954  0.66522532  0.33585636  1
  Cs  Cs17  1  0.33434313  0.66902856  0.66731596  1
  Cs  Cs18  1  0.66598130  -0.00171329  0.00069198  1
  Cs  Cs19  1  0.66769226  0.00120917  0.33130991  1
  Cs  Cs20  1  0.66610649  -0.00064168  0.66861325  1
  Cs  Cs21  1  0.66860436  0.33594224  -0.00059148  1
  Cs  Cs22  1  0.66612541  0.33634966  0.33196909  1
  Cs  Cs23  1  0.66953438  0.33305155  0.66974744  1
  Cs  Cs24  1  0.66488020  0.66869878  0.00104510  1
  Cs  Cs25  1  0.66574722  0.65943853  0.33930258  1
  Cs  Cs26  1  0.66560923  0.66784416  0.65971457  1
  Sn  Sn27  1  0.16648982  0.16737208  0.49923417  1
  Sn  Sn28  1  0.50114916  0.83233584  0.83409027  1
  Sn  Sn29  1  0.50109561  0.83362717  0.16672356  1
  Sn  Sn30  1  0.16664965  0.49938146  0.16723235  1
  Sn  Sn31  1  0.50023773  0.16626076  0.16734232  1
  Sn  Sn32  1  0.83341866  0.16669604  0.49934709  1
  Sn  Sn33  1  0.50016998  0.16655840  0.49913248  1
  Sn  Sn34  1  0.83320005  0.16642636  0.16722392  1
  Sn  Sn35  1  0.83204238  0.83348729  0.16641919  1
  Sn  Sn36  1  0.16679372  0.49907769  0.49917712  1
  Sn  Sn37  1  0.83231038  0.83354101  0.83400660  1
  Sn  Sn38  1  0.50017471  0.50070261  0.83348344  1
  Sn  Sn39  1  0.16656386  0.16754041  0.16667226  1
  Pb  Pb40  1  0.83586375  0.50021397  0.16675225  1
  Pb  Pb41  1  0.16678993  0.83343771  0.83344410  1
  Pb  Pb42  1  0.50001289  0.83564629  0.49930301  1
  Pb  Pb43  1  0.16669770  0.83388964  0.49978272  1
  Pb  Pb44  1  0.16876097  0.50001173  0.83326260  1
  Pb  Pb45  1  0.83333929  0.16449744  0.83399494  1
  Pb  Pb46  1  0.83600689  0.49666014  0.49980417  1
  Pb  Pb47  1  0.49785170  0.49687830  0.50230518  1
  Pb  Pb48  1  0.83049038  0.50330844  0.83344220  1
  Pb  Pb49  1  0.16646036  0.16645317  0.83384471  1
  Pb  Pb50  1  0.83319062  0.83548745  0.49916297  1
  Pb  Pb51  1  0.50008348  0.16608901  0.83396525  1
  Pb  Pb52  1  0.16668012  0.83348156  0.16676819  1
  Pb  Pb53  1  0.49806832  0.50001144  0.16554220  1
  I  I54  1  0.16679692  0.00347812  0.17145972  1
  I  I55  1  0.16665921  0.00439787  0.49543859  1
  I  I56  1  0.17012878  -0.00005089  0.83189855  1
  I  I57  1  0.16775380  0.33158298  0.17102732  1
  I  I58  1  0.16735338  0.33168923  0.49490855  1
  I  I59  1  0.16931111  0.33334704  0.83386676  1
  I  I60  1  0.16737273  0.66384313  0.17038153  1
  I  I61  1  0.16741496  0.66336913  0.49560462  1
  I  I62  1  0.16516702  0.66659905  0.83353347  1
  I  I63  1  0.49794256  0.00084185  0.16428745  1
  I  I64  1  0.49633027  0.00412892  0.50108689  1
  I  I65  1  0.50382183  -0.00312663  0.83441287  1
  I  I66  1  0.50169241  0.32992938  0.16865428  1
  I  I67  1  0.50160888  0.32877714  0.49483775  1
  I  I68  1  0.49663473  0.33517067  0.83280660  1
  I  I69  1  0.50231171  0.66966639  0.16283469  1
  I  I70  1  0.49762472  0.66645656  0.49839539  1
  I  I71  1  0.50206599  0.66821470  0.83992299  1
  I  I72  1  0.83512905  0.00104040  0.16637477  1
  I  I73  1  0.83680044  0.00403476  0.49871637  1
  I  I74  1  0.82541504  -0.00329941  0.83466890  1
  I  I75  1  0.83031617  0.32966549  0.17160657  1
  I  I76  1  0.83001324  0.32829460  0.49302728  1
  I  I77  1  0.83256499  0.33338916  0.83310491  1
  I  I78  1  0.83031698  0.67018036  0.16103777  1
  I  I79  1  0.83568842  0.66658556  0.50052069  1
  I  I80  1  0.83352216  0.67129177  0.84102006  1
  I  I81  1  0.16746159  0.17042267  0.00431930  1
  I  I82  1  0.16708710  0.17026784  0.33270193  1
  I  I83  1  0.16733366  0.17076403  0.66289112  1
  I  I84  1  0.16743067  0.49484815  0.00298368  1
  I  I85  1  0.16787666  0.49475078  0.33304174  1
  I  I86  1  0.16773265  0.49366829  0.66357287  1
  I  I87  1  0.16692873  0.83383311  0.00043110  1
  I  I88  1  0.16691213  0.83247532  0.33291489  1
  I  I89  1  0.16683273  0.83413389  0.66665011  1
  I  I90  1  0.49932747  0.16554049  0.00369514  1
  I  I91  1  0.49890204  0.16132487  0.33206644  1
  I  I92  1  0.49831910  0.16698658  0.66386329  1
  I  I93  1  0.49649607  0.49933695  -0.00234718  1
  I  I94  1  0.50020853  0.50282703  0.33345478  1
  I  I95  1  0.49764094  0.50599915  0.66996259  1
  I  I96  1  0.50289725  0.83603303  0.00082110  1
  I  I97  1  0.50331260  0.83675708  0.32962556  1
  I  I98  1  0.50353556  0.83103696  0.66960369  1
  I  I99  1  0.83302859  0.16469436  0.00389365  1
  I  I100  1  0.83422919  0.16037296  0.33216467  1
  I  I101  1  0.83386919  0.16579037  0.66365929  1
  I  I102  1  0.83732378  0.49380484  0.00012519  1
  I  I103  1  0.82946497  0.50624368  0.33322957  1
  I  I104  1  0.83617456  0.49920498  0.66665759  1
  I  I105  1  0.82972738  0.84022493  0.00126041  1
  I  I106  1  0.83021953  0.83676208  0.32957571  1
  I  I107  1  0.82913233  0.83475143  0.66933624  1
  I  I108  1  -0.00017572  0.16514420  0.17262231  1
  I  I109  1  0.00036454  0.16908565  0.49319617  1
  I  I110  1  -0.00019742  0.16440695  0.83284815  1
  I  I111  1  0.00393740  0.49571225  0.17003532  1
  I  I112  1  0.00407894  0.49531165  0.49641597  1
  I  I113  1  -0.00000645  0.50093825  0.83271649  1
  I  I114  1  -0.00312321  0.83743094  0.16220907  1
  I  I115  1  -0.00018943  0.83550571  0.50102684  1
  I  I116  1  -0.00343950  0.83624756  0.83821308  1
  I  I117  1  0.33366328  0.16609316  0.17167295  1
  I  I118  1  0.33303241  0.16971211  0.49456357  1
  I  I119  1  0.33356948  0.16406009  0.83282307  1
  I  I120  1  0.33019483  0.49538684  0.16945708  1
  I  I121  1  0.33005648  0.49375149  0.49615609  1
  I  I122  1  0.33633620  0.50693632  0.83382902  1
  I  I123  1  0.33652579  0.83738284  0.16178514  1
  I  I124  1  0.33355001  0.83641545  0.50105846  1
  I  I125  1  0.33717316  0.83055056  0.83767140  1
  I  I126  1  0.66647568  0.16099507  0.17251792  1
  I  I127  1  0.66659608  0.16391950  0.49454732  1
  I  I128  1  0.66653124  0.16985315  0.83080289  1
  I  I129  1  0.66651089  0.49697973  0.16390247  1
  I  I130  1  0.66646819  0.49894162  0.50203085  1
  I  I131  1  0.66278360  0.49911950  0.83483935  1
  I  I132  1  0.66628629  0.84347929  0.16064940  1
  I  I133  1  0.66657081  0.83532047  0.50126988  1
  I  I134  1  0.66581166  0.83057286  0.83874472  1
