# generated using pymatgen
data_Cs27Sn13Pb14I81
_symmetry_space_group_name_H-M   'P 1'
_cell_length_a   18.98550390
_cell_length_b   18.97936229
_cell_length_c   18.97002137
_cell_angle_alpha   90.00052663
_cell_angle_beta   89.99932876
_cell_angle_gamma   89.99963622
_symmetry_Int_Tables_number   1
_chemical_formula_structural   Cs27Sn13Pb14I81
_chemical_formula_sum   'Cs27 Sn13 Pb14 I81'
_cell_volume   6835.52009557
_cell_formula_units_Z   1
loop_
 _symmetry_equiv_pos_site_id
 _symmetry_equiv_pos_as_xyz
  1  'x, y, z'
loop_
 _atom_site_type_symbol
 _atom_site_label
 _atom_site_symmetry_multiplicity
 _atom_site_fract_x
 _atom_site_fract_y
 _atom_site_fract_z
 _atom_site_occupancy
  Cs  Cs0  1  -0.00020520  -0.00296655  -0.00360597  1
  Cs  Cs1  1  -0.00186113  0.00166207  0.33623146  1
  Cs  Cs2  1  -0.00164516  0.00024954  0.66614566  1
  Cs  Cs3  1  0.00236179  0.34157639  0.00132794  1
  Cs  Cs4  1  0.00045309  0.33309072  0.33287081  1
  Cs  Cs5  1  -0.00185896  0.33099305  0.66770773  1
  Cs  Cs6  1  0.00862738  0.65898100  0.00926845  1
  Cs  Cs7  1  0.00040303  0.66407414  0.32835045  1
  Cs  Cs8  1  -0.00403680  0.66938478  0.66691666  1
  Cs  Cs9  1  0.33400439  -0.00244837  -0.00176988  1
  Cs  Cs10  1  0.33554669  0.00169222  0.33460590  1
  Cs  Cs11  1  0.33382597  0.00039419  0.66602080  1
  Cs  Cs12  1  0.33157242  0.33609138  -0.00161508  1
  Cs  Cs13  1  0.33362352  0.33203399  0.33450286  1
  Cs  Cs14  1  0.33555430  0.33254453  0.66765600  1
  Cs  Cs15  1  0.32523242  0.66431518  0.00388782  1
  Cs  Cs16  1  0.33305919  0.66613868  0.33236690  1
  Cs  Cs17  1  0.33740447  0.66752128  0.66675846  1
  Cs  Cs18  1  0.66588625  0.00105036  0.00195783  1
  Cs  Cs19  1  0.66586166  0.00084877  0.32941637  1
  Cs  Cs20  1  0.66744362  -0.00091629  0.66699531  1
  Cs  Cs21  1  0.66787394  0.33282339  0.00068157  1
  Cs  Cs22  1  0.66752472  0.33366212  0.33147065  1
  Cs  Cs23  1  0.66583818  0.33684394  0.66702653  1
  Cs  Cs24  1  0.66848663  0.66684571  -0.00144870  1
  Cs  Cs25  1  0.66779485  0.66548058  0.33273201  1
  Cs  Cs26  1  0.66590764  0.66511399  0.66712433  1
  Sn  Sn27  1  0.50039469  0.83426030  0.50049461  1
  Sn  Sn28  1  0.83291407  0.83433616  0.50035538  1
  Sn  Sn29  1  0.50093369  0.16573227  0.83238663  1
  Sn  Sn30  1  0.50069049  0.83423760  0.83262414  1
  Sn  Sn31  1  0.83241500  0.16589855  0.83250553  1
  Sn  Sn32  1  0.16660536  0.83320364  0.50015176  1
  Sn  Sn33  1  0.16671013  0.16574271  0.16693567  1
  Sn  Sn34  1  0.16669169  0.16665349  0.49933369  1
  Sn  Sn35  1  0.16664369  0.49995976  0.50078741  1
  Sn  Sn36  1  0.83273018  0.83402286  0.83281650  1
  Sn  Sn37  1  0.50049455  0.16604015  0.50064024  1
  Sn  Sn38  1  0.83278520  0.16592419  0.50066603  1
  Sn  Sn39  1  0.50039547  0.49986975  0.16684237  1
  Pb  Pb40  1  0.83570708  0.16649761  0.16603041  1
  Pb  Pb41  1  0.83563034  0.50006589  0.50006517  1
  Pb  Pb42  1  0.16640819  0.83325260  0.83109766  1
  Pb  Pb43  1  0.50006366  0.83153343  0.16627791  1
  Pb  Pb44  1  0.16852305  0.49746441  0.16940046  1
  Pb  Pb45  1  0.83067614  0.49983459  0.16683192  1
  Pb  Pb46  1  0.16672761  0.83625257  0.16963401  1
  Pb  Pb47  1  0.16673458  0.50016587  0.83006813  1
  Pb  Pb48  1  0.16642279  0.16667852  0.83279565  1
  Pb  Pb49  1  0.49831149  0.16783224  0.16620498  1
  Pb  Pb50  1  0.83326099  0.50047273  0.83308160  1
  Pb  Pb51  1  0.83328888  0.83360389  0.16615919  1
  Pb  Pb52  1  0.49844618  0.50003507  0.49881624  1
  Pb  Pb53  1  0.50004042  0.50042731  0.83544768  1
  I  I54  1  0.16847419  0.00383018  0.17334639  1
  I  I55  1  0.16696323  0.00048785  0.49604692  1
  I  I56  1  0.16761031  0.00009996  0.83339688  1
  I  I57  1  0.16725260  0.33004630  0.17347500  1
  I  I58  1  0.16729642  0.33162487  0.49565433  1
  I  I59  1  0.16720746  0.33286262  0.83145619  1
  I  I60  1  0.16733160  0.66649482  0.16739308  1
  I  I61  1  0.16772668  0.66774513  0.50213139  1
  I  I62  1  0.16749211  0.66702225  0.83203565  1
  I  I63  1  0.49842800  0.00006629  0.16755493  1
  I  I64  1  0.49526299  0.00043488  0.50245506  1
  I  I65  1  0.50303251  0.00041568  0.82925688  1
  I  I66  1  0.49746780  0.33536875  0.16836253  1
  I  I67  1  0.49893120  0.32984122  0.50254130  1
  I  I68  1  0.50300102  0.32984489  0.82918243  1
  I  I69  1  0.49843533  0.66393356  0.16865383  1
  I  I70  1  0.49939991  0.67015557  0.50278128  1
  I  I71  1  0.50458830  0.67049209  0.82783382  1
  I  I72  1  0.83279589  0.00022463  0.16829354  1
  I  I73  1  0.83798766  0.00047074  0.50339909  1
  I  I74  1  0.82953024  0.00038195  0.82791688  1
  I  I75  1  0.83421285  0.33285643  0.16735633  1
  I  I76  1  0.83347131  0.32948219  0.50359346  1
  I  I77  1  0.82940628  0.32957771  0.82819599  1
  I  I78  1  0.83423717  0.66678993  0.16765885  1
  I  I79  1  0.83270273  0.67053777  0.50434461  1
  I  I80  1  0.82719726  0.67083843  0.82616508  1
  I  I81  1  0.16795191  0.16842994  0.00221319  1
  I  I82  1  0.16732162  0.16682986  0.33652354  1
  I  I83  1  0.16696935  0.16620552  0.66267920  1
  I  I84  1  0.16732595  0.49822767  0.00058740  1
  I  I85  1  0.16761747  0.50224947  0.33708589  1
  I  I86  1  0.16858754  0.49552502  0.66184336  1
  I  I87  1  0.16722160  0.83389462  0.00000579  1
  I  I88  1  0.16713676  0.83101591  0.33859004  1
  I  I89  1  0.16711072  0.83781284  0.66217518  1
  I  I90  1  0.50280708  0.16373637  -0.00350119  1
  I  I91  1  0.50112413  0.16379735  0.33681804  1
  I  I92  1  0.49734518  0.16421591  0.66538311  1
  I  I93  1  0.49866793  0.49830934  0.00295326  1
  I  I94  1  0.49758120  0.49909037  0.33125506  1
  I  I95  1  0.49787199  0.49952882  0.66666771  1
  I  I96  1  0.50575478  0.83780244  -0.00386520  1
  I  I97  1  0.49970928  0.83691180  0.33715242  1
  I  I98  1  0.49943260  0.83635633  0.66533311  1
  I  I99  1  0.82888013  0.16198316  -0.00387462  1
  I  I100  1  0.83142395  0.16270705  0.33702075  1
  I  I101  1  0.83567034  0.16305569  0.66530310  1
  I  I102  1  0.83417783  0.49919303  -0.00015474  1
  I  I103  1  0.83368801  0.50009067  0.33382117  1
  I  I104  1  0.83381754  0.49917522  0.66637501  1
  I  I105  1  0.82595948  0.83946860  -0.00419741  1
  I  I106  1  0.83301180  0.83762339  0.33748736  1
  I  I107  1  0.83357461  0.83758984  0.66534850  1
  I  I108  1  0.00338602  0.16748783  0.17386758  1
  I  I109  1  -0.00007997  0.16454509  0.49968160  1
  I  I110  1  -0.00326720  0.16191378  0.82907316  1
  I  I111  1  0.00053156  0.49969571  0.16645905  1
  I  I112  1  0.00372120  0.49896912  0.49854786  1
  I  I113  1  -0.00010520  0.49873240  0.83465107  1
  I  I114  1  0.00014324  0.83222817  0.16607875  1
  I  I115  1  -0.00033730  0.83665906  0.50371712  1
  I  I116  1  -0.00350541  0.83983418  0.82732761  1
  I  I117  1  0.33071533  0.16799703  0.17359047  1
  I  I118  1  0.33357383  0.16460106  0.49951411  1
  I  I119  1  0.33644303  0.16322793  0.82991915  1
  I  I120  1  0.33575673  0.49974829  0.16711069  1
  I  I121  1  0.33051246  0.49907756  0.49812054  1
  I  I122  1  0.33367651  0.49894661  0.83421699  1
  I  I123  1  0.33336643  0.83258708  0.16643856  1
  I  I124  1  0.33380943  0.83603679  0.50304382  1
  I  I125  1  0.33661177  0.83796298  0.82882602  1
  I  I126  1  0.66655813  0.16928413  0.16984154  1
  I  I127  1  0.66639479  0.16097469  0.50351937  1
  I  I128  1  0.66624646  0.16371300  0.82607455  1
  I  I129  1  0.66302413  0.49826356  0.16896042  1
  I  I130  1  0.66657357  0.49965779  0.49787228  1
  I  I131  1  0.66649609  0.49919122  0.83339416  1
  I  I132  1  0.66653541  0.83234855  0.17285173  1
  I  I133  1  0.66642608  0.83938631  0.50325294  1
  I  I134  1  0.66628452  0.83709819  0.82450423  1
