# generated using pymatgen
data_Cs27Sn14Pb13I81
_symmetry_space_group_name_H-M   'P 1'
_cell_length_a   18.97183106
_cell_length_b   18.98405782
_cell_length_c   18.97204242
_cell_angle_alpha   90.00085907
_cell_angle_beta   90.00367249
_cell_angle_gamma   89.99896531
_symmetry_Int_Tables_number   1
_chemical_formula_structural   Cs27Sn14Pb13I81
_chemical_formula_sum   'Cs27 Sn14 Pb13 I81'
_cell_volume   6833.01513595
_cell_formula_units_Z   1
loop_
 _symmetry_equiv_pos_site_id
 _symmetry_equiv_pos_as_xyz
  1  'x, y, z'
loop_
 _atom_site_type_symbol
 _atom_site_label
 _atom_site_symmetry_multiplicity
 _atom_site_fract_x
 _atom_site_fract_y
 _atom_site_fract_z
 _atom_site_occupancy
  Cs  Cs0  1  0.00109587  -0.00022937  0.00072332  1
  Cs  Cs1  1  -0.00284460  0.00247617  0.32980438  1
  Cs  Cs2  1  -0.00010165  -0.00088938  0.66714946  1
  Cs  Cs3  1  0.00378512  0.33183607  -0.00206544  1
  Cs  Cs4  1  -0.00962672  0.32922637  0.33399393  1
  Cs  Cs5  1  -0.00136296  0.33263541  0.66864305  1
  Cs  Cs6  1  0.00071112  0.66730769  -0.00227583  1
  Cs  Cs7  1  0.00081220  0.66606418  0.33564935  1
  Cs  Cs8  1  0.00284036  0.66792281  0.66782132  1
  Cs  Cs9  1  0.33429770  0.00029404  0.00180540  1
  Cs  Cs10  1  0.33426029  0.00012887  0.33355247  1
  Cs  Cs11  1  0.33493306  0.00010721  0.66489279  1
  Cs  Cs12  1  0.33127081  0.33380496  0.00070321  1
  Cs  Cs13  1  0.33495539  0.33122040  0.33258852  1
  Cs  Cs14  1  0.33547197  0.33199863  0.66582249  1
  Cs  Cs15  1  0.33220904  0.66728565  0.00021691  1
  Cs  Cs16  1  0.33239382  0.66719150  0.33636475  1
  Cs  Cs17  1  0.33152968  0.66581391  0.66301401  1
  Cs  Cs18  1  0.66400371  -0.00301198  -0.00027865  1
  Cs  Cs19  1  0.66504446  -0.00113164  0.33548084  1
  Cs  Cs20  1  0.66526603  -0.00023655  0.66618035  1
  Cs  Cs21  1  0.66246983  0.34055718  -0.00152478  1
  Cs  Cs22  1  0.67243685  0.34068450  0.33481863  1
  Cs  Cs23  1  0.66742372  0.33383898  0.66515692  1
  Cs  Cs24  1  0.66604824  0.66548578  0.00314761  1
  Cs  Cs25  1  0.66716903  0.66238799  0.32874612  1
  Cs  Cs26  1  0.66450911  0.66916817  0.66788001  1
  Sn  Sn27  1  0.83374501  0.16623811  0.83372843  1
  Sn  Sn28  1  0.16625648  0.50016470  0.83382811  1
  Sn  Sn29  1  0.50040109  0.16617495  0.16758558  1
  Sn  Sn30  1  0.83416303  0.50040371  0.83319296  1
  Sn  Sn31  1  0.16623775  0.16622904  0.83235423  1
  Sn  Sn32  1  0.16627612  0.83359314  0.83396829  1
  Sn  Sn33  1  0.50097275  0.83392769  0.49897885  1
  Sn  Sn34  1  0.83255828  0.83346667  0.50054480  1
  Sn  Sn35  1  0.49896588  0.83425590  0.16769761  1
  Sn  Sn36  1  0.49950898  0.16605540  0.49875540  1
  Sn  Sn37  1  0.16692551  0.16656120  0.50047665  1
  Sn  Sn38  1  0.16728769  0.83254744  0.16608579  1
  Sn  Sn39  1  0.83403002  0.83350464  0.83265464  1
  Sn  Sn40  1  0.16654734  0.50074224  0.16667041  1
  Pb  Pb41  1  0.16661681  0.83528061  0.49965683  1
  Pb  Pb42  1  0.49985780  0.16663628  0.83319242  1
  Pb  Pb43  1  0.49740493  0.50041358  0.16680169  1
  Pb  Pb44  1  0.83683147  0.50004053  0.16398061  1
  Pb  Pb45  1  0.49963072  0.83322861  0.83335095  1
  Pb  Pb46  1  0.49921679  0.50018591  0.83318192  1
  Pb  Pb47  1  0.16784655  0.16648670  0.16661190  1
  Pb  Pb48  1  0.83360277  0.50336470  0.50289772  1
  Pb  Pb49  1  0.82956051  0.16657952  0.16337176  1
  Pb  Pb50  1  0.16654178  0.49661572  0.49989859  1
  Pb  Pb51  1  0.49994016  0.50007305  0.49983306  1
  Pb  Pb52  1  0.83348747  0.83345343  0.16644615  1
  Pb  Pb53  1  0.83284714  0.16467952  0.50197967  1
  I  I54  1  0.16895701  -0.00272666  0.16267338  1
  I  I55  1  0.16839219  0.00288177  0.50516875  1
  I  I56  1  0.16091033  -0.00030257  0.83378902  1
  I  I57  1  0.16895615  0.33521740  0.16150955  1
  I  I58  1  0.17345269  0.32867872  0.50454328  1
  I  I59  1  0.16139121  0.33310116  0.83393223  1
  I  I60  1  0.17242426  0.66801039  0.15772722  1
  I  I61  1  0.16755233  0.66692393  0.50258226  1
  I  I62  1  0.16094101  0.66731330  0.83844417  1
  I  I63  1  0.49328371  -0.00112232  0.16956001  1
  I  I64  1  0.49969047  -0.00025966  0.49617344  1
  I  I65  1  0.50021690  -0.00007640  0.83420471  1
  I  I66  1  0.49835102  0.33051950  0.16940190  1
  I  I67  1  0.49477979  0.32959006  0.49738054  1
  I  I68  1  0.50046297  0.33308743  0.83373846  1
  I  I69  1  0.49859522  0.67018519  0.17016365  1
  I  I70  1  0.50354334  0.67058506  0.49684825  1
  I  I71  1  0.50062181  0.66701496  0.83299049  1
  I  I72  1  0.83937206  -0.00011834  0.16282214  1
  I  I73  1  0.83228682  -0.00304918  0.50742198  1
  I  I74  1  0.83962821  -0.00067246  0.82953127  1
  I  I75  1  0.83321249  0.33325943  0.16633026  1
  I  I76  1  0.83272753  0.33318662  0.50117185  1
  I  I77  1  0.83991579  0.33319276  0.83487233  1
  I  I78  1  0.82749424  0.66691223  0.16521719  1
  I  I79  1  0.82803516  0.67142451  0.50513756  1
  I  I80  1  0.83982292  0.66743935  0.82918161  1
  I  I81  1  0.16435393  0.16678747  -0.00304517  1
  I  I82  1  0.17044938  0.16540097  0.33561113  1
  I  I83  1  0.16916320  0.16602726  0.66812243  1
  I  I84  1  0.16334708  0.49865442  -0.00148755  1
  I  I85  1  0.17052358  0.50588687  0.33036683  1
  I  I86  1  0.16250408  0.50358612  0.67031793  1
  I  I87  1  0.16669496  0.83489024  -0.00104838  1
  I  I88  1  0.16774569  0.83012789  0.33066390  1
  I  I89  1  0.16582641  0.83099040  0.66952435  1
  I  I90  1  0.49971707  0.16155021  0.00256813  1
  I  I91  1  0.49143856  0.16086647  0.33409510  1
  I  I92  1  0.49839322  0.16134135  0.66377351  1
  I  I93  1  0.50297445  0.49934004  0.00011492  1
  I  I94  1  0.49738029  0.49976700  0.33315527  1
  I  I95  1  0.49734914  0.49980578  0.66658984  1
  I  I96  1  0.49879924  0.83776503  0.00285840  1
  I  I97  1  0.49911089  0.83826648  0.33320162  1
  I  I98  1  0.50107147  0.83857967  0.66383268  1
  I  I99  1  0.84084674  0.16300543  -0.00493912  1
  I  I100  1  0.83752512  0.16429238  0.33350125  1
  I  I101  1  0.83324752  0.16827693  0.67034500  1
  I  I102  1  0.83374061  0.50361507  -0.00443426  1
  I  I103  1  0.83367486  0.50044682  0.33336602  1
  I  I104  1  0.84127598  0.49696897  0.67113585  1
  I  I105  1  0.83420171  0.83299524  -0.00358440  1
  I  I106  1  0.83300495  0.83564370  0.33595087  1
  I  I107  1  0.83325193  0.83355622  0.66818588  1
  I  I108  1  0.00005992  0.16650330  0.16978395  1
  I  I109  1  0.00232476  0.16555417  0.50292116  1
  I  I110  1  0.00140757  0.16675011  0.82781941  1
  I  I111  1  0.00474141  0.50682158  0.16444625  1
  I  I112  1  0.00017001  0.50036567  0.49663520  1
  I  I113  1  0.00098099  0.50007336  0.83749264  1
  I  I114  1  0.00325309  0.82943586  0.16498868  1
  I  I115  1  -0.00202764  0.83446997  0.50262780  1
  I  I116  1  0.00056784  0.83334696  0.83285863  1
  I  I117  1  0.33580911  0.16474391  0.16534575  1
  I  I118  1  0.33373806  0.16088659  0.50315197  1
  I  I119  1  0.33000134  0.16641949  0.83260761  1
  I  I120  1  0.32973332  0.50101703  0.15731364  1
  I  I121  1  0.33296268  0.50467153  0.50427775  1
  I  I122  1  0.32894736  0.49975877  0.83736321  1
  I  I123  1  0.33291575  0.83364780  0.16568319  1
  I  I124  1  0.33574451  0.83616181  0.49961901  1
  I  I125  1  0.32982743  0.83375136  0.83424113  1
  I  I126  1  0.66170208  0.15829355  0.17152100  1
  I  I127  1  0.66369556  0.16332329  0.49839294  1
  I  I128  1  0.66961135  0.16590240  0.83373013  1
  I  I129  1  0.66673776  0.49996289  0.16462600  1
  I  I130  1  0.66689576  0.49501566  0.50289755  1
  I  I131  1  0.67005723  0.49927532  0.83187588  1
  I  I132  1  0.66370972  0.83849573  0.16654396  1
  I  I133  1  0.66589877  0.83989124  0.50193592  1
  I  I134  1  0.66964226  0.83398956  0.83230392  1
