# generated using pymatgen
data_Cs27Sn14Pb13I81
_symmetry_space_group_name_H-M   'P 1'
_cell_length_a   18.95896249
_cell_length_b   18.96180497
_cell_length_c   18.96263450
_cell_angle_alpha   90.00046287
_cell_angle_beta   90.00127338
_cell_angle_gamma   90.00157837
_symmetry_Int_Tables_number   1
_chemical_formula_structural   Cs27Sn14Pb13I81
_chemical_formula_sum   'Cs27 Sn14 Pb13 I81'
_cell_volume   6816.99407601
_cell_formula_units_Z   1
loop_
 _symmetry_equiv_pos_site_id
 _symmetry_equiv_pos_as_xyz
  1  'x, y, z'
loop_
 _atom_site_type_symbol
 _atom_site_label
 _atom_site_symmetry_multiplicity
 _atom_site_fract_x
 _atom_site_fract_y
 _atom_site_fract_z
 _atom_site_occupancy
  Cs  Cs0  1  -0.00148832  0.00043583  -0.00154433  1
  Cs  Cs1  1  -0.00213862  -0.00098205  0.33460583  1
  Cs  Cs2  1  0.00146956  0.00119219  0.66676412  1
  Cs  Cs3  1  0.00151861  0.33432360  0.00001982  1
  Cs  Cs4  1  0.00062189  0.33452137  0.33443139  1
  Cs  Cs5  1  0.00081996  0.33172045  0.66465515  1
  Cs  Cs6  1  -0.00152907  0.66279839  0.00442095  1
  Cs  Cs7  1  -0.00090293  0.66548076  0.33112011  1
  Cs  Cs8  1  0.00105916  0.66692724  0.66239493  1
  Cs  Cs9  1  0.33410798  -0.00108379  -0.00083936  1
  Cs  Cs10  1  0.33695712  -0.00072513  0.33274011  1
  Cs  Cs11  1  0.32773357  -0.00242552  0.66870956  1
  Cs  Cs12  1  0.33060644  0.33363440  0.00411411  1
  Cs  Cs13  1  0.33342500  0.33508012  0.33040946  1
  Cs  Cs14  1  0.33192955  0.33441119  0.66341449  1
  Cs  Cs15  1  0.33339893  0.66653503  -0.00092077  1
  Cs  Cs16  1  0.33261243  0.66671538  0.33322281  1
  Cs  Cs17  1  0.33603940  0.66832493  0.66820276  1
  Cs  Cs18  1  0.66736743  0.00168810  -0.00129996  1
  Cs  Cs19  1  0.66588576  0.00031333  0.33466199  1
  Cs  Cs20  1  0.66804509  0.00003029  0.66519715  1
  Cs  Cs21  1  0.66689339  0.33052953  -0.00287246  1
  Cs  Cs22  1  0.66495588  0.33025094  0.33624422  1
  Cs  Cs23  1  0.66697275  0.33597135  0.66688898  1
  Cs  Cs24  1  0.66860204  0.66530185  -0.00277540  1
  Cs  Cs25  1  0.66882379  0.66920935  0.33355007  1
  Cs  Cs26  1  0.66320912  0.66193816  0.66887625  1
  Sn  Sn27  1  0.50040369  0.16566447  0.50153441  1
  Sn  Sn28  1  0.16732684  0.83349960  0.16666059  1
  Sn  Sn29  1  0.83328463  0.83367928  0.83231957  1
  Sn  Sn30  1  0.50010769  0.16636304  0.83188987  1
  Sn  Sn31  1  0.83271870  0.16596660  0.83292771  1
  Sn  Sn32  1  0.50081557  0.83432405  0.49954802  1
  Sn  Sn33  1  0.16665580  0.50009378  0.83356292  1
  Sn  Sn34  1  0.83251007  0.16581424  0.50028398  1
  Sn  Sn35  1  0.50007228  0.50124896  0.16663057  1
  Sn  Sn36  1  0.83224979  0.83406356  0.50122322  1
  Sn  Sn37  1  0.83428002  0.16661461  0.16678237  1
  Sn  Sn38  1  0.16560532  0.16620559  0.16673702  1
  Sn  Sn39  1  0.16760519  0.50025342  0.16591317  1
  Sn  Sn40  1  0.49956659  0.83227481  0.16690263  1
  Pb  Pb41  1  0.83288099  0.49693464  0.16677311  1
  Pb  Pb42  1  0.50010802  0.16629732  0.16683159  1
  Pb  Pb43  1  0.50009678  0.50025008  0.49769678  1
  Pb  Pb44  1  0.16650232  0.16799612  0.83532780  1
  Pb  Pb45  1  0.50177396  0.83512641  0.83330334  1
  Pb  Pb46  1  0.16672411  0.83345258  0.49781198  1
  Pb  Pb47  1  0.16374756  0.83116674  0.83590726  1
  Pb  Pb48  1  0.83281962  0.83522957  0.16676781  1
  Pb  Pb49  1  0.16698922  0.16646460  0.49744348  1
  Pb  Pb50  1  0.83305710  0.50022342  0.50008986  1
  Pb  Pb51  1  0.83553218  0.49976396  0.83319338  1
  Pb  Pb52  1  0.49795617  0.49712427  0.83577291  1
  Pb  Pb53  1  0.16686356  0.50017810  0.49960771  1
  I  I54  1  0.16710143  0.00001072  0.16793360  1
  I  I55  1  0.16668074  0.00002177  0.49770721  1
  I  I56  1  0.16760868  -0.00006803  0.83610588  1
  I  I57  1  0.16713664  0.33352861  0.16325819  1
  I  I58  1  0.16599383  0.33304033  0.49664003  1
  I  I59  1  0.16555833  0.33575959  0.84167316  1
  I  I60  1  0.17122762  0.66655153  0.16335650  1
  I  I61  1  0.16517961  0.66697758  0.49742615  1
  I  I62  1  0.16571263  0.66351358  0.84032202  1
  I  I63  1  0.49693123  -0.00238269  0.16805728  1
  I  I64  1  0.50468785  0.00000533  0.49531236  1
  I  I65  1  0.50127238  0.00333747  0.83643320  1
  I  I66  1  0.49640980  0.33477870  0.16613837  1
  I  I67  1  0.50457592  0.32993702  0.50137401  1
  I  I68  1  0.50699295  0.32906908  0.83020377  1
  I  I69  1  0.49220796  0.66777484  0.17170422  1
  I  I70  1  0.50405094  0.67025017  0.49686105  1
  I  I71  1  0.50114331  0.66666975  0.83167489  1
  I  I72  1  0.83677387  0.00343755  0.16633670  1
  I  I73  1  0.82927323  0.00084426  0.49941982  1
  I  I74  1  0.83080525  0.00142687  0.83388109  1
  I  I75  1  0.83642439  0.32846619  0.16621829  1
  I  I76  1  0.82977332  0.32932009  0.49983966  1
  I  I77  1  0.83081193  0.32958895  0.83384450  1
  I  I78  1  0.83597157  0.66693894  0.16690474  1
  I  I79  1  0.82973580  0.67067517  0.50352839  1
  I  I80  1  0.83452593  0.66966552  0.82990906  1
  I  I81  1  0.16374854  0.16578474  0.00382712  1
  I  I82  1  0.16336430  0.16962124  0.32889831  1
  I  I83  1  0.16487823  0.17009270  0.66676872  1
  I  I84  1  0.16979451  0.49902740  0.00228846  1
  I  I85  1  0.17013144  0.49936959  0.32916992  1
  I  I86  1  0.16429720  0.49784715  0.66950991  1
  I  I87  1  0.17135793  0.83601447  0.00428459  1
  I  I88  1  0.16546682  0.83104252  0.32916698  1
  I  I89  1  0.16862143  0.83088927  0.66691559  1
  I  I90  1  0.50351801  0.16718770  -0.00156532  1
  I  I91  1  0.50312125  0.16599152  0.33548432  1
  I  I92  1  0.50765928  0.16263594  0.66587023  1
  I  I93  1  0.49775961  0.50393538  0.00392603  1
  I  I94  1  0.49261649  0.49781486  0.32951117  1
  I  I95  1  0.49784554  0.50163074  0.66688789  1
  I  I96  1  0.49734266  0.83209465  0.00278485  1
  I  I97  1  0.50166089  0.83601309  0.33319657  1
  I  I98  1  0.50265760  0.83597835  0.66380281  1
  I  I99  1  0.83259481  0.16314755  -0.00045783  1
  I  I100  1  0.83294356  0.16329450  0.33387571  1
  I  I101  1  0.82865480  0.16294925  0.66657214  1
  I  I102  1  0.83192153  0.50039951  0.00014869  1
  I  I103  1  0.83674434  0.49980773  0.33311745  1
  I  I104  1  0.83667458  0.49616675  0.66678256  1
  I  I105  1  0.83397894  0.83841212  -0.00186650  1
  I  I106  1  0.83258620  0.83803872  0.33576674  1
  I  I107  1  0.82904605  0.84138417  0.66588307  1
  I  I108  1  -0.00018331  0.16669384  0.16623964  1
  I  I109  1  -0.00346847  0.16284394  0.50191556  1
  I  I110  1  -0.00320483  0.16465416  0.83191529  1
  I  I111  1  0.00318147  0.50215608  0.16329471  1
  I  I112  1  -0.00004818  0.49958404  0.49701106  1
  I  I113  1  0.00320775  0.49817243  0.84307088  1
  I  I114  1  0.00219150  0.83115981  0.16625744  1
  I  I115  1  -0.00342181  0.83816657  0.50221791  1
  I  I116  1  -0.00414582  0.84086157  0.82910808  1
  I  I117  1  0.33126249  0.16761666  0.16633889  1
  I  I118  1  0.33693313  0.16293333  0.50250640  1
  I  I119  1  0.33585595  0.16832622  0.83156434  1
  I  I120  1  0.33247975  0.49733873  0.16372862  1
  I  I121  1  0.33363241  0.49841107  0.50084111  1
  I  I122  1  0.33019745  0.49855036  0.83729998  1
  I  I123  1  0.33381758  0.83503119  0.17168907  1
  I  I124  1  0.33678708  0.83756688  0.49657838  1
  I  I125  1  0.33330765  0.83441466  0.83155745  1
  I  I126  1  0.66903622  0.16622881  0.16642273  1
  I  I127  1  0.66719156  0.16310843  0.49680099  1
  I  I128  1  0.66782579  0.16400340  0.83685415  1
  I  I129  1  0.66361718  0.50367904  0.16808768  1
  I  I130  1  0.66644231  0.49893655  0.49714697  1
  I  I131  1  0.66652809  0.50047877  0.83529295  1
  I  I132  1  0.66383017  0.83100532  0.16813069  1
  I  I133  1  0.66643619  0.83832844  0.49574339  1
  I  I134  1  0.66990735  0.83564806  0.83593626  1
