# generated using pymatgen
data_Cs27Sn14Pb13I81
_symmetry_space_group_name_H-M   'P 1'
_cell_length_a   18.97912395
_cell_length_b   18.96910680
_cell_length_c   18.97805157
_cell_angle_alpha   90.00132213
_cell_angle_beta   89.99980502
_cell_angle_gamma   90.00254893
_symmetry_Int_Tables_number   1
_chemical_formula_structural   Cs27Sn14Pb13I81
_chemical_formula_sum   'Cs27 Sn14 Pb13 I81'
_cell_volume   6832.42173429
_cell_formula_units_Z   1
loop_
 _symmetry_equiv_pos_site_id
 _symmetry_equiv_pos_as_xyz
  1  'x, y, z'
loop_
 _atom_site_type_symbol
 _atom_site_label
 _atom_site_symmetry_multiplicity
 _atom_site_fract_x
 _atom_site_fract_y
 _atom_site_fract_z
 _atom_site_occupancy
  Cs  Cs0  1  0.00500706  0.00092553  0.00360699  1
  Cs  Cs1  1  -0.00038263  -0.00251455  0.33134801  1
  Cs  Cs2  1  0.00365537  -0.00148748  0.66774945  1
  Cs  Cs3  1  -0.00202087  0.33422268  -0.00024152  1
  Cs  Cs4  1  -0.00066269  0.33479641  0.33398811  1
  Cs  Cs5  1  0.00333370  0.33216252  0.66624435  1
  Cs  Cs6  1  -0.00007079  0.66454701  -0.00218102  1
  Cs  Cs7  1  0.00057725  0.66823127  0.33289176  1
  Cs  Cs8  1  -0.00712406  0.67033433  0.67230528  1
  Cs  Cs9  1  0.33307471  -0.00123572  -0.00010549  1
  Cs  Cs10  1  0.33510150  -0.00131002  0.33303041  1
  Cs  Cs11  1  0.33144663  0.00192650  0.66820130  1
  Cs  Cs12  1  0.33263631  0.33534988  0.00258479  1
  Cs  Cs13  1  0.33122260  0.34157347  0.33579474  1
  Cs  Cs14  1  0.32838634  0.33180345  0.66044058  1
  Cs  Cs15  1  0.33508126  0.66557358  0.00004494  1
  Cs  Cs16  1  0.33225271  0.66351812  0.33204529  1
  Cs  Cs17  1  0.33738918  0.66542642  0.66798654  1
  Cs  Cs18  1  0.66298534  0.00468982  0.00390184  1
  Cs  Cs19  1  0.66606891  0.00061885  0.33334005  1
  Cs  Cs20  1  0.66613965  -0.00000994  0.66320548  1
  Cs  Cs21  1  0.66817982  0.33106007  -0.00210507  1
  Cs  Cs22  1  0.66760270  0.33154960  0.33427879  1
  Cs  Cs23  1  0.66655162  0.33368651  0.66704113  1
  Cs  Cs24  1  0.66619927  0.66306759  -0.00825375  1
  Cs  Cs25  1  0.66735155  0.66869129  0.33431419  1
  Cs  Cs26  1  0.67025922  0.66479026  0.67556043  1
  Sn  Sn27  1  0.83283850  0.50111033  0.16742372  1
  Sn  Sn28  1  0.49845353  0.16645310  0.16732198  1
  Sn  Sn29  1  0.50018598  0.83371161  0.16749895  1
  Sn  Sn30  1  0.16694258  0.49993172  0.83319767  1
  Sn  Sn31  1  0.49923571  0.83386785  0.49929917  1
  Sn  Sn32  1  0.16717205  0.83388042  0.16754048  1
  Sn  Sn33  1  0.50049026  0.16604863  0.49966204  1
  Sn  Sn34  1  0.16806078  0.16648948  0.16744558  1
  Sn  Sn35  1  0.16770414  0.83334916  0.49947055  1
  Sn  Sn36  1  0.83271535  0.83208330  0.16651086  1
  Sn  Sn37  1  0.50037904  0.16654263  0.83305870  1
  Sn  Sn38  1  0.83308442  0.49945507  0.49925125  1
  Sn  Sn39  1  0.83303419  0.16716062  0.50096245  1
  Sn  Sn40  1  0.83309174  0.16609242  0.83199941  1
  Pb  Pb41  1  0.49732785  0.49649785  0.83312269  1
  Pb  Pb42  1  0.50243407  0.50060268  0.49992775  1
  Pb  Pb43  1  0.50006167  0.83574542  0.83315411  1
  Pb  Pb44  1  0.83274853  0.83377223  0.49860584  1
  Pb  Pb45  1  0.16692359  0.83129898  0.83358838  1
  Pb  Pb46  1  0.16376850  0.50363804  0.50208203  1
  Pb  Pb47  1  0.50279483  0.50025290  0.16679926  1
  Pb  Pb48  1  0.83457131  0.49749830  0.83314836  1
  Pb  Pb49  1  0.83309554  0.16638682  0.16724658  1
  Pb  Pb50  1  0.16670407  0.16491243  0.49740491  1
  Pb  Pb51  1  0.83316066  0.83705339  0.83695468  1
  Pb  Pb52  1  0.16701301  0.16796708  0.83578182  1
  Pb  Pb53  1  0.16450262  0.50058801  0.16569397  1
  I  I54  1  0.16355652  -0.00085643  0.16814802  1
  I  I55  1  0.16463704  -0.00304299  0.49844913  1
  I  I56  1  0.16584976  0.00010614  0.83312441  1
  I  I57  1  0.16924583  0.33093177  0.16394170  1
  I  I58  1  0.16860937  0.33340479  0.49921004  1
  I  I59  1  0.16544642  0.33542141  0.83603303  1
  I  I60  1  0.16869056  0.67014907  0.16902373  1
  I  I61  1  0.17186684  0.67120691  0.49180840  1
  I  I62  1  0.16333982  0.66379482  0.83545994  1
  I  I63  1  0.50220297  0.00035850  0.16671801  1
  I  I64  1  0.50322532  0.00098995  0.49865580  1
  I  I65  1  0.50303979  0.00399802  0.83467396  1
  I  I66  1  0.49714566  0.32966172  0.16683401  1
  I  I67  1  0.50257124  0.32982560  0.49950305  1
  I  I68  1  0.50559717  0.32829097  0.83495013  1
  I  I69  1  0.49660484  0.67038906  0.17226337  1
  I  I70  1  0.49630711  0.67038537  0.49286540  1
  I  I71  1  0.49928518  0.66663350  0.83389630  1
  I  I72  1  0.83391053  -0.00239686  0.16660373  1
  I  I73  1  0.83155109  0.00285250  0.50186627  1
  I  I74  1  0.83046871  0.00470843  0.82712872  1
  I  I75  1  0.83425706  0.33485208  0.16681954  1
  I  I76  1  0.82812568  0.33205333  0.49699696  1
  I  I77  1  0.82962078  0.32981709  0.83611162  1
  I  I78  1  0.83485205  0.66728874  0.17346284  1
  I  I79  1  0.83490999  0.66482346  0.49635531  1
  I  I80  1  0.83496236  0.66663808  0.83117421  1
  I  I81  1  0.16862093  0.16064895  0.00374446  1
  I  I82  1  0.16827047  0.16531701  0.32938291  1
  I  I83  1  0.16809071  0.16615695  0.66639706  1
  I  I84  1  0.16277953  0.49999721  -0.00184325  1
  I  I85  1  0.16621897  0.49826938  0.33353289  1
  I  I86  1  0.16476140  0.49790787  0.66924996  1
  I  I87  1  0.16674478  0.83673775  0.00377799  1
  I  I88  1  0.16647617  0.83715391  0.33188585  1
  I  I89  1  0.17055677  0.83262159  0.66360400  1
  I  I90  1  0.50120008  0.16312030  0.00099307  1
  I  I91  1  0.50255947  0.16148175  0.33340148  1
  I  I92  1  0.50571548  0.16306819  0.66567558  1
  I  I93  1  0.50287695  0.50008036  0.00008606  1
  I  I94  1  0.49800784  0.49444059  0.33329277  1
  I  I95  1  0.50260872  0.50205542  0.66653928  1
  I  I96  1  0.49910130  0.83771377  0.00356265  1
  I  I97  1  0.50013103  0.84233336  0.33254041  1
  I  I98  1  0.49489718  0.83758011  0.66311933  1
  I  I99  1  0.83041802  0.16658752  -0.00133197  1
  I  I100  1  0.83011754  0.16752144  0.33574879  1
  I  I101  1  0.82575282  0.17278146  0.66547400  1
  I  I102  1  0.83523764  0.50256368  0.00235252  1
  I  I103  1  0.83419495  0.49650332  0.33325372  1
  I  I104  1  0.83475087  0.49792723  0.66409403  1
  I  I105  1  0.83416665  0.82799456  0.00526762  1
  I  I106  1  0.83383911  0.83508780  0.33025568  1
  I  I107  1  0.83408548  0.83001874  0.66662457  1
  I  I108  1  0.00162814  0.16333231  0.16573502  1
  I  I109  1  -0.00272033  0.16899711  0.50280875  1
  I  I110  1  -0.00233612  0.16895146  0.83099321  1
  I  I111  1  -0.00336312  0.50209057  0.16918346  1
  I  I112  1  -0.00383021  0.49380982  0.49569506  1
  I  I113  1  0.00193629  0.49734496  0.83455948  1
  I  I114  1  0.00052935  0.83499110  0.17069653  1
  I  I115  1  0.00171678  0.83315356  0.49488902  1
  I  I116  1  -0.00006345  0.83557341  0.83226527  1
  I  I117  1  0.33449623  0.15868145  0.16455779  1
  I  I118  1  0.33639264  0.16384515  0.50343947  1
  I  I119  1  0.33639045  0.16772986  0.83140857  1
  I  I120  1  0.33331760  0.50077283  0.16411268  1
  I  I121  1  0.33312285  0.49707598  0.50188027  1
  I  I122  1  0.33006807  0.49969537  0.83581609  1
  I  I123  1  0.33356628  0.83963106  0.17018062  1
  I  I124  1  0.33428228  0.83967118  0.49206922  1
  I  I125  1  0.33345329  0.83476552  0.83723390  1
  I  I126  1  0.66400408  0.16367421  0.16633772  1
  I  I127  1  0.66602591  0.16452859  0.49811739  1
  I  I128  1  0.66628405  0.16722586  0.83644044  1
  I  I129  1  0.67081174  0.50245524  0.16948123  1
  I  I130  1  0.67041606  0.49965715  0.49627868  1
  I  I131  1  0.66677120  0.50127092  0.83352850  1
  I  I132  1  0.66570061  0.83584136  0.17174742  1
  I  I133  1  0.66387031  0.83596575  0.49424678  1
  I  I134  1  0.66673229  0.82893503  0.83236757  1
