# generated using pymatgen
data_Cs27Sn13Pb14I81
_symmetry_space_group_name_H-M   'P 1'
_cell_length_a   18.97010609
_cell_length_b   18.98281516
_cell_length_c   18.97673625
_cell_angle_alpha   90.00084424
_cell_angle_beta   89.99993514
_cell_angle_gamma   90.00026811
_symmetry_Int_Tables_number   1
_chemical_formula_structural   Cs27Sn13Pb14I81
_chemical_formula_sum   'Cs27 Sn13 Pb14 I81'
_cell_volume   6833.63691434
_cell_formula_units_Z   1
loop_
 _symmetry_equiv_pos_site_id
 _symmetry_equiv_pos_as_xyz
  1  'x, y, z'
loop_
 _atom_site_type_symbol
 _atom_site_label
 _atom_site_symmetry_multiplicity
 _atom_site_fract_x
 _atom_site_fract_y
 _atom_site_fract_z
 _atom_site_occupancy
  Cs  Cs0  1  0.00511371  0.00012288  -0.00162251  1
  Cs  Cs1  1  -0.00036055  -0.00180462  0.33381786  1
  Cs  Cs2  1  -0.00259282  0.00179379  0.66755722  1
  Cs  Cs3  1  0.00730773  0.33969630  -0.00654559  1
  Cs  Cs4  1  -0.00089844  0.33896015  0.33455118  1
  Cs  Cs5  1  -0.00895682  0.33115553  0.66986652  1
  Cs  Cs6  1  0.00678554  0.66183831  0.00057114  1
  Cs  Cs7  1  -0.00041906  0.66556905  0.33297971  1
  Cs  Cs8  1  -0.00077280  0.66646749  0.66459514  1
  Cs  Cs9  1  0.32623733  0.00102356  -0.00028210  1
  Cs  Cs10  1  0.33457687  0.00158935  0.33440829  1
  Cs  Cs11  1  0.33474002  -0.00198337  0.66499156  1
  Cs  Cs12  1  0.33023011  0.33282646  -0.00215824  1
  Cs  Cs13  1  0.33495559  0.33227689  0.33471926  1
  Cs  Cs14  1  0.33378558  0.33420780  0.66359220  1
  Cs  Cs15  1  0.32752083  0.66650138  -0.00903119  1
  Cs  Cs16  1  0.33370426  0.66548461  0.33563802  1
  Cs  Cs17  1  0.33572605  0.66723755  0.66934963  1
  Cs  Cs18  1  0.66698759  0.00056894  0.00505270  1
  Cs  Cs19  1  0.66579551  -0.00043515  0.33115656  1
  Cs  Cs20  1  0.66731871  -0.00100940  0.66756712  1
  Cs  Cs21  1  0.66558784  0.33377976  0.00030319  1
  Cs  Cs22  1  0.66542478  0.33247032  0.33276535  1
  Cs  Cs23  1  0.67236820  0.33262049  0.66908026  1
  Cs  Cs24  1  0.66689133  0.66581031  -0.00005529  1
  Cs  Cs25  1  0.66693457  0.66809856  0.33202494  1
  Cs  Cs26  1  0.66445337  0.66874841  0.67156671  1
  Sn  Sn27  1  0.16677556  0.16703936  0.49954356  1
  Sn  Sn28  1  0.83300999  0.83417409  0.16606257  1
  Sn  Sn29  1  0.16731390  0.49959642  0.49981091  1
  Sn  Sn30  1  0.83377166  0.83353802  0.49983263  1
  Sn  Sn31  1  0.50012366  0.16631130  0.83340791  1
  Sn  Sn32  1  0.49977204  0.16742650  0.50032536  1
  Sn  Sn33  1  0.50044614  0.16657290  0.16636011  1
  Sn  Sn34  1  0.83328799  0.83337452  0.83437079  1
  Sn  Sn35  1  0.49976074  0.49923575  0.49927720  1
  Sn  Sn36  1  0.83357984  0.16652532  0.16660010  1
  Sn  Sn37  1  0.16596870  0.83344879  0.49949961  1
  Sn  Sn38  1  0.49987286  0.50020830  0.16713871  1
  Sn  Sn39  1  0.49978999  0.83308897  0.16660819  1
  Pb  Pb40  1  0.16988193  0.49991715  0.16890689  1
  Pb  Pb41  1  0.16690253  0.49980895  0.82944482  1
  Pb  Pb42  1  0.16635239  0.16682177  0.16887264  1
  Pb  Pb43  1  0.50164267  0.83577079  0.83683371  1
  Pb  Pb44  1  0.16395163  0.83359039  0.83014947  1
  Pb  Pb45  1  0.50011949  0.49760926  0.83314573  1
  Pb  Pb46  1  0.83141464  0.49991452  0.16664732  1
  Pb  Pb47  1  0.50016171  0.83327693  0.49860826  1
  Pb  Pb48  1  0.16905247  0.16654663  0.83001644  1
  Pb  Pb49  1  0.83281229  0.16472294  0.49797176  1
  Pb  Pb50  1  0.83138467  0.16478504  0.83685141  1
  Pb  Pb51  1  0.83306540  0.50268804  0.83364350  1
  Pb  Pb52  1  0.83227931  0.50264356  0.49996710  1
  Pb  Pb53  1  0.16650300  0.83335079  0.16870054  1
  I  I54  1  0.17164612  0.00006641  0.17106804  1
  I  I55  1  0.16786193  0.00022715  0.49923851  1
  I  I56  1  0.16766816  0.00000655  0.83058957  1
  I  I57  1  0.16524992  0.33329066  0.16983785  1
  I  I58  1  0.17441250  0.33314979  0.49847795  1
  I  I59  1  0.16648052  0.33310653  0.83310679  1
  I  I60  1  0.16626532  0.66670398  0.17081214  1
  I  I61  1  0.16666188  0.66665067  0.49880338  1
  I  I62  1  0.16699658  0.66686893  0.83167336  1
  I  I63  1  0.50505835  0.00065535  0.16858155  1
  I  I64  1  0.49720547  0.00275460  0.49856592  1
  I  I65  1  0.50099194  0.00347111  0.82982984  1
  I  I66  1  0.50411795  0.33230709  0.16876170  1
  I  I67  1  0.49180745  0.33246261  0.49474878  1
  I  I68  1  0.50060442  0.32964874  0.83690190  1
  I  I69  1  0.50517739  0.66689116  0.17436060  1
  I  I70  1  0.49744026  0.66440018  0.49455130  1
  I  I71  1  0.50147640  0.66694985  0.83252056  1
  I  I72  1  0.82383166  -0.00102770  0.16873256  1
  I  I73  1  0.83642003  -0.00347010  0.50057357  1
  I  I74  1  0.83167169  -0.00312582  0.82982057  1
  I  I75  1  0.82719125  0.33017226  0.16949157  1
  I  I76  1  0.83600828  0.33311543  0.49822450  1
  I  I77  1  0.83257926  0.33279682  0.83324533  1
  I  I78  1  0.82831650  0.67035232  0.16790824  1
  I  I79  1  0.83679368  0.67101511  0.49677117  1
  I  I80  1  0.83104822  0.67126396  0.83406497  1
  I  I81  1  0.16762460  0.16550358  -0.00004472  1
  I  I82  1  0.17348283  0.16558143  0.33733895  1
  I  I83  1  0.17161269  0.16575597  0.66152237  1
  I  I84  1  0.16697438  0.50098752  -0.00012999  1
  I  I85  1  0.16808583  0.50026803  0.33743934  1
  I  I86  1  0.17531678  0.50181743  0.66114362  1
  I  I87  1  0.16688131  0.83340152  -0.00007859  1
  I  I88  1  0.16181872  0.83365333  0.33720625  1
  I  I89  1  0.16352843  0.83336183  0.66165701  1
  I  I90  1  0.50644144  0.16623801  0.00158245  1
  I  I91  1  0.49957501  0.16704672  0.33329105  1
  I  I92  1  0.49492174  0.17048887  0.66507575  1
  I  I93  1  0.50340126  0.49958511  0.00330247  1
  I  I94  1  0.49690753  0.49561758  0.33379330  1
  I  I95  1  0.49547126  0.49693222  0.66296433  1
  I  I96  1  0.50646302  0.83253777  0.00505082  1
  I  I97  1  0.50486835  0.83736573  0.33063850  1
  I  I98  1  0.50123757  0.83352033  0.66663956  1
  I  I99  1  0.82508285  0.15964897  0.00465920  1
  I  I100  1  0.82654607  0.15980441  0.33031003  1
  I  I101  1  0.83237086  0.16444847  0.66662497  1
  I  I102  1  0.83008012  0.50149534  0.00036913  1
  I  I103  1  0.83515357  0.50310298  0.33345129  1
  I  I104  1  0.83161608  0.50122267  0.66635308  1
  I  I105  1  0.82500810  0.83799044  0.00143170  1
  I  I106  1  0.83310713  0.83660745  0.33279910  1
  I  I107  1  0.83841198  0.83263847  0.66587456  1
  I  I108  1  -0.00315636  0.15807517  0.17003753  1
  I  I109  1  0.00237694  0.16786766  0.49740249  1
  I  I110  1  -0.00022459  0.16557998  0.83266449  1
  I  I111  1  0.00020809  0.50082516  0.16826723  1
  I  I112  1  0.00283323  0.49827001  0.50071872  1
  I  I113  1  0.00012147  0.49914388  0.83224683  1
  I  I114  1  -0.00364501  0.83929497  0.16629440  1
  I  I115  1  -0.00009613  0.83352863  0.49801155  1
  I  I116  1  -0.00410204  0.83513404  0.83863090  1
  I  I117  1  0.33724582  0.16546316  0.16601310  1
  I  I118  1  0.33468345  0.16465915  0.49790881  1
  I  I119  1  0.33735879  0.16571602  0.83959677  1
  I  I120  1  0.33836032  0.49875717  0.16984704  1
  I  I121  1  0.33410012  0.50102374  0.49527240  1
  I  I122  1  0.33372754  0.50175907  0.83586880  1
  I  I123  1  0.33659526  0.83556108  0.17038848  1
  I  I124  1  0.33122560  0.83386798  0.49709285  1
  I  I125  1  0.33336023  0.83340201  0.83312215  1
  I  I126  1  0.66476380  0.16495843  0.16974720  1
  I  I127  1  0.66314214  0.16972364  0.50039695  1
  I  I128  1  0.66332641  0.16624229  0.82739265  1
  I  I129  1  0.66274089  0.49974982  0.17434609  1
  I  I130  1  0.66288757  0.49580116  0.49575470  1
  I  I131  1  0.66621212  0.50020515  0.82940682  1
  I  I132  1  0.66677418  0.83460840  0.17043035  1
  I  I133  1  0.66920703  0.83378063  0.50022937  1
  I  I134  1  0.66955827  0.83407339  0.82632669  1
