# generated using pymatgen
data_Cs27Sn13Pb14I81
_symmetry_space_group_name_H-M   'P 1'
_cell_length_a   18.97725279
_cell_length_b   18.98100486
_cell_length_c   18.97225674
_cell_angle_alpha   90.00023218
_cell_angle_beta   90.00150040
_cell_angle_gamma   89.99970782
_symmetry_Int_Tables_number   1
_chemical_formula_structural   Cs27Sn13Pb14I81
_chemical_formula_sum   'Cs27 Sn13 Pb14 I81'
_cell_volume   6833.94589137
_cell_formula_units_Z   1
loop_
 _symmetry_equiv_pos_site_id
 _symmetry_equiv_pos_as_xyz
  1  'x, y, z'
loop_
 _atom_site_type_symbol
 _atom_site_label
 _atom_site_symmetry_multiplicity
 _atom_site_fract_x
 _atom_site_fract_y
 _atom_site_fract_z
 _atom_site_occupancy
  Cs  Cs0  1  -0.00049235  0.00021470  0.00013718  1
  Cs  Cs1  1  -0.00360821  0.00195414  0.34063551  1
  Cs  Cs2  1  0.00041665  -0.00369709  0.66034197  1
  Cs  Cs3  1  0.00014443  0.33323000  -0.00028748  1
  Cs  Cs4  1  0.00070648  0.33284628  0.33458932  1
  Cs  Cs5  1  0.00009867  0.33197901  0.66702314  1
  Cs  Cs6  1  -0.00130151  0.66726082  0.00067230  1
  Cs  Cs7  1  -0.00004889  0.66640128  0.33185339  1
  Cs  Cs8  1  0.00389633  0.67427851  0.66859514  1
  Cs  Cs9  1  0.33419092  0.00311734  -0.00034120  1
  Cs  Cs10  1  0.33463707  0.00255353  0.33072597  1
  Cs  Cs11  1  0.33434315  -0.00656850  0.66989015  1
  Cs  Cs12  1  0.33203993  0.33009303  0.00047966  1
  Cs  Cs13  1  0.33209495  0.33361106  0.33218623  1
  Cs  Cs14  1  0.33273407  0.33439830  0.66680196  1
  Cs  Cs15  1  0.33178779  0.66636896  0.00200263  1
  Cs  Cs16  1  0.33571622  0.66478040  0.33312855  1
  Cs  Cs17  1  0.33099643  0.67068846  0.66667043  1
  Cs  Cs18  1  0.66699268  0.00169651  -0.00182841  1
  Cs  Cs19  1  0.66766957  -0.00220597  0.33540345  1
  Cs  Cs20  1  0.66592958  -0.00028575  0.66363909  1
  Cs  Cs21  1  0.66787701  0.33272914  -0.00253044  1
  Cs  Cs22  1  0.66636262  0.33488442  0.33319144  1
  Cs  Cs23  1  0.66681147  0.33451881  0.66770407  1
  Cs  Cs24  1  0.67023028  0.66570279  -0.00312353  1
  Cs  Cs25  1  0.66410284  0.66532802  0.33195356  1
  Cs  Cs26  1  0.66641156  0.66376625  0.67436106  1
  Sn  Sn27  1  0.49954858  0.16719303  0.49983706  1
  Sn  Sn28  1  0.50022908  0.83253479  0.49897844  1
  Sn  Sn29  1  0.16674849  0.50038553  0.16590868  1
  Sn  Sn30  1  0.50015109  0.50038776  0.16687732  1
  Sn  Sn31  1  0.50087790  0.50008791  0.49941025  1
  Sn  Sn32  1  0.16572875  0.16730574  0.83322637  1
  Sn  Sn33  1  0.83439364  0.16684480  0.83369159  1
  Sn  Sn34  1  0.83293135  0.50018083  0.49959416  1
  Sn  Sn35  1  0.16719397  0.83306607  0.16691792  1
  Sn  Sn36  1  0.83325386  0.16736610  0.16627395  1
  Sn  Sn37  1  0.83314081  0.49903797  0.16730799  1
  Sn  Sn38  1  0.16670598  0.49922992  0.83404995  1
  Sn  Sn39  1  0.49926888  0.83250966  0.16703380  1
  Pb  Pb40  1  0.83580281  0.49866122  0.83320308  1
  Pb  Pb41  1  0.50013930  0.83305802  0.83440748  1
  Pb  Pb42  1  0.16667598  0.83354473  0.83614775  1
  Pb  Pb43  1  0.83053812  0.82954862  0.49976319  1
  Pb  Pb44  1  0.16912463  0.83325017  0.49649663  1
  Pb  Pb45  1  0.16442491  0.16655582  0.16551157  1
  Pb  Pb46  1  0.16673175  0.50001668  0.49969340  1
  Pb  Pb47  1  0.49735490  0.49995468  0.83373786  1
  Pb  Pb48  1  0.83155570  0.16881195  0.50007997  1
  Pb  Pb49  1  0.16930396  0.16664290  0.50301291  1
  Pb  Pb50  1  0.83290109  0.83301991  0.16672993  1
  Pb  Pb51  1  0.50231080  0.16679808  0.16820133  1
  Pb  Pb52  1  0.50006418  0.16685123  0.83076433  1
  Pb  Pb53  1  0.83347456  0.83680308  0.83325270  1
  I  I54  1  0.17198700  -0.00246871  0.16474278  1
  I  I55  1  0.16784874  -0.00006180  0.49994560  1
  I  I56  1  0.16335031  0.00299975  0.83418139  1
  I  I57  1  0.16952059  0.33650579  0.16466147  1
  I  I58  1  0.17059890  0.33354551  0.49597374  1
  I  I59  1  0.16424633  0.33385768  0.83946828  1
  I  I60  1  0.16608916  0.66478805  0.16136449  1
  I  I61  1  0.16715904  0.66639570  0.50604867  1
  I  I62  1  0.16786471  0.66382066  0.83494791  1
  I  I63  1  0.49632041  -0.00262868  0.17074627  1
  I  I64  1  0.49873124  -0.00060460  0.49652177  1
  I  I65  1  0.49822526  0.00011796  0.83327406  1
  I  I66  1  0.49744737  0.33659616  0.17109854  1
  I  I67  1  0.50375231  0.33490944  0.49675328  1
  I  I68  1  0.50029854  0.33344594  0.83261057  1
  I  I69  1  0.49994982  0.66538062  0.17431746  1
  I  I70  1  0.50330376  0.66575630  0.49429417  1
  I  I71  1  0.49835194  0.66632530  0.82851873  1
  I  I72  1  0.83293865  0.00276770  0.16139308  1
  I  I73  1  0.83135882  0.00004368  0.50023510  1
  I  I74  1  0.83863289  0.00518899  0.84031305  1
  I  I75  1  0.83299047  0.33492159  0.16658601  1
  I  I76  1  0.82641321  0.33658341  0.49787255  1
  I  I77  1  0.83511266  0.33073962  0.83517613  1
  I  I78  1  0.83348747  0.66297940  0.17096645  1
  I  I79  1  0.82933913  0.66162805  0.49235067  1
  I  I80  1  0.83399059  0.66627739  0.83339096  1
  I  I81  1  0.16619648  0.16863102  -0.00259336  1
  I  I82  1  0.16560652  0.16715069  0.33323002  1
  I  I83  1  0.16019323  0.17428234  0.67107679  1
  I  I84  1  0.16696635  0.49991998  0.00175750  1
  I  I85  1  0.16704621  0.50386237  0.32971539  1
  I  I86  1  0.16708523  0.49461710  0.66930068  1
  I  I87  1  0.17397488  0.83111738  0.00394391  1
  I  I88  1  0.16803689  0.82575079  0.32866983  1
  I  I89  1  0.16813022  0.83288667  0.66668029  1
  I  I90  1  0.49938472  0.16636498  0.00011572  1
  I  I91  1  0.50226169  0.16729472  0.33616166  1
  I  I92  1  0.50164222  0.16746479  0.66265464  1
  I  I93  1  0.50285650  0.50477053  0.00387155  1
  I  I94  1  0.49903592  0.50050567  0.33271978  1
  I  I95  1  0.50406696  0.50020890  0.66328997  1
  I  I96  1  0.49615183  0.82852025  0.00430536  1
  I  I97  1  0.49580851  0.83194572  0.33278216  1
  I  I98  1  0.50115392  0.83327336  0.66334054  1
  I  I99  1  0.83536734  0.17275024  0.00061725  1
  I  I100  1  0.83169871  0.16890904  0.33078861  1
  I  I101  1  0.83561995  0.16869798  0.66913513  1
  I  I102  1  0.83051489  0.49831564  0.00325100  1
  I  I103  1  0.83397733  0.49408862  0.33162131  1
  I  I104  1  0.82772112  0.49786146  0.66413442  1
  I  I105  1  0.83030144  0.82897619  0.00043706  1
  I  I106  1  0.83680084  0.83984807  0.33311174  1
  I  I107  1  0.83152169  0.83291307  0.66629691  1
  I  I108  1  -0.00345513  0.17101524  0.16544341  1
  I  I109  1  -0.00030032  0.16858720  0.49844313  1
  I  I110  1  -0.00008778  0.17232460  0.83843898  1
  I  I111  1  -0.00004084  0.50017052  0.16671384  1
  I  I112  1  -0.00275094  0.49677674  0.49579588  1
  I  I113  1  0.00348563  0.49747420  0.83790569  1
  I  I114  1  0.00259429  0.82899839  0.16320638  1
  I  I115  1  -0.00011931  0.83334568  0.50011153  1
  I  I116  1  0.00035471  0.83018621  0.83553994  1
  I  I117  1  0.33343207  0.16850875  0.16592305  1
  I  I118  1  0.33754480  0.17054835  0.49919631  1
  I  I119  1  0.33039969  0.17023254  0.83227994  1
  I  I120  1  0.33367874  0.50446173  0.16719457  1
  I  I121  1  0.33690856  0.50022657  0.49704617  1
  I  I122  1  0.32950628  0.49362823  0.83731896  1
  I  I123  1  0.33401891  0.82534930  0.17016513  1
  I  I124  1  0.33753696  0.82949749  0.49967637  1
  I  I125  1  0.33326381  0.83600893  0.83052339  1
  I  I126  1  0.67011904  0.17094525  0.16095843  1
  I  I127  1  0.66356381  0.16499884  0.50129426  1
  I  I128  1  0.66960058  0.16693776  0.83682115  1
  I  I129  1  0.66638258  0.50006391  0.17195618  1
  I  I130  1  0.66554001  0.49954267  0.49196783  1
  I  I131  1  0.66689854  0.49827680  0.83496376  1
  I  I132  1  0.66323385  0.83053979  0.17163039  1
  I  I133  1  0.66232128  0.83690955  0.49164752  1
  I  I134  1  0.66662446  0.83441468  0.83568398  1
