# generated using pymatgen
data_Cs27Sn14Pb13I81
_symmetry_space_group_name_H-M   'P 1'
_cell_length_a   19.00805634
_cell_length_b   18.99643511
_cell_length_c   19.00853989
_cell_angle_alpha   90.00214557
_cell_angle_beta   89.99941865
_cell_angle_gamma   89.99998423
_symmetry_Int_Tables_number   1
_chemical_formula_structural   Cs27Sn14Pb13I81
_chemical_formula_sum   'Cs27 Sn14 Pb13 I81'
_cell_volume   6863.70449014
_cell_formula_units_Z   1
loop_
 _symmetry_equiv_pos_site_id
 _symmetry_equiv_pos_as_xyz
  1  'x, y, z'
loop_
 _atom_site_type_symbol
 _atom_site_label
 _atom_site_symmetry_multiplicity
 _atom_site_fract_x
 _atom_site_fract_y
 _atom_site_fract_z
 _atom_site_occupancy
  Cs  Cs0  1  -0.00307211  -0.00765494  0.00159897  1
  Cs  Cs1  1  0.00571652  0.00171919  0.33278707  1
  Cs  Cs2  1  -0.00581921  0.00102109  0.66779911  1
  Cs  Cs3  1  0.00141297  0.33219485  -0.00043264  1
  Cs  Cs4  1  -0.00307335  0.33505307  0.33109845  1
  Cs  Cs5  1  0.00127362  0.33512756  0.66887905  1
  Cs  Cs6  1  -0.00272438  0.67500832  -0.00106088  1
  Cs  Cs7  1  -0.00539163  0.66461071  0.33544261  1
  Cs  Cs8  1  0.01746471  0.66235501  0.66481397  1
  Cs  Cs9  1  0.33199832  -0.00568141  0.00533749  1
  Cs  Cs10  1  0.32966547  0.00172776  0.33229188  1
  Cs  Cs11  1  0.33513367  0.00228060  0.66434032  1
  Cs  Cs12  1  0.33338475  0.33327152  0.00169623  1
  Cs  Cs13  1  0.33642579  0.33061422  0.32812029  1
  Cs  Cs14  1  0.33530468  0.33307486  0.66852989  1
  Cs  Cs15  1  0.33311425  0.67034105  -0.00394993  1
  Cs  Cs16  1  0.33262721  0.66922472  0.33369775  1
  Cs  Cs17  1  0.32352671  0.66639962  0.66905787  1
  Cs  Cs18  1  0.66988276  -0.00832704  -0.00357043  1
  Cs  Cs19  1  0.66564364  0.00167227  0.33793448  1
  Cs  Cs20  1  0.66852678  0.00101325  0.66509911  1
  Cs  Cs21  1  0.66552636  0.33324695  -0.00222870  1
  Cs  Cs22  1  0.66573629  0.33385577  0.33301664  1
  Cs  Cs23  1  0.66541688  0.33220834  0.66838706  1
  Cs  Cs24  1  0.66879710  0.67331787  0.00213708  1
  Cs  Cs25  1  0.67072495  0.66559089  0.33171927  1
  Cs  Cs26  1  0.66433261  0.66584492  0.66579307  1
  Sn  Sn27  1  0.50010365  0.16710202  0.49997183  1
  Sn  Sn28  1  0.83237272  0.50010584  0.83304481  1
  Sn  Sn29  1  0.49917679  0.49943596  0.16632459  1
  Sn  Sn30  1  0.83329647  0.16650222  0.49905014  1
  Sn  Sn31  1  0.49912365  0.16695047  0.83394950  1
  Sn  Sn32  1  0.83263814  0.83358557  0.50066087  1
  Sn  Sn33  1  0.16650608  0.16749448  0.50107146  1
  Sn  Sn34  1  0.50076491  0.83317485  0.50016729  1
  Sn  Sn35  1  0.49992044  0.50015562  0.49999988  1
  Sn  Sn36  1  0.50123205  0.49931598  0.83360457  1
  Sn  Sn37  1  0.50150571  0.16701192  0.16605423  1
  Sn  Sn38  1  0.16783724  0.16665330  0.83314842  1
  Sn  Sn39  1  0.83186619  0.16700116  0.16699872  1
  Sn  Sn40  1  0.16746191  0.49999816  0.16654769  1
  Pb  Pb41  1  0.16680889  0.82939552  0.16715400  1
  Pb  Pb42  1  0.16979481  0.49678550  0.49754999  1
  Pb  Pb43  1  0.83295135  0.83668409  0.16988205  1
  Pb  Pb44  1  0.83317186  0.82957175  0.82929728  1
  Pb  Pb45  1  0.16750044  0.49787444  0.83573804  1
  Pb  Pb46  1  0.83288660  0.16769190  0.83336961  1
  Pb  Pb47  1  0.49996798  0.83342317  0.83037446  1
  Pb  Pb48  1  0.16692154  0.83745293  0.83310620  1
  Pb  Pb49  1  0.50006937  0.83339912  0.16954514  1
  Pb  Pb50  1  0.16672075  0.16761952  0.16628817  1
  Pb  Pb51  1  0.16655262  0.83614863  0.49997809  1
  Pb  Pb52  1  0.83135205  0.49963696  0.50211254  1
  Pb  Pb53  1  0.83241890  0.49794922  0.16444703  1
  I  I54  1  0.16637998  0.00027492  0.16642168  1
  I  I55  1  0.17281303  0.00432998  0.50194354  1
  I  I56  1  0.17351143  0.00557358  0.82927244  1
  I  I57  1  0.17001879  0.33514470  0.16718937  1
  I  I58  1  0.16497194  0.32911866  0.50461643  1
  I  I59  1  0.16855766  0.33030165  0.82803597  1
  I  I60  1  0.17600380  0.66141950  0.16602717  1
  I  I61  1  0.16582181  0.66632971  0.49827421  1
  I  I62  1  0.16592937  0.66638166  0.83484044  1
  I  I63  1  0.50362248  0.00366230  0.16631921  1
  I  I64  1  0.50028601  0.00216655  0.50027128  1
  I  I65  1  0.49545383  0.00362998  0.83331683  1
  I  I66  1  0.49990538  0.33260997  0.17185066  1
  I  I67  1  0.49998662  0.33213091  0.49998608  1
  I  I68  1  0.50000283  0.33269555  0.82821136  1
  I  I69  1  0.49449895  0.66319828  0.16634245  1
  I  I70  1  0.50696610  0.66609920  0.49899081  1
  I  I71  1  0.50508109  0.66318952  0.83435898  1
  I  I72  1  0.82731356  0.00491828  0.16514413  1
  I  I73  1  0.82739368  0.00206560  0.49693708  1
  I  I74  1  0.83474150  -0.00015243  0.83637878  1
  I  I75  1  0.83160707  0.33021985  0.17584711  1
  I  I76  1  0.83231159  0.32989876  0.49695060  1
  I  I77  1  0.83059185  0.33526860  0.83026826  1
  I  I78  1  0.83494271  0.66668442  0.16667662  1
  I  I79  1  0.82607167  0.66885619  0.50181349  1
  I  I80  1  0.82368363  0.66207712  0.83577467  1
  I  I81  1  0.17041784  0.17087028  -0.00236835  1
  I  I82  1  0.16949677  0.16715576  0.33575818  1
  I  I83  1  0.17083413  0.16752772  0.66592879  1
  I  I84  1  0.17358471  0.49384209  0.00283763  1
  I  I85  1  0.17219229  0.49588117  0.33029769  1
  I  I86  1  0.16592709  0.50239900  0.66665614  1
  I  I87  1  0.16610488  0.83708924  0.00011088  1
  I  I88  1  0.16787232  0.83793468  0.33379629  1
  I  I89  1  0.16692201  0.82675934  0.66627459  1
  I  I90  1  0.49917926  0.17637563  0.00004280  1
  I  I91  1  0.50032446  0.16922427  0.33424915  1
  I  I92  1  0.49942576  0.16905210  0.66566718  1
  I  I93  1  0.49939252  0.48965839  -0.00004509  1
  I  I94  1  0.49500829  0.49570815  0.33350378  1
  I  I95  1  0.50653652  0.49559381  0.66660105  1
  I  I96  1  0.49878956  0.83405766  -0.00002995  1
  I  I97  1  0.50415073  0.83434466  0.33744052  1
  I  I98  1  0.50484191  0.83570654  0.66251871  1
  I  I99  1  0.83079652  0.17220717  0.00227258  1
  I  I100  1  0.82998243  0.16413968  0.33452624  1
  I  I101  1  0.83077706  0.16354447  0.66368349  1
  I  I102  1  0.82721518  0.49444790  -0.00300787  1
  I  I103  1  0.83400849  0.50253936  0.33352159  1
  I  I104  1  0.82597587  0.49610171  0.66951113  1
  I  I105  1  0.83547997  0.83449147  -0.00028463  1
  I  I106  1  0.82721203  0.83238907  0.33741940  1
  I  I107  1  0.82639531  0.84565941  0.66233711  1
  I  I108  1  -0.00213262  0.16950115  0.17120005  1
  I  I109  1  -0.00059006  0.16040244  0.49954301  1
  I  I110  1  0.00182051  0.17035273  0.82900257  1
  I  I111  1  0.00162947  0.49560294  0.16489571  1
  I  I112  1  0.00024071  0.50091291  0.50044299  1
  I  I113  1  -0.00164514  0.49666766  0.83406384  1
  I  I114  1  -0.00025055  0.83419806  0.16898941  1
  I  I115  1  -0.00307364  0.83949459  0.49972667  1
  I  I116  1  -0.00020427  0.83242041  0.83116789  1
  I  I117  1  0.33654944  0.16902544  0.17015070  1
  I  I118  1  0.33527263  0.16693476  0.50029877  1
  I  I119  1  0.33522610  0.17361976  0.82836339  1
  I  I120  1  0.33599367  0.49122825  0.16602233  1
  I  I121  1  0.33812608  0.50089892  0.50694426  1
  I  I122  1  0.33703248  0.49767612  0.83031689  1
  I  I123  1  0.33366192  0.84058727  0.17053511  1
  I  I124  1  0.33644925  0.83378671  0.49984846  1
  I  I125  1  0.33355839  0.82687859  0.83013362  1
  I  I126  1  0.66504957  0.17367376  0.17156051  1
  I  I127  1  0.66524133  0.16608054  0.49947875  1
  I  I128  1  0.66340176  0.16966561  0.83019935  1
  I  I129  1  0.66287879  0.49719136  0.16986018  1
  I  I130  1  0.66288518  0.49458251  0.49486561  1
  I  I131  1  0.66409806  0.49149878  0.83400400  1
  I  I132  1  0.66657938  0.82726100  0.16424470  1
  I  I133  1  0.66572193  0.84061112  0.50003468  1
  I  I134  1  0.66668895  0.83922150  0.83505614  1
