# generated using pymatgen
data_Cs27Sn14Pb13I81
_symmetry_space_group_name_H-M   'P 1'
_cell_length_a   18.98467271
_cell_length_b   18.96109695
_cell_length_c   18.98522790
_cell_angle_alpha   90.00001584
_cell_angle_beta   90.00044495
_cell_angle_gamma   89.99992815
_symmetry_Int_Tables_number   1
_chemical_formula_structural   Cs27Sn14Pb13I81
_chemical_formula_sum   'Cs27 Sn14 Pb13 I81'
_cell_volume   6834.11665956
_cell_formula_units_Z   1
loop_
 _symmetry_equiv_pos_site_id
 _symmetry_equiv_pos_as_xyz
  1  'x, y, z'
loop_
 _atom_site_type_symbol
 _atom_site_label
 _atom_site_symmetry_multiplicity
 _atom_site_fract_x
 _atom_site_fract_y
 _atom_site_fract_z
 _atom_site_occupancy
  Cs  Cs0  1  -0.00293650  0.00606883  0.00166326  1
  Cs  Cs1  1  0.00094571  -0.00085500  0.33016620  1
  Cs  Cs2  1  -0.00045536  0.00180515  0.67105982  1
  Cs  Cs3  1  0.00057412  0.33123558  0.00213345  1
  Cs  Cs4  1  -0.00442532  0.32785081  0.33194332  1
  Cs  Cs5  1  -0.00229717  0.33232826  0.66429098  1
  Cs  Cs6  1  0.00111199  0.66591283  -0.00005066  1
  Cs  Cs7  1  0.00046068  0.66727179  0.33421478  1
  Cs  Cs8  1  0.00152954  0.66591619  0.66562108  1
  Cs  Cs9  1  0.33660158  0.00206578  -0.00224088  1
  Cs  Cs10  1  0.33281256  -0.00032650  0.33551401  1
  Cs  Cs11  1  0.33584369  0.00784681  0.66512466  1
  Cs  Cs12  1  0.33210660  0.33578443  0.00008198  1
  Cs  Cs13  1  0.33464704  0.33147514  0.33303100  1
  Cs  Cs14  1  0.33433112  0.33136928  0.66707378  1
  Cs  Cs15  1  0.33336898  0.66545261  0.00150208  1
  Cs  Cs16  1  0.33285668  0.66700851  0.33321619  1
  Cs  Cs17  1  0.33003008  0.66526557  0.66473227  1
  Cs  Cs18  1  0.66618174  -0.00040271  -0.00957638  1
  Cs  Cs19  1  0.66694729  0.00112695  0.33318415  1
  Cs  Cs20  1  0.66379994  0.00456231  0.67720876  1
  Cs  Cs21  1  0.66786361  0.33509004  0.00325940  1
  Cs  Cs22  1  0.66924420  0.33041963  0.33473963  1
  Cs  Cs23  1  0.66595505  0.33053238  0.66173974  1
  Cs  Cs24  1  0.66493690  0.66756152  0.00071955  1
  Cs  Cs25  1  0.66667206  0.66661400  0.33268186  1
  Cs  Cs26  1  0.66842326  0.66649395  0.66623125  1
  Sn  Sn27  1  0.16654930  0.83270623  0.50027289  1
  Sn  Sn28  1  0.83430414  0.50135461  0.16611237  1
  Sn  Sn29  1  0.83385407  0.83222288  0.16709118  1
  Sn  Sn30  1  0.16565953  0.50072563  0.16718373  1
  Sn  Sn31  1  0.16682107  0.83273944  0.83343066  1
  Sn  Sn32  1  0.49924681  0.50117286  0.50059589  1
  Sn  Sn33  1  0.50011237  0.83249085  0.50016305  1
  Sn  Sn34  1  0.49991445  0.16640889  0.16663230  1
  Sn  Sn35  1  0.16640817  0.50068338  0.83314375  1
  Sn  Sn36  1  0.50004332  0.50068025  0.83234479  1
  Sn  Sn37  1  0.83358082  0.50065647  0.83406268  1
  Sn  Sn38  1  0.16606889  0.83245553  0.16629777  1
  Sn  Sn39  1  0.83340464  0.83299092  0.49976331  1
  Sn  Sn40  1  0.16732408  0.50017948  0.49967012  1
  Pb  Pb41  1  0.50004575  0.49907570  0.16734584  1
  Pb  Pb42  1  0.49977778  0.17022673  0.83579861  1
  Pb  Pb43  1  0.83120893  0.16599501  0.16662848  1
  Pb  Pb44  1  0.16840215  0.16643086  0.16672308  1
  Pb  Pb45  1  0.83359621  0.50144076  0.49960276  1
  Pb  Pb46  1  0.16644434  0.16673624  0.49981864  1
  Pb  Pb47  1  0.16663341  0.16709295  0.83344363  1
  Pb  Pb48  1  0.49708807  0.83080748  0.83052434  1
  Pb  Pb49  1  0.83563183  0.83124962  0.83366510  1
  Pb  Pb50  1  0.83355913  0.17052868  0.83343192  1
  Pb  Pb51  1  0.83339056  0.16210801  0.49993401  1
  Pb  Pb52  1  0.49994569  0.16685185  0.49844265  1
  Pb  Pb53  1  0.50001258  0.83509269  0.16844185  1
  I  I54  1  0.16323380  -0.00397096  0.16787689  1
  I  I55  1  0.16782084  -0.00446072  0.49918698  1
  I  I56  1  0.16630978  -0.00358157  0.83265714  1
  I  I57  1  0.16401611  0.33719476  0.16582551  1
  I  I58  1  0.17237416  0.33763692  0.50077071  1
  I  I59  1  0.16725905  0.33810321  0.83399654  1
  I  I60  1  0.16403567  0.66621884  0.16704755  1
  I  I61  1  0.16795618  0.66672773  0.49990800  1
  I  I62  1  0.16669612  0.66535653  0.83301017  1
  I  I63  1  0.49874451  0.00248290  0.17055431  1
  I  I64  1  0.49796814  -0.00332134  0.49631876  1
  I  I65  1  0.49876908  -0.00023325  0.83249833  1
  I  I66  1  0.49940054  0.33167378  0.16763756  1
  I  I67  1  0.49498166  0.33705479  0.50330247  1
  I  I68  1  0.49674856  0.33845866  0.82646660  1
  I  I69  1  0.50047311  0.66666687  0.16519535  1
  I  I70  1  0.49781756  0.66614653  0.50197326  1
  I  I71  1  0.50165543  0.66267626  0.83467371  1
  I  I72  1  0.83828716  -0.00380021  0.17273943  1
  I  I73  1  0.83493649  -0.00624625  0.49162628  1
  I  I74  1  0.83439872  -0.00045921  0.83322444  1
  I  I75  1  0.83686367  0.33666496  0.16229308  1
  I  I76  1  0.83252986  0.33370519  0.49996719  1
  I  I77  1  0.83675887  0.33915824  0.83975848  1
  I  I78  1  0.83663409  0.66639045  0.16692957  1
  I  I79  1  0.83374689  0.66961310  0.49835206  1
  I  I80  1  0.83167966  0.66298473  0.83489927  1
  I  I81  1  0.16856830  0.16707973  0.00012820  1
  I  I82  1  0.16817643  0.16755315  0.33318838  1
  I  I83  1  0.16825175  0.16634055  0.66665855  1
  I  I84  1  0.16739279  0.50515018  0.00005792  1
  I  I85  1  0.16816185  0.50612833  0.33334815  1
  I  I86  1  0.16739949  0.50601527  0.66662386  1
  I  I87  1  0.16239215  0.82619127  0.00068848  1
  I  I88  1  0.16647315  0.82787271  0.33356178  1
  I  I89  1  0.16617898  0.82614035  0.66578560  1
  I  I90  1  0.49947477  0.16670490  0.00302455  1
  I  I91  1  0.49958362  0.17007625  0.33106554  1
  I  I92  1  0.50033667  0.16488896  0.66684310  1
  I  I93  1  0.49730670  0.49657679  -0.00202338  1
  I  I94  1  0.49640422  0.50229974  0.33628879  1
  I  I95  1  0.49681925  0.50393974  0.66612981  1
  I  I96  1  0.50007128  0.83417500  -0.00028833  1
  I  I97  1  0.49547142  0.82684257  0.33655841  1
  I  I98  1  0.50176907  0.83212212  0.66238518  1
  I  I99  1  0.83164167  0.16195508  0.00021213  1
  I  I100  1  0.83180018  0.17350006  0.33304294  1
  I  I101  1  0.83201833  0.16731321  0.66672127  1
  I  I102  1  0.83534618  0.50496179  0.00088460  1
  I  I103  1  0.83553401  0.50190576  0.33054778  1
  I  I104  1  0.83572217  0.50180061  0.66873844  1
  I  I105  1  0.83755057  0.83144674  0.00301829  1
  I  I106  1  0.83769788  0.82701829  0.33281089  1
  I  I107  1  0.83460729  0.83086751  0.66416551  1
  I  I108  1  -0.00014295  0.16721132  0.16643987  1
  I  I109  1  -0.00002236  0.17034143  0.49902401  1
  I  I110  1  0.00013678  0.16746764  0.83433759  1
  I  I111  1  0.00076614  0.50321940  0.16369468  1
  I  I112  1  0.00303281  0.50446921  0.50276969  1
  I  I113  1  0.00109628  0.50426687  0.83361805  1
  I  I114  1  0.00080354  0.82944427  0.17214224  1
  I  I115  1  0.00117239  0.82829299  0.49871705  1
  I  I116  1  0.00358270  0.82649268  0.82835658  1
  I  I117  1  0.33579921  0.16820249  0.16750541  1
  I  I118  1  0.33331077  0.16255556  0.49853197  1
  I  I119  1  0.33340487  0.16804906  0.83415100  1
  I  I120  1  0.33026819  0.50295780  0.16440795  1
  I  I121  1  0.33254607  0.50709342  0.50209444  1
  I  I122  1  0.33226110  0.50315429  0.83364133  1
  I  I123  1  0.32990191  0.82926087  0.16756140  1
  I  I124  1  0.33228785  0.82893384  0.49884876  1
  I  I125  1  0.32909467  0.82668341  0.83627610  1
  I  I126  1  0.66393313  0.16934538  0.16853674  1
  I  I127  1  0.66650395  0.16969722  0.49746815  1
  I  I128  1  0.66645642  0.16552051  0.83432043  1
  I  I129  1  0.66935373  0.50236705  0.16332412  1
  I  I130  1  0.66436962  0.50409861  0.50272460  1
  I  I131  1  0.66674131  0.49932156  0.83410725  1
  I  I132  1  0.66968367  0.82947019  0.17237203  1
  I  I133  1  0.66663133  0.82764344  0.49287051  1
  I  I134  1  0.66662289  0.83215377  0.83347129  1
