# generated using pymatgen
data_Cs27Sn14Pb13I81
_symmetry_space_group_name_H-M   'P 1'
_cell_length_a   18.97801636
_cell_length_b   18.96688147
_cell_length_c   18.98329517
_cell_angle_alpha   90.00001343
_cell_angle_beta   90.00022303
_cell_angle_gamma   89.99841565
_symmetry_Int_Tables_number   1
_chemical_formula_structural   Cs27Sn14Pb13I81
_chemical_formula_sum   'Cs27 Sn14 Pb13 I81'
_cell_volume   6833.10898174
_cell_formula_units_Z   1
loop_
 _symmetry_equiv_pos_site_id
 _symmetry_equiv_pos_as_xyz
  1  'x, y, z'
loop_
 _atom_site_type_symbol
 _atom_site_label
 _atom_site_symmetry_multiplicity
 _atom_site_fract_x
 _atom_site_fract_y
 _atom_site_fract_z
 _atom_site_occupancy
  Cs  Cs0  1  -0.00247250  -0.00366151  -0.00151823  1
  Cs  Cs1  1  -0.00286377  -0.00017806  0.33719416  1
  Cs  Cs2  1  0.00021077  0.00253742  0.66628458  1
  Cs  Cs3  1  0.00122660  0.33366926  0.00115603  1
  Cs  Cs4  1  0.00180694  0.33373902  0.33314642  1
  Cs  Cs5  1  -0.00132612  0.33054877  0.66543634  1
  Cs  Cs6  1  0.00093745  0.66786555  0.00095145  1
  Cs  Cs7  1  0.00055918  0.66651807  0.33255603  1
  Cs  Cs8  1  0.00165551  0.66628905  0.66685222  1
  Cs  Cs9  1  0.33475589  0.00099612  0.00166825  1
  Cs  Cs10  1  0.33599497  0.00635618  0.33294667  1
  Cs  Cs11  1  0.33419016  0.00275392  0.66428049  1
  Cs  Cs12  1  0.32826318  0.32489924  -0.00429711  1
  Cs  Cs13  1  0.33205322  0.32784269  0.32928227  1
  Cs  Cs14  1  0.33345070  0.32728899  0.67617154  1
  Cs  Cs15  1  0.33299815  0.66667663  -0.00025594  1
  Cs  Cs16  1  0.33376629  0.66641743  0.33359563  1
  Cs  Cs17  1  0.33338309  0.66688236  0.66671890  1
  Cs  Cs18  1  0.66794889  -0.00000895  0.00090560  1
  Cs  Cs19  1  0.66602128  -0.00021373  0.34122690  1
  Cs  Cs20  1  0.66555429  0.00023542  0.65878598  1
  Cs  Cs21  1  0.66697411  0.33224462  0.00012193  1
  Cs  Cs22  1  0.66669023  0.33690918  0.33130006  1
  Cs  Cs23  1  0.66757288  0.33543553  0.66868554  1
  Cs  Cs24  1  0.66643241  0.66698143  0.00116202  1
  Cs  Cs25  1  0.66556032  0.66624095  0.33263958  1
  Cs  Cs26  1  0.66453548  0.66496014  0.66582904  1
  Sn  Sn27  1  0.83350606  0.50060546  0.49971049  1
  Sn  Sn28  1  0.49992705  0.50040460  0.16665946  1
  Sn  Sn29  1  0.50021104  0.83291978  0.83393841  1
  Sn  Sn30  1  0.83310682  0.16652482  0.83427380  1
  Sn  Sn31  1  0.49909940  0.50014626  0.49940294  1
  Sn  Sn32  1  0.16685411  0.83262397  0.49977151  1
  Sn  Sn33  1  0.16766968  0.83297221  0.16705140  1
  Sn  Sn34  1  0.16732203  0.50032188  0.50004768  1
  Sn  Sn35  1  0.83353619  0.50014716  0.83375176  1
  Sn  Sn36  1  0.16703505  0.83286719  0.83318283  1
  Sn  Sn37  1  0.83284977  0.49947589  0.16647775  1
  Sn  Sn38  1  0.83279845  0.83333676  0.83306828  1
  Sn  Sn39  1  0.49939514  0.83250086  0.16616189  1
  Sn  Sn40  1  0.83311375  0.16725003  0.16624847  1
  Pb  Pb41  1  0.50157947  0.50158058  0.83419012  1
  Pb  Pb42  1  0.16351266  0.16324564  0.16661202  1
  Pb  Pb43  1  0.83321154  0.16961794  0.49980813  1
  Pb  Pb44  1  0.16714378  0.50154283  0.16825671  1
  Pb  Pb45  1  0.83277229  0.83314693  0.16544568  1
  Pb  Pb46  1  0.16669510  0.16711554  0.49994818  1
  Pb  Pb47  1  0.49761478  0.83153122  0.49960652  1
  Pb  Pb48  1  0.50253803  0.16678994  0.16654783  1
  Pb  Pb49  1  0.50003225  0.17096116  0.49990058  1
  Pb  Pb50  1  0.16438478  0.50179431  0.83122830  1
  Pb  Pb51  1  0.50294170  0.16329752  0.83349812  1
  Pb  Pb52  1  0.83539807  0.83081444  0.50290566  1
  Pb  Pb53  1  0.16400959  0.16355007  0.83355024  1
  I  I54  1  0.17158151  -0.00523741  0.16814790  1
  I  I55  1  0.16570004  -0.00359961  0.50130511  1
  I  I56  1  0.16391949  -0.00511454  0.83050319  1
  I  I57  1  0.16850330  0.33336981  0.16934282  1
  I  I58  1  0.16412502  0.33721530  0.49865492  1
  I  I59  1  0.16567954  0.33331249  0.83110628  1
  I  I60  1  0.16399518  0.66999183  0.16416486  1
  I  I61  1  0.16494640  0.66674284  0.50076295  1
  I  I62  1  0.16286711  0.67045792  0.83506779  1
  I  I63  1  0.49674886  -0.00342808  0.16141837  1
  I  I64  1  0.49889600  -0.00029419  0.50008014  1
  I  I65  1  0.50061124  -0.00524641  0.83974130  1
  I  I66  1  0.50409036  0.33691294  0.17309750  1
  I  I67  1  0.49989066  0.33927098  0.49322926  1
  I  I68  1  0.50187145  0.33339159  0.83197108  1
  I  I69  1  0.50354072  0.66659064  0.16685965  1
  I  I70  1  0.50382622  0.66350011  0.49911683  1
  I  I71  1  0.50290072  0.67002303  0.83415608  1
  I  I72  1  0.83515562  0.00180009  0.15991805  1
  I  I73  1  0.83552236  -0.00021819  0.49969251  1
  I  I74  1  0.83481960  -0.00069701  0.84007128  1
  I  I75  1  0.82811682  0.33532958  0.16247488  1
  I  I76  1  0.83581311  0.33807924  0.50503725  1
  I  I77  1  0.83269264  0.33428770  0.83261677  1
  I  I78  1  0.83281334  0.66375110  0.16638873  1
  I  I79  1  0.83151350  0.66255840  0.49850394  1
  I  I80  1  0.83398590  0.66675457  0.83318549  1
  I  I81  1  0.16737860  0.16673402  0.00004382  1
  I  I82  1  0.16314515  0.16374410  0.33319304  1
  I  I83  1  0.16335455  0.16506172  0.66684359  1
  I  I84  1  0.16514312  0.50277516  -0.00001265  1
  I  I85  1  0.16037744  0.50763474  0.33638637  1
  I  I86  1  0.16647401  0.50710145  0.66294142  1
  I  I87  1  0.16561432  0.83390732  -0.00030431  1
  I  I88  1  0.17004700  0.82808646  0.33328147  1
  I  I89  1  0.16451546  0.82835219  0.66697518  1
  I  I90  1  0.49929321  0.17131847  -0.00002288  1
  I  I91  1  0.50339071  0.16013433  0.33306693  1
  I  I92  1  0.50253904  0.16580774  0.66685708  1
  I  I93  1  0.50731220  0.50423186  0.00317314  1
  I  I94  1  0.50685259  0.50698766  0.33270962  1
  I  I95  1  0.50223770  0.50267380  0.66438405  1
  I  I96  1  0.49628040  0.82723119  0.00029287  1
  I  I97  1  0.49651066  0.83089730  0.33037141  1
  I  I98  1  0.50101756  0.83169568  0.66916842  1
  I  I99  1  0.83334872  0.17138772  -0.00062294  1
  I  I100  1  0.83363884  0.17059557  0.33038307  1
  I  I101  1  0.83423489  0.16614299  0.66972939  1
  I  I102  1  0.82854602  0.50020068  0.00022832  1
  I  I103  1  0.83290449  0.49546129  0.33285968  1
  I  I104  1  0.83355847  0.50162598  0.66685457  1
  I  I105  1  0.83797106  0.82899926  -0.00289103  1
  I  I106  1  0.83409385  0.83428565  0.33354973  1
  I  I107  1  0.83242269  0.83392279  0.67132664  1
  I  I108  1  -0.00432140  0.17280451  0.16253100  1
  I  I109  1  -0.00029907  0.16776231  0.50032429  1
  I  I110  1  -0.00425409  0.16541124  0.83643231  1
  I  I111  1  -0.00302553  0.49848077  0.16696258  1
  I  I112  1  -0.00056028  0.50443120  0.50082402  1
  I  I113  1  -0.00445458  0.50291360  0.83437818  1
  I  I114  1  0.00200795  0.83315516  0.16551384  1
  I  I115  1  0.00341591  0.82742086  0.49828889  1
  I  I116  1  -0.00034142  0.83299334  0.83366372  1
  I  I117  1  0.33336637  0.16915220  0.16751960  1
  I  I118  1  0.33326029  0.16720103  0.49985150  1
  I  I119  1  0.33338909  0.16692751  0.83236513  1
  I  I120  1  0.33636918  0.50493852  0.17273997  1
  I  I121  1  0.33340938  0.50743094  0.49420341  1
  I  I122  1  0.33331706  0.50279894  0.83219897  1
  I  I123  1  0.33383564  0.82661467  0.16137645  1
  I  I124  1  0.32983539  0.82605225  0.50531984  1
  I  I125  1  0.33319270  0.83092082  0.83384608  1
  I  I126  1  0.67047996  0.16657314  0.16137022  1
  I  I127  1  0.66701896  0.16438994  0.50064585  1
  I  I128  1  0.67114960  0.16612647  0.83758325  1
  I  I129  1  0.66753269  0.50269220  0.17132670  1
  I  I130  1  0.66716442  0.49935004  0.49978627  1
  I  I131  1  0.67035320  0.50296131  0.82868536  1
  I  I132  1  0.66408385  0.83167127  0.16089058  1
  I  I133  1  0.66652503  0.83265951  0.50027726  1
  I  I134  1  0.66708205  0.83235375  0.83964267  1
