# generated using pymatgen
data_Cs27Sn13Pb14I81
_symmetry_space_group_name_H-M   'P 1'
_cell_length_a   18.97975616
_cell_length_b   19.00582698
_cell_length_c   18.99248107
_cell_angle_alpha   90.00019812
_cell_angle_beta   89.99874020
_cell_angle_gamma   90.00020845
_symmetry_Int_Tables_number   1
_chemical_formula_structural   Cs27Sn13Pb14I81
_chemical_formula_sum   'Cs27 Sn13 Pb14 I81'
_cell_volume   6851.08099605
_cell_formula_units_Z   1
loop_
 _symmetry_equiv_pos_site_id
 _symmetry_equiv_pos_as_xyz
  1  'x, y, z'
loop_
 _atom_site_type_symbol
 _atom_site_label
 _atom_site_symmetry_multiplicity
 _atom_site_fract_x
 _atom_site_fract_y
 _atom_site_fract_z
 _atom_site_occupancy
  Cs  Cs0  1  0.00016830  -0.00037636  -0.00106971  1
  Cs  Cs1  1  0.00397608  0.00170635  0.33748745  1
  Cs  Cs2  1  -0.00138207  -0.00020806  0.66530282  1
  Cs  Cs3  1  0.00146075  0.33319837  0.00030894  1
  Cs  Cs4  1  -0.00714044  0.33490601  0.34140905  1
  Cs  Cs5  1  -0.00897605  0.33366407  0.65877708  1
  Cs  Cs6  1  -0.00162160  0.66716407  0.00047665  1
  Cs  Cs7  1  0.00011430  0.66382051  0.33747539  1
  Cs  Cs8  1  -0.00286805  0.66686255  0.66226503  1
  Cs  Cs9  1  0.33198316  0.00059115  -0.00081487  1
  Cs  Cs10  1  0.33440212  0.00366882  0.33278486  1
  Cs  Cs11  1  0.33359410  -0.00056232  0.66809110  1
  Cs  Cs12  1  0.33106304  0.33534837  -0.00250430  1
  Cs  Cs13  1  0.33422976  0.33237411  0.33312816  1
  Cs  Cs14  1  0.33457142  0.33420757  0.67057217  1
  Cs  Cs15  1  0.33306704  0.66507918  -0.00153285  1
  Cs  Cs16  1  0.33317672  0.66617614  0.33269825  1
  Cs  Cs17  1  0.33557164  0.66677472  0.66799925  1
  Cs  Cs18  1  0.67362805  -0.00129081  0.00802542  1
  Cs  Cs19  1  0.66539147  0.00465816  0.32585697  1
  Cs  Cs20  1  0.66802401  -0.00210320  0.66660852  1
  Cs  Cs21  1  0.67402054  0.33333294  0.00072746  1
  Cs  Cs22  1  0.67184256  0.32444430  0.33312348  1
  Cs  Cs23  1  0.67001721  0.33159473  0.66552841  1
  Cs  Cs24  1  0.67179765  0.66868679  0.00224088  1
  Cs  Cs25  1  0.66641010  0.66855908  0.33229331  1
  Cs  Cs26  1  0.66363797  0.66841645  0.66703449  1
  Sn  Sn27  1  0.49957488  0.50038191  0.49982846  1
  Sn  Sn28  1  0.50066347  0.83285714  0.50016653  1
  Sn  Sn29  1  0.16750644  0.49973206  0.16612466  1
  Sn  Sn30  1  0.49950830  0.83360413  0.83347273  1
  Sn  Sn31  1  0.49946688  0.49998269  0.16631080  1
  Sn  Sn32  1  0.49978052  0.16637382  0.83381331  1
  Sn  Sn33  1  0.16718032  0.16739202  0.16595175  1
  Sn  Sn34  1  0.16669372  0.50006680  0.83353467  1
  Sn  Sn35  1  0.16726546  0.16706276  0.83362493  1
  Sn  Sn36  1  0.83154664  0.83328924  0.49978859  1
  Sn  Sn37  1  0.49977668  0.49999466  0.83390562  1
  Sn  Sn38  1  0.16750337  0.83289566  0.83402331  1
  Sn  Sn39  1  0.16738860  0.83295591  0.16591730  1
  Pb  Pb40  1  0.83725049  0.16666091  0.16629655  1
  Pb  Pb41  1  0.83694453  0.83316886  0.16956025  1
  Pb  Pb42  1  0.83373307  0.16647308  0.83347405  1
  Pb  Pb43  1  0.83382792  0.50015086  0.16659354  1
  Pb  Pb44  1  0.49798552  0.83163838  0.16624797  1
  Pb  Pb45  1  0.83353945  0.50022693  0.83336249  1
  Pb  Pb46  1  0.16709071  0.16699328  0.50096185  1
  Pb  Pb47  1  0.16918029  0.49995535  0.50044474  1
  Pb  Pb48  1  0.16806053  0.83325325  0.50048731  1
  Pb  Pb49  1  0.49968438  0.16634730  0.50245837  1
  Pb  Pb50  1  0.49786728  0.16960578  0.16347492  1
  Pb  Pb51  1  0.83338587  0.83323038  0.83194001  1
  Pb  Pb52  1  0.83285956  0.16331233  0.50014740  1
  Pb  Pb53  1  0.82928621  0.50227139  0.50000582  1
  I  I54  1  0.16531870  -0.00013283  0.16064925  1
  I  I55  1  0.16717161  -0.00017109  0.49880011  1
  I  I56  1  0.17290556  -0.00039211  0.83895125  1
  I  I57  1  0.17198639  0.33403585  0.15856006  1
  I  I58  1  0.16828024  0.33352891  0.49986758  1
  I  I59  1  0.17487176  0.33379087  0.84068265  1
  I  I60  1  0.17038951  0.66613507  0.16084369  1
  I  I61  1  0.16363692  0.66673751  0.49897251  1
  I  I62  1  0.17321633  0.66662181  0.83935695  1
  I  I63  1  0.49857128  0.00018416  0.16846960  1
  I  I64  1  0.50310796  -0.00353204  0.50527233  1
  I  I65  1  0.49202856  -0.00090213  0.82586572  1
  I  I66  1  0.49355577  0.33760268  0.16853865  1
  I  I67  1  0.49653555  0.33646756  0.50102412  1
  I  I68  1  0.49273135  0.33433037  0.83276665  1
  I  I69  1  0.49327846  0.66365088  0.16320173  1
  I  I70  1  0.50272792  0.66685263  0.50574503  1
  I  I71  1  0.49364053  0.66653238  0.83082752  1
  I  I72  1  0.83248501  -0.00018706  0.16788579  1
  I  I73  1  0.82739275  -0.00432169  0.50184831  1
  I  I74  1  0.83380706  -0.00015871  0.83070416  1
  I  I75  1  0.83359108  0.33340653  0.16813927  1
  I  I76  1  0.83417493  0.33338434  0.49966135  1
  I  I77  1  0.83296019  0.33336936  0.83186276  1
  I  I78  1  0.83608706  0.66679869  0.16659658  1
  I  I79  1  0.83367382  0.66975697  0.50096673  1
  I  I80  1  0.83433077  0.66676183  0.83253119  1
  I  I81  1  0.17117772  0.16626889  -0.00096334  1
  I  I82  1  0.16592445  0.16506748  0.33004735  1
  I  I83  1  0.17098703  0.16498625  0.67113285  1
  I  I84  1  0.17450158  0.50026414  -0.00050350  1
  I  I85  1  0.17096301  0.50125841  0.33002330  1
  I  I86  1  0.17124043  0.50117836  0.67046319  1
  I  I87  1  0.17227788  0.83342502  -0.00126469  1
  I  I88  1  0.16574858  0.83305221  0.33050447  1
  I  I89  1  0.16743362  0.83360607  0.67030348  1
  I  I90  1  0.49658205  0.16422100  -0.00443913  1
  I  I91  1  0.49897667  0.16672567  0.33283339  1
  I  I92  1  0.49218058  0.17086687  0.67072674  1
  I  I93  1  0.49402050  0.50031044  -0.00108699  1
  I  I94  1  0.49439613  0.50718326  0.33308954  1
  I  I95  1  0.49568200  0.50133836  0.66798670  1
  I  I96  1  0.49625896  0.83246787  -0.00343740  1
  I  I97  1  0.50176726  0.82721089  0.33576474  1
  I  I98  1  0.49797175  0.82868979  0.66792179  1
  I  I99  1  0.82982481  0.16521292  -0.00009629  1
  I  I100  1  0.83463819  0.16687719  0.33325188  1
  I  I101  1  0.83704411  0.16751793  0.66676743  1
  I  I102  1  0.82828221  0.50104064  -0.00001415  1
  I  I103  1  0.83604624  0.50144710  0.33344678  1
  I  I104  1  0.83630160  0.49998262  0.66651776  1
  I  I105  1  0.83094408  0.83403483  0.00030762  1
  I  I106  1  0.82615205  0.83216118  0.33711366  1
  I  I107  1  0.83397028  0.83256531  0.66399492  1
  I  I108  1  0.00567714  0.16829851  0.15836690  1
  I  I109  1  -0.00006925  0.16494362  0.50141227  1
  I  I110  1  0.00434655  0.16538204  0.83816914  1
  I  I111  1  0.00444516  0.50026650  0.16054051  1
  I  I112  1  -0.00025243  0.50096626  0.49978873  1
  I  I113  1  0.00421775  0.50039418  0.83966701  1
  I  I114  1  0.00531257  0.83091983  0.16059854  1
  I  I115  1  -0.00155526  0.83485270  0.49943066  1
  I  I116  1  0.00390223  0.83395835  0.83574508  1
  I  I117  1  0.32966569  0.16361079  0.16540585  1
  I  I118  1  0.33360518  0.16237840  0.49728042  1
  I  I119  1  0.33275427  0.16666341  0.83602707  1
  I  I120  1  0.33254497  0.50078448  0.16566925  1
  I  I121  1  0.33708809  0.50837708  0.50096751  1
  I  I122  1  0.33371220  0.50038903  0.83349952  1
  I  I123  1  0.32967982  0.83476524  0.16774196  1
  I  I124  1  0.33679249  0.82883681  0.50258989  1
  I  I125  1  0.33338807  0.83287181  0.83040499  1
  I  I126  1  0.66641501  0.16801564  0.16603439  1
  I  I127  1  0.66615605  0.17073755  0.50252385  1
  I  I128  1  0.66314310  0.16825170  0.83045602  1
  I  I129  1  0.66309090  0.50184149  0.16470186  1
  I  I130  1  0.66126823  0.50182935  0.50240975  1
  I  I131  1  0.66220394  0.50026648  0.83353969  1
  I  I132  1  0.66651444  0.83110002  0.16372698  1
  I  I133  1  0.66453888  0.82766549  0.50796231  1
  I  I134  1  0.66295254  0.83195127  0.83014482  1
