# generated using pymatgen
data_Cs27Sn14Pb13I81
_symmetry_space_group_name_H-M   'P 1'
_cell_length_a   18.97991265
_cell_length_b   18.96859594
_cell_length_c   18.98098257
_cell_angle_alpha   90.00081194
_cell_angle_beta   90.00152269
_cell_angle_gamma   90.00244964
_symmetry_Int_Tables_number   1
_chemical_formula_structural   Cs27Sn14Pb13I81
_chemical_formula_sum   'Cs27 Sn14 Pb13 I81'
_cell_volume   6833.57687675
_cell_formula_units_Z   1
loop_
 _symmetry_equiv_pos_site_id
 _symmetry_equiv_pos_as_xyz
  1  'x, y, z'
loop_
 _atom_site_type_symbol
 _atom_site_label
 _atom_site_symmetry_multiplicity
 _atom_site_fract_x
 _atom_site_fract_y
 _atom_site_fract_z
 _atom_site_occupancy
  Cs  Cs0  1  -0.01172074  -0.00250728  -0.00141705  1
  Cs  Cs1  1  0.00113612  0.00593850  0.33215415  1
  Cs  Cs2  1  -0.00166557  0.00156525  0.66937345  1
  Cs  Cs3  1  0.00273388  0.33548545  0.00086194  1
  Cs  Cs4  1  0.00111900  0.32775354  0.33843706  1
  Cs  Cs5  1  -0.00077445  0.33147930  0.66148919  1
  Cs  Cs6  1  0.00128917  0.66872560  -0.00172290  1
  Cs  Cs7  1  0.00022666  0.66589570  0.33264255  1
  Cs  Cs8  1  0.00240522  0.66756474  0.66844305  1
  Cs  Cs9  1  0.33454895  0.00439528  0.00071270  1
  Cs  Cs10  1  0.33096508  -0.00142536  0.33484312  1
  Cs  Cs11  1  0.33416138  -0.00076509  0.66477783  1
  Cs  Cs12  1  0.33532692  0.33264930  0.00017733  1
  Cs  Cs13  1  0.33172966  0.33256802  0.33230374  1
  Cs  Cs14  1  0.33278911  0.33296059  0.66768095  1
  Cs  Cs15  1  0.33180895  0.66507770  0.00052225  1
  Cs  Cs16  1  0.33406498  0.66722658  0.33312257  1
  Cs  Cs17  1  0.33301795  0.66755033  0.66687970  1
  Cs  Cs18  1  0.67440359  0.00726398  -0.00181514  1
  Cs  Cs19  1  0.66821899  -0.00417971  0.32938883  1
  Cs  Cs20  1  0.66472704  0.00111974  0.67037457  1
  Cs  Cs21  1  0.66314888  0.33122991  -0.00209144  1
  Cs  Cs22  1  0.66909169  0.33581233  0.33510485  1
  Cs  Cs23  1  0.66923587  0.33292171  0.66711302  1
  Cs  Cs24  1  0.66685218  0.66542096  0.00161805  1
  Cs  Cs25  1  0.66536760  0.66604575  0.33364365  1
  Cs  Cs26  1  0.66327780  0.66496837  0.66317153  1
  Sn  Sn27  1  0.49976663  0.83264188  0.83519954  1
  Sn  Sn28  1  0.83349737  0.50031794  0.16589901  1
  Sn  Sn29  1  0.83475323  0.83294628  0.49994098  1
  Sn  Sn30  1  0.16536983  0.83246515  0.49934326  1
  Sn  Sn31  1  0.16731280  0.83273030  0.16711471  1
  Sn  Sn32  1  0.16759535  0.50097121  0.49928226  1
  Sn  Sn33  1  0.49928591  0.83267253  0.16500022  1
  Sn  Sn34  1  0.16657944  0.50086140  0.16776415  1
  Sn  Sn35  1  0.16680932  0.16640937  0.83371385  1
  Sn  Sn36  1  0.83270395  0.50053020  0.83391008  1
  Sn  Sn37  1  0.50067804  0.50088187  0.83343153  1
  Sn  Sn38  1  0.49891618  0.49880239  0.49983723  1
  Sn  Sn39  1  0.49988866  0.50066234  0.16661920  1
  Sn  Sn40  1  0.49998955  0.16781668  0.49947199  1
  Pb  Pb41  1  0.83342194  0.83119905  0.16822098  1
  Pb  Pb42  1  0.83601044  0.17003107  0.83322288  1
  Pb  Pb43  1  0.83366005  0.50133991  0.49990743  1
  Pb  Pb44  1  0.16870460  0.83532192  0.83400382  1
  Pb  Pb45  1  0.16694909  0.49894167  0.83326220  1
  Pb  Pb46  1  0.49882524  0.16699657  0.83162831  1
  Pb  Pb47  1  0.49940243  0.83274797  0.49946552  1
  Pb  Pb48  1  0.49990685  0.16651404  0.16906668  1
  Pb  Pb49  1  0.16827033  0.16645994  0.50140580  1
  Pb  Pb50  1  0.83325768  0.17035609  0.16683380  1
  Pb  Pb51  1  0.83019687  0.16327126  0.49998853  1
  Pb  Pb52  1  0.83031615  0.83068081  0.83115109  1
  Pb  Pb53  1  0.16671295  0.16610488  0.16437942  1
  I  I54  1  0.17353307  -0.00381495  0.17162884  1
  I  I55  1  0.16605281  -0.00320210  0.49675061  1
  I  I56  1  0.17171055  0.00252318  0.83094079  1
  I  I57  1  0.16753633  0.33711119  0.16974546  1
  I  I58  1  0.16882598  0.33652989  0.49694639  1
  I  I59  1  0.16888428  0.33167808  0.83238803  1
  I  I60  1  0.16854795  0.66559633  0.17046101  1
  I  I61  1  0.16982391  0.66598989  0.49739360  1
  I  I62  1  0.16525391  0.66661128  0.83208596  1
  I  I63  1  0.49428593  -0.00367512  0.16544043  1
  I  I64  1  0.49976684  0.00125103  0.50151905  1
  I  I65  1  0.49639665  -0.00268218  0.83388852  1
  I  I66  1  0.49896479  0.33731589  0.16364244  1
  I  I67  1  0.49446783  0.33642711  0.50063649  1
  I  I68  1  0.50205338  0.33701397  0.83559729  1
  I  I69  1  0.49912904  0.66529434  0.16859788  1
  I  I70  1  0.49942874  0.66354032  0.50048388  1
  I  I71  1  0.50216863  0.66514161  0.83070164  1
  I  I72  1  0.83304234  -0.00050913  0.16838303  1
  I  I73  1  0.83812918  -0.00455042  0.49937830  1
  I  I74  1  0.83208892  -0.00023071  0.83166552  1
  I  I75  1  0.83233959  0.33909167  0.16435229  1
  I  I76  1  0.83556940  0.33356596  0.50010329  1
  I  I77  1  0.82513416  0.33791111  0.83603273  1
  I  I78  1  0.83242043  0.66296212  0.16381789  1
  I  I79  1  0.83154797  0.66889011  0.49993994  1
  I  I80  1  0.83335354  0.66291195  0.83733927  1
  I  I81  1  0.17001278  0.16974845  -0.00287532  1
  I  I82  1  0.16758708  0.16720454  0.33330964  1
  I  I83  1  0.16919626  0.16847375  0.66879109  1
  I  I84  1  0.16842229  0.50237658  0.00302145  1
  I  I85  1  0.17018132  0.50320227  0.33323910  1
  I  I86  1  0.17002134  0.50262381  0.66386494  1
  I  I87  1  0.17000325  0.82799406  0.00333798  1
  I  I88  1  0.17025635  0.82907494  0.33331776  1
  I  I89  1  0.16587887  0.82952654  0.66391051  1
  I  I90  1  0.49836516  0.16889197  -0.00001943  1
  I  I91  1  0.49780118  0.17103331  0.33687662  1
  I  I92  1  0.49795240  0.16971180  0.66383413  1
  I  I93  1  0.50006100  0.50463051  0.00038915  1
  I  I94  1  0.50009323  0.50066857  0.33297070  1
  I  I95  1  0.50021864  0.50103347  0.66653409  1
  I  I96  1  0.49347109  0.82402349  0.00102685  1
  I  I97  1  0.49971051  0.83000384  0.33077172  1
  I  I98  1  0.50033943  0.83002365  0.66823977  1
  I  I99  1  0.83297901  0.16230294  -0.00022454  1
  I  I100  1  0.83418483  0.16949451  0.33372022  1
  I  I101  1  0.83352561  0.16971647  0.66656145  1
  I  I102  1  0.83045834  0.50079574  0.00056001  1
  I  I103  1  0.82971318  0.50278760  0.33085887  1
  I  I104  1  0.82935667  0.50178423  0.66870456  1
  I  I105  1  0.83605577  0.83422531  0.00000282  1
  I  I106  1  0.83031860  0.82911562  0.33593340  1
  I  I107  1  0.83777701  0.82995180  0.66348225  1
  I  I108  1  0.00021328  0.16660723  0.16673176  1
  I  I109  1  0.00007908  0.16965721  0.50179087  1
  I  I110  1  0.00337096  0.16708848  0.83159853  1
  I  I111  1  0.00103934  0.50410025  0.16571969  1
  I  I112  1  0.00300236  0.50238160  0.49782469  1
  I  I113  1  -0.00193970  0.49692264  0.83625326  1
  I  I114  1  0.00304983  0.82853348  0.16928989  1
  I  I115  1  0.00204794  0.82632996  0.49542983  1
  I  I116  1  -0.00011610  0.83380643  0.83451505  1
  I  I117  1  0.33332870  0.17142944  0.16593197  1
  I  I118  1  0.33598850  0.16686672  0.50160840  1
  I  I119  1  0.33145397  0.16999192  0.83195932  1
  I  I120  1  0.33370562  0.50363506  0.16725794  1
  I  I121  1  0.33371459  0.50223830  0.49811671  1
  I  I122  1  0.33637065  0.50186393  0.83439999  1
  I  I123  1  0.33347127  0.82495727  0.16971109  1
  I  I124  1  0.33090109  0.83229134  0.49934989  1
  I  I125  1  0.33661088  0.82584683  0.83082644  1
  I  I126  1  0.66635456  0.16467043  0.16675113  1
  I  I127  1  0.66248785  0.17364625  0.50186413  1
  I  I128  1  0.66669364  0.16470379  0.83168180  1
  I  I129  1  0.66511424  0.50401282  0.16721782  1
  I  I130  1  0.66376969  0.49908317  0.49812678  1
  I  I131  1  0.66491518  0.50337598  0.83535388  1
  I  I132  1  0.66370856  0.82845659  0.16703935  1
  I  I133  1  0.66775936  0.83258573  0.50042538  1
  I  I134  1  0.66224053  0.83238909  0.83637004  1
