# generated using pymatgen
data_Cs27Sn14Pb13I81
_symmetry_space_group_name_H-M   'P 1'
_cell_length_a   18.97777797
_cell_length_b   18.96654702
_cell_length_c   18.98261304
_cell_angle_alpha   90.00049192
_cell_angle_beta   89.99960044
_cell_angle_gamma   90.00122427
_symmetry_Int_Tables_number   1
_chemical_formula_structural   Cs27Sn14Pb13I81
_chemical_formula_sum   'Cs27 Sn14 Pb13 I81'
_cell_volume   6832.65713065
_cell_formula_units_Z   1
loop_
 _symmetry_equiv_pos_site_id
 _symmetry_equiv_pos_as_xyz
  1  'x, y, z'
loop_
 _atom_site_type_symbol
 _atom_site_label
 _atom_site_symmetry_multiplicity
 _atom_site_fract_x
 _atom_site_fract_y
 _atom_site_fract_z
 _atom_site_occupancy
  Cs  Cs0  1  0.00003981  0.00140683  0.00068358  1
  Cs  Cs1  1  -0.00248072  -0.00212536  0.33471820  1
  Cs  Cs2  1  -0.00062897  0.00102136  0.66581504  1
  Cs  Cs3  1  0.00243828  0.33368073  0.00244709  1
  Cs  Cs4  1  -0.00019216  0.33568604  0.33168278  1
  Cs  Cs5  1  0.00225652  0.33006032  0.66730713  1
  Cs  Cs6  1  0.00026411  0.66422485  0.00094627  1
  Cs  Cs7  1  -0.00052994  0.66718445  0.33321649  1
  Cs  Cs8  1  -0.00109234  0.66661641  0.66670133  1
  Cs  Cs9  1  0.33363008  0.00031101  0.00111565  1
  Cs  Cs10  1  0.33581839  -0.00215236  0.33412166  1
  Cs  Cs11  1  0.33328698  0.00054227  0.66521145  1
  Cs  Cs12  1  0.33210495  0.33112911  0.01062973  1
  Cs  Cs13  1  0.33604311  0.33490871  0.32839077  1
  Cs  Cs14  1  0.33221324  0.33288803  0.66543059  1
  Cs  Cs15  1  0.33402305  0.66846563  -0.00292674  1
  Cs  Cs16  1  0.33176981  0.67086306  0.33419465  1
  Cs  Cs17  1  0.33269567  0.66591662  0.66733273  1
  Cs  Cs18  1  0.66656878  -0.00040131  0.00013833  1
  Cs  Cs19  1  0.66618057  0.00042235  0.33322263  1
  Cs  Cs20  1  0.66689570  0.00043809  0.66773753  1
  Cs  Cs21  1  0.66565446  0.33788591  0.00112784  1
  Cs  Cs22  1  0.66388772  0.33783975  0.33261353  1
  Cs  Cs23  1  0.66536218  0.33417528  0.66610008  1
  Cs  Cs24  1  0.66652902  0.66085475  -0.01091597  1
  Cs  Cs25  1  0.66833432  0.66060684  0.33591153  1
  Cs  Cs26  1  0.67194071  0.65819328  0.67527940  1
  Sn  Sn27  1  0.16706736  0.16674249  0.49962287  1
  Sn  Sn28  1  0.50032373  0.16639730  0.83288256  1
  Sn  Sn29  1  0.83262146  0.83362647  0.16675637  1
  Sn  Sn30  1  0.16644821  0.83293782  0.83285159  1
  Sn  Sn31  1  0.49997787  0.16573917  0.50065078  1
  Sn  Sn32  1  0.50092230  0.83342296  0.16727502  1
  Sn  Sn33  1  0.16706828  0.50034236  0.83264337  1
  Sn  Sn34  1  0.16708318  0.83337798  0.50028988  1
  Sn  Sn35  1  0.50030120  0.83347630  0.50007000  1
  Sn  Sn36  1  0.83314130  0.16597113  0.16686951  1
  Sn  Sn37  1  0.83234966  0.16627256  0.83346571  1
  Sn  Sn38  1  0.83290084  0.16628233  0.49965080  1
  Sn  Sn39  1  0.16656924  0.83381702  0.16671800  1
  Sn  Sn40  1  0.16684595  0.50023036  0.50063314  1
  Pb  Pb41  1  0.83585823  0.83541538  0.83565180  1
  Pb  Pb42  1  0.83609643  0.49691280  0.50013882  1
  Pb  Pb43  1  0.50233301  0.16488246  0.16710049  1
  Pb  Pb44  1  0.49764622  0.50054083  0.50016800  1
  Pb  Pb45  1  0.49993618  0.50430882  0.16670645  1
  Pb  Pb46  1  0.83247542  0.83466901  0.49869985  1
  Pb  Pb47  1  0.83330942  0.50047588  0.16661841  1
  Pb  Pb48  1  0.49669384  0.49633998  0.83316985  1
  Pb  Pb49  1  0.16707456  0.16665274  0.83192915  1
  Pb  Pb50  1  0.83627579  0.49663429  0.83320530  1
  Pb  Pb51  1  0.16681983  0.50293351  0.16693545  1
  Pb  Pb52  1  0.16464766  0.16418124  0.16998408  1
  Pb  Pb53  1  0.49819543  0.83510315  0.83246601  1
  I  I54  1  0.16840660  -0.00408496  0.16495401  1
  I  I55  1  0.16681615  -0.00042986  0.50022765  1
  I  I56  1  0.16630762  -0.00252981  0.83299676  1
  I  I57  1  0.16425256  0.33306266  0.16570196  1
  I  I58  1  0.16483050  0.33259415  0.50687488  1
  I  I59  1  0.16546808  0.33527240  0.82655356  1
  I  I60  1  0.16387209  0.67137249  0.17161112  1
  I  I61  1  0.17167671  0.66827516  0.49969705  1
  I  I62  1  0.16702764  0.66790426  0.82898874  1
  I  I63  1  0.49632838  -0.00319246  0.16826441  1
  I  I64  1  0.49415402  0.00054394  0.49953342  1
  I  I65  1  0.50074415  0.00310184  0.83140775  1
  I  I66  1  0.50125156  0.33305988  0.16651403  1
  I  I67  1  0.49983578  0.32982342  0.50430177  1
  I  I68  1  0.50325949  0.32836973  0.82599582  1
  I  I69  1  0.50002337  0.67260502  0.17413398  1
  I  I70  1  0.49313603  0.67048892  0.49327362  1
  I  I71  1  0.50054067  0.66672468  0.83424569  1
  I  I72  1  0.83512317  0.00004790  0.16707329  1
  I  I73  1  0.83914224  0.00347702  0.50163599  1
  I  I74  1  0.83356120  0.00367932  0.83068517  1
  I  I75  1  0.83432726  0.32974996  0.16699553  1
  I  I76  1  0.83279923  0.32794315  0.49737243  1
  I  I77  1  0.83205128  0.32834167  0.83496515  1
  I  I78  1  0.83589451  0.67055995  0.16856341  1
  I  I79  1  0.83396839  0.66667900  0.49669651  1
  I  I80  1  0.83225483  0.66670219  0.83532536  1
  I  I81  1  0.16620470  0.16693707  0.00030014  1
  I  I82  1  0.16782870  0.16756953  0.33830810  1
  I  I83  1  0.16238389  0.16210802  0.66356616  1
  I  I84  1  0.16583886  0.50394492  -0.00273617  1
  I  I85  1  0.16618987  0.49927992  0.33657231  1
  I  I86  1  0.16647741  0.50474631  0.66565339  1
  I  I87  1  0.16631569  0.82897217  0.00015784  1
  I  I88  1  0.16706954  0.83440379  0.33419118  1
  I  I89  1  0.17141363  0.83361492  0.66529626  1
  I  I90  1  0.50348458  0.16499304  -0.00213494  1
  I  I91  1  0.49907166  0.16440352  0.33657691  1
  I  I92  1  0.50368057  0.16090051  0.66498107  1
  I  I93  1  0.49722218  0.49894256  -0.00023056  1
  I  I94  1  0.49769013  0.49401351  0.33361047  1
  I  I95  1  0.50083969  0.50448007  0.66666689  1
  I  I96  1  0.49757581  0.83602617  0.00229791  1
  I  I97  1  0.49299919  0.84063538  0.33415678  1
  I  I98  1  0.49235842  0.83774940  0.66335058  1
  I  I99  1  0.82982179  0.16146340  0.00010225  1
  I  I100  1  0.83571338  0.16159412  0.33380324  1
  I  I101  1  0.83431670  0.16734221  0.66599363  1
  I  I102  1  0.83685983  0.49789342  -0.00017183  1
  I  I103  1  0.83660606  0.49753241  0.33345737  1
  I  I104  1  0.83267148  0.50004779  0.66668195  1
  I  I105  1  0.83379379  0.84048813  0.00388837  1
  I  I106  1  0.83952767  0.84089438  0.33046417  1
  I  I107  1  0.83488576  0.83600694  0.66679271  1
  I  I108  1  -0.00334036  0.16096308  0.16512163  1
  I  I109  1  0.00037020  0.16624815  0.50063222  1
  I  I110  1  -0.00209435  0.16633382  0.83230446  1
  I  I111  1  0.00029976  0.50113564  0.16678952  1
  I  I112  1  0.00454003  0.50181278  0.50315406  1
  I  I113  1  0.00399772  0.50276001  0.82899566  1
  I  I114  1  0.00055179  0.83769587  0.16690096  1
  I  I115  1  0.00318014  0.83464948  0.49911366  1
  I  I116  1  0.00422992  0.83297191  0.83144139  1
  I  I117  1  0.33345937  0.16604035  0.16496727  1
  I  I118  1  0.33333029  0.16518268  0.50633207  1
  I  I119  1  0.33554314  0.16578958  0.82730268  1
  I  I120  1  0.33298477  0.49765151  0.16623375  1
  I  I121  1  0.32931063  0.49589029  0.50400778  1
  I  I122  1  0.32905971  0.50358252  0.82788286  1
  I  I123  1  0.33285940  0.83252666  0.16828881  1
  I  I124  1  0.33196426  0.83825674  0.49518658  1
  I  I125  1  0.32985809  0.83302754  0.83733285  1
  I  I126  1  0.67017960  0.15945132  0.17075054  1
  I  I127  1  0.66621828  0.16030385  0.50090998  1
  I  I128  1  0.66698109  0.16423229  0.82791125  1
  I  I129  1  0.66673919  0.50053299  0.16732898  1
  I  I130  1  0.66658552  0.50045567  0.49880269  1
  I  I131  1  0.66660149  0.50193496  0.83423571  1
  I  I132  1  0.66655664  0.84070107  0.17312584  1
  I  I133  1  0.66343959  0.84098022  0.49348251  1
  I  I134  1  0.66670368  0.83343478  0.83389252  1
