# generated using pymatgen
data_Cs27Sn13Pb14I81
_symmetry_space_group_name_H-M   'P 1'
_cell_length_a   18.97633225
_cell_length_b   18.98088178
_cell_length_c   18.97196787
_cell_angle_alpha   90.00273723
_cell_angle_beta   89.99954946
_cell_angle_gamma   89.99967769
_symmetry_Int_Tables_number   1
_chemical_formula_structural   Cs27Sn13Pb14I81
_chemical_formula_sum   'Cs27 Sn13 Pb14 I81'
_cell_volume   6833.46603330
_cell_formula_units_Z   1
loop_
 _symmetry_equiv_pos_site_id
 _symmetry_equiv_pos_as_xyz
  1  'x, y, z'
loop_
 _atom_site_type_symbol
 _atom_site_label
 _atom_site_symmetry_multiplicity
 _atom_site_fract_x
 _atom_site_fract_y
 _atom_site_fract_z
 _atom_site_occupancy
  Cs  Cs0  1  0.00023860  0.00031404  -0.00121273  1
  Cs  Cs1  1  -0.00163906  -0.00312975  0.33197359  1
  Cs  Cs2  1  -0.00084159  0.00160584  0.66908915  1
  Cs  Cs3  1  0.00126922  0.33356221  0.00433531  1
  Cs  Cs4  1  -0.00189363  0.33489676  0.32956702  1
  Cs  Cs5  1  0.01038587  0.33153470  0.66632781  1
  Cs  Cs6  1  -0.00517059  0.66828135  -0.00244693  1
  Cs  Cs7  1  0.00191474  0.66763493  0.33481470  1
  Cs  Cs8  1  -0.00103981  0.66497018  0.66752714  1
  Cs  Cs9  1  0.33352639  -0.00102584  0.00080650  1
  Cs  Cs10  1  0.33471565  -0.00706771  0.33728164  1
  Cs  Cs11  1  0.33315331  0.00249052  0.66281148  1
  Cs  Cs12  1  0.33434133  0.33296686  -0.00062901  1
  Cs  Cs13  1  0.33485308  0.33354264  0.33243415  1
  Cs  Cs14  1  0.32456056  0.33271381  0.66722123  1
  Cs  Cs15  1  0.33520843  0.66808425  0.00239134  1
  Cs  Cs16  1  0.33183595  0.67212909  0.33174961  1
  Cs  Cs17  1  0.32982163  0.66289387  0.66707912  1
  Cs  Cs18  1  0.66577005  0.00126048  -0.00175810  1
  Cs  Cs19  1  0.66570887  -0.00030317  0.33534378  1
  Cs  Cs20  1  0.66688514  0.00039902  0.66684007  1
  Cs  Cs21  1  0.66535150  0.33377514  0.00273110  1
  Cs  Cs22  1  0.66740280  0.33377870  0.33258312  1
  Cs  Cs23  1  0.66481562  0.33226473  0.66473405  1
  Cs  Cs24  1  0.66801965  0.66541366  -0.00499548  1
  Cs  Cs25  1  0.66556785  0.66574438  0.33418164  1
  Cs  Cs26  1  0.66875399  0.66530528  0.66995943  1
  Sn  Sn27  1  0.49878326  0.83414935  0.83319398  1
  Sn  Sn28  1  0.16803106  0.16667273  0.16690565  1
  Sn  Sn29  1  0.83270100  0.16718153  0.83273201  1
  Sn  Sn30  1  0.49933739  0.49939748  0.16756901  1
  Sn  Sn31  1  0.50058714  0.16606680  0.83372681  1
  Sn  Sn32  1  0.50035087  0.49975934  0.49939157  1
  Sn  Sn33  1  0.49900030  0.16681529  0.16647919  1
  Sn  Sn34  1  0.83317791  0.16707835  0.50093494  1
  Sn  Sn35  1  0.16797223  0.83347140  0.83324597  1
  Sn  Sn36  1  0.83267160  0.49962604  0.50016580  1
  Sn  Sn37  1  0.16754786  0.49963915  0.16664477  1
  Sn  Sn38  1  0.83290247  0.83322161  0.49923210  1
  Sn  Sn39  1  0.83270714  0.83335843  0.16714287  1
  Pb  Pb40  1  0.16397919  0.16642967  0.49650565  1
  Pb  Pb41  1  0.49997022  0.49907947  0.83329209  1
  Pb  Pb42  1  0.83342419  0.49610969  0.83023288  1
  Pb  Pb43  1  0.16476308  0.83331094  0.16511930  1
  Pb  Pb44  1  0.83279082  0.50225539  0.16838712  1
  Pb  Pb45  1  0.50211416  0.83328158  0.16505015  1
  Pb  Pb46  1  0.50141631  0.16851434  0.49994781  1
  Pb  Pb47  1  0.83269851  0.16521402  0.16675633  1
  Pb  Pb48  1  0.16421260  0.83340903  0.50289143  1
  Pb  Pb49  1  0.83287065  0.83505991  0.83277381  1
  Pb  Pb50  1  0.16671362  0.50251928  0.83667718  1
  Pb  Pb51  1  0.16699983  0.49999049  0.49734908  1
  Pb  Pb52  1  0.16728258  0.16519935  0.83548833  1
  Pb  Pb53  1  0.50203562  0.83066187  0.50293841  1
  I  I54  1  0.16849397  0.00254294  0.16426768  1
  I  I55  1  0.16494299  -0.00002625  0.49686442  1
  I  I56  1  0.16601509  -0.00244659  0.83726298  1
  I  I57  1  0.16844660  0.33314075  0.16591893  1
  I  I58  1  0.16349437  0.33325736  0.50370624  1
  I  I59  1  0.16614689  0.33313525  0.83213508  1
  I  I60  1  0.17005676  0.66407443  0.16583344  1
  I  I61  1  0.16384466  0.66664275  0.49825402  1
  I  I62  1  0.17114475  0.67039630  0.83478021  1
  I  I63  1  0.49789884  0.00288840  0.16339003  1
  I  I64  1  0.50239989  -0.00000599  0.49769102  1
  I  I65  1  0.50146167  0.00113348  0.83951136  1
  I  I66  1  0.49776862  0.33294981  0.16421916  1
  I  I67  1  0.50748041  0.33636083  0.49919389  1
  I  I68  1  0.50588516  0.32991556  0.83549196  1
  I  I69  1  0.49714315  0.66383596  0.16929445  1
  I  I70  1  0.50621955  0.66292464  0.49427304  1
  I  I71  1  0.49738705  0.66904143  0.83374043  1
  I  I72  1  0.83414423  -0.00241835  0.17124214  1
  I  I73  1  0.83427156  0.00020283  0.50007164  1
  I  I74  1  0.83196345  0.00277086  0.82889112  1
  I  I75  1  0.83429812  0.33335824  0.16710531  1
  I  I76  1  0.82849239  0.33334524  0.50374416  1
  I  I77  1  0.82634511  0.32826721  0.83152177  1
  I  I78  1  0.83413988  0.66990292  0.17035777  1
  I  I79  1  0.82973574  0.66661124  0.49446244  1
  I  I80  1  0.83318727  0.66670366  0.83350616  1
  I  I81  1  0.16437183  0.16984571  0.00329387  1
  I  I82  1  0.17079124  0.17008165  0.32855338  1
  I  I83  1  0.16763113  0.16558446  0.66677404  1
  I  I84  1  0.17269845  0.49551042  0.00448261  1
  I  I85  1  0.16676067  0.49678135  0.32949849  1
  I  I86  1  0.16642574  0.50116797  0.66661611  1
  I  I87  1  0.16661280  0.83359075  -0.00259851  1
  I  I88  1  0.16551510  0.83321134  0.33316629  1
  I  I89  1  0.16881532  0.83452873  0.67070539  1
  I  I90  1  0.50317887  0.16846649  0.00024106  1
  I  I91  1  0.49895017  0.16980113  0.33031911  1
  I  I92  1  0.50437343  0.16348661  0.66942045  1
  I  I93  1  0.49591664  0.49911629  0.00312410  1
  I  I94  1  0.50157712  0.49401599  0.33219466  1
  I  I95  1  0.50716075  0.50173369  0.66391588  1
  I  I96  1  0.50062500  0.83293350  -0.00285194  1
  I  I97  1  0.50066173  0.83554076  0.33346005  1
  I  I98  1  0.49922581  0.83921859  0.67072026  1
  I  I99  1  0.83245316  0.16199591  -0.00199870  1
  I  I100  1  0.83376237  0.16759375  0.33594947  1
  I  I101  1  0.82708448  0.16357625  0.66664715  1
  I  I102  1  0.83307249  0.50200392  0.00015274  1
  I  I103  1  0.83201798  0.49511035  0.33651157  1
  I  I104  1  0.82607127  0.50743939  0.66203959  1
  I  I105  1  0.83402366  0.83530155  0.00148000  1
  I  I106  1  0.83386644  0.83627857  0.33413687  1
  I  I107  1  0.83324919  0.83170616  0.66390341  1
  I  I108  1  0.00175111  0.16963402  0.16670889  1
  I  I109  1  -0.00471259  0.16873927  0.50575948  1
  I  I110  1  -0.00231493  0.16390903  0.83054757  1
  I  I111  1  0.00209471  0.49630831  0.16730134  1
  I  I112  1  -0.00314347  0.50073704  0.49913511  1
  I  I113  1  -0.00009274  0.50197696  0.83388289  1
  I  I114  1  -0.00308989  0.83402685  0.16774855  1
  I  I115  1  -0.00445315  0.83082845  0.49771454  1
  I  I116  1  0.00134965  0.83472320  0.83426870  1
  I  I117  1  0.33457167  0.17102822  0.15963859  1
  I  I118  1  0.33348483  0.16940969  0.50337758  1
  I  I119  1  0.33653316  0.16463743  0.83653009  1
  I  I120  1  0.33451678  0.49643246  0.17170828  1
  I  I121  1  0.33645931  0.49942104  0.49881435  1
  I  I122  1  0.33352485  0.49663016  0.82736754  1
  I  I123  1  0.33360812  0.83308714  0.16582962  1
  I  I124  1  0.33369637  0.83163050  0.49883300  1
  I  I125  1  0.33438982  0.83877480  0.83643474  1
  I  I126  1  0.66380952  0.17016546  0.16502903  1
  I  I127  1  0.66992048  0.16494415  0.49906456  1
  I  I128  1  0.66586672  0.16025978  0.83551794  1
  I  I129  1  0.66364195  0.49589395  0.16868006  1
  I  I130  1  0.66711804  0.49978307  0.49354620  1
  I  I131  1  0.66665701  0.50581745  0.83816678  1
  I  I132  1  0.66978839  0.83416657  0.16817501  1
  I  I133  1  0.67033779  0.83572402  0.49834045  1
  I  I134  1  0.66442830  0.83567632  0.83377587  1
