# generated using pymatgen
data_Cs27Sn13Pb14I81
_symmetry_space_group_name_H-M   'P 1'
_cell_length_a   18.97201181
_cell_length_b   18.98117711
_cell_length_c   18.97769636
_cell_angle_alpha   90.00076716
_cell_angle_beta   90.00174676
_cell_angle_gamma   90.00022677
_symmetry_Int_Tables_number   1
_chemical_formula_structural   Cs27Sn13Pb14I81
_chemical_formula_sum   'Cs27 Sn13 Pb14 I81'
_cell_volume   6834.07941674
_cell_formula_units_Z   1
loop_
 _symmetry_equiv_pos_site_id
 _symmetry_equiv_pos_as_xyz
  1  'x, y, z'
loop_
 _atom_site_type_symbol
 _atom_site_label
 _atom_site_symmetry_multiplicity
 _atom_site_fract_x
 _atom_site_fract_y
 _atom_site_fract_z
 _atom_site_occupancy
  Cs  Cs0  1  0.00074915  -0.00110268  -0.00672573  1
  Cs  Cs1  1  -0.00031572  -0.00016057  0.33613942  1
  Cs  Cs2  1  -0.00866926  -0.00475820  0.67193286  1
  Cs  Cs3  1  0.00168613  0.33327214  0.00192617  1
  Cs  Cs4  1  -0.00143265  0.33211942  0.32953467  1
  Cs  Cs5  1  0.00209857  0.33006284  0.67015800  1
  Cs  Cs6  1  0.00069562  0.66748053  0.00016134  1
  Cs  Cs7  1  0.00055583  0.66965116  0.33344752  1
  Cs  Cs8  1  0.00686466  0.67316396  0.66538757  1
  Cs  Cs9  1  0.33493532  -0.00229321  0.00362259  1
  Cs  Cs10  1  0.33354084  0.00120117  0.32976827  1
  Cs  Cs11  1  0.33565056  0.00221910  0.66697568  1
  Cs  Cs12  1  0.33273705  0.33189346  -0.00070756  1
  Cs  Cs13  1  0.33276073  0.33150183  0.33550752  1
  Cs  Cs14  1  0.33240050  0.33502196  0.66537640  1
  Cs  Cs15  1  0.33254860  0.66974543  0.00033306  1
  Cs  Cs16  1  0.33000118  0.66879544  0.33699067  1
  Cs  Cs17  1  0.33089196  0.66339559  0.66321537  1
  Cs  Cs18  1  0.66332636  -0.00129365  0.00072069  1
  Cs  Cs19  1  0.66592262  0.00069544  0.33342551  1
  Cs  Cs20  1  0.67043394  -0.00071103  0.66602375  1
  Cs  Cs21  1  0.66600857  0.33716336  0.00122952  1
  Cs  Cs22  1  0.66873054  0.33481949  0.33282898  1
  Cs  Cs23  1  0.66575524  0.33313145  0.66584995  1
  Cs  Cs24  1  0.66706700  0.66282962  -0.00027108  1
  Cs  Cs25  1  0.66831741  0.66227113  0.33268848  1
  Cs  Cs26  1  0.66457634  0.66693474  0.66763787  1
  Sn  Sn27  1  0.16571866  0.16729104  0.16737307  1
  Sn  Sn28  1  0.83395823  0.49983167  0.50181882  1
  Sn  Sn29  1  0.50039652  0.50000169  0.83407632  1
  Sn  Sn30  1  0.49958512  0.16594343  0.50070835  1
  Sn  Sn31  1  0.83317894  0.49987217  0.83154625  1
  Sn  Sn32  1  0.50024594  0.83414392  0.50042707  1
  Sn  Sn33  1  0.83306563  0.83478934  0.16664807  1
  Sn  Sn34  1  0.16666139  0.16641828  0.49983260  1
  Sn  Sn35  1  0.50027561  0.83304187  0.83235360  1
  Sn  Sn36  1  0.50019824  0.16687444  0.83250581  1
  Sn  Sn37  1  0.83408404  0.16520380  0.16644219  1
  Sn  Sn38  1  0.16815464  0.49941013  0.16675939  1
  Sn  Sn39  1  0.49837039  0.49988229  0.16637607  1
  Pb  Pb40  1  0.16354225  0.49765894  0.49769778  1
  Pb  Pb41  1  0.83381079  0.49980760  0.16617646  1
  Pb  Pb42  1  0.16976056  0.83344182  0.83311752  1
  Pb  Pb43  1  0.83096718  0.83108018  0.49834670  1
  Pb  Pb44  1  0.83098138  0.83073403  0.83523401  1
  Pb  Pb45  1  0.49978461  0.16846149  0.16696573  1
  Pb  Pb46  1  0.50084575  0.49964079  0.50031885  1
  Pb  Pb47  1  0.83070285  0.16880536  0.83597462  1
  Pb  Pb48  1  0.16694076  0.49999484  0.83541703  1
  Pb  Pb49  1  0.83328157  0.16810969  0.49857133  1
  Pb  Pb50  1  0.16893414  0.16654422  0.83337150  1
  Pb  Pb51  1  0.16414643  0.83405643  0.16671207  1
  Pb  Pb52  1  0.50158256  0.83052683  0.16709896  1
  Pb  Pb53  1  0.16917210  0.83679694  0.50002243  1
  I  I54  1  0.16583866  0.00366412  0.17068504  1
  I  I55  1  0.16905414  0.00471314  0.49087390  1
  I  I56  1  0.16833723  0.00031260  0.83712435  1
  I  I57  1  0.16430610  0.33275196  0.16961733  1
  I  I58  1  0.17514774  0.32999332  0.49728704  1
  I  I59  1  0.16964662  0.33327607  0.83275970  1
  I  I60  1  0.16880170  0.66391001  0.16515797  1
  I  I61  1  0.16739512  0.66661153  0.49819092  1
  I  I62  1  0.16806689  0.66640386  0.83644813  1
  I  I63  1  0.49890645  0.00005112  0.16383251  1
  I  I64  1  0.49741114  0.00098409  0.50646077  1
  I  I65  1  0.49850849  0.00021762  0.82945023  1
  I  I66  1  0.50239159  0.33631254  0.16299837  1
  I  I67  1  0.49788437  0.33062864  0.50209838  1
  I  I68  1  0.50362171  0.33382612  0.83415769  1
  I  I69  1  0.49868004  0.66260617  0.16302658  1
  I  I70  1  0.50368177  0.66850205  0.50183040  1
  I  I71  1  0.50501529  0.66596066  0.83456547  1
  I  I72  1  0.83648927  0.00103458  0.16823592  1
  I  I73  1  0.83409513  0.00004883  0.49856092  1
  I  I74  1  0.83206545  -0.00002933  0.83388320  1
  I  I75  1  0.83386216  0.33147200  0.16705539  1
  I  I76  1  0.82896750  0.33595680  0.49914072  1
  I  I77  1  0.82596226  0.33666345  0.83316619  1
  I  I78  1  0.83093659  0.66794836  0.16664538  1
  I  I79  1  0.82945609  0.66320412  0.49898991  1
  I  I80  1  0.82576497  0.66287943  0.83428095  1
  I  I81  1  0.16402471  0.17153214  0.00334960  1
  I  I82  1  0.16989066  0.17125731  0.33250934  1
  I  I83  1  0.17135633  0.16792763  0.66370541  1
  I  I84  1  0.16569890  0.49293694  0.00370757  1
  I  I85  1  0.17140483  0.49758008  0.32960447  1
  I  I86  1  0.16897542  0.49841255  0.66644718  1
  I  I87  1  0.16903461  0.83473830  0.00029902  1
  I  I88  1  0.16973811  0.83018713  0.33324917  1
  I  I89  1  0.16356771  0.83358330  0.66636467  1
  I  I90  1  0.50089596  0.16558578  -0.00226780  1
  I  I91  1  0.49935493  0.16406214  0.33580663  1
  I  I92  1  0.49476360  0.16880200  0.66630982  1
  I  I93  1  0.50369548  0.49917394  -0.00081866  1
  I  I94  1  0.50041787  0.49924620  0.33113778  1
  I  I95  1  0.50377988  0.49984559  0.66953275  1
  I  I96  1  0.50186878  0.83543755  -0.00261941  1
  I  I97  1  0.50171570  0.83728087  0.33587184  1
  I  I98  1  0.50087632  0.83203102  0.66716128  1
  I  I99  1  0.83747012  0.16670232  0.00402996  1
  I  I100  1  0.83127885  0.16814245  0.33032151  1
  I  I101  1  0.83549991  0.16741484  0.66691557  1
  I  I102  1  0.82986048  0.49988273  -0.00201838  1
  I  I103  1  0.83132196  0.49949721  0.33454502  1
  I  I104  1  0.82377358  0.49854329  0.66742831  1
  I  I105  1  0.83060500  0.83418529  0.00308122  1
  I  I106  1  0.83022729  0.83297387  0.33041703  1
  I  I107  1  0.83369603  0.83367979  0.66684635  1
  I  I108  1  0.00072242  0.17111734  0.17278149  1
  I  I109  1  0.00243445  0.17159900  0.49432147  1
  I  I110  1  -0.00029071  0.16913383  0.83197090  1
  I  I111  1  0.00211505  0.49800886  0.16730239  1
  I  I112  1  -0.00409490  0.49817076  0.50250155  1
  I  I113  1  -0.00291905  0.49878684  0.83296417  1
  I  I114  1  -0.00367437  0.82992488  0.16734416  1
  I  I115  1  -0.00021171  0.83265452  0.49771738  1
  I  I116  1  -0.00056984  0.83163869  0.83515051  1
  I  I117  1  0.33111597  0.17039829  0.16744767  1
  I  I118  1  0.33454642  0.16433146  0.49689553  1
  I  I119  1  0.33770313  0.16979958  0.83465223  1
  I  I120  1  0.33393785  0.49441534  0.16136502  1
  I  I121  1  0.33314092  0.50163728  0.50070611  1
  I  I122  1  0.33713157  0.49987470  0.83628054  1
  I  I123  1  0.33357866  0.83457948  0.16572773  1
  I  I124  1  0.33760637  0.83174451  0.50262968  1
  I  I125  1  0.33873194  0.83030620  0.83223435  1
  I  I126  1  0.66851448  0.16640673  0.16658733  1
  I  I127  1  0.66359934  0.16497974  0.50195726  1
  I  I128  1  0.66237962  0.16567140  0.82904890  1
  I  I129  1  0.66480822  0.49956613  0.16532906  1
  I  I130  1  0.66857903  0.49783321  0.49666786  1
  I  I131  1  0.66502797  0.49961308  0.83729500  1
  I  I132  1  0.66921911  0.83711659  0.16666312  1
  I  I133  1  0.66291507  0.83976827  0.50327166  1
  I  I134  1  0.66268218  0.83496401  0.83067617  1
