# generated using pymatgen
data_Cs27Sn13Pb14I81
_symmetry_space_group_name_H-M   'P 1'
_cell_length_a   18.97147051
_cell_length_b   18.97610791
_cell_length_c   18.98465640
_cell_angle_alpha   90.00043512
_cell_angle_beta   89.99951250
_cell_angle_gamma   89.99979374
_symmetry_Int_Tables_number   1
_chemical_formula_structural   Cs27Sn13Pb14I81
_chemical_formula_sum   'Cs27 Sn13 Pb14 I81'
_cell_volume   6834.56499126
_cell_formula_units_Z   1
loop_
 _symmetry_equiv_pos_site_id
 _symmetry_equiv_pos_as_xyz
  1  'x, y, z'
loop_
 _atom_site_type_symbol
 _atom_site_label
 _atom_site_symmetry_multiplicity
 _atom_site_fract_x
 _atom_site_fract_y
 _atom_site_fract_z
 _atom_site_occupancy
  Cs  Cs0  1  -0.00865231  0.00412968  0.00281217  1
  Cs  Cs1  1  -0.00042078  0.00623480  0.33335462  1
  Cs  Cs2  1  -0.00012965  0.00413429  0.66501192  1
  Cs  Cs3  1  0.00759257  0.33153710  -0.00454697  1
  Cs  Cs4  1  -0.00098777  0.32812165  0.33183144  1
  Cs  Cs5  1  0.00022816  0.32782377  0.67214560  1
  Cs  Cs6  1  -0.00197249  0.66429445  -0.00290515  1
  Cs  Cs7  1  -0.00030845  0.66608684  0.33615755  1
  Cs  Cs8  1  -0.00034417  0.66686157  0.66503094  1
  Cs  Cs9  1  0.33578957  -0.00135876  -0.00155920  1
  Cs  Cs10  1  0.33302938  -0.00182441  0.33412861  1
  Cs  Cs11  1  0.33474029  -0.00193039  0.66629020  1
  Cs  Cs12  1  0.32721571  0.33471216  0.00110837  1
  Cs  Cs13  1  0.33257962  0.33668553  0.32951986  1
  Cs  Cs14  1  0.33617473  0.33154092  0.66808207  1
  Cs  Cs15  1  0.33195291  0.66639520  0.00307948  1
  Cs  Cs16  1  0.33311434  0.66588545  0.33299002  1
  Cs  Cs17  1  0.33279646  0.66957077  0.66469753  1
  Cs  Cs18  1  0.66988761  -0.00173380  0.00332238  1
  Cs  Cs19  1  0.66768278  0.00025081  0.33052177  1
  Cs  Cs20  1  0.66377972  0.00059582  0.66674619  1
  Cs  Cs21  1  0.66687006  0.33197900  -0.00344129  1
  Cs  Cs22  1  0.66687472  0.33696075  0.33432882  1
  Cs  Cs23  1  0.66436651  0.33346146  0.66713616  1
  Cs  Cs24  1  0.67052568  0.66908027  0.00248659  1
  Cs  Cs25  1  0.66767607  0.66402575  0.33253710  1
  Cs  Cs26  1  0.66782917  0.66557287  0.66559528  1
  Sn  Sn27  1  0.16693577  0.83350254  0.83349709  1
  Sn  Sn28  1  0.49972678  0.16626564  0.83389181  1
  Sn  Sn29  1  0.16632263  0.83273698  0.50001867  1
  Sn  Sn30  1  0.49978713  0.16667496  0.16677385  1
  Sn  Sn31  1  0.50042190  0.83380702  0.50018865  1
  Sn  Sn32  1  0.16627967  0.83340283  0.16656123  1
  Sn  Sn33  1  0.49977595  0.50100581  0.83354451  1
  Sn  Sn34  1  0.83479689  0.50042234  0.49949595  1
  Sn  Sn35  1  0.49982105  0.16595028  0.49926004  1
  Sn  Sn36  1  0.83327355  0.83289813  0.49998960  1
  Sn  Sn37  1  0.83376487  0.49976977  0.16696403  1
  Sn  Sn38  1  0.16560244  0.50014709  0.50025439  1
  Sn  Sn39  1  0.49947989  0.83280094  0.83288382  1
  Pb  Pb40  1  0.16927257  0.16671604  0.49998548  1
  Pb  Pb41  1  0.49874791  0.83449707  0.16677544  1
  Pb  Pb42  1  0.16889830  0.50237315  0.83065056  1
  Pb  Pb43  1  0.50161465  0.49791092  0.16373341  1
  Pb  Pb44  1  0.49994067  0.50045723  0.50116783  1
  Pb  Pb45  1  0.83123204  0.16971732  0.16677918  1
  Pb  Pb46  1  0.83095044  0.16649209  0.83322439  1
  Pb  Pb47  1  0.16430757  0.50196161  0.16888499  1
  Pb  Pb48  1  0.83075429  0.16709004  0.50007486  1
  Pb  Pb49  1  0.16897043  0.16345119  0.83328078  1
  Pb  Pb50  1  0.83171260  0.50010707  0.83257589  1
  Pb  Pb51  1  0.83335498  0.83339763  0.83083984  1
  Pb  Pb52  1  0.83618774  0.83169196  0.16948307  1
  Pb  Pb53  1  0.16882187  0.16407064  0.16669111  1
  I  I54  1  0.16752730  -0.00421195  0.17098425  1
  I  I55  1  0.16506683  -0.00392925  0.50060677  1
  I  I56  1  0.17344481  -0.00484629  0.82837656  1
  I  I57  1  0.16723670  0.33351967  0.16865922  1
  I  I58  1  0.16402497  0.33633879  0.49925221  1
  I  I59  1  0.16865840  0.33345470  0.83205187  1
  I  I60  1  0.16973910  0.67005596  0.16574602  1
  I  I61  1  0.16903821  0.66857054  0.50030358  1
  I  I62  1  0.17410028  0.67047957  0.83398134  1
  I  I63  1  0.49902339  0.00265066  0.16353101  1
  I  I64  1  0.49958709  -0.00150140  0.50468276  1
  I  I65  1  0.49547226  -0.00071046  0.83097639  1
  I  I66  1  0.50114354  0.32979137  0.16903372  1
  I  I67  1  0.50039569  0.33113291  0.50238388  1
  I  I68  1  0.50318014  0.33267369  0.83129892  1
  I  I69  1  0.49987800  0.66660683  0.16659550  1
  I  I70  1  0.49949465  0.66989915  0.50506667  1
  I  I71  1  0.49677987  0.66820501  0.82651339  1
  I  I72  1  0.83355429  -0.00004889  0.16723726  1
  I  I73  1  0.83568292  -0.00321248  0.50135659  1
  I  I74  1  0.83148785  -0.00041848  0.83208379  1
  I  I75  1  0.83147156  0.33727220  0.17592224  1
  I  I76  1  0.83534120  0.33677379  0.49610688  1
  I  I77  1  0.82935598  0.33352437  0.83020811  1
  I  I78  1  0.83073616  0.66403955  0.16912088  1
  I  I79  1  0.83100909  0.66722217  0.49710157  1
  I  I80  1  0.82814273  0.66683724  0.83513599  1
  I  I81  1  0.17039116  0.16638357  -0.00009316  1
  I  I82  1  0.17148623  0.16368195  0.33353970  1
  I  I83  1  0.16913460  0.16549547  0.66654284  1
  I  I84  1  0.16620637  0.50180852  -0.00017863  1
  I  I85  1  0.16866657  0.50701511  0.33696549  1
  I  I86  1  0.16164406  0.50655181  0.66274908  1
  I  I87  1  0.17540835  0.83389669  -0.00081274  1
  I  I88  1  0.16845376  0.82963945  0.33515352  1
  I  I89  1  0.16932930  0.82933886  0.66562032  1
  I  I90  1  0.50034532  0.16614413  -0.00103204  1
  I  I91  1  0.50019948  0.16092083  0.33429713  1
  I  I92  1  0.50019556  0.16533570  0.66675756  1
  I  I93  1  0.50192350  0.50184458  -0.00415549  1
  I  I94  1  0.49868312  0.49904064  0.33341669  1
  I  I95  1  0.50159792  0.49640643  0.66901625  1
  I  I96  1  0.49512053  0.83430745  -0.00310933  1
  I  I97  1  0.49872369  0.83768430  0.33668730  1
  I  I98  1  0.49620831  0.83738585  0.66606788  1
  I  I99  1  0.82944006  0.16712090  0.00019950  1
  I  I100  1  0.82884685  0.16425822  0.33356021  1
  I  I101  1  0.83076356  0.16850951  0.66626989  1
  I  I102  1  0.82869879  0.50009274  0.00232406  1
  I  I103  1  0.83426606  0.50490303  0.33518159  1
  I  I104  1  0.83484586  0.50523020  0.66297227  1
  I  I105  1  0.83253540  0.83186723  0.00023445  1
  I  I106  1  0.83066970  0.83118481  0.33769775  1
  I  I107  1  0.83523781  0.82647939  0.66247684  1
  I  I108  1  -0.00000229  0.16575416  0.16751593  1
  I  I109  1  0.00003806  0.16372745  0.49906748  1
  I  I110  1  0.00048005  0.16619084  0.83353312  1
  I  I111  1  -0.00342459  0.50215521  0.16912571  1
  I  I112  1  -0.00015660  0.51124599  0.49628313  1
  I  I113  1  0.00035982  0.50219798  0.83475181  1
  I  I114  1  0.00414161  0.83220437  0.16553370  1
  I  I115  1  0.00076567  0.82713307  0.50051409  1
  I  I116  1  0.00324700  0.83099131  0.83182060  1
  I  I117  1  0.33731070  0.16750179  0.16671455  1
  I  I118  1  0.33770088  0.16219674  0.50192435  1
  I  I119  1  0.33783062  0.16848060  0.83181638  1
  I  I120  1  0.33311080  0.49918404  0.16760714  1
  I  I121  1  0.33123180  0.50399663  0.50239308  1
  I  I122  1  0.33709423  0.49729510  0.83127748  1
  I  I123  1  0.33076392  0.83357570  0.17160197  1
  I  I124  1  0.33335243  0.83344591  0.50116574  1
  I  I125  1  0.33464814  0.83402692  0.82766212  1
  I  I126  1  0.66275596  0.16402826  0.16606632  1
  I  I127  1  0.66228712  0.16285761  0.50179385  1
  I  I128  1  0.66149293  0.16371253  0.83194169  1
  I  I129  1  0.66923164  0.50088456  0.17481650  1
  I  I130  1  0.66890472  0.50311626  0.49817486  1
  I  I131  1  0.66305208  0.50147374  0.83013654  1
  I  I132  1  0.66696685  0.83400570  0.16660143  1
  I  I133  1  0.66567525  0.83310576  0.50502841  1
  I  I134  1  0.66290127  0.83440360  0.82853320  1
