# generated using pymatgen
data_Cs27Sn13Pb14I81
_symmetry_space_group_name_H-M   'P 1'
_cell_length_a   18.97494703
_cell_length_b   18.97754020
_cell_length_c   18.97937743
_cell_angle_alpha   89.99912071
_cell_angle_beta   89.99888524
_cell_angle_gamma   89.99964996
_symmetry_Int_Tables_number   1
_chemical_formula_structural   Cs27Sn13Pb14I81
_chemical_formula_sum   'Cs27 Sn13 Pb14 I81'
_cell_volume   6834.43243574
_cell_formula_units_Z   1
loop_
 _symmetry_equiv_pos_site_id
 _symmetry_equiv_pos_as_xyz
  1  'x, y, z'
loop_
 _atom_site_type_symbol
 _atom_site_label
 _atom_site_symmetry_multiplicity
 _atom_site_fract_x
 _atom_site_fract_y
 _atom_site_fract_z
 _atom_site_occupancy
  Cs  Cs0  1  -0.00294860  -0.00304448  -0.00841180  1
  Cs  Cs1  1  0.00285450  0.00307957  0.33540501  1
  Cs  Cs2  1  0.00614858  0.00592248  0.67254606  1
  Cs  Cs3  1  0.00243780  0.33424303  0.00293513  1
  Cs  Cs4  1  -0.00042761  0.33280410  0.33227426  1
  Cs  Cs5  1  0.00400406  0.33080403  0.66636752  1
  Cs  Cs6  1  -0.00066562  0.66705117  -0.00208849  1
  Cs  Cs7  1  -0.00227681  0.66500639  0.33295186  1
  Cs  Cs8  1  -0.00131615  0.66646816  0.67018069  1
  Cs  Cs9  1  0.33476400  0.00029451  0.00352162  1
  Cs  Cs10  1  0.32960081  -0.00613843  0.33321822  1
  Cs  Cs11  1  0.33064877  0.00270124  0.66535998  1
  Cs  Cs12  1  0.33318086  0.33083116  -0.00088520  1
  Cs  Cs13  1  0.33265183  0.33556141  0.33254280  1
  Cs  Cs14  1  0.33377871  0.33353094  0.66919218  1
  Cs  Cs15  1  0.33267317  0.66910080  0.00254955  1
  Cs  Cs16  1  0.33387059  0.66854172  0.33177380  1
  Cs  Cs17  1  0.33593446  0.66516233  0.66568584  1
  Cs  Cs18  1  0.66697753  0.00942239  -0.00231430  1
  Cs  Cs19  1  0.66780983  0.00062072  0.33279661  1
  Cs  Cs20  1  0.66661140  -0.00201526  0.66859576  1
  Cs  Cs21  1  0.66441710  0.32771457  0.00197764  1
  Cs  Cs22  1  0.66808392  0.33370249  0.33280509  1
  Cs  Cs23  1  0.66508795  0.33485104  0.66465202  1
  Cs  Cs24  1  0.66779658  0.66627783  -0.00058711  1
  Cs  Cs25  1  0.66718587  0.66563165  0.33500455  1
  Cs  Cs26  1  0.66641500  0.66661855  0.66522581  1
  Sn  Sn27  1  0.83318837  0.83291312  0.49961330  1
  Sn  Sn28  1  0.50026789  0.16651317  0.49943943  1
  Sn  Sn29  1  0.83229669  0.49988508  0.83328779  1
  Sn  Sn30  1  0.50101531  0.50104876  0.83290395  1
  Sn  Sn31  1  0.83296799  0.83269004  0.16745807  1
  Sn  Sn32  1  0.83388895  0.50070145  0.16654793  1
  Sn  Sn33  1  0.16598002  0.49952061  0.16759626  1
  Sn  Sn34  1  0.16650290  0.50048567  0.49925135  1
  Sn  Sn35  1  0.50093618  0.83323888  0.50067459  1
  Sn  Sn36  1  0.83366700  0.50057156  0.50021975  1
  Sn  Sn37  1  0.49990073  0.50014108  0.50042050  1
  Sn  Sn38  1  0.50018889  0.83232183  0.83270907  1
  Sn  Sn39  1  0.16635825  0.16714218  0.16674520  1
  Pb  Pb40  1  0.16599513  0.83085665  0.50021694  1
  Pb  Pb41  1  0.50298279  0.83326413  0.16668910  1
  Pb  Pb42  1  0.16911794  0.16935912  0.49832859  1
  Pb  Pb43  1  0.83167377  0.16636246  0.50010656  1
  Pb  Pb44  1  0.50023965  0.50003332  0.16638963  1
  Pb  Pb45  1  0.83542659  0.16653661  0.16692592  1
  Pb  Pb46  1  0.49752326  0.16654136  0.16964878  1
  Pb  Pb47  1  0.16696563  0.16689198  0.83633767  1
  Pb  Pb48  1  0.50001306  0.16685124  0.83097577  1
  Pb  Pb49  1  0.83322392  0.17029295  0.83302611  1
  Pb  Pb50  1  0.83132757  0.83153894  0.83266093  1
  Pb  Pb51  1  0.17022743  0.83294619  0.83312915  1
  Pb  Pb52  1  0.16343765  0.83269275  0.16679657  1
  Pb  Pb53  1  0.16709027  0.50018417  0.83364280  1
  I  I54  1  0.16805509  0.00238807  0.16702729  1
  I  I55  1  0.16765652  0.00011146  0.49760074  1
  I  I56  1  0.16717980  0.00000181  0.83487410  1
  I  I57  1  0.16108580  0.33568091  0.17099807  1
  I  I58  1  0.16553724  0.33786448  0.49843254  1
  I  I59  1  0.16865495  0.33403354  0.83074545  1
  I  I60  1  0.16534382  0.66308548  0.17038647  1
  I  I61  1  0.17131006  0.66228798  0.49336616  1
  I  I62  1  0.16494482  0.66603012  0.83633408  1
  I  I63  1  0.49958330  -0.00021387  0.16626558  1
  I  I64  1  0.50515147  -0.00143848  0.50317967  1
  I  I65  1  0.49982016  -0.00310229  0.82920415  1
  I  I66  1  0.50424727  0.33366806  0.16711916  1
  I  I67  1  0.49979797  0.33546844  0.50323085  1
  I  I68  1  0.50326859  0.33690148  0.82901408  1
  I  I69  1  0.49451867  0.66645803  0.16994506  1
  I  I70  1  0.50078300  0.66579690  0.50403184  1
  I  I71  1  0.50343027  0.66535523  0.82457680  1
  I  I72  1  0.83301914  -0.00325062  0.17264736  1
  I  I73  1  0.82709122  -0.00375171  0.49356672  1
  I  I74  1  0.83175971  -0.00045255  0.83487295  1
  I  I75  1  0.83488285  0.33705528  0.16787134  1
  I  I76  1  0.83206021  0.33732739  0.49881776  1
  I  I77  1  0.82638165  0.33913567  0.83320977  1
  I  I78  1  0.83837654  0.66473595  0.16809002  1
  I  I79  1  0.82861719  0.66506733  0.49842194  1
  I  I80  1  0.83166032  0.66302529  0.83352268  1
  I  I81  1  0.16718865  0.17626034  0.00429616  1
  I  I82  1  0.16712769  0.17022675  0.33057317  1
  I  I83  1  0.16732850  0.16758215  0.66634216  1
  I  I84  1  0.16347128  0.49630715  0.00324863  1
  I  I85  1  0.16439141  0.49657574  0.33363521  1
  I  I86  1  0.16509011  0.50109080  0.66357458  1
  I  I87  1  0.16667321  0.83107353  0.00022166  1
  I  I88  1  0.17269476  0.83437473  0.33346995  1
  I  I89  1  0.16143953  0.83150044  0.66639407  1
  I  I90  1  0.49885814  0.16678909  -0.00004393  1
  I  I91  1  0.50120162  0.16898955  0.33762584  1
  I  I92  1  0.49935650  0.16855304  0.66300208  1
  I  I93  1  0.50271478  0.50472366  -0.00323063  1
  I  I94  1  0.50160689  0.50083710  0.33682562  1
  I  I95  1  0.50232883  0.50016307  0.66511374  1
  I  I96  1  0.49983310  0.82663422  -0.00297990  1
  I  I97  1  0.50097459  0.83139806  0.33702961  1
  I  I98  1  0.50595137  0.83142120  0.66485178  1
  I  I99  1  0.83298003  0.16565756  0.00014216  1
  I  I100  1  0.83177922  0.17112161  0.33346918  1
  I  I101  1  0.83372500  0.16626580  0.66642012  1
  I  I102  1  0.83421913  0.50428346  0.00066989  1
  I  I103  1  0.83351312  0.50322084  0.33401879  1
  I  I104  1  0.83224037  0.50382185  0.66540248  1
  I  I105  1  0.83388711  0.82792701  0.00218861  1
  I  I106  1  0.82730226  0.82422900  0.33446973  1
  I  I107  1  0.82958014  0.82743451  0.66334811  1
  I  I108  1  0.00300339  0.17123483  0.16965748  1
  I  I109  1  0.00038873  0.16695540  0.49869013  1
  I  I110  1  0.00006890  0.16705875  0.83171910  1
  I  I111  1  -0.00086474  0.49951512  0.16998219  1
  I  I112  1  -0.00114939  0.50437121  0.49918384  1
  I  I113  1  -0.00304599  0.50003798  0.83100592  1
  I  I114  1  -0.00444000  0.83033280  0.17342565  1
  I  I115  1  -0.00376758  0.82722168  0.49418395  1
  I  I116  1  -0.00057871  0.83228388  0.83385942  1
  I  I117  1  0.32981226  0.17530083  0.16668665  1
  I  I118  1  0.33715407  0.16629323  0.49941196  1
  I  I119  1  0.33376711  0.16965855  0.83318624  1
  I  I120  1  0.33058212  0.49585004  0.17016267  1
  I  I121  1  0.33440688  0.49962122  0.50007273  1
  I  I122  1  0.33677291  0.50288887  0.82906280  1
  I  I123  1  0.33331091  0.83333809  0.16627976  1
  I  I124  1  0.33671441  0.83231159  0.50379539  1
  I  I125  1  0.33866007  0.82534280  0.82702253  1
  I  I126  1  0.66682009  0.16752286  0.16598983  1
  I  I127  1  0.66345023  0.17240901  0.49987532  1
  I  I128  1  0.66634726  0.16554910  0.83561801  1
  I  I129  1  0.67003407  0.50432768  0.16944321  1
  I  I130  1  0.66662102  0.50023926  0.50017756  1
  I  I131  1  0.66634663  0.50399608  0.82953818  1
  I  I132  1  0.67069267  0.82466776  0.16938514  1
  I  I133  1  0.66613451  0.82798202  0.49934797  1
  I  I134  1  0.66338087  0.82968829  0.83078806  1
