# generated using pymatgen
data_Cs27Sn14Pb13I81
_symmetry_space_group_name_H-M   'P 1'
_cell_length_a   18.97012067
_cell_length_b   18.98516899
_cell_length_c   18.97064941
_cell_angle_alpha   90.00030960
_cell_angle_beta   89.99938793
_cell_angle_gamma   90.00105444
_symmetry_Int_Tables_number   1
_chemical_formula_structural   Cs27Sn14Pb13I81
_chemical_formula_sum   'Cs27 Sn14 Pb13 I81'
_cell_volume   6832.29734529
_cell_formula_units_Z   1
loop_
 _symmetry_equiv_pos_site_id
 _symmetry_equiv_pos_as_xyz
  1  'x, y, z'
loop_
 _atom_site_type_symbol
 _atom_site_label
 _atom_site_symmetry_multiplicity
 _atom_site_fract_x
 _atom_site_fract_y
 _atom_site_fract_z
 _atom_site_occupancy
  Cs  Cs0  1  0.00499769  0.00047859  -0.00263362  1
  Cs  Cs1  1  -0.00091476  -0.00092669  0.33369896  1
  Cs  Cs2  1  -0.00107302  0.00163045  0.66631220  1
  Cs  Cs3  1  0.00491184  0.33139900  -0.00788840  1
  Cs  Cs4  1  0.00269738  0.33563585  0.33307373  1
  Cs  Cs5  1  -0.00120796  0.33996273  0.67381497  1
  Cs  Cs6  1  0.00772464  0.67024113  0.00138461  1
  Cs  Cs7  1  0.00000287  0.66329940  0.33570604  1
  Cs  Cs8  1  -0.00429495  0.65584343  0.66193857  1
  Cs  Cs9  1  0.32625496  -0.00272146  -0.00236205  1
  Cs  Cs10  1  0.33474538  0.00084815  0.33518465  1
  Cs  Cs11  1  0.33468311  -0.00110616  0.66373195  1
  Cs  Cs12  1  0.32739448  0.33364368  -0.00063384  1
  Cs  Cs13  1  0.33554609  0.33223618  0.33392634  1
  Cs  Cs14  1  0.33454945  0.33537005  0.66405289  1
  Cs  Cs15  1  0.32780261  0.66977093  -0.00918094  1
  Cs  Cs16  1  0.33374996  0.66602545  0.33297233  1
  Cs  Cs17  1  0.33388444  0.66722883  0.67412174  1
  Cs  Cs18  1  0.66743892  -0.00070109  0.00207587  1
  Cs  Cs19  1  0.66590338  0.00008271  0.33271042  1
  Cs  Cs20  1  0.66654086  0.00030236  0.66523120  1
  Cs  Cs21  1  0.66749223  0.33354897  0.00265546  1
  Cs  Cs22  1  0.66348302  0.33103402  0.33027008  1
  Cs  Cs23  1  0.66724545  0.33246054  0.67070741  1
  Cs  Cs24  1  0.66535354  0.66764696  0.00159064  1
  Cs  Cs25  1  0.66722826  0.66774297  0.33133111  1
  Cs  Cs26  1  0.66903194  0.66535683  0.66990330  1
  Sn  Sn27  1  0.50043207  0.16668493  0.50003497  1
  Sn  Sn28  1  0.50027314  0.16630918  0.16614024  1
  Sn  Sn29  1  0.16734262  0.83383103  0.49976736  1
  Sn  Sn30  1  0.83341921  0.16688565  0.49937576  1
  Sn  Sn31  1  0.50013915  0.16632213  0.83404965  1
  Sn  Sn32  1  0.83290454  0.49966914  0.16657274  1
  Sn  Sn33  1  0.50020214  0.83335257  0.16711820  1
  Sn  Sn34  1  0.83304640  0.83357529  0.83420676  1
  Sn  Sn35  1  0.16625711  0.16609920  0.49963044  1
  Sn  Sn36  1  0.50047137  0.50036544  0.49941751  1
  Sn  Sn37  1  0.83279081  0.83353606  0.16573607  1
  Sn  Sn38  1  0.49950972  0.83284811  0.49943540  1
  Sn  Sn39  1  0.50016789  0.50034823  0.16728704  1
  Sn  Sn40  1  0.83312415  0.16690042  0.16736045  1
  Pb  Pb41  1  0.83276554  0.50281110  0.83726418  1
  Pb  Pb42  1  0.16961623  0.49997642  0.49974601  1
  Pb  Pb43  1  0.83293804  0.83482635  0.49930197  1
  Pb  Pb44  1  0.16662444  0.16657800  0.16891419  1
  Pb  Pb45  1  0.16310845  0.83353162  0.82919834  1
  Pb  Pb46  1  0.16977921  0.16637815  0.82977702  1
  Pb  Pb47  1  0.16685329  0.83346374  0.16919602  1
  Pb  Pb48  1  0.83147274  0.16513264  0.83398215  1
  Pb  Pb49  1  0.50150084  0.83543276  0.83350289  1
  Pb  Pb50  1  0.16676436  0.50002602  0.83320773  1
  Pb  Pb51  1  0.16737732  0.50000346  0.16684037  1
  Pb  Pb52  1  0.50023047  0.49743242  0.83439036  1
  Pb  Pb53  1  0.83039781  0.49660514  0.49763072  1
  I  I54  1  0.16665701  0.00003166  0.16622067  1
  I  I55  1  0.17288955  0.00072797  0.49886791  1
  I  I56  1  0.16662277  -0.00006748  0.83551873  1
  I  I57  1  0.16748871  0.33315303  0.16985174  1
  I  I58  1  0.16877503  0.33018939  0.49890117  1
  I  I59  1  0.16606125  0.33273638  0.83176398  1
  I  I60  1  0.16581424  0.66685993  0.17000071  1
  I  I61  1  0.17013932  0.66971137  0.49927882  1
  I  I62  1  0.16836623  0.66732602  0.83197948  1
  I  I63  1  0.50658349  0.00021808  0.17094295  1
  I  I64  1  0.49928552  0.00079077  0.49778212  1
  I  I65  1  0.50207131  0.00312726  0.83137283  1
  I  I66  1  0.50624124  0.33251898  0.17085814  1
  I  I67  1  0.49972179  0.33180688  0.49740744  1
  I  I68  1  0.50151778  0.32940334  0.83090188  1
  I  I69  1  0.50741022  0.66722453  0.17585940  1
  I  I70  1  0.49541643  0.66754061  0.49241493  1
  I  I71  1  0.50053851  0.66690126  0.83210375  1
  I  I72  1  0.82644647  0.00027008  0.16775624  1
  I  I73  1  0.82845506  0.00292691  0.49532942  1
  I  I74  1  0.83107102  -0.00249084  0.83864560  1
  I  I75  1  0.82507256  0.33237186  0.17378146  1
  I  I76  1  0.83333761  0.32845778  0.49563265  1
  I  I77  1  0.83296611  0.33332350  0.83249744  1
  I  I78  1  0.82604065  0.66722772  0.16244750  1
  I  I79  1  0.83466021  0.66643977  0.50059992  1
  I  I80  1  0.83111624  0.67063064  0.83502960  1
  I  I81  1  0.16683874  0.16774008  -0.00016064  1
  I  I82  1  0.17191208  0.16298568  0.33703037  1
  I  I83  1  0.16657666  0.16157659  0.66156760  1
  I  I84  1  0.16916465  0.49993260  0.00027814  1
  I  I85  1  0.16399942  0.50021847  0.33358019  1
  I  I86  1  0.16769810  0.49982629  0.66591307  1
  I  I87  1  0.16929808  0.83203005  -0.00023430  1
  I  I88  1  0.16702098  0.83825684  0.33698174  1
  I  I89  1  0.17441736  0.83942908  0.66167747  1
  I  I90  1  0.50722074  0.16699689  0.00172597  1
  I  I91  1  0.50031142  0.16671537  0.33369861  1
  I  I92  1  0.49999772  0.16613672  0.66445818  1
  I  I93  1  0.50511393  0.49978248  0.00418785  1
  I  I94  1  0.50300981  0.49589449  0.33296331  1
  I  I95  1  0.49787652  0.49920037  0.66370316  1
  I  I96  1  0.50349421  0.83341597  0.00342662  1
  I  I97  1  0.50220077  0.83736965  0.33331081  1
  I  I98  1  0.49804828  0.83469900  0.66349815  1
  I  I99  1  0.82689949  0.16827726  0.00377431  1
  I  I100  1  0.82795250  0.16345027  0.33268484  1
  I  I101  1  0.83095339  0.16266348  0.66393506  1
  I  I102  1  0.82385187  0.49300692  0.00523632  1
  I  I103  1  0.83142725  0.50642638  0.32967469  1
  I  I104  1  0.83337224  0.50066307  0.66663090  1
  I  I105  1  0.82591936  0.83514869  0.00255605  1
  I  I106  1  0.83183371  0.83254038  0.33011335  1
  I  I107  1  0.83278454  0.83790893  0.66788275  1
  I  I108  1  -0.00361988  0.16606242  0.17194867  1
  I  I109  1  -0.00052112  0.15921686  0.49371326  1
  I  I110  1  -0.00002607  0.16597557  0.83309204  1
  I  I111  1  -0.00340254  0.50058557  0.16678470  1
  I  I112  1  -0.00036110  0.50057546  0.49910356  1
  I  I113  1  -0.00066477  0.49889502  0.83323874  1
  I  I114  1  -0.00346762  0.83369295  0.16406820  1
  I  I115  1  0.00184289  0.84027899  0.50022671  1
  I  I116  1  -0.00426828  0.83608553  0.84166032  1
  I  I117  1  0.33735865  0.16707385  0.16786303  1
  I  I118  1  0.33533932  0.16609883  0.49997222  1
  I  I119  1  0.33788353  0.16554425  0.83554929  1
  I  I120  1  0.33784837  0.49802531  0.17200011  1
  I  I121  1  0.33785375  0.49424873  0.49288322  1
  I  I122  1  0.33400751  0.50040557  0.83477128  1
  I  I123  1  0.33710598  0.83436405  0.16960627  1
  I  I124  1  0.33562138  0.83907215  0.49448222  1
  I  I125  1  0.33321055  0.83403255  0.83572473  1
  I  I126  1  0.66576462  0.16618379  0.17143257  1
  I  I127  1  0.66514711  0.16555780  0.49894051  1
  I  I128  1  0.66364228  0.16569103  0.82741960  1
  I  I129  1  0.66564208  0.49961577  0.17107727  1
  I  I130  1  0.66234159  0.50176202  0.49810281  1
  I  I131  1  0.66654104  0.49986394  0.82893306  1
  I  I132  1  0.66593984  0.83397991  0.16924381  1
  I  I133  1  0.66343067  0.83522383  0.49874711  1
  I  I134  1  0.66916925  0.83497988  0.83279348  1
