# generated using pymatgen
data_Cs27Sn14Pb13I81
_symmetry_space_group_name_H-M   'P 1'
_cell_length_a   18.96902404
_cell_length_b   18.97945226
_cell_length_c   18.98078987
_cell_angle_alpha   90.00117561
_cell_angle_beta   89.99990236
_cell_angle_gamma   89.99830151
_symmetry_Int_Tables_number   1
_chemical_formula_structural   Cs27Sn14Pb13I81
_chemical_formula_sum   'Cs27 Sn14 Pb13 I81'
_cell_volume   6833.49596914
_cell_formula_units_Z   1
loop_
 _symmetry_equiv_pos_site_id
 _symmetry_equiv_pos_as_xyz
  1  'x, y, z'
loop_
 _atom_site_type_symbol
 _atom_site_label
 _atom_site_symmetry_multiplicity
 _atom_site_fract_x
 _atom_site_fract_y
 _atom_site_fract_z
 _atom_site_occupancy
  Cs  Cs0  1  -0.00796394  0.00724008  -0.00583290  1
  Cs  Cs1  1  0.00374305  0.00270865  0.33124855  1
  Cs  Cs2  1  0.00719743  -0.00236388  0.67379449  1
  Cs  Cs3  1  0.00866209  0.32629071  0.00202507  1
  Cs  Cs4  1  -0.00073289  0.33391532  0.32974564  1
  Cs  Cs5  1  -0.00241291  0.33377386  0.66921922  1
  Cs  Cs6  1  0.00508782  0.66824782  -0.00322501  1
  Cs  Cs7  1  0.00021887  0.66524401  0.33591314  1
  Cs  Cs8  1  0.00123124  0.66912321  0.66537580  1
  Cs  Cs9  1  0.33618192  -0.00055302  0.00138286  1
  Cs  Cs10  1  0.33026541  -0.00011086  0.33616178  1
  Cs  Cs11  1  0.32850102  0.00018796  0.66312661  1
  Cs  Cs12  1  0.33035733  0.33434996  0.00098680  1
  Cs  Cs13  1  0.33285653  0.33030476  0.33239217  1
  Cs  Cs14  1  0.33595969  0.33017537  0.66708216  1
  Cs  Cs15  1  0.33321693  0.66566936  0.00141714  1
  Cs  Cs16  1  0.33295734  0.66806795  0.33174274  1
  Cs  Cs17  1  0.33354140  0.66733488  0.66718296  1
  Cs  Cs18  1  0.67154887  -0.00172064  0.00211431  1
  Cs  Cs19  1  0.66720632  -0.00190449  0.33126381  1
  Cs  Cs20  1  0.66604844  0.00100942  0.66694708  1
  Cs  Cs21  1  0.66507236  0.33353215  -0.00109104  1
  Cs  Cs22  1  0.66655841  0.33535631  0.33602286  1
  Cs  Cs23  1  0.66519539  0.33545666  0.66478011  1
  Cs  Cs24  1  0.66517789  0.66830956  0.00094323  1
  Cs  Cs25  1  0.66621007  0.66577014  0.33387606  1
  Cs  Cs26  1  0.66625923  0.66409266  0.66524814  1
  Sn  Sn27  1  0.16701995  0.49971422  0.50016533  1
  Sn  Sn28  1  0.83277076  0.83378044  0.49993947  1
  Sn  Sn29  1  0.50082225  0.50009160  0.83342139  1
  Sn  Sn30  1  0.50090792  0.83259898  0.50073197  1
  Sn  Sn31  1  0.50053884  0.16748533  0.16620067  1
  Sn  Sn32  1  0.50049503  0.16655317  0.83423171  1
  Sn  Sn33  1  0.50078677  0.49915294  0.16679037  1
  Sn  Sn34  1  0.83340418  0.16614627  0.50023032  1
  Sn  Sn35  1  0.83289637  0.50030263  0.16586336  1
  Sn  Sn36  1  0.49949107  0.50072057  0.49980599  1
  Sn  Sn37  1  0.83345880  0.50018297  0.50004070  1
  Sn  Sn38  1  0.50033837  0.83333910  0.83236530  1
  Sn  Sn39  1  0.16588595  0.83336575  0.16622864  1
  Sn  Sn40  1  0.83270087  0.49999594  0.83396828  1
  Pb  Pb41  1  0.83583232  0.83091079  0.16871295  1
  Pb  Pb42  1  0.16682278  0.50113743  0.16857681  1
  Pb  Pb43  1  0.16965405  0.16680958  0.83324560  1
  Pb  Pb44  1  0.49927145  0.83310967  0.16702669  1
  Pb  Pb45  1  0.50142223  0.16630884  0.49991989  1
  Pb  Pb46  1  0.16929929  0.83318898  0.83611047  1
  Pb  Pb47  1  0.16926411  0.16380552  0.16669450  1
  Pb  Pb48  1  0.16315371  0.16969716  0.50001604  1
  Pb  Pb49  1  0.83104349  0.83093201  0.83106632  1
  Pb  Pb50  1  0.16696539  0.50000344  0.83079159  1
  Pb  Pb51  1  0.83091530  0.16918996  0.16853714  1
  Pb  Pb52  1  0.16671554  0.83151532  0.49883946  1
  Pb  Pb53  1  0.83082659  0.16930791  0.83117422  1
  I  I54  1  0.17076156  -0.00350622  0.17103220  1
  I  I55  1  0.16795533  -0.00009684  0.49813826  1
  I  I56  1  0.16816155  -0.00017708  0.83175082  1
  I  I57  1  0.16543153  0.33331027  0.16808424  1
  I  I58  1  0.16994358  0.33785847  0.49845725  1
  I  I59  1  0.16852106  0.33373926  0.83327830  1
  I  I60  1  0.17084479  0.66844096  0.16886614  1
  I  I61  1  0.16324133  0.66362800  0.49869089  1
  I  I62  1  0.16949617  0.66648390  0.83364855  1
  I  I63  1  0.49670246  0.00208832  0.16428914  1
  I  I64  1  0.50456446  -0.00284036  0.50210112  1
  I  I65  1  0.49820806  -0.00018127  0.83307929  1
  I  I66  1  0.50303087  0.33528736  0.16509945  1
  I  I67  1  0.50140653  0.33662227  0.50181628  1
  I  I68  1  0.50389162  0.33485318  0.83251513  1
  I  I69  1  0.50198171  0.66344621  0.16562232  1
  I  I70  1  0.50394350  0.66516357  0.50189576  1
  I  I71  1  0.50319707  0.66541724  0.83232036  1
  I  I72  1  0.83260029  0.00008733  0.16990399  1
  I  I73  1  0.82466899  -0.00079707  0.49846767  1
  I  I74  1  0.83168408  0.00004332  0.83119457  1
  I  I75  1  0.83176347  0.33766979  0.17087986  1
  I  I76  1  0.83201023  0.33581095  0.49995371  1
  I  I77  1  0.82630841  0.33754571  0.82895824  1
  I  I78  1  0.82520909  0.66242656  0.17029298  1
  I  I79  1  0.83211417  0.66480022  0.49977035  1
  I  I80  1  0.82681128  0.66261490  0.83056319  1
  I  I81  1  0.16433505  0.16797594  0.00017227  1
  I  I82  1  0.17076203  0.16633218  0.33345652  1
  I  I83  1  0.17004128  0.16604106  0.66634135  1
  I  I84  1  0.16685608  0.50158972  0.00005295  1
  I  I85  1  0.16653002  0.50203905  0.33646690  1
  I  I86  1  0.16652267  0.50211207  0.66271672  1
  I  I87  1  0.17076279  0.82897152  0.00341541  1
  I  I88  1  0.17093560  0.83076981  0.33152611  1
  I  I89  1  0.16563826  0.83232277  0.66667704  1
  I  I90  1  0.49947494  0.17047203  -0.00027168  1
  I  I91  1  0.50174976  0.17079473  0.33123002  1
  I  I92  1  0.50241541  0.17029046  0.66893590  1
  I  I93  1  0.50643870  0.50030347  -0.00022356  1
  I  I94  1  0.50277262  0.50036982  0.33405083  1
  I  I95  1  0.50245560  0.50020836  0.66628096  1
  I  I96  1  0.49622291  0.83008571  -0.00230139  1
  I  I97  1  0.50204204  0.82939590  0.33630881  1
  I  I98  1  0.50345790  0.82902976  0.66577151  1
  I  I99  1  0.83433989  0.16753909  -0.00015299  1
  I  I100  1  0.82939992  0.17050311  0.33652144  1
  I  I101  1  0.82904037  0.17122150  0.66331319  1
  I  I102  1  0.82313616  0.50133315  -0.00000245  1
  I  I103  1  0.83015523  0.50001957  0.33476925  1
  I  I104  1  0.82984741  0.49957582  0.66532321  1
  I  I105  1  0.83281047  0.83136862  -0.00015619  1
  I  I106  1  0.82565361  0.82926036  0.33727050  1
  I  I107  1  0.83197337  0.82938892  0.66261317  1
  I  I108  1  -0.00033373  0.16810605  0.16900137  1
  I  I109  1  -0.00492294  0.16730813  0.49866135  1
  I  I110  1  -0.00066038  0.16821288  0.83199687  1
  I  I111  1  -0.00290094  0.50314933  0.16962884  1
  I  I112  1  -0.00195076  0.50057328  0.49917941  1
  I  I113  1  -0.00324727  0.50069702  0.83145809  1
  I  I114  1  0.00297853  0.82853281  0.17160058  1
  I  I115  1  -0.00288889  0.82977426  0.49675937  1
  I  I116  1  -0.00033707  0.83084249  0.83180786  1
  I  I117  1  0.33765215  0.17469612  0.16427293  1
  I  I118  1  0.33350812  0.16685696  0.50011547  1
  I  I119  1  0.33860202  0.17117229  0.83507688  1
  I  I120  1  0.33695274  0.49830480  0.16687429  1
  I  I121  1  0.33530659  0.50551423  0.49967304  1
  I  I122  1  0.33757188  0.50004526  0.83348506  1
  I  I123  1  0.33208589  0.83047749  0.16935324  1
  I  I124  1  0.33666318  0.82844219  0.50218090  1
  I  I125  1  0.33818678  0.82981361  0.82604782  1
  I  I126  1  0.66282520  0.16715928  0.16305445  1
  I  I127  1  0.66905913  0.17302617  0.50014662  1
  I  I128  1  0.66260977  0.16559273  0.83664322  1
  I  I129  1  0.66541301  0.49748466  0.17179733  1
  I  I130  1  0.66660554  0.50047925  0.49998425  1
  I  I131  1  0.66509572  0.49985818  0.82839514  1
  I  I132  1  0.66670490  0.83483636  0.16579648  1
  I  I133  1  0.66580488  0.82699031  0.50233423  1
  I  I134  1  0.66254390  0.83414600  0.83336008  1
