# generated using pymatgen
data_Cs27Sn14Pb13I81
_symmetry_space_group_name_H-M   'P 1'
_cell_length_a   18.95987952
_cell_length_b   18.97587780
_cell_length_c   18.99004535
_cell_angle_alpha   89.99987505
_cell_angle_beta   89.99955665
_cell_angle_gamma   90.00013487
_symmetry_Int_Tables_number   1
_chemical_formula_structural   Cs27Sn14Pb13I81
_chemical_formula_sum   'Cs27 Sn14 Pb13 I81'
_cell_volume   6832.24529162
_cell_formula_units_Z   1
loop_
 _symmetry_equiv_pos_site_id
 _symmetry_equiv_pos_as_xyz
  1  'x, y, z'
loop_
 _atom_site_type_symbol
 _atom_site_label
 _atom_site_symmetry_multiplicity
 _atom_site_fract_x
 _atom_site_fract_y
 _atom_site_fract_z
 _atom_site_occupancy
  Cs  Cs0  1  0.00025467  0.00229551  0.00120394  1
  Cs  Cs1  1  -0.00000009  0.00182752  0.33269349  1
  Cs  Cs2  1  0.00156352  0.00053252  0.66667084  1
  Cs  Cs3  1  -0.00031600  0.32968901  0.00230838  1
  Cs  Cs4  1  -0.00049152  0.33052743  0.33135670  1
  Cs  Cs5  1  -0.00157885  0.32882529  0.66613965  1
  Cs  Cs6  1  -0.00075224  0.66650761  -0.00035709  1
  Cs  Cs7  1  -0.00196887  0.66612208  0.33401223  1
  Cs  Cs8  1  0.00275149  0.66833168  0.66669770  1
  Cs  Cs9  1  0.33175905  0.00005870  0.00360138  1
  Cs  Cs10  1  0.33362903  0.00142832  0.33125878  1
  Cs  Cs11  1  0.32993390  -0.00155253  0.66554625  1
  Cs  Cs12  1  0.33866235  0.34231273  -0.00169526  1
  Cs  Cs13  1  0.34061104  0.33930590  0.33524112  1
  Cs  Cs14  1  0.34361509  0.33968985  0.66634509  1
  Cs  Cs15  1  0.33416629  0.65761740  -0.00063526  1
  Cs  Cs16  1  0.33312643  0.65734353  0.33287299  1
  Cs  Cs17  1  0.32522685  0.66290690  0.66788073  1
  Cs  Cs18  1  0.66453932  -0.00164901  -0.00164723  1
  Cs  Cs19  1  0.66567391  -0.00228280  0.33358280  1
  Cs  Cs20  1  0.66724371  -0.00100188  0.66750230  1
  Cs  Cs21  1  0.66329859  0.33120756  -0.00576824  1
  Cs  Cs22  1  0.66551957  0.33283619  0.33608008  1
  Cs  Cs23  1  0.66158096  0.33195086  0.66855377  1
  Cs  Cs24  1  0.66799879  0.67036131  0.00000991  1
  Cs  Cs25  1  0.66932828  0.67047825  0.33269984  1
  Cs  Cs26  1  0.66889790  0.67000499  0.66719465  1
  Sn  Sn27  1  0.83377750  0.16647606  0.49930630  1
  Sn  Sn28  1  0.16644687  0.16684317  0.49966175  1
  Sn  Sn29  1  0.49983808  0.83374581  0.83223058  1
  Sn  Sn30  1  0.83357701  0.49959065  0.16642823  1
  Sn  Sn31  1  0.83390908  0.50059794  0.83316351  1
  Sn  Sn32  1  0.16591162  0.83346447  0.16683771  1
  Sn  Sn33  1  0.83310444  0.16649005  0.16735528  1
  Sn  Sn34  1  0.83441183  0.83381675  0.16659652  1
  Sn  Sn35  1  0.16638880  0.16626059  0.16687848  1
  Sn  Sn36  1  0.16708422  0.16704802  0.83351441  1
  Sn  Sn37  1  0.83316014  0.83365105  0.50014250  1
  Sn  Sn38  1  0.83326476  0.83284484  0.83325772  1
  Sn  Sn39  1  0.83369336  0.49984681  0.50034871  1
  Sn  Sn40  1  0.49995751  0.83349791  0.50095675  1
  Pb  Pb41  1  0.16365424  0.49690868  0.83316830  1
  Pb  Pb42  1  0.16392570  0.49655056  0.50003527  1
  Pb  Pb43  1  0.16653224  0.83463232  0.83577619  1
  Pb  Pb44  1  0.16652379  0.83486603  0.49746730  1
  Pb  Pb45  1  0.50395927  0.50014046  0.16674476  1
  Pb  Pb46  1  0.49641786  0.16366892  0.83331518  1
  Pb  Pb47  1  0.49998565  0.16661011  0.16666984  1
  Pb  Pb48  1  0.49959948  0.83331900  0.16676926  1
  Pb  Pb49  1  0.16435641  0.49934813  0.16675396  1
  Pb  Pb50  1  0.83423093  0.16620790  0.83331006  1
  Pb  Pb51  1  0.50316819  0.50368295  0.50011040  1
  Pb  Pb52  1  0.50307171  0.50338984  0.83310266  1
  Pb  Pb53  1  0.50033987  0.16418709  0.49996609  1
  I  I54  1  0.15805474  0.00076744  0.16636146  1
  I  I55  1  0.15971786  0.00303307  0.50152822  1
  I  I56  1  0.16253221  0.00261980  0.83200161  1
  I  I57  1  0.16017938  0.32948416  0.16668777  1
  I  I58  1  0.15951148  0.32820818  0.49642266  1
  I  I59  1  0.16218551  0.32884623  0.83687321  1
  I  I60  1  0.16200808  0.66940438  0.16611458  1
  I  I61  1  0.16667140  0.66670739  0.49884376  1
  I  I62  1  0.16880827  0.66670856  0.83518457  1
  I  I63  1  0.50497581  -0.00029512  0.16640294  1
  I  I64  1  0.50816925  -0.00346817  0.50311725  1
  I  I65  1  0.51041062  -0.00391620  0.83030875  1
  I  I66  1  0.49937494  0.33338540  0.16638685  1
  I  I67  1  0.49998739  0.33355411  0.49950215  1
  I  I68  1  0.50038709  0.33361525  0.83417463  1
  I  I69  1  0.49866188  0.66705884  0.16681405  1
  I  I70  1  0.50642633  0.67144148  0.50247694  1
  I  I71  1  0.50171875  0.67112856  0.83027148  1
  I  I72  1  0.83705500  -0.00032706  0.16903997  1
  I  I73  1  0.83321067  -0.00032428  0.49782204  1
  I  I74  1  0.83124631  -0.00310918  0.83330303  1
  I  I75  1  0.83784993  0.33253533  0.16942206  1
  I  I76  1  0.83960322  0.33268702  0.49683015  1
  I  I77  1  0.83741166  0.33551027  0.83396311  1
  I  I78  1  0.83628534  0.66767656  0.16880191  1
  I  I79  1  0.82807741  0.66745359  0.49721344  1
  I  I80  1  0.82961108  0.66786320  0.83415742  1
  I  I81  1  0.15983708  0.16107110  0.00137601  1
  I  I82  1  0.15944290  0.16093094  0.33283236  1
  I  I83  1  0.15932533  0.16523180  0.66582943  1
  I  I84  1  0.16375074  0.49860668  0.00005855  1
  I  I85  1  0.16453930  0.50034681  0.33332510  1
  I  I86  1  0.16261474  0.50006534  0.66659121  1
  I  I87  1  0.16085686  0.84057580  0.00348413  1
  I  I88  1  0.16109735  0.83961093  0.32976530  1
  I  I89  1  0.16419606  0.83646407  0.66655679  1
  I  I90  1  0.50265296  0.16327078  -0.00008309  1
  I  I91  1  0.49735054  0.16334355  0.33344520  1
  I  I92  1  0.50127956  0.16720516  0.66660027  1
  I  I93  1  0.50148255  0.50205910  -0.00026356  1
  I  I94  1  0.50079050  0.50183132  0.33362419  1
  I  I95  1  0.50274205  0.49701140  0.66660544  1
  I  I96  1  0.50552898  0.83408908  -0.00260785  1
  I  I97  1  0.50601241  0.83460868  0.33604491  1
  I  I98  1  0.51093341  0.83497336  0.66651539  1
  I  I99  1  0.83782150  0.16650480  0.00274688  1
  I  I100  1  0.83995326  0.16617070  0.33335376  1
  I  I101  1  0.83788427  0.16600982  0.66394164  1
  I  I102  1  0.83416285  0.50353413  0.00038559  1
  I  I103  1  0.83381942  0.50273956  0.33332273  1
  I  I104  1  0.83387857  0.50288569  0.66632941  1
  I  I105  1  0.83297259  0.83099302  0.00029150  1
  I  I106  1  0.83279011  0.83164225  0.33337972  1
  I  I107  1  0.82882179  0.83152507  0.66639428  1
  I  I108  1  -0.00118704  0.16549040  0.16738390  1
  I  I109  1  -0.00163086  0.16435720  0.49908406  1
  I  I110  1  0.00205147  0.16408845  0.83363624  1
  I  I111  1  -0.00446582  0.50047523  0.16716103  1
  I  I112  1  -0.00488034  0.50683539  0.49915666  1
  I  I113  1  -0.00464461  0.50869415  0.83364353  1
  I  I114  1  -0.00254675  0.83456395  0.16642914  1
  I  I115  1  -0.00377015  0.83150882  0.50267408  1
  I  I116  1  -0.00347193  0.83045849  0.83066888  1
  I  I117  1  0.32931972  0.15842942  0.16760425  1
  I  I118  1  0.33023456  0.16233548  0.49851458  1
  I  I119  1  0.32839841  0.16302188  0.83418777  1
  I  I120  1  0.33324151  0.50067017  0.16608327  1
  I  I121  1  0.33352007  0.49988187  0.49980237  1
  I  I122  1  0.33347352  0.50023556  0.83399028  1
  I  I123  1  0.33012059  0.84153408  0.16674193  1
  I  I124  1  0.33559154  0.83772748  0.50363761  1
  I  I125  1  0.33566629  0.83840906  0.82940051  1
  I  I126  1  0.67112976  0.16539675  0.17184675  1
  I  I127  1  0.67067083  0.16865730  0.49510950  1
  I  I128  1  0.66669454  0.16919866  0.83350591  1
  I  I129  1  0.67270441  0.50198724  0.16737566  1
  I  I130  1  0.67187012  0.49369480  0.49918890  1
  I  I131  1  0.67148386  0.49889371  0.83398027  1
  I  I132  1  0.67047372  0.83327174  0.16686723  1
  I  I133  1  0.66965668  0.83498534  0.49826981  1
  I  I134  1  0.66906286  0.83028660  0.83496736  1
