# generated using pymatgen
data_Cs27Sn14Pb13I81
_symmetry_space_group_name_H-M   'P 1'
_cell_length_a   18.98117586
_cell_length_b   18.97140866
_cell_length_c   18.97140866
_cell_angle_alpha   89.99757809
_cell_angle_beta   89.99996480
_cell_angle_gamma   90.00003505
_symmetry_Int_Tables_number   1
_chemical_formula_structural   Cs27Sn14Pb13I81
_chemical_formula_sum   'Cs27 Sn14 Pb13 I81'
_cell_volume   6831.59750321
_cell_formula_units_Z   1
loop_
 _symmetry_equiv_pos_site_id
 _symmetry_equiv_pos_as_xyz
  1  'x, y, z'
loop_
 _atom_site_type_symbol
 _atom_site_label
 _atom_site_symmetry_multiplicity
 _atom_site_fract_x
 _atom_site_fract_y
 _atom_site_fract_z
 _atom_site_occupancy
  Cs  Cs0  1  0.00102198  -0.00106331  -0.00231706  1
  Cs  Cs1  1  -0.00000004  0.00167721  0.33501060  1
  Cs  Cs2  1  -0.01055348  -0.00130186  0.66783056  1
  Cs  Cs3  1  0.00317291  0.33668015  0.00233976  1
  Cs  Cs4  1  0.01055326  0.33449711  0.33203118  1
  Cs  Cs5  1  -0.00000010  0.33246875  0.66580229  1
  Cs  Cs6  1  0.00000008  0.66449195  -0.00217472  1
  Cs  Cs7  1  -0.00102201  0.66434930  0.33227013  1
  Cs  Cs8  1  -0.00317289  0.66900637  0.67001355  1
  Cs  Cs9  1  0.33403719  -0.00153379  0.00100120  1
  Cs  Cs10  1  0.33179239  -0.00248406  0.33139597  1
  Cs  Cs11  1  0.33427436  0.00052372  0.66724522  1
  Cs  Cs12  1  0.33176466  0.33206994  -0.00124757  1
  Cs  Cs13  1  0.32466892  0.33247329  0.34247341  1
  Cs  Cs14  1  0.33411895  0.33233500  0.66126870  1
  Cs  Cs15  1  0.33659556  0.66912522  -0.00197200  1
  Cs  Cs16  1  0.33437674  0.66891230  0.33617024  1
  Cs  Cs17  1  0.33266627  0.66595598  0.66697247  1
  Cs  Cs18  1  0.66562321  0.00283690  0.00224573  1
  Cs  Cs19  1  0.66820748  -0.00193741  0.33084920  1
  Cs  Cs20  1  0.67533107  0.00914030  0.66580650  1
  Cs  Cs21  1  0.66733360  0.33363934  -0.00071073  1
  Cs  Cs22  1  0.66572561  0.33391189  0.33385703  1
  Cs  Cs23  1  0.66588114  0.32793524  0.66566841  1
  Cs  Cs24  1  0.66340451  0.66469461  0.00245827  1
  Cs  Cs25  1  0.66596292  0.66766786  0.33179972  1
  Cs  Cs26  1  0.66823533  0.66541923  0.66540314  1
  Sn  Sn27  1  0.83313273  0.49995451  0.50037452  1
  Sn  Sn28  1  0.83309106  0.16642147  0.16660086  1
  Sn  Sn29  1  0.16653537  0.83289108  0.16724647  1
  Sn  Sn30  1  0.50000004  0.50039229  0.83372557  1
  Sn  Sn31  1  0.50006558  0.16728509  0.16679734  1
  Sn  Sn32  1  0.49942309  0.49928252  0.16668107  1
  Sn  Sn33  1  0.16690887  0.83326755  0.49975478  1
  Sn  Sn34  1  0.83263494  0.50004799  0.83243846  1
  Sn  Sn35  1  0.49993441  0.83346400  0.50061842  1
  Sn  Sn36  1  0.16686729  0.16704118  0.83328782  1
  Sn  Sn37  1  0.16736511  0.49910514  0.83338135  1
  Sn  Sn38  1  0.83346460  0.83391309  0.16622441  1
  Sn  Sn39  1  0.50057695  0.83334770  0.83261581  1
  Sn  Sn40  1  0.49999998  0.83323372  0.16656710  1
  Pb  Pb41  1  0.16689874  0.16443307  0.16525985  1
  Pb  Pb42  1  0.16449967  0.50267657  0.50287073  1
  Pb  Pb43  1  0.50134080  0.50177843  0.50033419  1
  Pb  Pb44  1  0.83550035  0.16953742  0.83600999  1
  Pb  Pb45  1  0.49865918  0.16700081  0.83511178  1
  Pb  Pb46  1  0.50000000  0.16339979  0.49673311  1
  Pb  Pb47  1  0.17005027  0.50267537  0.16479535  1
  Pb  Pb48  1  0.83163776  0.49966086  0.16652342  1
  Pb  Pb49  1  0.16836222  0.83319013  0.83299416  1
  Pb  Pb50  1  0.16652844  0.16324773  0.50317857  1
  Pb  Pb51  1  0.83347160  0.16984524  0.49658101  1
  Pb  Pb52  1  0.82994971  0.83146203  0.83600869  1
  Pb  Pb53  1  0.83310128  0.83192656  0.49776641  1
  I  I54  1  0.17178433  -0.00371601  0.16645290  1
  I  I55  1  0.17135008  -0.00451158  0.49632817  1
  I  I56  1  0.17023921  0.00153508  0.83533474  1
  I  I57  1  0.16578676  0.33359168  0.16653610  1
  I  I58  1  0.16511617  0.33352862  0.49828585  1
  I  I59  1  0.16820217  0.33469061  0.83604849  1
  I  I60  1  0.16556701  0.67082349  0.16762801  1
  I  I61  1  0.17148697  0.67025778  0.49689539  1
  I  I62  1  0.16549586  0.66415241  0.83401403  1
  I  I63  1  0.50063858  -0.00172381  0.16625148  1
  I  I64  1  0.49641396  -0.00509002  0.50075981  1
  I  I65  1  0.49533271  -0.00276554  0.83600156  1
  I  I66  1  0.50774034  0.33376391  0.15887902  1
  I  I67  1  0.50160930  0.33332763  0.49945109  1
  I  I68  1  0.50176824  0.33673236  0.83940146  1
  I  I69  1  0.50066536  0.66801334  0.16514834  1
  I  I70  1  0.49730448  0.67001640  0.49464175  1
  I  I71  1  0.49771357  0.66632295  0.83932321  1
  I  I72  1  0.82743666  -0.00117136  0.16694407  1
  I  I73  1  0.83353707  -0.00005463  0.50094285  1
  I  I74  1  0.83464338  0.00001532  0.83239180  1
  I  I75  1  0.82692643  0.33114357  0.16540721  1
  I  I76  1  0.83136020  0.33745268  0.50400294  1
  I  I77  1  0.82720946  0.33757244  0.83230270  1
  I  I78  1  0.83167943  0.66906866  0.16672421  1
  I  I79  1  0.83305649  0.66423651  0.50196857  1
  I  I80  1  0.83893760  0.66339022  0.83262187  1
  I  I81  1  0.16694310  0.16863571  -0.00243020  1
  I  I82  1  0.16646257  0.16760903  0.33327866  1
  I  I83  1  0.16864046  0.17066949  0.67078603  1
  I  I84  1  0.16106229  0.49928813  -0.00327645  1
  I  I85  1  0.16535640  0.49905878  0.33334862  1
  I  I86  1  0.17279087  0.49896955  0.67090577  1
  I  I87  1  0.16832063  0.83339055  0.00240192  1
  I  I88  1  0.17256367  0.83361099  0.33216198  1
  I  I89  1  0.17307344  0.83207373  0.66447688  1
  I  I90  1  0.50269550  0.16130855  0.00334972  1
  I  I91  1  0.50358645  0.16742633  0.32824334  1
  I  I92  1  0.49839043  0.16611762  0.66666099  1
  I  I93  1  0.50228640  0.50598944  -0.00034370  1
  I  I94  1  0.50466759  0.50266822  0.33056775  1
  I  I95  1  0.49823148  0.50606848  0.67006571  1
  I  I96  1  0.49933474  0.83181522  0.00134671  1
  I  I97  1  0.49936123  0.83291821  0.33160953  1
  I  I98  1  0.49225962  0.82554539  0.66709723  1
  I  I99  1  0.82851322  0.16356208  0.00359111  1
  I  I100  1  0.82865004  0.16299478  0.32882173  1
  I  I101  1  0.83488358  0.16495277  0.66686190  1
  I  I102  1  0.83450408  0.50068059  -0.00251426  1
  I  I103  1  0.82976081  0.50200113  0.33486842  1
  I  I104  1  0.83179791  0.50271551  0.66802397  1
  I  I105  1  0.83443277  0.83429464  0.00415682  1
  I  I106  1  0.82821574  0.83312010  0.32961731  1
  I  I107  1  0.83421340  0.83320227  0.66692501  1
  I  I108  1  -0.00232403  0.16195321  0.16467242  1
  I  I109  1  -0.00000001  0.16431291  0.49764694  1
  I  I110  1  0.00314760  0.16985235  0.83630009  1
  I  I111  1  0.00024098  0.50080184  0.16550241  1
  I  I112  1  -0.00314758  0.50296736  0.50318578  1
  I  I113  1  -0.00000002  0.49617534  0.82950866  1
  I  I114  1  -0.00000002  0.83784254  0.17117575  1
  I  I115  1  0.00232405  0.83133902  0.49528625  1
  I  I116  1  -0.00024096  0.83216917  0.83413532  1
  I  I117  1  0.33610337  0.16427418  0.16349984  1
  I  I118  1  0.33327622  0.17011820  0.49778447  1
  I  I119  1  0.33098659  0.17086361  0.83715166  1
  I  I120  1  0.33809546  0.50063642  0.16096204  1
  I  I121  1  0.33320131  0.49982510  0.49972922  1
  I  I122  1  0.33437582  0.50161721  0.83989494  1
  I  I123  1  0.33499063  0.83328213  0.16660656  1
  I  I124  1  0.33430910  0.83192453  0.49414988  1
  I  I125  1  0.33638944  0.82781055  0.83919329  1
  I  I126  1  0.66569092  0.16081629  0.16525777  1
  I  I127  1  0.66672382  0.16445166  0.50345171  1
  I  I128  1  0.66679875  0.16639628  0.83315844  1
  I  I129  1  0.66361057  0.50585993  0.16114359  1
  I  I130  1  0.66901339  0.50381798  0.50419705  1
  I  I131  1  0.66562413  0.50656132  0.83495050  1
  I  I132  1  0.66500936  0.83327351  0.16661572  1
  I  I133  1  0.66389669  0.83016639  0.49760744  1
  I  I134  1  0.66190454  0.82762840  0.83396964  1
