# generated using pymatgen
data_Cs27Sn14Pb13I81
_symmetry_space_group_name_H-M   'P 1'
_cell_length_a   18.95994896
_cell_length_b   18.95972866
_cell_length_c   18.96358375
_cell_angle_alpha   90.00076927
_cell_angle_beta   90.00131297
_cell_angle_gamma   89.99906752
_symmetry_Int_Tables_number   1
_chemical_formula_structural   Cs27Sn14Pb13I81
_chemical_formula_sum   'Cs27 Sn14 Pb13 I81'
_cell_volume   6816.94351266
_cell_formula_units_Z   1
loop_
 _symmetry_equiv_pos_site_id
 _symmetry_equiv_pos_as_xyz
  1  'x, y, z'
loop_
 _atom_site_type_symbol
 _atom_site_label
 _atom_site_symmetry_multiplicity
 _atom_site_fract_x
 _atom_site_fract_y
 _atom_site_fract_z
 _atom_site_occupancy
  Cs  Cs0  1  0.00168788  0.00014196  0.00243735  1
  Cs  Cs1  1  0.00078513  -0.00180995  0.33207847  1
  Cs  Cs2  1  0.00231303  0.00263886  0.66592941  1
  Cs  Cs3  1  -0.00064884  0.33802783  -0.00029432  1
  Cs  Cs4  1  -0.00115942  0.33306926  0.33654088  1
  Cs  Cs5  1  0.00021254  0.33233525  0.66621492  1
  Cs  Cs6  1  -0.00638977  0.66006400  0.00701835  1
  Cs  Cs7  1  -0.00194724  0.66973540  0.32881626  1
  Cs  Cs8  1  0.00113705  0.66606256  0.66728764  1
  Cs  Cs9  1  0.33247343  0.00081891  0.00078128  1
  Cs  Cs10  1  0.33469059  0.00256011  0.33058045  1
  Cs  Cs11  1  0.33190678  -0.00153942  0.66668648  1
  Cs  Cs12  1  0.33366196  0.33369905  0.00021184  1
  Cs  Cs13  1  0.33543857  0.33200129  0.33249637  1
  Cs  Cs14  1  0.33234741  0.33397255  0.66644768  1
  Cs  Cs15  1  0.33395706  0.66535883  0.00184075  1
  Cs  Cs16  1  0.33350048  0.66529811  0.33208240  1
  Cs  Cs17  1  0.33263374  0.66739617  0.66682777  1
  Cs  Cs18  1  0.66707196  -0.00020749  -0.00344281  1
  Cs  Cs19  1  0.66511813  0.00004597  0.33610517  1
  Cs  Cs20  1  0.66530923  -0.00574133  0.66693672  1
  Cs  Cs21  1  0.66650958  0.33291547  -0.00045273  1
  Cs  Cs22  1  0.66526679  0.33243111  0.33408681  1
  Cs  Cs23  1  0.66738629  0.33269298  0.66607073  1
  Cs  Cs24  1  0.66942080  0.66870921  -0.00024840  1
  Cs  Cs25  1  0.66723432  0.66764045  0.33276261  1
  Cs  Cs26  1  0.66636146  0.67437820  0.66815066  1
  Sn  Sn27  1  0.49999111  0.49958308  0.83290861  1
  Sn  Sn28  1  0.16665727  0.16613002  0.83269028  1
  Sn  Sn29  1  0.83313008  0.49975051  0.50040542  1
  Sn  Sn30  1  0.49978408  0.16717988  0.83279967  1
  Sn  Sn31  1  0.16626867  0.83330826  0.83343211  1
  Sn  Sn32  1  0.50008690  0.50071325  0.16662845  1
  Sn  Sn33  1  0.49989565  0.83305188  0.16662070  1
  Sn  Sn34  1  0.50034563  0.49988252  0.50044219  1
  Sn  Sn35  1  0.83381690  0.16716923  0.50012769  1
  Sn  Sn36  1  0.83365705  0.16676443  0.83314632  1
  Sn  Sn37  1  0.16679610  0.83354494  0.50054830  1
  Sn  Sn38  1  0.16625815  0.16653602  0.50057054  1
  Sn  Sn39  1  0.16640040  0.50010449  0.50008265  1
  Sn  Sn40  1  0.83349317  0.16675281  0.16689476  1
  Pb  Pb41  1  0.49746999  0.83064713  0.49819035  1
  Pb  Pb42  1  0.83590433  0.83363352  0.50013297  1
  Pb  Pb43  1  0.50196041  0.16698894  0.16422011  1
  Pb  Pb44  1  0.83088420  0.49816084  0.83093298  1
  Pb  Pb45  1  0.16864496  0.49975064  0.16955876  1
  Pb  Pb46  1  0.83071943  0.83589503  0.16667295  1
  Pb  Pb47  1  0.16826742  0.83330937  0.16619975  1
  Pb  Pb48  1  0.16821012  0.49985202  0.83176991  1
  Pb  Pb49  1  0.49787808  0.83320353  0.83498464  1
  Pb  Pb50  1  0.16439109  0.16690447  0.16651088  1
  Pb  Pb51  1  0.83692374  0.83574133  0.83339167  1
  Pb  Pb52  1  0.49991726  0.16814330  0.50215713  1
  Pb  Pb53  1  0.83080784  0.49791566  0.16911643  1
  I  I54  1  0.17004721  0.00020666  0.17122143  1
  I  I55  1  0.16180742  0.00122928  0.50411497  1
  I  I56  1  0.16862458  0.00173634  0.82543545  1
  I  I57  1  0.17017981  0.33321155  0.16621167  1
  I  I58  1  0.16602409  0.33284102  0.50358613  1
  I  I59  1  0.16564191  0.33005923  0.82909521  1
  I  I60  1  0.16566760  0.66654888  0.16655246  1
  I  I61  1  0.16884258  0.66619100  0.50411471  1
  I  I62  1  0.17182937  0.66886064  0.82717457  1
  I  I63  1  0.50080497  -0.00186718  0.16483902  1
  I  I64  1  0.50026990  -0.00004659  0.49899252  1
  I  I65  1  0.50172596  0.00292600  0.83555876  1
  I  I66  1  0.50123564  0.33615637  0.16889997  1
  I  I67  1  0.49589752  0.33661297  0.49572113  1
  I  I68  1  0.49787854  0.33304434  0.83487071  1
  I  I69  1  0.49839393  0.66520537  0.16604829  1
  I  I70  1  0.50053026  0.66206364  0.50471373  1
  I  I71  1  0.49724469  0.66376418  0.83109975  1
  I  I72  1  0.83149801  0.00414333  0.16926773  1
  I  I73  1  0.83736780  0.00385423  0.50026290  1
  I  I74  1  0.82671064  0.00486258  0.82972137  1
  I  I75  1  0.83101365  0.32994782  0.16478719  1
  I  I76  1  0.83747430  0.33244190  0.50009515  1
  I  I77  1  0.83808227  0.32930312  0.83461887  1
  I  I78  1  0.83426597  0.66631908  0.16841032  1
  I  I79  1  0.83297663  0.66348929  0.49911918  1
  I  I80  1  0.83243972  0.66644885  0.83211314  1
  I  I81  1  0.16700187  0.16126813  -0.00364318  1
  I  I82  1  0.16314169  0.16649284  0.33703261  1
  I  I83  1  0.16306868  0.16664966  0.66623744  1
  I  I84  1  0.16935199  0.49982726  -0.00017233  1
  I  I85  1  0.16870401  0.49917962  0.33846864  1
  I  I86  1  0.16947628  0.49898706  0.66303192  1
  I  I87  1  0.16969540  0.84127087  -0.00316198  1
  I  I88  1  0.16780776  0.83374316  0.33659348  1
  I  I89  1  0.16841962  0.83519856  0.66590068  1
  I  I90  1  0.49918961  0.17148153  -0.00393395  1
  I  I91  1  0.50006325  0.16750696  0.33343763  1
  I  I92  1  0.50268035  0.17164025  0.67035731  1
  I  I93  1  0.49893160  0.49886271  -0.00042144  1
  I  I94  1  0.49932303  0.50405076  0.33414631  1
  I  I95  1  0.49878304  0.49369267  0.66620430  1
  I  I96  1  0.49731662  0.82850315  0.00258027  1
  I  I97  1  0.49806233  0.82938074  0.33043740  1
  I  I98  1  0.50056200  0.83271750  0.66669509  1
  I  I99  1  0.83169177  0.16479741  -0.00115218  1
  I  I100  1  0.83706248  0.17067998  0.33495992  1
  I  I101  1  0.83522295  0.17153154  0.66624580  1
  I  I102  1  0.83182280  0.49785438  -0.00005189  1
  I  I103  1  0.83237105  0.49353526  0.33735857  1
  I  I104  1  0.83258145  0.49340782  0.66260140  1
  I  I105  1  0.83531204  0.83544359  -0.00005594  1
  I  I106  1  0.83540705  0.83609593  0.33356535  1
  I  I107  1  0.82857723  0.83434629  0.66663464  1
  I  I108  1  -0.00360145  0.16645565  0.16386742  1
  I  I109  1  0.00033062  0.17125453  0.50380053  1
  I  I110  1  0.00033941  0.16158079  0.83154743  1
  I  I111  1  -0.00052456  0.49934535  0.16717614  1
  I  I112  1  0.00040261  0.49751545  0.50098283  1
  I  I113  1  -0.00007585  0.49948855  0.83174770  1
  I  I114  1  -0.00005539  0.83478493  0.16719959  1
  I  I115  1  0.00417541  0.82992382  0.50317661  1
  I  I116  1  0.00488704  0.83876125  0.82778150  1
  I  I117  1  0.33370952  0.16663167  0.16696958  1
  I  I118  1  0.33029425  0.16754557  0.50424960  1
  I  I119  1  0.33268184  0.16689814  0.82901315  1
  I  I120  1  0.33730871  0.50180430  0.16864338  1
  I  I121  1  0.33331184  0.49967208  0.49989133  1
  I  I122  1  0.33664997  0.49441337  0.83105567  1
  I  I123  1  0.33627330  0.83003595  0.16721365  1
  I  I124  1  0.32930538  0.83503685  0.50349719  1
  I  I125  1  0.33018273  0.83965803  0.82903403  1
  I  I126  1  0.66978765  0.16749506  0.16855667  1
  I  I127  1  0.66946547  0.17206933  0.50013938  1
  I  I128  1  0.66675537  0.17258931  0.83404093  1
  I  I129  1  0.66262040  0.50236424  0.16875452  1
  I  I130  1  0.66647862  0.49301014  0.49895141  1
  I  I131  1  0.66249918  0.49418024  0.83166650  1
  I  I132  1  0.66287861  0.82818202  0.16625625  1
  I  I133  1  0.66646470  0.83368726  0.49823384  1
  I  I134  1  0.66651272  0.83460413  0.83492204  1
