# generated using pymatgen
data_Cs27Sn14Pb13I81
_symmetry_space_group_name_H-M   'P 1'
_cell_length_a   19.05221579
_cell_length_b   19.06474471
_cell_length_c   19.06567411
_cell_angle_alpha   89.99808178
_cell_angle_beta   89.99827201
_cell_angle_gamma   89.99814383
_symmetry_Int_Tables_number   1
_chemical_formula_structural   Cs27Sn14Pb13I81
_chemical_formula_sum   'Cs27 Sn14 Pb13 I81'
_cell_volume   6925.14148432
_cell_formula_units_Z   1
loop_
 _symmetry_equiv_pos_site_id
 _symmetry_equiv_pos_as_xyz
  1  'x, y, z'
loop_
 _atom_site_type_symbol
 _atom_site_label
 _atom_site_symmetry_multiplicity
 _atom_site_fract_x
 _atom_site_fract_y
 _atom_site_fract_z
 _atom_site_occupancy
  Cs  Cs0  1  -0.00811128  0.00370679  0.00809595  1
  Cs  Cs1  1  -0.00215545  0.00481068  0.33006088  1
  Cs  Cs2  1  0.00330688  -0.00300054  0.66391833  1
  Cs  Cs3  1  -0.00422423  0.33147682  0.00338796  1
  Cs  Cs4  1  0.00003844  0.33528158  0.33787677  1
  Cs  Cs5  1  0.00095229  0.33569434  0.66071991  1
  Cs  Cs6  1  0.00176267  0.66537571  -0.00335674  1
  Cs  Cs7  1  0.00218775  0.66243941  0.33523040  1
  Cs  Cs8  1  0.00099381  0.66631120  0.66756303  1
  Cs  Cs9  1  0.33037710  0.00216882  -0.00583672  1
  Cs  Cs10  1  0.34269769  0.00273305  0.33208585  1
  Cs  Cs11  1  0.33453001  -0.00019344  0.66928325  1
  Cs  Cs12  1  0.33585413  0.33254546  0.00319442  1
  Cs  Cs13  1  0.33682100  0.33522399  0.32992089  1
  Cs  Cs14  1  0.33198938  0.33482767  0.66722952  1
  Cs  Cs15  1  0.33217188  0.66719360  -0.00500863  1
  Cs  Cs16  1  0.33291819  0.66375232  0.33039957  1
  Cs  Cs17  1  0.33057546  0.66506561  0.67206838  1
  Cs  Cs18  1  0.68464328  0.01427535  0.00932050  1
  Cs  Cs19  1  0.65571583  -0.01945377  0.32711452  1
  Cs  Cs20  1  0.66000861  0.00209507  0.66409665  1
  Cs  Cs21  1  0.66778442  0.31855057  -0.00198772  1
  Cs  Cs22  1  0.66386603  0.33819287  0.33558063  1
  Cs  Cs23  1  0.66672721  0.32920198  0.66799263  1
  Cs  Cs24  1  0.66515300  0.67025040  0.00196284  1
  Cs  Cs25  1  0.66302247  0.67557090  0.32773549  1
  Cs  Cs26  1  0.67098013  0.66871682  0.66830735  1
  Sn  Sn27  1  0.16690753  0.49919703  0.83363669  1
  Sn  Sn28  1  0.16608012  0.16717832  0.83206961  1
  Sn  Sn29  1  0.16624257  0.83355470  0.83349852  1
  Sn  Sn30  1  0.49964682  0.50111067  0.83271258  1
  Sn  Sn31  1  0.16675046  0.83365689  0.49946657  1
  Sn  Sn32  1  0.83401389  0.50017812  0.16736550  1
  Sn  Sn33  1  0.16726110  0.50015065  0.49998685  1
  Sn  Sn34  1  0.50052607  0.50053088  0.50165770  1
  Sn  Sn35  1  0.16631194  0.16651191  0.50075221  1
  Sn  Sn36  1  0.16703203  0.83219578  0.16689012  1
  Sn  Sn37  1  0.49975421  0.83258799  0.83349903  1
  Sn  Sn38  1  0.16569204  0.50109100  0.16626968  1
  Sn  Sn39  1  0.83244449  0.49969130  0.49912315  1
  Sn  Sn40  1  0.83356909  0.16663861  0.49993723  1
  Pb  Pb41  1  0.16666531  0.16706335  0.16748866  1
  Pb  Pb42  1  0.83287415  0.83348401  0.83313853  1
  Pb  Pb43  1  0.49656129  0.83009869  0.50264831  1
  Pb  Pb44  1  0.83680829  0.16685380  0.82944279  1
  Pb  Pb45  1  0.83273113  0.50002261  0.83323443  1
  Pb  Pb46  1  0.83669700  0.82990682  0.16682993  1
  Pb  Pb47  1  0.50010733  0.50025759  0.16553973  1
  Pb  Pb48  1  0.49617626  0.83284454  0.16244249  1
  Pb  Pb49  1  0.49991537  0.16902827  0.50007811  1
  Pb  Pb50  1  0.83574882  0.83337249  0.50018302  1
  Pb  Pb51  1  0.49738564  0.16656707  0.83306666  1
  Pb  Pb52  1  0.49998222  0.16643395  0.16692226  1
  Pb  Pb53  1  0.83388450  0.17003966  0.17153707  1
  I  I54  1  0.16982765  -0.00269794  0.16530084  1
  I  I55  1  0.15827120  0.00003313  0.50506668  1
  I  I56  1  0.17288875  -0.00068507  0.82847851  1
  I  I57  1  0.16247245  0.33686893  0.16589778  1
  I  I58  1  0.16588403  0.33481121  0.50392909  1
  I  I59  1  0.17123330  0.33461370  0.82907026  1
  I  I60  1  0.16158696  0.66519113  0.16754030  1
  I  I61  1  0.16676397  0.66525210  0.50249415  1
  I  I62  1  0.17046316  0.66604657  0.83083311  1
  I  I63  1  0.49701416  -0.00094269  0.16801686  1
  I  I64  1  0.50233094  -0.00043316  0.50005579  1
  I  I65  1  0.48995996  -0.00305701  0.83293613  1
  I  I66  1  0.49501716  0.33433403  0.16309734  1
  I  I67  1  0.49266894  0.33737118  0.50781350  1
  I  I68  1  0.49513797  0.33647543  0.82900654  1
  I  I69  1  0.50611026  0.66632606  0.17281100  1
  I  I70  1  0.50185161  0.66262392  0.49961983  1
  I  I71  1  0.48583767  0.66566492  0.82757587  1
  I  I72  1  0.83240829  0.00016667  0.16433062  1
  I  I73  1  0.84404519  0.00300701  0.50495143  1
  I  I74  1  0.83190708  0.00024994  0.83267486  1
  I  I75  1  0.84538237  0.33719688  0.16576763  1
  I  I76  1  0.84236301  0.33517406  0.49599901  1
  I  I77  1  0.83102802  0.33365682  0.84017767  1
  I  I78  1  0.83406677  0.66268470  0.17810902  1
  I  I79  1  0.83453254  0.66310037  0.49568421  1
  I  I80  1  0.84119673  0.66619682  0.82930420  1
  I  I81  1  0.17179327  0.16674809  -0.00255679  1
  I  I82  1  0.16037916  0.16717584  0.33688650  1
  I  I83  1  0.16223191  0.16785516  0.66603294  1
  I  I84  1  0.16670735  0.50399197  -0.00042293  1
  I  I85  1  0.16638273  0.50317797  0.33436758  1
  I  I86  1  0.16652913  0.50194895  0.66622007  1
  I  I87  1  0.17247611  0.82768018  -0.00074966  1
  I  I88  1  0.16227735  0.82704347  0.33375971  1
  I  I89  1  0.17003110  0.83027245  0.66681182  1
  I  I90  1  0.49669808  0.17283918  -0.00075832  1
  I  I91  1  0.49317341  0.17044954  0.33411155  1
  I  I92  1  0.50592015  0.16299213  0.66659253  1
  I  I93  1  0.49311676  0.50575844  -0.00335667  1
  I  I94  1  0.49507938  0.49547967  0.33560421  1
  I  I95  1  0.49320700  0.50345537  0.66666906  1
  I  I96  1  0.48926468  0.81849017  -0.00453294  1
  I  I97  1  0.50166918  0.83527406  0.33292340  1
  I  I98  1  0.49008304  0.83268182  0.66987082  1
  I  I99  1  0.83093789  0.16594587  0.00049091  1
  I  I100  1  0.84993897  0.17028906  0.33802403  1
  I  I101  1  0.83454831  0.17973597  0.66247868  1
  I  I102  1  0.84100089  0.50421303  0.00238552  1
  I  I103  1  0.84083383  0.49385074  0.33460456  1
  I  I104  1  0.83769661  0.49557443  0.66353616  1
  I  I105  1  0.83610572  0.83069239  0.00011753  1
  I  I106  1  0.83326987  0.83842735  0.33356697  1
  I  I107  1  0.83853158  0.82828424  0.66644148  1
  I  I108  1  0.00047568  0.16047027  0.15871974  1
  I  I109  1  0.00208960  0.17454629  0.50576215  1
  I  I110  1  0.00482025  0.16738021  0.83385596  1
  I  I111  1  0.00186098  0.50475415  0.17104731  1
  I  I112  1  0.00214929  0.49970927  0.49957269  1
  I  I113  1  0.00357548  0.50182756  0.83017333  1
  I  I114  1  0.00450675  0.83360091  0.16109435  1
  I  I115  1  0.00457423  0.82545300  0.50566898  1
  I  I116  1  0.00479457  0.83057629  0.83256559  1
  I  I117  1  0.33238848  0.17176023  0.17101048  1
  I  I118  1  0.32978643  0.16604610  0.50528265  1
  I  I119  1  0.32936970  0.16642508  0.82326847  1
  I  I120  1  0.33007281  0.50394425  0.17097547  1
  I  I121  1  0.33113533  0.50037742  0.49992001  1
  I  I122  1  0.33088963  0.50024540  0.82875543  1
  I  I123  1  0.32884682  0.82172029  0.17222072  1
  I  I124  1  0.32853447  0.83605842  0.49585049  1
  I  I125  1  0.33026034  0.83159766  0.83269986  1
  I  I126  1  0.66762708  0.17073076  0.16386051  1
  I  I127  1  0.66965593  0.17789081  0.49954052  1
  I  I128  1  0.66680807  0.16668144  0.83520527  1
  I  I129  1  0.66936101  0.49708689  0.17336966  1
  I  I130  1  0.66689013  0.48998005  0.50019937  1
  I  I131  1  0.66345868  0.50898114  0.82860857  1
  I  I132  1  0.66643802  0.83392501  0.16592428  1
  I  I133  1  0.66618377  0.83546615  0.50261382  1
  I  I134  1  0.66295648  0.82014775  0.83020010  1
