# generated using pymatgen
data_Cs27Sn14Pb13I81
_symmetry_space_group_name_H-M   'P 1'
_cell_length_a   18.97215930
_cell_length_b   18.97796652
_cell_length_c   18.97916290
_cell_angle_alpha   90.00124600
_cell_angle_beta   90.00138171
_cell_angle_gamma   90.00209681
_symmetry_Int_Tables_number   1
_chemical_formula_structural   Cs27Sn14Pb13I81
_chemical_formula_sum   'Cs27 Sn14 Pb13 I81'
_cell_volume   6833.50460857
_cell_formula_units_Z   1
loop_
 _symmetry_equiv_pos_site_id
 _symmetry_equiv_pos_as_xyz
  1  'x, y, z'
loop_
 _atom_site_type_symbol
 _atom_site_label
 _atom_site_symmetry_multiplicity
 _atom_site_fract_x
 _atom_site_fract_y
 _atom_site_fract_z
 _atom_site_occupancy
  Cs  Cs0  1  -0.00132300  0.00095399  0.00139466  1
  Cs  Cs1  1  -0.00063518  0.00319149  0.33246077  1
  Cs  Cs2  1  -0.00118428  -0.00107789  0.66507063  1
  Cs  Cs3  1  0.00007096  0.33220716  0.00252069  1
  Cs  Cs4  1  0.00082270  0.33249549  0.33343450  1
  Cs  Cs5  1  -0.00005111  0.33429008  0.66425665  1
  Cs  Cs6  1  0.00010673  0.66805051  -0.00089206  1
  Cs  Cs7  1  0.00114192  0.66648076  0.33539698  1
  Cs  Cs8  1  0.00062958  0.66624749  0.66587782  1
  Cs  Cs9  1  0.33391003  -0.00017251  -0.00030751  1
  Cs  Cs10  1  0.34028030  -0.00750895  0.33200350  1
  Cs  Cs11  1  0.33688384  0.00112174  0.66865644  1
  Cs  Cs12  1  0.33179574  0.32878115  -0.00097984  1
  Cs  Cs13  1  0.32919108  0.33384775  0.33527904  1
  Cs  Cs14  1  0.33287629  0.33391572  0.66681133  1
  Cs  Cs15  1  0.33188030  0.67128011  0.00026406  1
  Cs  Cs16  1  0.33280575  0.67274222  0.33034496  1
  Cs  Cs17  1  0.33190113  0.66361091  0.66786548  1
  Cs  Cs18  1  0.66955122  0.00011029  -0.00204627  1
  Cs  Cs19  1  0.66115221  -0.00143478  0.33595823  1
  Cs  Cs20  1  0.66659664  -0.00151660  0.66638187  1
  Cs  Cs21  1  0.66723629  0.33488703  0.00248298  1
  Cs  Cs22  1  0.66593708  0.33550383  0.33124667  1
  Cs  Cs23  1  0.66752053  0.33466407  0.66618892  1
  Cs  Cs24  1  0.66780743  0.66521346  -0.00190144  1
  Cs  Cs25  1  0.66410515  0.66500684  0.33154909  1
  Cs  Cs26  1  0.66770120  0.66573053  0.66842607  1
  Sn  Sn27  1  0.50077026  0.50057824  0.83294673  1
  Sn  Sn28  1  0.83350470  0.83400165  0.16652445  1
  Sn  Sn29  1  0.83317160  0.49926390  0.50047537  1
  Sn  Sn30  1  0.50101847  0.83238265  0.83319234  1
  Sn  Sn31  1  0.16643075  0.49938208  0.16720336  1
  Sn  Sn32  1  0.83381102  0.16755205  0.49967947  1
  Sn  Sn33  1  0.83307788  0.83308039  0.83404398  1
  Sn  Sn34  1  0.16607722  0.16736804  0.16794696  1
  Sn  Sn35  1  0.83344131  0.16584381  0.16725705  1
  Sn  Sn36  1  0.83347156  0.16708892  0.83306639  1
  Sn  Sn37  1  0.83293003  0.49979738  0.83268690  1
  Sn  Sn38  1  0.16661203  0.49939097  0.49893004  1
  Sn  Sn39  1  0.16614446  0.16697024  0.49909745  1
  Sn  Sn40  1  0.50012993  0.49980247  0.50037029  1
  Pb  Pb41  1  0.16635975  0.83354022  0.83316769  1
  Pb  Pb42  1  0.49989512  0.16900658  0.49991442  1
  Pb  Pb43  1  0.83495706  0.49986422  0.16677451  1
  Pb  Pb44  1  0.16662855  0.49994650  0.83326933  1
  Pb  Pb45  1  0.50271912  0.16735897  0.83327724  1
  Pb  Pb46  1  0.50013193  0.83015623  0.50287188  1
  Pb  Pb47  1  0.83342908  0.83334629  0.50003110  1
  Pb  Pb48  1  0.50332237  0.83319449  0.16377115  1
  Pb  Pb49  1  0.16665031  0.83418223  0.50006092  1
  Pb  Pb50  1  0.49665494  0.49974070  0.16602699  1
  Pb  Pb51  1  0.16415243  0.16663846  0.83292488  1
  Pb  Pb52  1  0.49974055  0.16685706  0.16686216  1
  Pb  Pb53  1  0.16419703  0.83416412  0.16678166  1
  I  I54  1  0.16318840  0.00376504  0.17066597  1
  I  I55  1  0.15859058  0.00423456  0.49640184  1
  I  I56  1  0.16724247  0.00025852  0.83309379  1
  I  I57  1  0.15992283  0.33265117  0.17009860  1
  I  I58  1  0.16506057  0.33417478  0.49596770  1
  I  I59  1  0.16774582  0.33341838  0.83479286  1
  I  I60  1  0.16578269  0.66404490  0.17085305  1
  I  I61  1  0.16517981  0.66275268  0.49679467  1
  I  I62  1  0.16117983  0.66632838  0.83337233  1
  I  I63  1  0.49505233  -0.00016994  0.16488872  1
  I  I64  1  0.49927099  -0.00004452  0.50097223  1
  I  I65  1  0.50424933  -0.00271654  0.83510128  1
  I  I66  1  0.50632123  0.33364956  0.16277983  1
  I  I67  1  0.50049456  0.33723773  0.50804342  1
  I  I68  1  0.50367090  0.33699176  0.82909765  1
  I  I69  1  0.49981214  0.66639267  0.16968331  1
  I  I70  1  0.50135268  0.66178013  0.50126232  1
  I  I71  1  0.50966682  0.66563894  0.82898426  1
  I  I72  1  0.83930054  0.00137719  0.16213868  1
  I  I73  1  0.83953962  0.00342760  0.50267190  1
  I  I74  1  0.83045733  0.00012697  0.83431925  1
  I  I75  1  0.83551538  0.33051536  0.16375535  1
  I  I76  1  0.83408398  0.33377447  0.50350725  1
  I  I77  1  0.82998817  0.33377509  0.83274935  1
  I  I78  1  0.83478680  0.66850163  0.16244719  1
  I  I79  1  0.83408758  0.66307315  0.50316045  1
  I  I80  1  0.82958478  0.66605428  0.83380811  1
  I  I81  1  0.16224412  0.17136502  0.00319179  1
  I  I82  1  0.15546903  0.17349497  0.33353837  1
  I  I83  1  0.16241858  0.17247162  0.66304597  1
  I  I84  1  0.16515864  0.49580677  0.00264376  1
  I  I85  1  0.16515895  0.49570868  0.33462490  1
  I  I86  1  0.16635397  0.49556525  0.66337831  1
  I  I87  1  0.16834771  0.83181343  0.00015265  1
  I  I88  1  0.16437313  0.83083571  0.33324002  1
  I  I89  1  0.16339254  0.83259762  0.66665874  1
  I  I90  1  0.49907734  0.16944455  -0.00021473  1
  I  I91  1  0.50658539  0.16887936  0.33354066  1
  I  I92  1  0.49866065  0.16403040  0.66670637  1
  I  I93  1  0.50572333  0.50390389  -0.00358190  1
  I  I94  1  0.50455448  0.49755964  0.33641236  1
  I  I95  1  0.49937024  0.50362958  0.66677962  1
  I  I96  1  0.50162959  0.82499810  -0.00408225  1
  I  I97  1  0.50016092  0.83276099  0.33329136  1
  I  I98  1  0.50918395  0.83303731  0.67066902  1
  I  I99  1  0.83651636  0.16599311  0.00002987  1
  I  I100  1  0.83809475  0.16706566  0.33355465  1
  I  I101  1  0.83685480  0.16749202  0.66635843  1
  I  I102  1  0.83012633  0.49817964  -0.00272560  1
  I  I103  1  0.83112920  0.49774612  0.33633774  1
  I  I104  1  0.83480836  0.49767144  0.66652874  1
  I  I105  1  0.83027516  0.83617949  -0.00108515  1
  I  I106  1  0.83643973  0.83624096  0.33068221  1
  I  I107  1  0.82913090  0.83546482  0.66994601  1
  I  I108  1  -0.00126146  0.16688954  0.16657669  1
  I  I109  1  -0.00126785  0.17473524  0.49995386  1
  I  I110  1  -0.00465053  0.16738000  0.83374688  1
  I  I111  1  0.00270456  0.49877238  0.17004797  1
  I  I112  1  -0.00055718  0.49645509  0.50093609  1
  I  I113  1  -0.00349204  0.50062767  0.83034145  1
  I  I114  1  -0.00367380  0.83445990  0.15835949  1
  I  I115  1  -0.00037599  0.82697718  0.50382647  1
  I  I116  1  -0.00433654  0.83214698  0.83703797  1
  I  I117  1  0.32936650  0.17240468  0.17113886  1
  I  I118  1  0.32978735  0.17152146  0.49505318  1
  I  I119  1  0.33336235  0.16578173  0.83400762  1
  I  I120  1  0.32868734  0.49331338  0.17021388  1
  I  I121  1  0.33273087  0.49583242  0.50163704  1
  I  I122  1  0.33631726  0.50613037  0.83015863  1
  I  I123  1  0.33339111  0.83349285  0.16508954  1
  I  I124  1  0.33353634  0.83399986  0.50219571  1
  I  I125  1  0.33677615  0.82646416  0.83149821  1
  I  I126  1  0.67083307  0.16283623  0.16632100  1
  I  I127  1  0.67040233  0.17000775  0.50026053  1
  I  I128  1  0.67151872  0.16652480  0.83321456  1
  I  I129  1  0.66686611  0.50029488  0.16931004  1
  I  I130  1  0.66777674  0.49636380  0.50547985  1
  I  I131  1  0.66819643  0.50055256  0.82599815  1
  I  I132  1  0.67134215  0.83892553  0.16542140  1
  I  I133  1  0.66698576  0.83493817  0.49658849  1
  I  I134  1  0.66852796  0.83210055  0.83765427  1
