# generated using pymatgen
data_Cs27Sn13Pb14I81
_symmetry_space_group_name_H-M   'P 1'
_cell_length_a   18.96881808
_cell_length_b   18.98190269
_cell_length_c   18.98190259
_cell_angle_alpha   89.99937331
_cell_angle_beta   89.99999015
_cell_angle_gamma   89.99999013
_symmetry_Int_Tables_number   1
_chemical_formula_structural   Cs27Sn13Pb14I81
_chemical_formula_sum   'Cs27 Sn13 Pb14 I81'
_cell_volume   6834.70468821
_cell_formula_units_Z   1
loop_
 _symmetry_equiv_pos_site_id
 _symmetry_equiv_pos_as_xyz
  1  'x, y, z'
loop_
 _atom_site_type_symbol
 _atom_site_label
 _atom_site_symmetry_multiplicity
 _atom_site_fract_x
 _atom_site_fract_y
 _atom_site_fract_z
 _atom_site_occupancy
  Cs  Cs0  1  0.01028223  0.00428160  0.00428173  1
  Cs  Cs1  1  0.00663670  -0.00078002  0.33491644  1
  Cs  Cs2  1  0.00546552  -0.00630908  0.66272231  1
  Cs  Cs3  1  0.00663666  0.33491654  -0.00077994  1
  Cs  Cs4  1  -0.00174222  0.33204961  0.33204958  1
  Cs  Cs5  1  0.00005161  0.33435517  0.66837171  1
  Cs  Cs6  1  0.00546551  0.66272239  -0.00630911  1
  Cs  Cs7  1  0.00005152  0.66837163  0.33435521  1
  Cs  Cs8  1  -0.00399834  0.67133583  0.67133586  1
  Cs  Cs9  1  0.33285172  -0.00339659  -0.00339663  1
  Cs  Cs10  1  0.33122423  -0.00109291  0.33462709  1
  Cs  Cs11  1  0.32890384  0.00008954  0.66785183  1
  Cs  Cs12  1  0.33122431  0.33462702  -0.00109289  1
  Cs  Cs13  1  0.33437122  0.33607413  0.33607416  1
  Cs  Cs14  1  0.33455675  0.33185303  0.66459262  1
  Cs  Cs15  1  0.32890389  0.66785182  0.00008963  1
  Cs  Cs16  1  0.33455680  0.66459273  0.33185310  1
  Cs  Cs17  1  0.33602187  0.66805098  0.66805125  1
  Cs  Cs18  1  0.66506456  0.00161364  0.00161374  1
  Cs  Cs19  1  0.66722120  0.00009606  0.33188183  1
  Cs  Cs20  1  0.66705437  0.00014982  0.66742773  1
  Cs  Cs21  1  0.66722124  0.33188180  0.00009600  1
  Cs  Cs22  1  0.66662587  0.33390281  0.33390289  1
  Cs  Cs23  1  0.66651763  0.33293889  0.66580819  1
  Cs  Cs24  1  0.66705431  0.66742783  0.00014975  1
  Cs  Cs25  1  0.66651765  0.66580813  0.33293892  1
  Cs  Cs26  1  0.67005368  0.66891897  0.66891921  1
  Sn  Sn27  1  0.50097991  0.83324383  0.16771834  1
  Sn  Sn28  1  0.50100807  0.49994843  0.16547449  1
  Sn  Sn29  1  0.83420291  0.49946083  0.49946084  1
  Sn  Sn30  1  0.16495370  0.50002281  0.50002282  1
  Sn  Sn31  1  0.83273566  0.16625896  0.83253459  1
  Sn  Sn32  1  0.83252186  0.50090755  0.16707396  1
  Sn  Sn33  1  0.50097992  0.16771833  0.83324385  1
  Sn  Sn34  1  0.50038135  0.16679445  0.16679447  1
  Sn  Sn35  1  0.50076723  0.83446993  0.49928459  1
  Sn  Sn36  1  0.83252187  0.16707397  0.50090752  1
  Sn  Sn37  1  0.50100804  0.16547447  0.49994844  1
  Sn  Sn38  1  0.83273567  0.83253458  0.16625896  1
  Sn  Sn39  1  0.50076720  0.49928455  0.83446995  1
  Pb  Pb40  1  0.50025035  0.83376135  0.83376132  1
  Pb  Pb41  1  0.16977219  0.49978007  0.83019965  1
  Pb  Pb42  1  0.16977219  0.83019967  0.49978006  1
  Pb  Pb43  1  0.83314401  0.83711524  0.83711522  1
  Pb  Pb44  1  0.16633758  0.16860473  0.49996208  1
  Pb  Pb45  1  0.17062273  0.16701610  0.16701609  1
  Pb  Pb46  1  0.83141572  0.49820821  0.83367057  1
  Pb  Pb47  1  0.16633759  0.49996211  0.16860474  1
  Pb  Pb48  1  0.16664348  0.83292949  0.16689536  1
  Pb  Pb49  1  0.83141571  0.83367056  0.49820815  1
  Pb  Pb50  1  0.83211163  0.16680124  0.16680123  1
  Pb  Pb51  1  0.16664346  0.16689536  0.83292945  1
  Pb  Pb52  1  0.16635218  0.83326980  0.83326977  1
  Pb  Pb53  1  0.50112838  0.50007339  0.50007340  1
  I  I54  1  0.16465471  -0.00006962  0.16736398  1
  I  I55  1  0.16520365  -0.00016925  0.50006538  1
  I  I56  1  0.16968985  0.00042421  0.83345856  1
  I  I57  1  0.16633667  0.33365450  0.16722396  1
  I  I58  1  0.16968773  0.33625187  0.49906959  1
  I  I59  1  0.16675667  0.33345439  0.83391846  1
  I  I60  1  0.17297339  0.66640353  0.16822303  1
  I  I61  1  0.16302493  0.66261279  0.49862666  1
  I  I62  1  0.16940607  0.66606775  0.83310357  1
  I  I63  1  0.50448790  0.00006316  0.16751010  1
  I  I64  1  0.50513403  0.00146866  0.49671430  1
  I  I65  1  0.50338797  0.00356242  0.83569851  1
  I  I66  1  0.50390080  0.33361025  0.16694343  1
  I  I67  1  0.50025733  0.33082391  0.49796676  1
  I  I68  1  0.50304349  0.33239680  0.83573652  1
  I  I69  1  0.50348942  0.66627899  0.16832144  1
  I  I70  1  0.49875293  0.66846292  0.49648591  1
  I  I71  1  0.49900292  0.66393299  0.83479287  1
  I  I72  1  0.82670297  -0.00206551  0.16604922  1
  I  I73  1  0.82896248  0.00310580  0.50229709  1
  I  I74  1  0.82316353  0.00494393  0.82716754  1
  I  I75  1  0.82784154  0.33606072  0.16893394  1
  I  I76  1  0.83018987  0.33333083  0.49738954  1
  I  I77  1  0.82862281  0.33026387  0.83353006  1
  I  I78  1  0.82317047  0.66540498  0.17386101  1
  I  I79  1  0.83433105  0.66388380  0.49708268  1
  I  I80  1  0.83167359  0.66669793  0.83035612  1
  I  I81  1  0.16465473  0.16736419  -0.00006961  1
  I  I82  1  0.16633682  0.16722384  0.33365450  1
  I  I83  1  0.17297326  0.16822288  0.66640356  1
  I  I84  1  0.16520358  0.50006531  -0.00016928  1
  I  I85  1  0.16968754  0.49906947  0.33625188  1
  I  I86  1  0.16302502  0.49862684  0.66261279  1
  I  I87  1  0.16968993  0.83345835  0.00042420  1
  I  I88  1  0.16675661  0.83391864  0.33345439  1
  I  I89  1  0.16940606  0.83310353  0.66606772  1
  I  I90  1  0.50448778  0.16751017  0.00006316  1
  I  I91  1  0.50390082  0.16694337  0.33361024  1
  I  I92  1  0.50348947  0.16832153  0.66627897  1
  I  I93  1  0.50513409  0.49671430  0.00146866  1
  I  I94  1  0.50025711  0.49796687  0.33082391  1
  I  I95  1  0.49875299  0.49648583  0.66846293  1
  I  I96  1  0.50338780  0.83569842  0.00356243  1
  I  I97  1  0.50304363  0.83573643  0.33239678  1
  I  I98  1  0.49900286  0.83479298  0.66393294  1
  I  I99  1  0.82670301  0.16604931  -0.00206548  1
  I  I100  1  0.82784148  0.16893371  0.33606073  1
  I  I101  1  0.82317038  0.17386118  0.66540492  1
  I  I102  1  0.82896233  0.50229676  0.00310581  1
  I  I103  1  0.83019015  0.49738975  0.33333079  1
  I  I104  1  0.83433083  0.49708270  0.66388381  1
  I  I105  1  0.82316369  0.82716766  0.00494390  1
  I  I106  1  0.82862270  0.83353009  0.33026384  1
  I  I107  1  0.83167349  0.83035599  0.66669795  1
  I  I108  1  -0.00028473  0.16610511  0.16610522  1
  I  I109  1  -0.00379151  0.16924857  0.50405837  1
  I  I110  1  -0.00350643  0.16675899  0.82907080  1
  I  I111  1  -0.00379151  0.50405840  0.16924835  1
  I  I112  1  -0.00226260  0.49339756  0.49339784  1
  I  I113  1  -0.00021081  0.49782596  0.83640147  1
  I  I114  1  -0.00350644  0.82907090  0.16675907  1
  I  I115  1  -0.00021082  0.83640157  0.49782591  1
  I  I116  1  -0.00073823  0.83389514  0.83389516  1
  I  I117  1  0.33971327  0.16703910  0.16703907  1
  I  I118  1  0.33711600  0.16525566  0.49991618  1
  I  I119  1  0.33750830  0.16989672  0.83325220  1
  I  I120  1  0.33711602  0.49991612  0.16525550  1
  I  I121  1  0.33255085  0.50010114  0.50010118  1
  I  I122  1  0.33815850  0.49424703  0.83775863  1
  I  I123  1  0.33750827  0.83325229  0.16989689  1
  I  I124  1  0.33815848  0.83775873  0.49424679  1
  I  I125  1  0.33416237  0.83460540  0.83460525  1
  I  I126  1  0.66324015  0.16700125  0.16700117  1
  I  I127  1  0.66557806  0.16983121  0.50037815  1
  I  I128  1  0.66489376  0.17082310  0.83215664  1
  I  I129  1  0.66557806  0.50037816  0.16983141  1
  I  I130  1  0.66933787  0.49795918  0.49795893  1
  I  I131  1  0.66316139  0.49715946  0.83246684  1
  I  I132  1  0.66489376  0.83215658  0.17082290  1
  I  I133  1  0.66316140  0.83246694  0.49715940  1
  I  I134  1  0.66646472  0.83083163  0.83083191  1
