# generated using pymatgen
data_Cs27Sn14Pb13I81
_symmetry_space_group_name_H-M   'P 1'
_cell_length_a   18.97605764
_cell_length_b   18.97057103
_cell_length_c   18.97911432
_cell_angle_alpha   90.00040520
_cell_angle_beta   90.00064262
_cell_angle_gamma   90.00089190
_symmetry_Int_Tables_number   1
_chemical_formula_structural   Cs27Sn14Pb13I81
_chemical_formula_sum   'Cs27 Sn14 Pb13 I81'
_cell_volume   6832.22776804
_cell_formula_units_Z   1
loop_
 _symmetry_equiv_pos_site_id
 _symmetry_equiv_pos_as_xyz
  1  'x, y, z'
loop_
 _atom_site_type_symbol
 _atom_site_label
 _atom_site_symmetry_multiplicity
 _atom_site_fract_x
 _atom_site_fract_y
 _atom_site_fract_z
 _atom_site_occupancy
  Cs  Cs0  1  -0.00012073  0.00036751  -0.00025820  1
  Cs  Cs1  1  -0.00055861  0.00124803  0.33373527  1
  Cs  Cs2  1  -0.00243314  0.00043822  0.66692393  1
  Cs  Cs3  1  0.00253223  0.33287309  0.00182490  1
  Cs  Cs4  1  -0.00206087  0.33041938  0.33083048  1
  Cs  Cs5  1  0.00268908  0.33580767  0.66668783  1
  Cs  Cs6  1  -0.00306833  0.66384849  -0.00516900  1
  Cs  Cs7  1  0.00033857  0.66705328  0.33702810  1
  Cs  Cs8  1  0.00156945  0.65789530  0.67017485  1
  Cs  Cs9  1  0.33285926  -0.00127927  -0.00047462  1
  Cs  Cs10  1  0.33240117  -0.00909948  0.33341665  1
  Cs  Cs11  1  0.33584919  0.00104283  0.66824057  1
  Cs  Cs12  1  0.33421581  0.33369483  0.00016027  1
  Cs  Cs13  1  0.33393824  0.33288835  0.32928500  1
  Cs  Cs14  1  0.33560963  0.33478363  0.66546720  1
  Cs  Cs15  1  0.33503805  0.66690548  0.00064639  1
  Cs  Cs16  1  0.33290287  0.67709022  0.33860919  1
  Cs  Cs17  1  0.33056231  0.66457067  0.66170022  1
  Cs  Cs18  1  0.66763410  -0.00031531  -0.00107233  1
  Cs  Cs19  1  0.66888193  -0.00079781  0.33334941  1
  Cs  Cs20  1  0.66774734  0.00191112  0.66714367  1
  Cs  Cs21  1  0.66304665  0.33361979  0.00301615  1
  Cs  Cs22  1  0.66725459  0.33606241  0.33193884  1
  Cs  Cs23  1  0.66037999  0.33104447  0.66060845  1
  Cs  Cs24  1  0.66683576  0.66632842  -0.00198666  1
  Cs  Cs25  1  0.66651061  0.66500616  0.33568324  1
  Cs  Cs26  1  0.66896921  0.66444834  0.66875908  1
  Sn  Sn27  1  0.83391882  0.16690808  0.83348748  1
  Sn  Sn28  1  0.83370796  0.83400521  0.49951579  1
  Sn  Sn29  1  0.16634502  0.16646038  0.49985440  1
  Sn  Sn30  1  0.49969347  0.16650540  0.16671256  1
  Sn  Sn31  1  0.49984208  0.50098263  0.83403982  1
  Sn  Sn32  1  0.83351892  0.83380762  0.16724736  1
  Sn  Sn33  1  0.16772489  0.50000433  0.16668664  1
  Sn  Sn34  1  0.16730316  0.83392378  0.83352226  1
  Sn  Sn35  1  0.49845401  0.49986725  0.16614611  1
  Sn  Sn36  1  0.16717732  0.16686642  0.16683433  1
  Sn  Sn37  1  0.83433791  0.16612166  0.49991170  1
  Sn  Sn38  1  0.16601433  0.16600392  0.83318977  1
  Sn  Sn39  1  0.83318469  0.16582185  0.16640081  1
  Sn  Sn40  1  0.49907228  0.83242739  0.83347447  1
  Pb  Pb41  1  0.83033902  0.49580982  0.83343487  1
  Pb  Pb42  1  0.49969454  0.50006614  0.49897100  1
  Pb  Pb43  1  0.49974534  0.16639020  0.49635163  1
  Pb  Pb44  1  0.49957503  0.16673952  0.83519823  1
  Pb  Pb45  1  0.16403610  0.83579512  0.50310137  1
  Pb  Pb46  1  0.16421994  0.83326071  0.16477948  1
  Pb  Pb47  1  0.83362011  0.83496139  0.83307856  1
  Pb  Pb48  1  0.16674578  0.49710380  0.49645475  1
  Pb  Pb49  1  0.50284678  0.83359768  0.50335970  1
  Pb  Pb50  1  0.50221419  0.83299421  0.16512682  1
  Pb  Pb51  1  0.16869154  0.49932722  0.83533532  1
  Pb  Pb52  1  0.83354179  0.49937093  0.50000691  1
  Pb  Pb53  1  0.83340822  0.49999775  0.16661468  1
  I  I54  1  0.16863032  0.00360921  0.16769258  1
  I  I55  1  0.16448188  0.00407359  0.49357101  1
  I  I56  1  0.16882780  0.00175963  0.83638203  1
  I  I57  1  0.16491102  0.33089370  0.16450016  1
  I  I58  1  0.15940013  0.32861117  0.50586533  1
  I  I59  1  0.16334463  0.32972025  0.83230061  1
  I  I60  1  0.17007474  0.66432183  0.16311188  1
  I  I61  1  0.16510220  0.66692733  0.50037437  1
  I  I62  1  0.16766919  0.66889904  0.83609782  1
  I  I63  1  0.49822106  0.00275341  0.16471279  1
  I  I64  1  0.49849386  0.00018783  0.50061640  1
  I  I65  1  0.49961292  -0.00174497  0.83514831  1
  I  I66  1  0.50153772  0.33261752  0.16065058  1
  I  I67  1  0.50313713  0.33292156  0.50594851  1
  I  I68  1  0.50135395  0.33530651  0.83674247  1
  I  I69  1  0.49737643  0.66384749  0.16334291  1
  I  I70  1  0.50240652  0.66693379  0.49516833  1
  I  I71  1  0.49631868  0.66676936  0.84039494  1
  I  I72  1  0.83300506  0.00234692  0.16690815  1
  I  I73  1  0.83663515  0.00186294  0.49852976  1
  I  I74  1  0.83200281  0.00328580  0.83446530  1
  I  I75  1  0.83324997  0.32962779  0.16719773  1
  I  I76  1  0.83648507  0.32895529  0.49853334  1
  I  I77  1  0.83980650  0.32777046  0.83532154  1
  I  I78  1  0.83291086  0.66961677  0.17089404  1
  I  I79  1  0.83108708  0.66981752  0.49415373  1
  I  I80  1  0.83557638  0.66661416  0.83333392  1
  I  I81  1  0.16361841  0.16689699  0.00041416  1
  I  I82  1  0.16304039  0.17256161  0.33232836  1
  I  I83  1  0.15899925  0.16131994  0.66740862  1
  I  I84  1  0.16775472  0.49278720  0.00310967  1
  I  I85  1  0.17193335  0.49467055  0.32838642  1
  I  I86  1  0.16779133  0.49952785  0.66678334  1
  I  I87  1  0.16739308  0.84026648  -0.00290802  1
  I  I88  1  0.16759158  0.83301630  0.33337888  1
  I  I89  1  0.16907969  0.83910320  0.67089353  1
  I  I90  1  0.50121715  0.16784679  0.00323693  1
  I  I91  1  0.50134540  0.17372309  0.32817312  1
  I  I92  1  0.50124574  0.16742157  0.66673949  1
  I  I93  1  0.49696773  0.49867124  0.00101263  1
  I  I94  1  0.49853709  0.49309935  0.32921955  1
  I  I95  1  0.50158429  0.50313136  0.66968980  1
  I  I96  1  0.49971208  0.83342163  -0.00275930  1
  I  I97  1  0.49939766  0.83312249  0.33324388  1
  I  I98  1  0.49790039  0.82891451  0.67141132  1
  I  I99  1  0.83560588  0.16247431  0.00088602  1
  I  I100  1  0.83587182  0.16315521  0.33255748  1
  I  I101  1  0.83935047  0.16207155  0.66649468  1
  I  I102  1  0.83484262  0.50168188  0.00007771  1
  I  I103  1  0.83060362  0.49627952  0.33302577  1
  I  I104  1  0.83156920  0.50156445  0.66694492  1
  I  I105  1  0.83298510  0.83864303  0.00201508  1
  I  I106  1  0.83323302  0.84222582  0.33271902  1
  I  I107  1  0.83184752  0.84004760  0.66451061  1
  I  I108  1  0.00012990  0.16721682  0.16638547  1
  I  I109  1  -0.00063744  0.16307418  0.49593110  1
  I  I110  1  0.00071171  0.16047283  0.83780800  1
  I  I111  1  0.00271128  0.49480540  0.16667625  1
  I  I112  1  0.00023970  0.50230695  0.49938672  1
  I  I113  1  0.00020519  0.50333868  0.83472397  1
  I  I114  1  -0.00351280  0.83910717  0.16735084  1
  I  I115  1  -0.00368087  0.83737102  0.49643528  1
  I  I116  1  0.00226550  0.83756386  0.83459028  1
  I  I117  1  0.33256060  0.17257975  0.16486138  1
  I  I118  1  0.33002556  0.16875636  0.50215187  1
  I  I119  1  0.33039551  0.16572290  0.83380869  1
  I  I120  1  0.33367265  0.48850716  0.16134746  1
  I  I121  1  0.33308146  0.49706594  0.50273435  1
  I  I122  1  0.33649400  0.49822221  0.83706641  1
  I  I123  1  0.33320204  0.83623127  0.16620730  1
  I  I124  1  0.33297291  0.83436117  0.49888934  1
  I  I125  1  0.33293150  0.83749003  0.83587943  1
  I  I126  1  0.66742266  0.16706154  0.16537066  1
  I  I127  1  0.67005173  0.16338434  0.50187815  1
  I  I128  1  0.66904887  0.16600602  0.83385743  1
  I  I129  1  0.66367928  0.49554427  0.16259300  1
  I  I130  1  0.66666947  0.49702423  0.49851171  1
  I  I131  1  0.66265151  0.50615445  0.84107345  1
  I  I132  1  0.67004664  0.83901361  0.16705197  1
  I  I133  1  0.67072113  0.84151164  0.49719096  1
  I  I134  1  0.66476508  0.83117858  0.83418065  1
