# generated using pymatgen
data_Cs27Sn14Pb13I81
_symmetry_space_group_name_H-M   'P 1'
_cell_length_a   18.97864638
_cell_length_b   18.97648047
_cell_length_c   18.97144485
_cell_angle_alpha   89.99976670
_cell_angle_beta   90.00044858
_cell_angle_gamma   89.99866674
_symmetry_Int_Tables_number   1
_chemical_formula_structural   Cs27Sn14Pb13I81
_chemical_formula_sum   'Cs27 Sn14 Pb13 I81'
_cell_volume   6832.52625420
_cell_formula_units_Z   1
loop_
 _symmetry_equiv_pos_site_id
 _symmetry_equiv_pos_as_xyz
  1  'x, y, z'
loop_
 _atom_site_type_symbol
 _atom_site_label
 _atom_site_symmetry_multiplicity
 _atom_site_fract_x
 _atom_site_fract_y
 _atom_site_fract_z
 _atom_site_occupancy
  Cs  Cs0  1  0.00772339  0.00217948  0.00546957  1
  Cs  Cs1  1  -0.00582413  0.00023776  0.33316486  1
  Cs  Cs2  1  0.00139804  0.00017606  0.66529831  1
  Cs  Cs3  1  -0.00122546  0.33486914  0.00299024  1
  Cs  Cs4  1  0.00111254  0.33437891  0.33436781  1
  Cs  Cs5  1  -0.00169034  0.33419813  0.66566580  1
  Cs  Cs6  1  0.00454322  0.66439334  -0.00180704  1
  Cs  Cs7  1  0.00028587  0.66752392  0.33442082  1
  Cs  Cs8  1  -0.00126653  0.66692717  0.66592052  1
  Cs  Cs9  1  0.32727053  0.00638402  0.00534984  1
  Cs  Cs10  1  0.33871331  -0.00104682  0.32910373  1
  Cs  Cs11  1  0.33146471  0.00086539  0.66871213  1
  Cs  Cs12  1  0.33041319  0.32847891  0.00060321  1
  Cs  Cs13  1  0.33338868  0.33265281  0.33720637  1
  Cs  Cs14  1  0.33584925  0.33093583  0.66412032  1
  Cs  Cs15  1  0.33303759  0.66763149  0.00148156  1
  Cs  Cs16  1  0.33323653  0.66615599  0.33253961  1
  Cs  Cs17  1  0.33432568  0.66735382  0.66619099  1
  Cs  Cs18  1  0.66473921  0.00094575  0.00813627  1
  Cs  Cs19  1  0.66738809  -0.00294944  0.32192927  1
  Cs  Cs20  1  0.66734022  -0.00196019  0.66710567  1
  Cs  Cs21  1  0.66868872  0.33551703  -0.00245681  1
  Cs  Cs22  1  0.66429360  0.33308325  0.33481599  1
  Cs  Cs23  1  0.66632424  0.33419417  0.66687880  1
  Cs  Cs24  1  0.66530835  0.66402318  -0.00392683  1
  Cs  Cs25  1  0.66652234  0.66868681  0.33290852  1
  Cs  Cs26  1  0.66656234  0.66686618  0.66821407  1
  Sn  Sn27  1  0.50061186  0.50003831  0.16562123  1
  Sn  Sn28  1  0.83344394  0.16724057  0.50104323  1
  Sn  Sn29  1  0.16702351  0.49992688  0.83213014  1
  Sn  Sn30  1  0.49950690  0.50053023  0.83399839  1
  Sn  Sn31  1  0.83298206  0.83391655  0.83334882  1
  Sn  Sn32  1  0.16770457  0.83339154  0.50041780  1
  Sn  Sn33  1  0.50027423  0.83314788  0.83276546  1
  Sn  Sn34  1  0.83316211  0.16609669  0.83273490  1
  Sn  Sn35  1  0.16606861  0.50007244  0.50123657  1
  Sn  Sn36  1  0.83336950  0.50015160  0.83303180  1
  Sn  Sn37  1  0.16593800  0.16659520  0.50041920  1
  Sn  Sn38  1  0.49961459  0.83334283  0.50103609  1
  Sn  Sn39  1  0.83238459  0.50030846  0.16695861  1
  Sn  Sn40  1  0.83381380  0.49946540  0.49988305  1
  Pb  Pb41  1  0.49994308  0.83094514  0.16534710  1
  Pb  Pb42  1  0.83349829  0.83017955  0.16245831  1
  Pb  Pb43  1  0.50025733  0.50151366  0.50043896  1
  Pb  Pb44  1  0.16701208  0.83164150  0.83176686  1
  Pb  Pb45  1  0.83334169  0.16931203  0.16684976  1
  Pb  Pb46  1  0.16400630  0.16945536  0.83119100  1
  Pb  Pb47  1  0.16651738  0.83307569  0.17004182  1
  Pb  Pb48  1  0.50108985  0.16315663  0.50024431  1
  Pb  Pb49  1  0.83309472  0.83356887  0.50145982  1
  Pb  Pb50  1  0.50238001  0.16622380  0.83319732  1
  Pb  Pb51  1  0.16630137  0.16702676  0.17041831  1
  Pb  Pb52  1  0.50014917  0.17039487  0.16648900  1
  Pb  Pb53  1  0.16683081  0.50000793  0.16698344  1
  I  I54  1  0.16716686  0.00012547  0.16497584  1
  I  I55  1  0.16536078  0.00004517  0.50032565  1
  I  I56  1  0.16629239  0.00016293  0.83130072  1
  I  I57  1  0.16723134  0.33393243  0.16790776  1
  I  I58  1  0.16142213  0.33445959  0.50313770  1
  I  I59  1  0.16767919  0.33793184  0.82828789  1
  I  I60  1  0.16582189  0.66601665  0.16947062  1
  I  I61  1  0.16571885  0.66549593  0.50363971  1
  I  I62  1  0.16148029  0.66310013  0.82745142  1
  I  I63  1  0.49974777  -0.00022292  0.16779057  1
  I  I64  1  0.49578418  -0.00466152  0.50742919  1
  I  I65  1  0.50534345  -0.00360550  0.82649496  1
  I  I66  1  0.50492447  0.33853546  0.16136402  1
  I  I67  1  0.49745827  0.33346612  0.49903043  1
  I  I68  1  0.50121461  0.33690682  0.83707413  1
  I  I69  1  0.50476087  0.66306791  0.16551033  1
  I  I70  1  0.49663420  0.66921597  0.50152460  1
  I  I71  1  0.50548727  0.66535217  0.83230006  1
  I  I72  1  0.83347739  -0.00004568  0.16823734  1
  I  I73  1  0.83733616  0.00250630  0.50619240  1
  I  I74  1  0.82789293  -0.00007716  0.82442674  1
  I  I75  1  0.82986516  0.33756711  0.16203810  1
  I  I76  1  0.84072324  0.33483447  0.50430160  1
  I  I77  1  0.83347582  0.33522239  0.83275159  1
  I  I78  1  0.82960602  0.66195087  0.16992089  1
  I  I79  1  0.83626713  0.66360760  0.50099653  1
  I  I80  1  0.83222375  0.66492405  0.83248798  1
  I  I81  1  0.16607332  0.16792295  -0.00030513  1
  I  I82  1  0.15943199  0.17114217  0.33884523  1
  I  I83  1  0.16463466  0.16532842  0.66299192  1
  I  I84  1  0.16332844  0.50120907  -0.00315244  1
  I  I85  1  0.16358084  0.49978077  0.33717253  1
  I  I86  1  0.16287681  0.50062205  0.66579018  1
  I  I87  1  0.16645121  0.83043363  -0.00040436  1
  I  I88  1  0.17199416  0.82859114  0.33900160  1
  I  I89  1  0.16743848  0.83352926  0.66332797  1
  I  I90  1  0.50187352  0.16228753  -0.00031168  1
  I  I91  1  0.50120075  0.16689592  0.33370407  1
  I  I92  1  0.49885870  0.17283610  0.66656922  1
  I  I93  1  0.50455171  0.50580556  -0.00182862  1
  I  I94  1  0.50343266  0.50176678  0.33167790  1
  I  I95  1  0.50279987  0.50218460  0.66961075  1
  I  I96  1  0.50710521  0.82905697  -0.00392256  1
  I  I97  1  0.49497568  0.83210521  0.33577479  1
  I  I98  1  0.50057981  0.82585344  0.66754774  1
  I  I99  1  0.83098379  0.16866006  -0.00317173  1
  I  I100  1  0.83828119  0.17118402  0.33697963  1
  I  I101  1  0.83657692  0.17298189  0.66630390  1
  I  I102  1  0.83279305  0.50014137  -0.00180937  1
  I  I103  1  0.83382044  0.49515648  0.33462968  1
  I  I104  1  0.83397262  0.49957282  0.66736217  1
  I  I105  1  0.82535209  0.83337773  -0.00564967  1
  I  I106  1  0.83357923  0.83325175  0.33333759  1
  I  I107  1  0.83228539  0.82706506  0.66948080  1
  I  I108  1  -0.00035916  0.16981264  0.16378080  1
  I  I109  1  -0.00060010  0.16665586  0.50444437  1
  I  I110  1  -0.00420973  0.16672006  0.83066300  1
  I  I111  1  -0.00297295  0.49929911  0.16396699  1
  I  I112  1  -0.00039958  0.50170127  0.50271331  1
  I  I113  1  -0.00141508  0.50063659  0.83284855  1
  I  I114  1  -0.00026645  0.83017907  0.16689250  1
  I  I115  1  0.00216257  0.83195961  0.50188232  1
  I  I116  1  -0.00271250  0.83021387  0.83085466  1
  I  I117  1  0.33316992  0.16876018  0.16772188  1
  I  I118  1  0.33054057  0.17155992  0.49926430  1
  I  I119  1  0.33299557  0.16775322  0.83195655  1
  I  I120  1  0.33619405  0.50160558  0.16366457  1
  I  I121  1  0.33061883  0.49790384  0.50234015  1
  I  I122  1  0.33378877  0.50595042  0.83303472  1
  I  I123  1  0.33346395  0.82950475  0.16358778  1
  I  I124  1  0.33302816  0.83129175  0.50590779  1
  I  I125  1  0.33624387  0.82547266  0.82956004  1
  I  I126  1  0.66704798  0.16456215  0.17056739  1
  I  I127  1  0.67049244  0.17336642  0.50429475  1
  I  I128  1  0.67074391  0.17328391  0.82584632  1
  I  I129  1  0.66750592  0.50013011  0.16338215  1
  I  I130  1  0.66978494  0.49697924  0.50229438  1
  I  I131  1  0.66782173  0.50035530  0.83367660  1
  I  I132  1  0.66674595  0.83501435  0.17445923  1
  I  I133  1  0.66449931  0.83097206  0.50305840  1
  I  I134  1  0.66661464  0.82637022  0.82550072  1
