# generated using pymatgen
data_Cs27Sn13Pb14I81
_symmetry_space_group_name_H-M   'P 1'
_cell_length_a   18.97472109
_cell_length_b   18.98056032
_cell_length_c   18.97472117
_cell_angle_alpha   90.00184045
_cell_angle_beta   90.00244090
_cell_angle_gamma   90.00184026
_symmetry_Int_Tables_number   1
_chemical_formula_structural   Cs27Sn13Pb14I81
_chemical_formula_sum   'Cs27 Sn13 Pb14 I81'
_cell_volume   6833.76171942
_cell_formula_units_Z   1
loop_
 _symmetry_equiv_pos_site_id
 _symmetry_equiv_pos_as_xyz
  1  'x, y, z'
loop_
 _atom_site_type_symbol
 _atom_site_label
 _atom_site_symmetry_multiplicity
 _atom_site_fract_x
 _atom_site_fract_y
 _atom_site_fract_z
 _atom_site_occupancy
  Cs  Cs0  1  -0.00058793  -0.00068816  0.00043920  1
  Cs  Cs1  1  0.00355336  -0.00537735  0.33627708  1
  Cs  Cs2  1  -0.00120340  0.00262601  0.66528739  1
  Cs  Cs3  1  0.00233080  0.33434556  -0.00257973  1
  Cs  Cs4  1  -0.00807513  0.33333327  0.34140853  1
  Cs  Cs5  1  0.00082454  0.33144785  0.66152101  1
  Cs  Cs6  1  -0.00026772  0.66649616  0.00154912  1
  Cs  Cs7  1  -0.00294363  0.67204380  0.32977975  1
  Cs  Cs8  1  0.00281402  0.66565994  0.66892087  1
  Cs  Cs9  1  0.33440182  0.00218723  -0.00107845  1
  Cs  Cs10  1  0.33178422  0.00017048  0.33360110  1
  Cs  Cs11  1  0.33513972  -0.00031990  0.66734323  1
  Cs  Cs12  1  0.33218201  0.33333332  0.00115129  1
  Cs  Cs13  1  0.33591284  0.33232125  0.33100268  1
  Cs  Cs14  1  0.33229469  0.33615146  0.66637206  1
  Cs  Cs15  1  0.33441180  0.66447938  -0.00106851  1
  Cs  Cs16  1  0.33289406  0.66735479  0.33392143  1
  Cs  Cs17  1  0.33283687  0.66282523  0.66743257  1
  Cs  Cs18  1  0.66590067  0.00384141  0.00049654  1
  Cs  Cs19  1  0.66441240  0.00100680  0.33051903  1
  Cs  Cs20  1  0.66604744  -0.00309208  0.66832876  1
  Cs  Cs21  1  0.66696125  0.33051512  0.00103877  1
  Cs  Cs22  1  0.67181243  0.33521901  0.33250878  1
  Cs  Cs23  1  0.66810614  0.33333332  0.66522708  1
  Cs  Cs24  1  0.66599016  0.66698657  -0.00180634  1
  Cs  Cs25  1  0.66804596  0.66404062  0.33453665  1
  Cs  Cs26  1  0.66500451  0.66975873  0.66728581  1
  Sn  Sn27  1  0.49984419  0.83247358  0.16753537  1
  Sn  Sn28  1  0.49934811  0.50078835  0.16584208  1
  Sn  Sn29  1  0.83242479  0.83333331  0.50090852  1
  Sn  Sn30  1  0.16706285  0.49892652  0.16688616  1
  Sn  Sn31  1  0.49919729  0.16803724  0.83238964  1
  Sn  Sn32  1  0.49985828  0.16617900  0.50084963  1
  Sn  Sn33  1  0.83442135  0.83267922  0.83274472  1
  Sn  Sn34  1  0.16579794  0.83419310  0.83348913  1
  Sn  Sn35  1  0.50094368  0.49862941  0.83413606  1
  Sn  Sn36  1  0.83248361  0.50048770  0.83347507  1
  Sn  Sn37  1  0.16644714  0.16774014  0.16627057  1
  Sn  Sn38  1  0.50058869  0.83398743  0.49891198  1
  Sn  Sn39  1  0.16749122  0.16587835  0.83398520  1
  Pb  Pb40  1  0.49993129  0.50009749  0.49981587  1
  Pb  Pb41  1  0.83321849  0.49990948  0.16428956  1
  Pb  Pb42  1  0.16665673  0.50007291  0.49581366  1
  Pb  Pb43  1  0.83751973  0.16659376  0.16667655  1
  Pb  Pb44  1  0.16668323  0.49951852  0.83446851  1
  Pb  Pb45  1  0.16904379  0.16675713  0.50011488  1
  Pb  Pb46  1  0.83351746  0.16656914  0.83340208  1
  Pb  Pb47  1  0.50003720  0.83333334  0.83329615  1
  Pb  Pb48  1  0.16721859  0.83325052  0.50280246  1
  Pb  Pb49  1  0.83053091  0.83341619  0.16611472  1
  Pb  Pb50  1  0.83023238  0.16369661  0.50011219  1
  Pb  Pb51  1  0.16900407  0.83333332  0.16432930  1
  Pb  Pb52  1  0.83322116  0.50297003  0.50310089  1
  Pb  Pb53  1  0.49886485  0.16714814  0.16665019  1
  I  I54  1  0.16919811  0.00232507  0.16364597  1
  I  I55  1  0.16541783  -0.00008295  0.49544290  1
  I  I56  1  0.16814655  0.00072788  0.83880477  1
  I  I57  1  0.17511297  0.33333332  0.15822059  1
  I  I58  1  0.16875606  0.33316841  0.50600770  1
  I  I59  1  0.16854113  0.33066252  0.83630417  1
  I  I60  1  0.16968726  0.66434161  0.16413504  1
  I  I61  1  0.17018938  0.66703715  0.50229915  1
  I  I62  1  0.16649774  0.66860291  0.83437790  1
  I  I63  1  0.49895551  -0.00193617  0.16683579  1
  I  I64  1  0.50327654  -0.00070680  0.50081154  1
  I  I65  1  0.49883231  0.00204096  0.83315553  1
  I  I66  1  0.49702917  0.33600416  0.16479201  1
  I  I67  1  0.49711997  0.33061380  0.50183172  1
  I  I68  1  0.49959666  0.33333333  0.83373680  1
  I  I69  1  0.49452854  0.66593881  0.16518673  1
  I  I70  1  0.50400911  0.66980055  0.49958832  1
  I  I71  1  0.50017742  0.66462574  0.83450117  1
  I  I72  1  0.83103434  -0.00037052  0.16314432  1
  I  I73  1  0.83173719  -0.00415018  0.50838136  1
  I  I74  1  0.83374483  -0.00313384  0.82932418  1
  I  I75  1  0.82732534  0.33349826  0.16457760  1
  I  I76  1  0.83304481  0.33333333  0.50028807  1
  I  I77  1  0.83150159  0.33605286  0.83621354  1
  I  I78  1  0.83789047  0.66674968  0.16791510  1
  I  I79  1  0.82495179  0.67081683  0.50159680  1
  I  I80  1  0.83252205  0.66737347  0.83005660  1
  I  I81  1  0.17380429  0.16611772  -0.00126710  1
  I  I82  1  0.16951021  0.17064548  0.33029572  1
  I  I83  1  0.16868015  0.16212734  0.67012306  1
  I  I84  1  0.16938928  0.49929255  0.00235409  1
  I  I85  1  0.17545284  0.49506717  0.32762590  1
  I  I86  1  0.16745059  0.50036170  0.66708014  1
  I  I87  1  0.16303971  0.83474569  -0.00365986  1
  I  I88  1  0.16430675  0.83338716  0.33309909  1
  I  I89  1  0.16800014  0.83865934  0.67102551  1
  I  I90  1  0.49792280  0.16635784  -0.00276495  1
  I  I91  1  0.49806065  0.16413328  0.33536320  1
  I  I92  1  0.49476040  0.16534722  0.66807992  1
  I  I93  1  0.49968426  0.50132685  -0.00048393  1
  I  I94  1  0.49463071  0.50124358  0.33015970  1
  I  I95  1  0.50342170  0.50003804  0.66991896  1
  I  I96  1  0.49898142  0.83224795  0.00173685  1
  I  I97  1  0.50447945  0.83414549  0.33389192  1
  I  I98  1  0.50114995  0.83477377  0.66475532  1
  I  I99  1  0.82693669  0.16317009  -0.00048646  1
  I  I100  1  0.83185143  0.16591987  0.33357670  1
  I  I101  1  0.83762670  0.16927487  0.66694324  1
  I  I102  1  0.83124818  0.50768744  -0.00376345  1
  I  I103  1  0.83352248  0.50066611  0.33335850  1
  I  I104  1  0.82681483  0.50161187  0.67127208  1
  I  I105  1  0.83609612  0.82934648  -0.00353662  1
  I  I106  1  0.83094360  0.83459587  0.33611967  1
  I  I107  1  0.82970227  0.82964313  0.66764793  1
  I  I108  1  0.00570745  0.17159978  0.15788069  1
  I  I109  1  -0.00002515  0.16600108  0.49981015  1
  I  I110  1  0.00317355  0.16542299  0.83870304  1
  I  I111  1  0.00303766  0.49602112  0.16382363  1
  I  I112  1  -0.00024339  0.50074672  0.50148123  1
  I  I113  1  -0.00202981  0.50253332  0.83527281  1
  I  I114  1  0.00023423  0.83327946  0.16902681  1
  I  I115  1  -0.00278635  0.83207036  0.50238949  1
  I  I116  1  -0.00055853  0.83252126  0.82885392  1
  I  I117  1  0.33097924  0.16737394  0.16394373  1
  I  I118  1  0.33709676  0.15897912  0.50208521  1
  I  I119  1  0.33381725  0.16533986  0.83364921  1
  I  I120  1  0.33460045  0.50054902  0.15952894  1
  I  I121  1  0.33381978  0.50349648  0.50639628  1
  I  I122  1  0.33609827  0.50030853  0.83541081  1
  I  I123  1  0.33699317  0.83192101  0.17029360  1
  I  I124  1  0.33686991  0.83732027  0.49723716  1
  I  I125  1  0.33159648  0.83441904  0.83435202  1
  I  I126  1  0.66625318  0.16630484  0.16588270  1
  I  I127  1  0.66206125  0.16505433  0.50651928  1
  I  I128  1  0.66341439  0.16662870  0.82991114  1
  I  I129  1  0.66321028  0.50453944  0.16465295  1
  I  I130  1  0.66639012  0.49739202  0.49570751  1
  I  I131  1  0.66525347  0.50131982  0.83857258  1
  I  I132  1  0.66230784  0.82800728  0.16533319  1
  I  I133  1  0.66568537  0.83702380  0.50363132  1
  I  I134  1  0.66857802  0.83189258  0.83218324  1
