# generated using pymatgen
data_Cs27Sn13Pb14I81
_symmetry_space_group_name_H-M   'P 1'
_cell_length_a   18.98005259
_cell_length_b   18.97524110
_cell_length_c   18.97607131
_cell_angle_alpha   89.99996363
_cell_angle_beta   90.00101867
_cell_angle_gamma   89.99890246
_symmetry_Int_Tables_number   1
_chemical_formula_structural   Cs27Sn13Pb14I81
_chemical_formula_sum   'Cs27 Sn13 Pb14 I81'
_cell_volume   6834.25245933
_cell_formula_units_Z   1
loop_
 _symmetry_equiv_pos_site_id
 _symmetry_equiv_pos_as_xyz
  1  'x, y, z'
loop_
 _atom_site_type_symbol
 _atom_site_label
 _atom_site_symmetry_multiplicity
 _atom_site_fract_x
 _atom_site_fract_y
 _atom_site_fract_z
 _atom_site_occupancy
  Cs  Cs0  1  0.00758364  -0.00109773  0.00262090  1
  Cs  Cs1  1  0.00054218  0.00272753  0.33428144  1
  Cs  Cs2  1  -0.00003846  0.00090444  0.66324079  1
  Cs  Cs3  1  -0.00113736  0.33562979  -0.00141741  1
  Cs  Cs4  1  -0.00100283  0.33192283  0.33387726  1
  Cs  Cs5  1  -0.00041717  0.33588645  0.66719821  1
  Cs  Cs6  1  -0.00138952  0.66631471  0.00053613  1
  Cs  Cs7  1  0.00129637  0.66687144  0.33131610  1
  Cs  Cs8  1  -0.00101670  0.66313088  0.66762576  1
  Cs  Cs9  1  0.32666278  0.00378107  -0.00553391  1
  Cs  Cs10  1  0.32787011  0.00146342  0.33271910  1
  Cs  Cs11  1  0.33516541  0.00078803  0.67141900  1
  Cs  Cs12  1  0.33734995  0.32761186  0.00063531  1
  Cs  Cs13  1  0.33862215  0.33484376  0.33624190  1
  Cs  Cs14  1  0.33207444  0.33197689  0.66325333  1
  Cs  Cs15  1  0.33182228  0.66977580  0.00077293  1
  Cs  Cs16  1  0.33567294  0.66427892  0.33541596  1
  Cs  Cs17  1  0.33638310  0.66818395  0.66331159  1
  Cs  Cs18  1  0.66422750  -0.00005269  0.00012344  1
  Cs  Cs19  1  0.66981755  -0.00029163  0.33584043  1
  Cs  Cs20  1  0.66442542  -0.00334832  0.66339020  1
  Cs  Cs21  1  0.66537564  0.33357845  0.00115256  1
  Cs  Cs22  1  0.66395041  0.33005052  0.32933303  1
  Cs  Cs23  1  0.66972667  0.33347793  0.66963284  1
  Cs  Cs24  1  0.66853760  0.66541145  0.00102598  1
  Cs  Cs25  1  0.66321301  0.66894517  0.33131338  1
  Cs  Cs26  1  0.66653767  0.66991126  0.66689855  1
  Sn  Sn27  1  0.83327355  0.50031153  0.83356920  1
  Sn  Sn28  1  0.16737536  0.50007166  0.83427700  1
  Sn  Sn29  1  0.50010922  0.83385014  0.16625321  1
  Sn  Sn30  1  0.16727363  0.16596556  0.50026410  1
  Sn  Sn31  1  0.49975368  0.16648032  0.50009264  1
  Sn  Sn32  1  0.83363061  0.83376114  0.83413774  1
  Sn  Sn33  1  0.83274338  0.50022713  0.49929216  1
  Sn  Sn34  1  0.16639714  0.83375587  0.50031134  1
  Sn  Sn35  1  0.16632088  0.49980214  0.16587155  1
  Sn  Sn36  1  0.83259710  0.83274521  0.16584779  1
  Sn  Sn37  1  0.49971136  0.50021228  0.83323800  1
  Sn  Sn38  1  0.83391535  0.50068037  0.16691613  1
  Sn  Sn39  1  0.83353370  0.16594812  0.83370176  1
  Pb  Pb40  1  0.50004869  0.50131347  0.16454040  1
  Pb  Pb41  1  0.83346257  0.16633897  0.16395520  1
  Pb  Pb42  1  0.16660692  0.17007906  0.16890627  1
  Pb  Pb43  1  0.16435796  0.83100014  0.83125717  1
  Pb  Pb44  1  0.49770741  0.83544789  0.49793027  1
  Pb  Pb45  1  0.50006024  0.16336450  0.16849844  1
  Pb  Pb46  1  0.50216819  0.16851214  0.83159634  1
  Pb  Pb47  1  0.16454751  0.16909339  0.83136057  1
  Pb  Pb48  1  0.16522193  0.49980533  0.49982708  1
  Pb  Pb49  1  0.50306631  0.49850143  0.50216252  1
  Pb  Pb50  1  0.50201231  0.83151857  0.83539538  1
  Pb  Pb51  1  0.83480764  0.83121573  0.49950479  1
  Pb  Pb52  1  0.16620079  0.83135403  0.16820990  1
  Pb  Pb53  1  0.83339510  0.16876778  0.50181738  1
  I  I54  1  0.16575158  -0.00012988  0.16758465  1
  I  I55  1  0.16812178  0.00034621  0.49904979  1
  I  I56  1  0.16438130  -0.00003334  0.83344240  1
  I  I57  1  0.15906805  0.33819093  0.16419399  1
  I  I58  1  0.16844597  0.33129823  0.50076203  1
  I  I59  1  0.16220434  0.33742600  0.83385688  1
  I  I60  1  0.16356614  0.66334881  0.16575481  1
  I  I61  1  0.16304586  0.66809938  0.49982720  1
  I  I62  1  0.16261687  0.66269325  0.83384537  1
  I  I63  1  0.50876436  -0.00442534  0.16761671  1
  I  I64  1  0.50077583  0.00318477  0.50058697  1
  I  I65  1  0.50291637  -0.00009034  0.83276634  1
  I  I66  1  0.50030983  0.33343347  0.16697454  1
  I  I67  1  0.49284888  0.33084650  0.50012127  1
  I  I68  1  0.50365671  0.33687925  0.83389237  1
  I  I69  1  0.50278203  0.66901047  0.16716691  1
  I  I70  1  0.49858264  0.66673538  0.50024441  1
  I  I71  1  0.50308484  0.66317263  0.83227577  1
  I  I72  1  0.82908006  -0.00358549  0.16320821  1
  I  I73  1  0.83282500  -0.00003512  0.50117620  1
  I  I74  1  0.83276778  -0.00085456  0.83628377  1
  I  I75  1  0.83734765  0.33687903  0.16611339  1
  I  I76  1  0.83631413  0.33688395  0.50157381  1
  I  I77  1  0.83374959  0.33556199  0.83173987  1
  I  I78  1  0.83372958  0.66550591  0.16204595  1
  I  I79  1  0.83662185  0.66324530  0.50536977  1
  I  I80  1  0.83373175  0.66506229  0.83380190  1
  I  I81  1  0.16566398  0.16553665  -0.00029537  1
  I  I82  1  0.16795845  0.16498329  0.33709409  1
  I  I83  1  0.16896247  0.16599200  0.66343710  1
  I  I84  1  0.15962094  0.50167667  -0.00050695  1
  I  I85  1  0.16023079  0.50054955  0.33100809  1
  I  I86  1  0.16306506  0.49960080  0.66917161  1
  I  I87  1  0.16792958  0.83338432  -0.00005567  1
  I  I88  1  0.16389492  0.83412133  0.33600304  1
  I  I89  1  0.16457893  0.83416941  0.66356583  1
  I  I90  1  0.50189171  0.16781130  -0.00027861  1
  I  I91  1  0.49723761  0.16962903  0.33664637  1
  I  I92  1  0.49633857  0.16737417  0.66375102  1
  I  I93  1  0.50580052  0.50011057  -0.00328995  1
  I  I94  1  0.49999600  0.49978158  0.33323369  1
  I  I95  1  0.50050559  0.49995643  0.67017905  1
  I  I96  1  0.50234262  0.83111541  0.00316209  1
  I  I97  1  0.50818981  0.83103710  0.33029065  1
  I  I98  1  0.50101110  0.83275956  0.66673050  1
  I  I99  1  0.83248038  0.17361371  -0.00394473  1
  I  I100  1  0.83335457  0.16819304  0.33343646  1
  I  I101  1  0.83393401  0.16926609  0.66975003  1
  I  I102  1  0.83449773  0.50078316  -0.00080953  1
  I  I103  1  0.83963916  0.50416528  0.33201422  1
  I  I104  1  0.83463805  0.49953112  0.66852072  1
  I  I105  1  0.83019231  0.82682351  -0.00003521  1
  I  I106  1  0.83113733  0.82733853  0.33031041  1
  I  I107  1  0.83567026  0.83045311  0.66933707  1
  I  I108  1  -0.00007226  0.16295443  0.17015388  1
  I  I109  1  0.00231779  0.16492845  0.50156726  1
  I  I110  1  -0.00342145  0.17061034  0.83038399  1
  I  I111  1  -0.00172563  0.50528747  0.16264198  1
  I  I112  1  -0.00271583  0.49822616  0.50485549  1
  I  I113  1  -0.00169717  0.49983610  0.83315140  1
  I  I114  1  -0.00319655  0.82958658  0.16362440  1
  I  I115  1  0.00245528  0.83872611  0.49850907  1
  I  I116  1  -0.00408590  0.82985926  0.83906856  1
  I  I117  1  0.33326203  0.16683150  0.16481803  1
  I  I118  1  0.33253251  0.16465850  0.50024335  1
  I  I119  1  0.33318827  0.16927277  0.83329773  1
  I  I120  1  0.33075945  0.50223920  0.16324845  1
  I  I121  1  0.33341464  0.50123467  0.50044277  1
  I  I122  1  0.33260378  0.49993108  0.83721966  1
  I  I123  1  0.33520311  0.82989145  0.17096980  1
  I  I124  1  0.32990613  0.83158658  0.49791279  1
  I  I125  1  0.33317508  0.83050932  0.83386772  1
  I  I126  1  0.66691651  0.17192899  0.16979594  1
  I  I127  1  0.66476913  0.16980665  0.50192488  1
  I  I128  1  0.67027780  0.17074711  0.83037473  1
  I  I129  1  0.67001426  0.50190534  0.16553695  1
  I  I130  1  0.67107269  0.49874916  0.50064533  1
  I  I131  1  0.66884320  0.49945451  0.83265841  1
  I  I132  1  0.66871419  0.82629222  0.16401478  1
  I  I133  1  0.66682293  0.83410123  0.50162230  1
  I  I134  1  0.67065946  0.82963830  0.83278993  1
