# generated using pymatgen
data_Cs27Sn14Pb13I81
_symmetry_space_group_name_H-M   'P 1'
_cell_length_a   18.96188597
_cell_length_b   18.96715737
_cell_length_c   18.95810674
_cell_angle_alpha   90.00046500
_cell_angle_beta   89.99967416
_cell_angle_gamma   89.99962830
_symmetry_Int_Tables_number   1
_chemical_formula_structural   Cs27Sn14Pb13I81
_chemical_formula_sum   'Cs27 Sn14 Pb13 I81'
_cell_volume   6818.34139183
_cell_formula_units_Z   1
loop_
 _symmetry_equiv_pos_site_id
 _symmetry_equiv_pos_as_xyz
  1  'x, y, z'
loop_
 _atom_site_type_symbol
 _atom_site_label
 _atom_site_symmetry_multiplicity
 _atom_site_fract_x
 _atom_site_fract_y
 _atom_site_fract_z
 _atom_site_occupancy
  Cs  Cs0  1  -0.00001584  0.00167628  0.00030637  1
  Cs  Cs1  1  -0.00545619  -0.00204312  0.33789883  1
  Cs  Cs2  1  0.00126935  0.00108080  0.66316227  1
  Cs  Cs3  1  0.00114366  0.33380876  -0.00011279  1
  Cs  Cs4  1  0.00027829  0.33507200  0.34115469  1
  Cs  Cs5  1  -0.00081413  0.33278426  0.66036122  1
  Cs  Cs6  1  0.00105191  0.66452773  -0.00053738  1
  Cs  Cs7  1  -0.00166568  0.66762187  0.34165630  1
  Cs  Cs8  1  0.00088264  0.66633621  0.66284159  1
  Cs  Cs9  1  0.33412670  -0.00036604  -0.00001479  1
  Cs  Cs10  1  0.33297634  0.00090099  0.33117148  1
  Cs  Cs11  1  0.33295722  -0.00075880  0.66769055  1
  Cs  Cs12  1  0.33239858  0.33224722  0.00094425  1
  Cs  Cs13  1  0.33333091  0.33190625  0.33615942  1
  Cs  Cs14  1  0.33314943  0.33231934  0.66141911  1
  Cs  Cs15  1  0.33401168  0.66740274  -0.00001666  1
  Cs  Cs16  1  0.33267851  0.66678422  0.33093734  1
  Cs  Cs17  1  0.33292899  0.66812069  0.66852292  1
  Cs  Cs18  1  0.66675290  0.00011169  0.00004142  1
  Cs  Cs19  1  0.67201629  -0.00046279  0.33070782  1
  Cs  Cs20  1  0.66552402  0.00262291  0.67033608  1
  Cs  Cs21  1  0.66658948  0.33410840  -0.00034554  1
  Cs  Cs22  1  0.66618350  0.33481019  0.33922532  1
  Cs  Cs23  1  0.66743873  0.33341398  0.66191694  1
  Cs  Cs24  1  0.66565758  0.66671181  -0.00035501  1
  Cs  Cs25  1  0.66849591  0.66618011  0.33313271  1
  Cs  Cs26  1  0.66555815  0.66541586  0.66945616  1
  Sn  Sn27  1  0.83366725  0.83270797  0.83403187  1
  Sn  Sn28  1  0.49999180  0.83351379  0.49962319  1
  Sn  Sn29  1  0.83279886  0.49995714  0.16557588  1
  Sn  Sn30  1  0.50080359  0.49981942  0.16562643  1
  Sn  Sn31  1  0.50046783  0.49961481  0.83424227  1
  Sn  Sn32  1  0.16708157  0.16567194  0.16572836  1
  Sn  Sn33  1  0.16757995  0.16598496  0.83441243  1
  Sn  Sn34  1  0.49908833  0.16700266  0.83430191  1
  Sn  Sn35  1  0.16640780  0.83413015  0.83456360  1
  Sn  Sn36  1  0.83267365  0.50067443  0.83456027  1
  Sn  Sn37  1  0.16688248  0.83411955  0.16570496  1
  Sn  Sn38  1  0.49956089  0.16670934  0.16564289  1
  Sn  Sn39  1  0.49959841  0.83346685  0.16665292  1
  Sn  Sn40  1  0.49990029  0.83335230  0.83359602  1
  Pb  Pb41  1  0.83382690  0.83143503  0.16465444  1
  Pb  Pb42  1  0.16899173  0.83346786  0.49980173  1
  Pb  Pb43  1  0.16681355  0.50001898  0.16673668  1
  Pb  Pb44  1  0.83023483  0.83332829  0.50356276  1
  Pb  Pb45  1  0.16712488  0.16612411  0.49964092  1
  Pb  Pb46  1  0.83279211  0.50031627  0.50059743  1
  Pb  Pb47  1  0.83357990  0.16952469  0.16654444  1
  Pb  Pb48  1  0.16690499  0.49964986  0.83314479  1
  Pb  Pb49  1  0.83295479  0.16631576  0.49991228  1
  Pb  Pb50  1  0.16726755  0.50030149  0.50000070  1
  Pb  Pb51  1  0.83352495  0.16713182  0.83344675  1
  Pb  Pb52  1  0.50002673  0.16393166  0.49967662  1
  Pb  Pb53  1  0.49976216  0.50248086  0.49997906  1
  I  I54  1  0.17580058  -0.00057109  0.16192372  1
  I  I55  1  0.16739384  -0.00022424  0.50112147  1
  I  I56  1  0.17021954  -0.00088225  0.83645405  1
  I  I57  1  0.17027581  0.33011064  0.16130032  1
  I  I58  1  0.16626746  0.33288720  0.50046637  1
  I  I59  1  0.16997337  0.32995315  0.83824221  1
  I  I60  1  0.17145870  0.66999016  0.16158437  1
  I  I61  1  0.16715595  0.66743895  0.50000915  1
  I  I62  1  0.16975901  0.67003504  0.83728779  1
  I  I63  1  0.49557576  -0.00055373  0.16416975  1
  I  I64  1  0.49908146  -0.00387829  0.50228864  1
  I  I65  1  0.50030164  -0.00089793  0.83454591  1
  I  I66  1  0.49957432  0.33316224  0.15936034  1
  I  I67  1  0.50036524  0.33323874  0.50050912  1
  I  I68  1  0.50015921  0.33325771  0.84017167  1
  I  I69  1  0.49950016  0.66741509  0.16429400  1
  I  I70  1  0.49962160  0.67036201  0.50131970  1
  I  I71  1  0.50046468  0.66761262  0.83486941  1
  I  I72  1  0.83040789  -0.00017286  0.16575569  1
  I  I73  1  0.83294138  -0.00071052  0.50062651  1
  I  I74  1  0.82959556  -0.00284869  0.83280280  1
  I  I75  1  0.82913102  0.33750148  0.15885693  1
  I  I76  1  0.83347150  0.33375527  0.50197234  1
  I  I77  1  0.82971555  0.33667826  0.83708935  1
  I  I78  1  0.82831617  0.66351932  0.16346562  1
  I  I79  1  0.83359562  0.66683403  0.49803233  1
  I  I80  1  0.82913502  0.66685556  0.83694347  1
  I  I81  1  0.17152360  0.16220522  -0.00032319  1
  I  I82  1  0.17215872  0.16361246  0.32928351  1
  I  I83  1  0.17071544  0.16274989  0.67042210  1
  I  I84  1  0.16546514  0.50039965  -0.00009678  1
  I  I85  1  0.16658787  0.50025287  0.33252032  1
  I  I86  1  0.16675672  0.50038508  0.66750247  1
  I  I87  1  0.17205743  0.83665889  -0.00070964  1
  I  I88  1  0.17187048  0.83616977  0.32952213  1
  I  I89  1  0.16756549  0.83632130  0.67051439  1
  I  I90  1  0.49650687  0.16327060  -0.00043074  1
  I  I91  1  0.49585249  0.16777928  0.32933223  1
  I  I92  1  0.49698252  0.16660799  0.67047207  1
  I  I93  1  0.50401872  0.50400488  -0.00032373  1
  I  I94  1  0.50316863  0.49980871  0.32947001  1
  I  I95  1  0.50365801  0.50016165  0.67054900  1
  I  I96  1  0.49940435  0.83283080  -0.00052089  1
  I  I97  1  0.49470502  0.83262092  0.33143368  1
  I  I98  1  0.50018112  0.83279886  0.66912124  1
  I  I99  1  0.83330453  0.16513058  -0.00015523  1
  I  I100  1  0.83285681  0.16824244  0.33262711  1
  I  I101  1  0.83289614  0.16859740  0.66749897  1
  I  I102  1  0.82804143  0.50387188  -0.00098054  1
  I  I103  1  0.82888175  0.49908296  0.33022368  1
  I  I104  1  0.82875371  0.50361721  0.67067728  1
  I  I105  1  0.82828332  0.83144460  -0.00365857  1
  I  I106  1  0.83355200  0.83166951  0.33314076  1
  I  I107  1  0.83436260  0.82711074  0.67203519  1
  I  I108  1  0.00362183  0.16276246  0.16126172  1
  I  I109  1  0.00039008  0.16716662  0.50083484  1
  I  I110  1  0.00341884  0.16325880  0.83755498  1
  I  I111  1  -0.00278352  0.50018428  0.16126498  1
  I  I112  1  -0.00039871  0.50026480  0.49969634  1
  I  I113  1  -0.00299038  0.50373786  0.83755600  1
  I  I114  1  0.00310153  0.83648923  0.16114343  1
  I  I115  1  -0.00007478  0.83276259  0.49945312  1
  I  I116  1  0.00087783  0.83304287  0.83883977  1
  I  I117  1  0.33457442  0.16735161  0.16253105  1
  I  I118  1  0.33362951  0.16733522  0.50099496  1
  I  I119  1  0.33442823  0.16331618  0.83687340  1
  I  I120  1  0.33700941  0.50123491  0.16170394  1
  I  I121  1  0.33419067  0.50031557  0.50045958  1
  I  I122  1  0.33698715  0.50336099  0.83815755  1
  I  I123  1  0.33489020  0.83168252  0.16273857  1
  I  I124  1  0.33684669  0.83286056  0.50501978  1
  I  I125  1  0.33453474  0.83314799  0.83317610  1
  I  I126  1  0.66293076  0.16297106  0.16180759  1
  I  I127  1  0.66586069  0.16627371  0.50116338  1
  I  I128  1  0.66306824  0.16315587  0.83734861  1
  I  I129  1  0.66471575  0.50095950  0.16244560  1
  I  I130  1  0.66629833  0.50048845  0.49996417  1
  I  I131  1  0.66527308  0.50402187  0.83687199  1
  I  I132  1  0.66320637  0.83570862  0.16590389  1
  I  I133  1  0.66228607  0.83290532  0.49810927  1
  I  I134  1  0.66498132  0.83288103  0.83289329  1
