# generated using pymatgen
data_Cs27Sn13Pb14I81
_symmetry_space_group_name_H-M   'P 1'
_cell_length_a   18.97865745
_cell_length_b   18.97389028
_cell_length_c   18.97566691
_cell_angle_alpha   89.99981750
_cell_angle_beta   90.00203985
_cell_angle_gamma   89.99837885
_symmetry_Int_Tables_number   1
_chemical_formula_structural   Cs27Sn13Pb14I81
_chemical_formula_sum   'Cs27 Sn13 Pb14 I81'
_cell_volume   6833.11799016
_cell_formula_units_Z   1
loop_
 _symmetry_equiv_pos_site_id
 _symmetry_equiv_pos_as_xyz
  1  'x, y, z'
loop_
 _atom_site_type_symbol
 _atom_site_label
 _atom_site_symmetry_multiplicity
 _atom_site_fract_x
 _atom_site_fract_y
 _atom_site_fract_z
 _atom_site_occupancy
  Cs  Cs0  1  -0.00270539  -0.00199543  0.00269020  1
  Cs  Cs1  1  -0.00448194  0.00188723  0.33106209  1
  Cs  Cs2  1  0.00099817  0.00075867  0.66670447  1
  Cs  Cs3  1  0.00395504  0.33365489  0.00601349  1
  Cs  Cs4  1  0.00227590  0.34087976  0.32816741  1
  Cs  Cs5  1  0.00087810  0.33277496  0.66544548  1
  Cs  Cs6  1  -0.00926779  0.66956935  -0.00061991  1
  Cs  Cs7  1  0.00042529  0.65569957  0.33453380  1
  Cs  Cs8  1  0.00179012  0.66544291  0.66528727  1
  Cs  Cs9  1  0.33271271  0.00006312  0.00136553  1
  Cs  Cs10  1  0.33442562  -0.00120248  0.33297235  1
  Cs  Cs11  1  0.33195123  -0.00196789  0.66595180  1
  Cs  Cs12  1  0.33315233  0.33325283  -0.00046186  1
  Cs  Cs13  1  0.33464234  0.33386310  0.33183226  1
  Cs  Cs14  1  0.33303793  0.33155892  0.66868286  1
  Cs  Cs15  1  0.33490389  0.66852669  -0.00133962  1
  Cs  Cs16  1  0.33208652  0.66797015  0.33433652  1
  Cs  Cs17  1  0.33145733  0.67652112  0.66784333  1
  Cs  Cs18  1  0.66994592  -0.00037281  0.00227085  1
  Cs  Cs19  1  0.66649172  0.00004310  0.33455660  1
  Cs  Cs20  1  0.66670179  0.00186838  0.66298115  1
  Cs  Cs21  1  0.66490256  0.33455624  -0.00221941  1
  Cs  Cs22  1  0.66424908  0.33324098  0.33472177  1
  Cs  Cs23  1  0.66675408  0.33240982  0.66603926  1
  Cs  Cs24  1  0.67264987  0.66646937  -0.00727753  1
  Cs  Cs25  1  0.66634133  0.66592940  0.33260691  1
  Cs  Cs26  1  0.66685098  0.66548307  0.67491341  1
  Sn  Sn27  1  0.83379752  0.16626010  0.50043094  1
  Sn  Sn28  1  0.16691939  0.49964389  0.83333171  1
  Sn  Sn29  1  0.49953059  0.83302769  0.16665880  1
  Sn  Sn30  1  0.16657314  0.16670243  0.49993040  1
  Sn  Sn31  1  0.49997522  0.16646885  0.83309262  1
  Sn  Sn32  1  0.16644214  0.16737934  0.83288948  1
  Sn  Sn33  1  0.49963020  0.16724585  0.50009097  1
  Sn  Sn34  1  0.49985212  0.16658958  0.16674265  1
  Sn  Sn35  1  0.49980179  0.50037389  0.16700700  1
  Sn  Sn36  1  0.16677725  0.83331712  0.16694238  1
  Sn  Sn37  1  0.83372828  0.16685849  0.83278164  1
  Sn  Sn38  1  0.83325623  0.83349515  0.49988374  1
  Sn  Sn39  1  0.49962900  0.49971835  0.50009300  1
  Pb  Pb40  1  0.83347791  0.83607623  0.83033338  1
  Pb  Pb41  1  0.50154266  0.83320666  0.49832749  1
  Pb  Pb42  1  0.16418838  0.83576539  0.49756230  1
  Pb  Pb43  1  0.16648192  0.83406205  0.83539543  1
  Pb  Pb44  1  0.83022175  0.49986497  0.16653677  1
  Pb  Pb45  1  0.83640615  0.49668522  0.83301394  1
  Pb  Pb46  1  0.49824372  0.49819775  0.83291099  1
  Pb  Pb47  1  0.50012846  0.83642729  0.83598204  1
  Pb  Pb48  1  0.83073132  0.16709400  0.16712694  1
  Pb  Pb49  1  0.16873391  0.16541794  0.16667800  1
  Pb  Pb50  1  0.83306600  0.83326174  0.16928505  1
  Pb  Pb51  1  0.83081859  0.49914333  0.50024295  1
  Pb  Pb52  1  0.16917764  0.50271395  0.16420279  1
  Pb  Pb53  1  0.16969325  0.49771761  0.50195141  1
  I  I54  1  0.17396725  -0.00217312  0.16533359  1
  I  I55  1  0.17293638  0.00430371  0.50647582  1
  I  I56  1  0.16765764  0.00409533  0.83037874  1
  I  I57  1  0.16768569  0.33343556  0.16793749  1
  I  I58  1  0.16262290  0.32902781  0.50054893  1
  I  I59  1  0.16772660  0.33071739  0.83025755  1
  I  I60  1  0.17367361  0.67009966  0.16619962  1
  I  I61  1  0.16647942  0.66659872  0.50145708  1
  I  I62  1  0.16965948  0.66421457  0.83521956  1
  I  I63  1  0.49643253  0.00093588  0.16645616  1
  I  I64  1  0.49914932  0.00365327  0.49955328  1
  I  I65  1  0.49684516  0.00528181  0.83128551  1
  I  I66  1  0.50100405  0.33242179  0.16779090  1
  I  I67  1  0.50187076  0.33092717  0.49521762  1
  I  I68  1  0.50161218  0.32928368  0.83720887  1
  I  I69  1  0.49502655  0.66646496  0.17370358  1
  I  I70  1  0.50189157  0.66405162  0.49414506  1
  I  I71  1  0.49762882  0.66656984  0.83290030  1
  I  I72  1  0.83044454  0.00027587  0.16468350  1
  I  I73  1  0.83029807  0.00260160  0.50301771  1
  I  I74  1  0.83498426  0.00454364  0.83265951  1
  I  I75  1  0.83335844  0.33303068  0.16875667  1
  I  I76  1  0.83309104  0.32927124  0.50470319  1
  I  I77  1  0.82869643  0.32848633  0.82584556  1
  I  I78  1  0.83187850  0.66683284  0.16880591  1
  I  I79  1  0.83126119  0.66899924  0.49652964  1
  I  I80  1  0.83408548  0.66654140  0.83296523  1
  I  I81  1  0.16746612  0.16882789  -0.00298312  1
  I  I82  1  0.16747900  0.16360529  0.33613212  1
  I  I83  1  0.17090791  0.16921485  0.66681506  1
  I  I84  1  0.17007069  0.49000587  -0.00313505  1
  I  I85  1  0.16567822  0.49932724  0.33327891  1
  I  I86  1  0.16879744  0.49685738  0.66964828  1
  I  I87  1  0.17238686  0.83655063  0.00316442  1
  I  I88  1  0.17302835  0.83599259  0.33012866  1
  I  I89  1  0.16584945  0.83209112  0.66643425  1
  I  I90  1  0.49942376  0.16640036  0.00001529  1
  I  I91  1  0.50015397  0.16692441  0.33385286  1
  I  I92  1  0.50063054  0.17173057  0.66599096  1
  I  I93  1  0.49779395  0.49790767  0.00261672  1
  I  I94  1  0.50002575  0.49363829  0.33308315  1
  I  I95  1  0.50029517  0.49298511  0.66396492  1
  I  I96  1  0.49638654  0.83334631  0.00443714  1
  I  I97  1  0.49757300  0.83883448  0.33016087  1
  I  I98  1  0.50105063  0.83286274  0.66653575  1
  I  I99  1  0.83308741  0.16725825  -0.00307085  1
  I  I100  1  0.83208399  0.16202600  0.33695345  1
  I  I101  1  0.82866204  0.16292648  0.66607661  1
  I  I102  1  0.83075335  0.49924468  -0.00037758  1
  I  I103  1  0.83605877  0.49754969  0.33362253  1
  I  I104  1  0.82931035  0.50263317  0.66660668  1
  I  I105  1  0.83308152  0.83447200  0.00005124  1
  I  I106  1  0.83168452  0.84359028  0.33661411  1
  I  I107  1  0.83216558  0.83681792  0.66276817  1
  I  I108  1  0.00016739  0.16320741  0.16634063  1
  I  I109  1  -0.00011142  0.16044541  0.50840263  1
  I  I110  1  0.00044740  0.16962301  0.82514446  1
  I  I111  1  0.00055699  0.50165879  0.16611910  1
  I  I112  1  0.00033473  0.49955882  0.50067190  1
  I  I113  1  0.00403787  0.49421982  0.83318784  1
  I  I114  1  0.00243358  0.83654441  0.16603973  1
  I  I115  1  -0.00337374  0.84101441  0.49854076  1
  I  I116  1  0.00001656  0.83546795  0.83768945  1
  I  I117  1  0.33734171  0.16807119  0.16682819  1
  I  I118  1  0.33420492  0.17077380  0.50227228  1
  I  I119  1  0.33347751  0.17025812  0.83143880  1
  I  I120  1  0.33726393  0.49594897  0.17004684  1
  I  I121  1  0.33747029  0.49364380  0.49539146  1
  I  I122  1  0.33078690  0.49135792  0.83397973  1
  I  I123  1  0.33498438  0.83522329  0.16725801  1
  I  I124  1  0.33331198  0.83443970  0.50026317  1
  I  I125  1  0.33336862  0.83621148  0.83097183  1
  I  I126  1  0.66190112  0.16393952  0.16674675  1
  I  I127  1  0.66580834  0.16623341  0.50199824  1
  I  I128  1  0.66600896  0.16529113  0.83107162  1
  I  I129  1  0.66145210  0.50052001  0.16998199  1
  I  I130  1  0.66272464  0.49311965  0.49568499  1
  I  I131  1  0.66651045  0.49917338  0.83437244  1
  I  I132  1  0.66328983  0.83524385  0.16845440  1
  I  I133  1  0.66907279  0.84154731  0.49685903  1
  I  I134  1  0.66671013  0.83354980  0.83633630  1
