# generated using pymatgen
data_Cs27Sn13Pb14I81
_symmetry_space_group_name_H-M   'P 1'
_cell_length_a   18.98393175
_cell_length_b   18.99055023
_cell_length_c   19.00059156
_cell_angle_alpha   89.99936475
_cell_angle_beta   89.99833423
_cell_angle_gamma   89.99889440
_symmetry_Int_Tables_number   1
_chemical_formula_structural   Cs27Sn13Pb14I81
_chemical_formula_sum   'Cs27 Sn13 Pb14 I81'
_cell_volume   6850.00414044
_cell_formula_units_Z   1
loop_
 _symmetry_equiv_pos_site_id
 _symmetry_equiv_pos_as_xyz
  1  'x, y, z'
loop_
 _atom_site_type_symbol
 _atom_site_label
 _atom_site_symmetry_multiplicity
 _atom_site_fract_x
 _atom_site_fract_y
 _atom_site_fract_z
 _atom_site_occupancy
  Cs  Cs0  1  -0.00109520  -0.00053853  -0.01155877  1
  Cs  Cs1  1  -0.00394355  0.00401699  0.33765725  1
  Cs  Cs2  1  0.00602677  0.00783429  0.67459160  1
  Cs  Cs3  1  -0.00190990  0.33292206  0.00545316  1
  Cs  Cs4  1  0.00135671  0.33217451  0.33125523  1
  Cs  Cs5  1  0.00363523  0.32753088  0.66364853  1
  Cs  Cs6  1  0.00199672  0.66812686  0.00229105  1
  Cs  Cs7  1  0.00399893  0.66467988  0.33075922  1
  Cs  Cs8  1  -0.00232320  0.66818999  0.66748080  1
  Cs  Cs9  1  0.33215652  0.00064512  0.00296949  1
  Cs  Cs10  1  0.33318746  -0.00811549  0.33112456  1
  Cs  Cs11  1  0.32741707  -0.00095628  0.66462100  1
  Cs  Cs12  1  0.33632109  0.33222044  -0.00025811  1
  Cs  Cs13  1  0.33262046  0.33340928  0.33210372  1
  Cs  Cs14  1  0.33537821  0.33469197  0.66771657  1
  Cs  Cs15  1  0.33254440  0.66785277  0.00165842  1
  Cs  Cs16  1  0.32559022  0.67516415  0.33283900  1
  Cs  Cs17  1  0.33281048  0.66557690  0.66405022  1
  Cs  Cs18  1  0.66825890  -0.00081118  -0.00094894  1
  Cs  Cs19  1  0.66732845  -0.00321840  0.33413200  1
  Cs  Cs20  1  0.66852260  -0.00128755  0.66655109  1
  Cs  Cs21  1  0.66422642  0.33396251  0.00186268  1
  Cs  Cs22  1  0.66746480  0.33261171  0.33289237  1
  Cs  Cs23  1  0.66377565  0.33712206  0.66574704  1
  Cs  Cs24  1  0.66687219  0.66530792  -0.00171348  1
  Cs  Cs25  1  0.66755084  0.67017084  0.33583512  1
  Cs  Cs26  1  0.66744344  0.66491060  0.66605873  1
  Sn  Sn27  1  0.49989002  0.83322269  0.83318613  1
  Sn  Sn28  1  0.50017839  0.16622030  0.83311537  1
  Sn  Sn29  1  0.49935334  0.16720334  0.16710236  1
  Sn  Sn30  1  0.83322284  0.83325230  0.16719969  1
  Sn  Sn31  1  0.16644719  0.49982758  0.83334118  1
  Sn  Sn32  1  0.50008231  0.16711931  0.49968758  1
  Sn  Sn33  1  0.16737874  0.16643777  0.16666350  1
  Sn  Sn34  1  0.50005999  0.50019509  0.83342213  1
  Sn  Sn35  1  0.50001785  0.50020391  0.16754310  1
  Sn  Sn36  1  0.83368220  0.49973687  0.83264554  1
  Sn  Sn37  1  0.83349124  0.83264537  0.49979131  1
  Sn  Sn38  1  0.50038257  0.49975731  0.49914752  1
  Sn  Sn39  1  0.83268903  0.50063916  0.50048748  1
  Pb  Pb40  1  0.17022092  0.16694454  0.49746080  1
  Pb  Pb41  1  0.83080344  0.17012773  0.83319695  1
  Pb  Pb42  1  0.83117106  0.50145984  0.16725127  1
  Pb  Pb43  1  0.83261537  0.16425339  0.16654917  1
  Pb  Pb44  1  0.16667875  0.49998335  0.50197461  1
  Pb  Pb45  1  0.16962531  0.83072674  0.83335414  1
  Pb  Pb46  1  0.16941362  0.16931124  0.83537800  1
  Pb  Pb47  1  0.83112947  0.16737010  0.50018783  1
  Pb  Pb48  1  0.50128693  0.83303553  0.50227407  1
  Pb  Pb49  1  0.16321765  0.83658757  0.16648280  1
  Pb  Pb50  1  0.16956964  0.49837207  0.16452197  1
  Pb  Pb51  1  0.16246573  0.83329525  0.50021876  1
  Pb  Pb52  1  0.50141821  0.83341838  0.16477485  1
  Pb  Pb53  1  0.83169594  0.83125255  0.83266383  1
  I  I54  1  0.17837216  0.00381437  0.16623114  1
  I  I55  1  0.16772422  0.00023717  0.50067358  1
  I  I56  1  0.16717697  0.00036045  0.83416873  1
  I  I57  1  0.16868008  0.33059918  0.16563878  1
  I  I58  1  0.16112192  0.33340492  0.50009762  1
  I  I59  1  0.16964903  0.33691203  0.83320280  1
  I  I60  1  0.16784362  0.66679020  0.16562692  1
  I  I61  1  0.17373711  0.66643447  0.49935796  1
  I  I62  1  0.16999849  0.66265314  0.83440902  1
  I  I63  1  0.49759617  0.00317427  0.16588972  1
  I  I64  1  0.50177589  0.00268880  0.49991614  1
  I  I65  1  0.50180158  0.00073985  0.83453751  1
  I  I66  1  0.49826707  0.33348879  0.16180505  1
  I  I67  1  0.50563167  0.33453659  0.50433317  1
  I  I68  1  0.50018646  0.33444329  0.83365487  1
  I  I69  1  0.50346047  0.66383832  0.16441848  1
  I  I70  1  0.50288463  0.66333280  0.50177175  1
  I  I71  1  0.50088133  0.66456257  0.83390997  1
  I  I72  1  0.82960511  -0.00341153  0.17343471  1
  I  I73  1  0.82995239  -0.00255764  0.49352734  1
  I  I74  1  0.83068865  0.00000778  0.83389956  1
  I  I75  1  0.83455256  0.33333429  0.16619348  1
  I  I76  1  0.82998506  0.33700088  0.50523659  1
  I  I77  1  0.82996579  0.33834167  0.82799634  1
  I  I78  1  0.82925080  0.66903355  0.16692689  1
  I  I79  1  0.82516855  0.66522441  0.50082412  1
  I  I80  1  0.82820590  0.66313687  0.83253419  1
  I  I81  1  0.17430117  0.16786177  0.00281051  1
  I  I82  1  0.17246785  0.16843967  0.32980362  1
  I  I83  1  0.16652012  0.16650030  0.66686014  1
  I  I84  1  0.16698450  0.49936554  -0.00338887  1
  I  I85  1  0.16649800  0.49882838  0.33310642  1
  I  I86  1  0.17343752  0.49929877  0.66995773  1
  I  I87  1  0.16363893  0.83269549  -0.00005522  1
  I  I88  1  0.17192977  0.83213417  0.33308224  1
  I  I89  1  0.16602469  0.83434557  0.66699267  1
  I  I90  1  0.49683785  0.17066705  -0.00007670  1
  I  I91  1  0.49739512  0.17528382  0.33306447  1
  I  I92  1  0.50301327  0.17127672  0.66699749  1
  I  I93  1  0.50064157  0.49717155  -0.00116666  1
  I  I94  1  0.50682245  0.49106568  0.33387673  1
  I  I95  1  0.50086145  0.49731853  0.66739505  1
  I  I96  1  0.50397342  0.83131299  -0.00300010  1
  I  I97  1  0.50035246  0.83346747  0.33350050  1
  I  I98  1  0.50354349  0.83185161  0.66997759  1
  I  I99  1  0.83030959  0.16571797  -0.00008094  1
  I  I100  1  0.83093576  0.17040902  0.33334407  1
  I  I101  1  0.83252421  0.16052678  0.66669691  1
  I  I102  1  0.83060377  0.50136036  -0.00262880  1
  I  I103  1  0.82655641  0.50194269  0.33639613  1
  I  I104  1  0.82584318  0.50664023  0.66657000  1
  I  I105  1  0.83061512  0.83283178  0.00149901  1
  I  I106  1  0.82985718  0.82794873  0.33411373  1
  I  I107  1  0.82903969  0.82891875  0.66402288  1
  I  I108  1  0.00252805  0.16601716  0.16646899  1
  I  I109  1  0.00010205  0.16664772  0.49744066  1
  I  I110  1  0.00027033  0.16697136  0.83581786  1
  I  I111  1  -0.00002548  0.49868748  0.16541512  1
  I  I112  1  -0.00357138  0.50541621  0.50503262  1
  I  I113  1  -0.00081727  0.50190324  0.82849641  1
  I  I114  1  -0.00432515  0.83125915  0.17058140  1
  I  I115  1  -0.00557562  0.82425414  0.49511713  1
  I  I116  1  -0.00010880  0.83161046  0.83395401  1
  I  I117  1  0.33611243  0.17171945  0.16523381  1
  I  I118  1  0.33861857  0.17453440  0.50471827  1
  I  I119  1  0.33800744  0.17019902  0.83111228  1
  I  I120  1  0.33814391  0.49869847  0.16582220  1
  I  I121  1  0.33711608  0.49453099  0.50236364  1
  I  I122  1  0.33583955  0.49907106  0.83368757  1
  I  I123  1  0.33334703  0.83114360  0.16477287  1
  I  I124  1  0.33352205  0.83310036  0.50127526  1
  I  I125  1  0.33794400  0.83133861  0.83443632  1
  I  I126  1  0.66264392  0.17035059  0.16562844  1
  I  I127  1  0.66256406  0.16879934  0.49755320  1
  I  I128  1  0.66196293  0.16902140  0.83720565  1
  I  I129  1  0.66287450  0.49345425  0.16072174  1
  I  I130  1  0.66533045  0.49987938  0.50550248  1
  I  I131  1  0.66481245  0.50002228  0.83265235  1
  I  I132  1  0.66893314  0.83482106  0.16974990  1
  I  I133  1  0.66906508  0.83145752  0.49691640  1
  I  I134  1  0.66359399  0.83099491  0.83399488  1
