# generated using pymatgen
data_Cs27Sn13Pb14I81
_symmetry_space_group_name_H-M   'P 1'
_cell_length_a   18.98159495
_cell_length_b   18.96827944
_cell_length_c   18.97977640
_cell_angle_alpha   89.99738110
_cell_angle_beta   89.99908425
_cell_angle_gamma   89.99802401
_symmetry_Int_Tables_number   1
_chemical_formula_structural   Cs27Sn13Pb14I81
_chemical_formula_sum   'Cs27 Sn13 Pb14 I81'
_cell_volume   6833.63426391
_cell_formula_units_Z   1
loop_
 _symmetry_equiv_pos_site_id
 _symmetry_equiv_pos_as_xyz
  1  'x, y, z'
loop_
 _atom_site_type_symbol
 _atom_site_label
 _atom_site_symmetry_multiplicity
 _atom_site_fract_x
 _atom_site_fract_y
 _atom_site_fract_z
 _atom_site_occupancy
  Cs  Cs0  1  -0.00363895  0.00150738  -0.00377496  1
  Cs  Cs1  1  0.00239801  0.00012160  0.33364064  1
  Cs  Cs2  1  -0.00015129  -0.00047427  0.66952003  1
  Cs  Cs3  1  0.00174274  0.33640585  0.00038554  1
  Cs  Cs4  1  -0.00039130  0.33541686  0.33471604  1
  Cs  Cs5  1  -0.00221665  0.33213509  0.66529827  1
  Cs  Cs6  1  -0.00078938  0.66491573  -0.00064778  1
  Cs  Cs7  1  0.00197429  0.66526835  0.33422302  1
  Cs  Cs8  1  0.00018267  0.66722618  0.66647968  1
  Cs  Cs9  1  0.33279822  0.00171071  0.00021101  1
  Cs  Cs10  1  0.33246118  -0.00182141  0.33281832  1
  Cs  Cs11  1  0.33109235  -0.00297447  0.66642569  1
  Cs  Cs12  1  0.33359960  0.33399552  -0.00290210  1
  Cs  Cs13  1  0.33230320  0.33345240  0.33409421  1
  Cs  Cs14  1  0.34229967  0.33339521  0.66914300  1
  Cs  Cs15  1  0.33289756  0.66584938  0.00003843  1
  Cs  Cs16  1  0.33143246  0.66767125  0.33305451  1
  Cs  Cs17  1  0.33429859  0.66767175  0.66688300  1
  Cs  Cs18  1  0.67549982  0.00500117  0.00774956  1
  Cs  Cs19  1  0.66585088  0.00621094  0.32682069  1
  Cs  Cs20  1  0.67053184  0.00247118  0.66679876  1
  Cs  Cs21  1  0.66330975  0.33242280  -0.00087820  1
  Cs  Cs22  1  0.66795840  0.32498409  0.34016434  1
  Cs  Cs23  1  0.65738156  0.32727041  0.65916280  1
  Cs  Cs24  1  0.66949083  0.66662116  0.00080291  1
  Cs  Cs25  1  0.66716417  0.66789673  0.33130170  1
  Cs  Cs26  1  0.66386036  0.66647045  0.66752725  1
  Sn  Sn27  1  0.49989156  0.83362178  0.83360505  1
  Sn  Sn28  1  0.16681739  0.16613097  0.49977747  1
  Sn  Sn29  1  0.16596886  0.50079103  0.83365218  1
  Sn  Sn30  1  0.83357817  0.49986238  0.83313349  1
  Sn  Sn31  1  0.50009087  0.50000334  0.16719171  1
  Sn  Sn32  1  0.83312825  0.83302951  0.49972581  1
  Sn  Sn33  1  0.83315076  0.50005974  0.16628604  1
  Sn  Sn34  1  0.16664227  0.83390553  0.50017860  1
  Sn  Sn35  1  0.50029470  0.83316897  0.50040081  1
  Sn  Sn36  1  0.16658431  0.16685849  0.16721505  1
  Sn  Sn37  1  0.16669159  0.49992764  0.16595351  1
  Sn  Sn38  1  0.16653497  0.83354395  0.16604958  1
  Sn  Sn39  1  0.16735254  0.83233312  0.83355464  1
  Pb  Pb40  1  0.16670327  0.16696734  0.83309673  1
  Pb  Pb41  1  0.83604017  0.83144667  0.16868601  1
  Pb  Pb42  1  0.49832373  0.83207936  0.16616636  1
  Pb  Pb43  1  0.83610421  0.16368935  0.49993108  1
  Pb  Pb44  1  0.49727081  0.16954461  0.16662915  1
  Pb  Pb45  1  0.16684921  0.49982323  0.50085025  1
  Pb  Pb46  1  0.50011811  0.50191189  0.83504330  1
  Pb  Pb47  1  0.83322525  0.83172658  0.83172830  1
  Pb  Pb48  1  0.49994811  0.16254517  0.83366061  1
  Pb  Pb49  1  0.83324908  0.50166866  0.50042476  1
  Pb  Pb50  1  0.83337258  0.17066916  0.83320369  1
  Pb  Pb51  1  0.50002199  0.50243180  0.49721108  1
  Pb  Pb52  1  0.49694918  0.16314663  0.49994541  1
  Pb  Pb53  1  0.83630248  0.16999553  0.16653746  1
  I  I54  1  0.16806378  -0.00101483  0.16855691  1
  I  I55  1  0.16701681  -0.00214953  0.49611225  1
  I  I56  1  0.17087409  -0.00348542  0.83502483  1
  I  I57  1  0.16631527  0.33467723  0.16724609  1
  I  I58  1  0.16517048  0.33075402  0.49512076  1
  I  I59  1  0.16214029  0.33678983  0.83748280  1
  I  I60  1  0.16681613  0.66636875  0.16716297  1
  I  I61  1  0.16693009  0.67024796  0.49730947  1
  I  I62  1  0.16662597  0.66732339  0.83609113  1
  I  I63  1  0.49788753  -0.00006412  0.16729158  1
  I  I64  1  0.50044901  -0.00495847  0.50281579  1
  I  I65  1  0.49009490  -0.00562871  0.82877670  1
  I  I66  1  0.49731201  0.33787573  0.16480861  1
  I  I67  1  0.49893327  0.33296714  0.49968636  1
  I  I68  1  0.49879743  0.33366494  0.83443219  1
  I  I69  1  0.49584569  0.66394131  0.16721494  1
  I  I70  1  0.49450014  0.67078353  0.50346749  1
  I  I71  1  0.49638416  0.66983470  0.82905437  1
  I  I72  1  0.83390983  0.00001463  0.16804808  1
  I  I73  1  0.83235546  -0.00460257  0.50096526  1
  I  I74  1  0.83406903  -0.00025976  0.83147526  1
  I  I75  1  0.83649719  0.33820737  0.16331845  1
  I  I76  1  0.83573583  0.33313941  0.49959315  1
  I  I77  1  0.84320580  0.33895713  0.83846250  1
  I  I78  1  0.83687877  0.66325500  0.16380915  1
  I  I79  1  0.83882906  0.66997450  0.49923352  1
  I  I80  1  0.83640529  0.66375698  0.83750123  1
  I  I81  1  0.16690439  0.16510399  0.00303285  1
  I  I82  1  0.16672948  0.16305600  0.33277159  1
  I  I83  1  0.16585294  0.16132151  0.66389975  1
  I  I84  1  0.16610497  0.50318514  0.00113123  1
  I  I85  1  0.16577093  0.50287030  0.33011095  1
  I  I86  1  0.16145028  0.50438783  0.67014124  1
  I  I87  1  0.17190339  0.83152520  -0.00014931  1
  I  I88  1  0.16673782  0.83282253  0.33339085  1
  I  I89  1  0.16718473  0.83326521  0.66643570  1
  I  I90  1  0.49631944  0.16494387  0.00032486  1
  I  I91  1  0.50033674  0.16538915  0.33334243  1
  I  I92  1  0.49693887  0.17163796  0.66653373  1
  I  I93  1  0.49771011  0.50369486  0.00295130  1
  I  I94  1  0.49672620  0.50341857  0.32915001  1
  I  I95  1  0.49919067  0.49952213  0.66686266  1
  I  I96  1  0.49276851  0.82972524  -0.00271866  1
  I  I97  1  0.49713036  0.83039676  0.33588386  1
  I  I98  1  0.49319888  0.83134844  0.66632705  1
  I  I99  1  0.83619419  0.16138265  0.00016276  1
  I  I100  1  0.83309127  0.16912888  0.33322717  1
  I  I101  1  0.83711562  0.16833023  0.66634393  1
  I  I102  1  0.83643594  0.50253269  0.00063218  1
  I  I103  1  0.83676614  0.50267680  0.33019907  1
  I  I104  1  0.84167214  0.50360341  0.66993200  1
  I  I105  1  0.83311731  0.83362950  0.00009742  1
  I  I106  1  0.83440910  0.82973826  0.33658514  1
  I  I107  1  0.83910054  0.83019453  0.66382915  1
  I  I108  1  0.00465666  0.16727711  0.17079299  1
  I  I109  1  0.00418898  0.16133546  0.49581626  1
  I  I110  1  0.00055031  0.16143538  0.83290239  1
  I  I111  1  0.00165550  0.50044712  0.16280040  1
  I  I112  1  0.00036450  0.50328702  0.49585320  1
  I  I113  1  0.00168856  0.50670939  0.84201926  1
  I  I114  1  0.00483496  0.83088073  0.16669640  1
  I  I115  1  0.00191279  0.83610518  0.49947595  1
  I  I116  1  0.00342493  0.83131041  0.83251651  1
  I  I117  1  0.32867629  0.16758793  0.17059543  1
  I  I118  1  0.32905805  0.16154610  0.49547747  1
  I  I119  1  0.33280899  0.17227356  0.83339037  1
  I  I120  1  0.33123050  0.50071150  0.16355487  1
  I  I121  1  0.33305215  0.50219494  0.49928640  1
  I  I122  1  0.33027347  0.50227939  0.83775892  1
  I  I123  1  0.32930256  0.83022530  0.17106320  1
  I  I124  1  0.33177783  0.83655239  0.50050249  1
  I  I125  1  0.33107262  0.82737070  0.82853480  1
  I  I126  1  0.66684815  0.16693436  0.16662364  1
  I  I127  1  0.66648524  0.16650603  0.50030063  1
  I  I128  1  0.66664064  0.16676800  0.83305307  1
  I  I129  1  0.66719110  0.50429944  0.16188791  1
  I  I130  1  0.66665090  0.50380636  0.49998430  1
  I  I131  1  0.66913433  0.50359735  0.83929010  1
  I  I132  1  0.66683799  0.82980254  0.16769922  1
  I  I133  1  0.66610297  0.82799079  0.50600138  1
  I  I134  1  0.66412974  0.82985928  0.82673519  1
