# generated using pymatgen
data_Cs27Sn14Pb13I81
_symmetry_space_group_name_H-M   'P 1'
_cell_length_a   18.97611928
_cell_length_b   18.97258312
_cell_length_c   18.98290885
_cell_angle_alpha   90.00065494
_cell_angle_beta   89.99977858
_cell_angle_gamma   90.00039160
_symmetry_Int_Tables_number   1
_chemical_formula_structural   Cs27Sn14Pb13I81
_chemical_formula_sum   'Cs27 Sn14 Pb13 I81'
_cell_volume   6834.34074583
_cell_formula_units_Z   1
loop_
 _symmetry_equiv_pos_site_id
 _symmetry_equiv_pos_as_xyz
  1  'x, y, z'
loop_
 _atom_site_type_symbol
 _atom_site_label
 _atom_site_symmetry_multiplicity
 _atom_site_fract_x
 _atom_site_fract_y
 _atom_site_fract_z
 _atom_site_occupancy
  Cs  Cs0  1  -0.00439091  0.00074278  -0.00109281  1
  Cs  Cs1  1  0.00111297  0.00014889  0.33352888  1
  Cs  Cs2  1  0.00685269  -0.00031593  0.66766744  1
  Cs  Cs3  1  0.00885481  0.33861739  0.00229627  1
  Cs  Cs4  1  0.00008292  0.33761280  0.33341615  1
  Cs  Cs5  1  -0.00423721  0.33379135  0.66436704  1
  Cs  Cs6  1  0.00123385  0.66061638  0.00079628  1
  Cs  Cs7  1  -0.00059872  0.66505604  0.33261342  1
  Cs  Cs8  1  0.00275951  0.66719995  0.66711186  1
  Cs  Cs9  1  0.33468239  0.00085263  0.00067040  1
  Cs  Cs10  1  0.33366364  0.00091400  0.33397766  1
  Cs  Cs11  1  0.32636321  0.00081616  0.66538580  1
  Cs  Cs12  1  0.32779593  0.33394877  -0.00106802  1
  Cs  Cs13  1  0.33293871  0.33327702  0.33332927  1
  Cs  Cs14  1  0.33226589  0.33417708  0.66675478  1
  Cs  Cs15  1  0.33567032  0.66544041  -0.00183364  1
  Cs  Cs16  1  0.33519599  0.66721396  0.33531365  1
  Cs  Cs17  1  0.33208104  0.66628087  0.66482675  1
  Cs  Cs18  1  0.66720686  -0.00056125  0.00026105  1
  Cs  Cs19  1  0.66582022  -0.00126324  0.33075371  1
  Cs  Cs20  1  0.66680772  0.00052187  0.67004127  1
  Cs  Cs21  1  0.66543172  0.32913757  -0.00222579  1
  Cs  Cs22  1  0.66750240  0.33196831  0.33627809  1
  Cs  Cs23  1  0.66980730  0.33207249  0.66646799  1
  Cs  Cs24  1  0.66562777  0.66873345  -0.00042536  1
  Cs  Cs25  1  0.66509387  0.66879624  0.33280980  1
  Cs  Cs26  1  0.66589915  0.66661270  0.66808180  1
  Sn  Sn27  1  0.50047490  0.83437492  0.83309941  1
  Sn  Sn28  1  0.83345669  0.83386335  0.16646937  1
  Sn  Sn29  1  0.16759312  0.50015984  0.49990074  1
  Sn  Sn30  1  0.49993720  0.83346892  0.16662112  1
  Sn  Sn31  1  0.83258712  0.16569778  0.83465820  1
  Sn  Sn32  1  0.49951804  0.50065937  0.49926874  1
  Sn  Sn33  1  0.16663869  0.83360032  0.16624808  1
  Sn  Sn34  1  0.50085857  0.16680098  0.16588918  1
  Sn  Sn35  1  0.50055452  0.16553034  0.83403546  1
  Sn  Sn36  1  0.50060702  0.49960857  0.16718600  1
  Sn  Sn37  1  0.50079684  0.83302703  0.50028235  1
  Sn  Sn38  1  0.83256736  0.16616364  0.16585849  1
  Sn  Sn39  1  0.83243247  0.83359986  0.50015151  1
  Sn  Sn40  1  0.83248074  0.83383986  0.83342299  1
  Pb  Pb41  1  0.16664328  0.83330449  0.83610623  1
  Pb  Pb42  1  0.16629326  0.16646481  0.83354837  1
  Pb  Pb43  1  0.83306065  0.49977606  0.83371882  1
  Pb  Pb44  1  0.83218310  0.50278645  0.49991218  1
  Pb  Pb45  1  0.16644546  0.16447757  0.16668803  1
  Pb  Pb46  1  0.83057344  0.49954501  0.16647284  1
  Pb  Pb47  1  0.16653522  0.16981918  0.49963082  1
  Pb  Pb48  1  0.50016577  0.49971038  0.83310432  1
  Pb  Pb49  1  0.16972700  0.50262064  0.16836475  1
  Pb  Pb50  1  0.83309465  0.16357910  0.49981848  1
  Pb  Pb51  1  0.16682116  0.50022204  0.83039895  1
  Pb  Pb52  1  0.16686282  0.83218114  0.49778507  1
  Pb  Pb53  1  0.50001111  0.16626212  0.50026481  1
  I  I54  1  0.17204251  -0.00355461  0.16848473  1
  I  I55  1  0.16696902  -0.00044149  0.49988748  1
  I  I56  1  0.16807151  -0.00033531  0.83086539  1
  I  I57  1  0.16600941  0.33361613  0.16817637  1
  I  I58  1  0.17510637  0.33791452  0.49896793  1
  I  I59  1  0.16741176  0.33323702  0.83367767  1
  I  I60  1  0.16478513  0.67044821  0.16716302  1
  I  I61  1  0.16963007  0.66441444  0.49813691  1
  I  I62  1  0.16653285  0.66715053  0.83477574  1
  I  I63  1  0.50034508  -0.00120208  0.16683679  1
  I  I64  1  0.50494081  -0.00362609  0.49653109  1
  I  I65  1  0.50430299  -0.00112266  0.83700345  1
  I  I66  1  0.50504052  0.33253073  0.16729147  1
  I  I67  1  0.49446991  0.33613051  0.49629439  1
  I  I68  1  0.50438096  0.32989173  0.83631712  1
  I  I69  1  0.49979360  0.66845823  0.16735859  1
  I  I70  1  0.49994881  0.66810544  0.49641516  1
  I  I71  1  0.50412260  0.67016644  0.83616731  1
  I  I72  1  0.82854748  -0.00158180  0.16655366  1
  I  I73  1  0.82571185  -0.00462606  0.49836455  1
  I  I74  1  0.82802155  -0.00126555  0.83467887  1
  I  I75  1  0.82841964  0.32965159  0.16195793  1
  I  I76  1  0.83484281  0.33328696  0.50061964  1
  I  I77  1  0.82765434  0.32924308  0.83720152  1
  I  I78  1  0.83268034  0.67049818  0.16666855  1
  I  I79  1  0.83166486  0.67121867  0.49893585  1
  I  I80  1  0.82843733  0.67084424  0.83392327  1
  I  I81  1  0.16789801  0.16784285  0.00024105  1
  I  I82  1  0.16715537  0.16491917  0.33281878  1
  I  I83  1  0.16738070  0.16592990  0.66677819  1
  I  I84  1  0.16677765  0.49996447  0.00047356  1
  I  I85  1  0.16912671  0.50166210  0.33606065  1
  I  I86  1  0.17527378  0.50274484  0.66244759  1
  I  I87  1  0.16854414  0.83315160  0.00399536  1
  I  I88  1  0.16728484  0.83251764  0.33008136  1
  I  I89  1  0.16639003  0.83121927  0.66655038  1
  I  I90  1  0.50393532  0.16310908  0.00090399  1
  I  I91  1  0.50365153  0.16404975  0.32999329  1
  I  I92  1  0.50470521  0.16404383  0.66997531  1
  I  I93  1  0.50150406  0.50428341  0.00292081  1
  I  I94  1  0.49680788  0.50437091  0.33313506  1
  I  I95  1  0.49565647  0.50444994  0.66356726  1
  I  I96  1  0.50169817  0.83263373  0.00089799  1
  I  I97  1  0.50219554  0.83236349  0.33240159  1
  I  I98  1  0.50692573  0.83210040  0.66670610  1
  I  I99  1  0.82721444  0.15632560  0.00056003  1
  I  I100  1  0.82838315  0.16228759  0.32979443  1
  I  I101  1  0.82812284  0.16393070  0.67008456  1
  I  I102  1  0.83195953  0.50664615  0.00029577  1
  I  I103  1  0.83535244  0.49940253  0.33324302  1
  I  I104  1  0.83211089  0.49942488  0.66654256  1
  I  I105  1  0.83002066  0.83721467  0.00051002  1
  I  I106  1  0.83024362  0.83585358  0.33228478  1
  I  I107  1  0.82557704  0.83548726  0.66718246  1
  I  I108  1  -0.00373396  0.16070388  0.16268961  1
  I  I109  1  -0.00046259  0.16614777  0.50021629  1
  I  I110  1  -0.00408522  0.16062742  0.83716005  1
  I  I111  1  0.00012461  0.50033022  0.16861297  1
  I  I112  1  0.00216698  0.50138546  0.50087657  1
  I  I113  1  -0.00007293  0.50073959  0.83137381  1
  I  I114  1  -0.00165861  0.83844041  0.16793777  1
  I  I115  1  -0.00291427  0.83238855  0.49976630  1
  I  I116  1  -0.00373920  0.83786471  0.83177650  1
  I  I117  1  0.33709910  0.16567310  0.16311869  1
  I  I118  1  0.33384016  0.16072451  0.49994274  1
  I  I119  1  0.33706190  0.16256091  0.83755082  1
  I  I120  1  0.33785252  0.49999972  0.16813775  1
  I  I121  1  0.33540677  0.50710065  0.49580113  1
  I  I122  1  0.33397438  0.50039080  0.83624990  1
  I  I123  1  0.33569758  0.83293994  0.16749249  1
  I  I124  1  0.33680164  0.83142125  0.49950784  1
  I  I125  1  0.33713313  0.83657690  0.83315995  1
  I  I126  1  0.66570606  0.16160103  0.16339667  1
  I  I127  1  0.66645430  0.17363962  0.49974689  1
  I  I128  1  0.66613539  0.16217241  0.83784897  1
  I  I129  1  0.66245190  0.50572939  0.17351009  1
  I  I130  1  0.66300890  0.50241304  0.49610062  1
  I  I131  1  0.66624428  0.50085646  0.82963182  1
  I  I132  1  0.66594551  0.83329320  0.16736770  1
  I  I133  1  0.66542131  0.82753111  0.49581348  1
  I  I134  1  0.66591627  0.83621513  0.83650309  1
