# generated using pymatgen
data_Cs27Sn13Pb14I81
_symmetry_space_group_name_H-M   'P 1'
_cell_length_a   18.97973226
_cell_length_b   18.97664606
_cell_length_c   18.97613426
_cell_angle_alpha   90.00028769
_cell_angle_beta   89.99980149
_cell_angle_gamma   90.00046894
_symmetry_Int_Tables_number   1
_chemical_formula_structural   Cs27Sn13Pb14I81
_chemical_formula_sum   'Cs27 Sn13 Pb14 I81'
_cell_volume   6834.66580240
_cell_formula_units_Z   1
loop_
 _symmetry_equiv_pos_site_id
 _symmetry_equiv_pos_as_xyz
  1  'x, y, z'
loop_
 _atom_site_type_symbol
 _atom_site_label
 _atom_site_symmetry_multiplicity
 _atom_site_fract_x
 _atom_site_fract_y
 _atom_site_fract_z
 _atom_site_occupancy
  Cs  Cs0  1  0.00062235  -0.00208236  0.00042398  1
  Cs  Cs1  1  -0.00225110  0.00110335  0.33713351  1
  Cs  Cs2  1  0.00085455  0.00918270  0.66131537  1
  Cs  Cs3  1  -0.00010342  0.33256913  0.00036087  1
  Cs  Cs4  1  -0.00196478  0.33405161  0.33347692  1
  Cs  Cs5  1  -0.00631575  0.32382850  0.66529949  1
  Cs  Cs6  1  0.00198836  0.66819322  0.00168459  1
  Cs  Cs7  1  -0.00588781  0.66621430  0.33165152  1
  Cs  Cs8  1  0.00116486  0.66639203  0.66727342  1
  Cs  Cs9  1  0.33391816  0.00028049  0.00102350  1
  Cs  Cs10  1  0.33459210  -0.00039819  0.33402706  1
  Cs  Cs11  1  0.32943924  -0.00079193  0.66276077  1
  Cs  Cs12  1  0.33494360  0.33239325  0.00107766  1
  Cs  Cs13  1  0.33490767  0.33575949  0.33170497  1
  Cs  Cs14  1  0.33351367  0.33431192  0.66679642  1
  Cs  Cs15  1  0.33170665  0.66688233  0.00012880  1
  Cs  Cs16  1  0.33320302  0.66411843  0.33326736  1
  Cs  Cs17  1  0.33415176  0.66696748  0.66611316  1
  Cs  Cs18  1  0.66395159  -0.00020265  0.00101976  1
  Cs  Cs19  1  0.66609537  -0.00189909  0.33421867  1
  Cs  Cs20  1  0.66983480  -0.00161035  0.66359151  1
  Cs  Cs21  1  0.66482708  0.33192925  -0.00800526  1
  Cs  Cs22  1  0.66402376  0.33361414  0.33368550  1
  Cs  Cs23  1  0.67229523  0.33333122  0.67289699  1
  Cs  Cs24  1  0.66900659  0.66729527  -0.00156206  1
  Cs  Cs25  1  0.67204673  0.66773922  0.33406295  1
  Cs  Cs26  1  0.66693860  0.66568440  0.66768454  1
  Sn  Sn27  1  0.83411982  0.83336041  0.83337900  1
  Sn  Sn28  1  0.16731965  0.50012269  0.16674272  1
  Sn  Sn29  1  0.16667719  0.83279838  0.83376988  1
  Sn  Sn30  1  0.49912654  0.83201063  0.16603511  1
  Sn  Sn31  1  0.16583123  0.16653526  0.16670414  1
  Sn  Sn32  1  0.16740684  0.83340539  0.16649572  1
  Sn  Sn33  1  0.49961160  0.16792890  0.50021901  1
  Sn  Sn34  1  0.16704645  0.50004711  0.50001455  1
  Sn  Sn35  1  0.49939848  0.49898230  0.49944967  1
  Sn  Sn36  1  0.16669950  0.50017342  0.83324489  1
  Sn  Sn37  1  0.49962231  0.50102534  0.16701149  1
  Sn  Sn38  1  0.83365994  0.16676749  0.16631231  1
  Sn  Sn39  1  0.49950634  0.83319995  0.83405990  1
  Pb  Pb40  1  0.49804416  0.50186407  0.83348223  1
  Pb  Pb41  1  0.83338251  0.16397852  0.83590242  1
  Pb  Pb42  1  0.49982764  0.83223529  0.49952520  1
  Pb  Pb43  1  0.83277229  0.49790169  0.16635676  1
  Pb  Pb44  1  0.83371188  0.83325355  0.50320385  1
  Pb  Pb45  1  0.83333532  0.83504020  0.16530961  1
  Pb  Pb46  1  0.83040894  0.16695326  0.49733756  1
  Pb  Pb47  1  0.16696124  0.16650105  0.83547702  1
  Pb  Pb48  1  0.49968827  0.16674854  0.16768448  1
  Pb  Pb49  1  0.83302546  0.49997023  0.50001065  1
  Pb  Pb50  1  0.83684690  0.50213325  0.83360231  1
  Pb  Pb51  1  0.49966053  0.16357733  0.83020099  1
  Pb  Pb52  1  0.16864791  0.16956817  0.49700610  1
  Pb  Pb53  1  0.16658341  0.83096956  0.49949664  1
  I  I54  1  0.16765689  -0.00125365  0.16066322  1
  I  I55  1  0.16792656  0.00033611  0.50068408  1
  I  I56  1  0.16718926  -0.00380563  0.83866317  1
  I  I57  1  0.16715195  0.33470134  0.16662881  1
  I  I58  1  0.16919671  0.33765182  0.50058094  1
  I  I59  1  0.16830248  0.33656093  0.83500330  1
  I  I60  1  0.17165344  0.66649195  0.16533685  1
  I  I61  1  0.17452782  0.66283266  0.49668746  1
  I  I62  1  0.16689661  0.66735702  0.83810447  1
  I  I63  1  0.49716039  -0.00274999  0.16455459  1
  I  I64  1  0.50157501  0.00170197  0.49916719  1
  I  I65  1  0.49702470  -0.00491420  0.84001497  1
  I  I66  1  0.49599680  0.33616898  0.17000049  1
  I  I67  1  0.49505208  0.33499675  0.49165862  1
  I  I68  1  0.49869804  0.33362247  0.83655230  1
  I  I69  1  0.49227420  0.66662190  0.16832945  1
  I  I70  1  0.49490282  0.66328345  0.49895934  1
  I  I71  1  0.50117183  0.67020585  0.83279051  1
  I  I72  1  0.83702952  0.00269472  0.16503134  1
  I  I73  1  0.83101244  0.00030290  0.49976541  1
  I  I74  1  0.83569898  -0.00408152  0.83455144  1
  I  I75  1  0.83849443  0.33014677  0.16781700  1
  I  I76  1  0.83570282  0.33330896  0.50044979  1
  I  I77  1  0.83385417  0.33317806  0.83300959  1
  I  I78  1  0.83511123  0.66687938  0.16583662  1
  I  I79  1  0.83075211  0.66656277  0.49784945  1
  I  I80  1  0.83043753  0.67024644  0.83576118  1
  I  I81  1  0.16504416  0.17047460  0.00398498  1
  I  I82  1  0.16371254  0.16444758  0.32889289  1
  I  I83  1  0.16745044  0.16570687  0.66626628  1
  I  I84  1  0.16985794  0.50136738  0.00121154  1
  I  I85  1  0.17169157  0.49944721  0.33206870  1
  I  I86  1  0.17182976  0.50744532  0.66681908  1
  I  I87  1  0.16713896  0.82890560  0.00057053  1
  I  I88  1  0.17266846  0.83349296  0.32939625  1
  I  I89  1  0.16829146  0.82809498  0.67009299  1
  I  I90  1  0.50069910  0.16851293  0.00019450  1
  I  I91  1  0.49933377  0.16638604  0.33543109  1
  I  I92  1  0.49947163  0.17282957  0.66253094  1
  I  I93  1  0.49573274  0.50175545  0.00310052  1
  I  I94  1  0.49171676  0.50135875  0.33229054  1
  I  I95  1  0.49495716  0.49843933  0.66413388  1
  I  I96  1  0.49900590  0.82883426  0.00105977  1
  I  I97  1  0.49450369  0.83346975  0.32985062  1
  I  I98  1  0.49936301  0.83381122  0.66963351  1
  I  I99  1  0.83654886  0.16730750  0.00357966  1
  I  I100  1  0.83911612  0.16468386  0.32979123  1
  I  I101  1  0.83260681  0.16509576  0.66660596  1
  I  I102  1  0.83225771  0.49854100  0.00008604  1
  I  I103  1  0.83750647  0.50084477  0.33302154  1
  I  I104  1  0.83230415  0.50144041  0.66685440  1
  I  I105  1  0.83368325  0.83430295  -0.00264547  1
  I  I106  1  0.83269002  0.83475020  0.33295407  1
  I  I107  1  0.83190332  0.83238293  0.67158246  1
  I  I108  1  0.00186349  0.16646637  0.16577001  1
  I  I109  1  0.00018650  0.16720717  0.50123016  1
  I  I110  1  0.00028857  0.16514997  0.83120719  1
  I  I111  1  0.00384179  0.50317954  0.16736400  1
  I  I112  1  0.00368512  0.50258559  0.49807208  1
  I  I113  1  0.00525971  0.50624668  0.83537348  1
  I  I114  1  0.00342987  0.83030683  0.16243886  1
  I  I115  1  0.00043490  0.83125871  0.49848107  1
  I  I116  1  0.00169741  0.82796693  0.83909489  1
  I  I117  1  0.33057006  0.16661606  0.16774769  1
  I  I118  1  0.33621597  0.16718560  0.49719293  1
  I  I119  1  0.33326744  0.16396767  0.83657373  1
  I  I120  1  0.33227057  0.49905808  0.16741595  1
  I  I121  1  0.33333330  0.49686767  0.49807123  1
  I  I122  1  0.32990844  0.50631222  0.83413422  1
  I  I123  1  0.33276304  0.83461221  0.15934737  1
  I  I124  1  0.33335603  0.83643616  0.50475617  1
  I  I125  1  0.33256630  0.82933892  0.83800473  1
  I  I126  1  0.66826936  0.16498769  0.16927329  1
  I  I127  1  0.66275474  0.17214737  0.49693122  1
  I  I128  1  0.66650292  0.16554942  0.83657910  1
  I  I129  1  0.66284112  0.50372380  0.17258931  1
  I  I130  1  0.66267884  0.49756511  0.49415349  1
  I  I131  1  0.66646608  0.50186422  0.83312926  1
  I  I132  1  0.66350468  0.83134589  0.16329669  1
  I  I133  1  0.66631216  0.83224592  0.49914859  1
  I  I134  1  0.66576983  0.83472166  0.83766706  1
