# generated using pymatgen
data_Cs27Sn14Pb13I81
_symmetry_space_group_name_H-M   'P 1'
_cell_length_a   18.97211305
_cell_length_b   18.97282075
_cell_length_c   18.98495639
_cell_angle_alpha   89.99950810
_cell_angle_beta   90.00127563
_cell_angle_gamma   89.99567268
_symmetry_Int_Tables_number   1
_chemical_formula_structural   Cs27Sn14Pb13I81
_chemical_formula_sum   'Cs27 Sn14 Pb13 I81'
_cell_volume   6833.72046741
_cell_formula_units_Z   1
loop_
 _symmetry_equiv_pos_site_id
 _symmetry_equiv_pos_as_xyz
  1  'x, y, z'
loop_
 _atom_site_type_symbol
 _atom_site_label
 _atom_site_symmetry_multiplicity
 _atom_site_fract_x
 _atom_site_fract_y
 _atom_site_fract_z
 _atom_site_occupancy
  Cs  Cs0  1  0.00311877  -0.00186240  0.00441670  1
  Cs  Cs1  1  0.00162136  -0.00023354  0.33007503  1
  Cs  Cs2  1  0.00002470  0.00100527  0.66642785  1
  Cs  Cs3  1  0.00057095  0.33644464  0.00084845  1
  Cs  Cs4  1  -0.00027551  0.33421238  0.33295747  1
  Cs  Cs5  1  -0.00046061  0.33257158  0.66650305  1
  Cs  Cs6  1  -0.00230287  0.66348183  -0.00233002  1
  Cs  Cs7  1  -0.00192797  0.66393388  0.33396793  1
  Cs  Cs8  1  0.00092755  0.66624920  0.66777870  1
  Cs  Cs9  1  0.33113324  0.00278886  0.01042323  1
  Cs  Cs10  1  0.33093905  0.00145552  0.32931197  1
  Cs  Cs11  1  0.33220415  -0.00369230  0.66435340  1
  Cs  Cs12  1  0.33779487  0.32964684  0.00036049  1
  Cs  Cs13  1  0.33358504  0.33227519  0.33354701  1
  Cs  Cs14  1  0.33337366  0.33424747  0.66621176  1
  Cs  Cs15  1  0.33642442  0.66801755  -0.00116592  1
  Cs  Cs16  1  0.33772388  0.66648327  0.33538631  1
  Cs  Cs17  1  0.33376571  0.66914373  0.66602993  1
  Cs  Cs18  1  0.66358192  -0.00054071  -0.00030551  1
  Cs  Cs19  1  0.66753850  -0.00372816  0.33535770  1
  Cs  Cs20  1  0.66720293  0.00115982  0.66599537  1
  Cs  Cs21  1  0.66102220  0.32989085  -0.00311075  1
  Cs  Cs22  1  0.66874649  0.33567043  0.33501718  1
  Cs  Cs23  1  0.66521025  0.32878758  0.66879905  1
  Cs  Cs24  1  0.66835078  0.66869558  0.00074208  1
  Cs  Cs25  1  0.66622091  0.66768948  0.33287773  1
  Cs  Cs26  1  0.66600081  0.66755206  0.66617267  1
  Sn  Sn27  1  0.83280583  0.83292693  0.83221063  1
  Sn  Sn28  1  0.49919633  0.16593649  0.50022465  1
  Sn  Sn29  1  0.83390566  0.50059194  0.50062798  1
  Sn  Sn30  1  0.83356991  0.50019315  0.83289377  1
  Sn  Sn31  1  0.83314200  0.16764265  0.16650207  1
  Sn  Sn32  1  0.16732586  0.16746885  0.50101066  1
  Sn  Sn33  1  0.16591503  0.49921048  0.50012612  1
  Sn  Sn34  1  0.83364113  0.49858278  0.16636409  1
  Sn  Sn35  1  0.16622705  0.49898681  0.83324430  1
  Sn  Sn36  1  0.16629575  0.16729867  0.83256201  1
  Sn  Sn37  1  0.50085866  0.83446984  0.50104430  1
  Sn  Sn38  1  0.83304672  0.83250044  0.50114078  1
  Sn  Sn39  1  0.50059996  0.83362073  0.83253325  1
  Sn  Sn40  1  0.16632257  0.50003480  0.16659709  1
  Pb  Pb41  1  0.50011293  0.83331268  0.16699150  1
  Pb  Pb42  1  0.50302945  0.16688288  0.16986044  1
  Pb  Pb43  1  0.16635358  0.83328696  0.83336328  1
  Pb  Pb44  1  0.50019013  0.50010144  0.50019566  1
  Pb  Pb45  1  0.83339567  0.83261727  0.16652212  1
  Pb  Pb46  1  0.16622485  0.83318627  0.49987049  1
  Pb  Pb47  1  0.16638450  0.82932670  0.16674629  1
  Pb  Pb48  1  0.49700429  0.16375189  0.83112106  1
  Pb  Pb49  1  0.83535322  0.16633054  0.83539695  1
  Pb  Pb50  1  0.16493286  0.16908938  0.16701813  1
  Pb  Pb51  1  0.50001779  0.50199114  0.83317664  1
  Pb  Pb52  1  0.50049381  0.49984393  0.16650438  1
  Pb  Pb53  1  0.83389537  0.16655904  0.49872840  1
  I  I54  1  0.16501803  0.00051138  0.16617516  1
  I  I55  1  0.16682947  0.00290108  0.50532854  1
  I  I56  1  0.16604075  0.00270350  0.82682958  1
  I  I57  1  0.16255303  0.33705605  0.16744161  1
  I  I58  1  0.16642233  0.33433009  0.50034752  1
  I  I59  1  0.16030080  0.33493159  0.83193486  1
  I  I60  1  0.15816429  0.66100788  0.16678123  1
  I  I61  1  0.16560648  0.66316088  0.50054632  1
  I  I62  1  0.16529024  0.66318261  0.83276298  1
  I  I63  1  0.50177107  0.00021017  0.16443385  1
  I  I64  1  0.50103959  -0.00077289  0.50432415  1
  I  I65  1  0.50740541  -0.00395233  0.83030204  1
  I  I66  1  0.49908492  0.33315593  0.16829610  1
  I  I67  1  0.49880516  0.33086095  0.49831325  1
  I  I68  1  0.50259260  0.33293737  0.83239628  1
  I  I69  1  0.50001470  0.66668299  0.16992884  1
  I  I70  1  0.50066021  0.66956955  0.50324127  1
  I  I71  1  0.49892183  0.66994448  0.82566884  1
  I  I72  1  0.83301220  0.00216395  0.16806880  1
  I  I73  1  0.83226936  -0.00261356  0.50250446  1
  I  I74  1  0.83111631  -0.00294830  0.82947136  1
  I  I75  1  0.83814353  0.33559228  0.16878450  1
  I  I76  1  0.83423908  0.33636123  0.50147680  1
  I  I77  1  0.83667820  0.33657698  0.83042971  1
  I  I78  1  0.83816862  0.66306891  0.16695558  1
  I  I79  1  0.83344392  0.66572330  0.49798857  1
  I  I80  1  0.83564185  0.66556711  0.83486256  1
  I  I81  1  0.16389307  0.16929256  -0.00232584  1
  I  I82  1  0.16937969  0.16996453  0.33634709  1
  I  I83  1  0.16874622  0.17509939  0.66573509  1
  I  I84  1  0.15889625  0.49745152  -0.00075987  1
  I  I85  1  0.15992125  0.49674955  0.33430347  1
  I  I86  1  0.16044203  0.49603405  0.66646269  1
  I  I87  1  0.16714364  0.83583324  -0.00031831  1
  I  I88  1  0.16665997  0.83503800  0.33370523  1
  I  I89  1  0.16692187  0.82929037  0.66658833  1
  I  I90  1  0.49860529  0.16503666  -0.00016241  1
  I  I91  1  0.49224536  0.16005805  0.33769805  1
  I  I92  1  0.50074001  0.16569845  0.66321271  1
  I  I93  1  0.49955920  0.50314469  -0.00025149  1
  I  I94  1  0.50008356  0.50295760  0.33364890  1
  I  I95  1  0.49947504  0.49832122  0.66652362  1
  I  I96  1  0.50495400  0.83035493  -0.00327393  1
  I  I97  1  0.50457842  0.83571956  0.33722486  1
  I  I98  1  0.50493325  0.83628389  0.66566740  1
  I  I99  1  0.83675922  0.17102157  0.00296123  1
  I  I100  1  0.83505275  0.17133136  0.33109234  1
  I  I101  1  0.83186365  0.16861495  0.66664891  1
  I  I102  1  0.84022600  0.50155264  -0.00064175  1
  I  I103  1  0.83883577  0.50005887  0.33405063  1
  I  I104  1  0.83988358  0.50576199  0.66652873  1
  I  I105  1  0.82982739  0.82985324  -0.00321458  1
  I  I106  1  0.82912813  0.83018295  0.33650180  1
  I  I107  1  0.82934707  0.82552585  0.66631420  1
  I  I108  1  -0.00271710  0.16813022  0.16991645  1
  I  I109  1  0.00278081  0.16817145  0.50202643  1
  I  I110  1  0.00316513  0.16650875  0.82569175  1
  I  I111  1  -0.00087424  0.49641341  0.16728199  1
  I  I112  1  -0.00030059  0.50016058  0.49949963  1
  I  I113  1  -0.00045378  0.50286731  0.83338024  1
  I  I114  1  -0.00049410  0.83813598  0.16723421  1
  I  I115  1  -0.00330029  0.83178639  0.50431860  1
  I  I116  1  -0.00322075  0.83107491  0.82885427  1
  I  I117  1  0.33312864  0.16724225  0.16479981  1
  I  I118  1  0.33225636  0.16700844  0.50363218  1
  I  I119  1  0.32915872  0.17352853  0.83263815  1
  I  I120  1  0.32979735  0.50092035  0.16759423  1
  I  I121  1  0.33004851  0.49972523  0.49945957  1
  I  I122  1  0.32974046  0.49798229  0.83319065  1
  I  I123  1  0.33336971  0.83254868  0.16608559  1
  I  I124  1  0.33599775  0.83293507  0.50469288  1
  I  I125  1  0.33585575  0.83209985  0.82724264  1
  I  I126  1  0.67075826  0.17438717  0.16687722  1
  I  I127  1  0.66491519  0.16545943  0.49688934  1
  I  I128  1  0.66666608  0.16947106  0.83342113  1
  I  I129  1  0.67098613  0.49778687  0.16798222  1
  I  I130  1  0.67017800  0.50078192  0.49891851  1
  I  I131  1  0.67033184  0.50243580  0.83337437  1
  I  I132  1  0.66700939  0.83051366  0.16732954  1
  I  I133  1  0.66744912  0.83346906  0.50314133  1
  I  I134  1  0.66807591  0.82721994  0.82943924  1
