# generated using pymatgen
data_Cs27Sn14Pb13I81
_symmetry_space_group_name_H-M   'P 1'
_cell_length_a   18.97699843
_cell_length_b   18.97124277
_cell_length_c   18.97732723
_cell_angle_alpha   89.99834468
_cell_angle_beta   89.99922687
_cell_angle_gamma   90.00074116
_symmetry_Int_Tables_number   1
_chemical_formula_structural   Cs27Sn14Pb13I81
_chemical_formula_sum   'Cs27 Sn14 Pb13 I81'
_cell_volume   6832.16504923
_cell_formula_units_Z   1
loop_
 _symmetry_equiv_pos_site_id
 _symmetry_equiv_pos_as_xyz
  1  'x, y, z'
loop_
 _atom_site_type_symbol
 _atom_site_label
 _atom_site_symmetry_multiplicity
 _atom_site_fract_x
 _atom_site_fract_y
 _atom_site_fract_z
 _atom_site_occupancy
  Cs  Cs0  1  -0.00074056  -0.00325930  0.00120240  1
  Cs  Cs1  1  -0.00286941  0.00097269  0.33552226  1
  Cs  Cs2  1  -0.00290338  0.00184840  0.66187863  1
  Cs  Cs3  1  -0.00000951  0.33629498  -0.00182909  1
  Cs  Cs4  1  0.00066949  0.33413896  0.33616088  1
  Cs  Cs5  1  -0.00035945  0.33428374  0.66582845  1
  Cs  Cs6  1  0.00181450  0.66583049  -0.00017533  1
  Cs  Cs7  1  0.00179356  0.66482679  0.33128117  1
  Cs  Cs8  1  0.00148997  0.66389757  0.66949451  1
  Cs  Cs9  1  0.33265592  0.00000749  0.00087267  1
  Cs  Cs10  1  0.32992869  -0.00130491  0.33090820  1
  Cs  Cs11  1  0.33592012  0.00267587  0.66717016  1
  Cs  Cs12  1  0.33505665  0.33216259  -0.00098437  1
  Cs  Cs13  1  0.33511981  0.33418750  0.33259119  1
  Cs  Cs14  1  0.33464793  0.33056260  0.66866976  1
  Cs  Cs15  1  0.32914298  0.67029049  0.00085007  1
  Cs  Cs16  1  0.33395530  0.66729911  0.33281951  1
  Cs  Cs17  1  0.33412996  0.67081638  0.66693365  1
  Cs  Cs18  1  0.67005617  0.00025826  0.00209782  1
  Cs  Cs19  1  0.67740333  0.00019299  0.33163074  1
  Cs  Cs20  1  0.66420042  -0.00696728  0.66549504  1
  Cs  Cs21  1  0.66491489  0.33205651  -0.00169748  1
  Cs  Cs22  1  0.66317560  0.33447234  0.32926786  1
  Cs  Cs23  1  0.66542848  0.33393123  0.67036530  1
  Cs  Cs24  1  0.67008136  0.66700928  -0.00107397  1
  Cs  Cs25  1  0.66341802  0.66557001  0.33865708  1
  Cs  Cs26  1  0.66364734  0.67247534  0.66341464  1
  Sn  Sn27  1  0.83362039  0.49962372  0.50020021  1
  Sn  Sn28  1  0.83375875  0.49980148  0.16675669  1
  Sn  Sn29  1  0.16625224  0.49962240  0.16732599  1
  Sn  Sn30  1  0.50047622  0.50009488  0.83345166  1
  Sn  Sn31  1  0.83325049  0.16714568  0.83316371  1
  Sn  Sn32  1  0.16625529  0.16673375  0.83403478  1
  Sn  Sn33  1  0.49997219  0.83341941  0.16665975  1
  Sn  Sn34  1  0.83210788  0.49937631  0.83303842  1
  Sn  Sn35  1  0.16677667  0.83248039  0.49953169  1
  Sn  Sn36  1  0.16652530  0.16705299  0.16593053  1
  Sn  Sn37  1  0.50023150  0.16673387  0.49979466  1
  Sn  Sn38  1  0.16659831  0.50075110  0.49947784  1
  Sn  Sn39  1  0.16728972  0.83329689  0.16766281  1
  Sn  Sn40  1  0.50042201  0.16718145  0.83264268  1
  Pb  Pb41  1  0.49952643  0.50177294  0.16424871  1
  Pb  Pb42  1  0.83411213  0.83047085  0.16678277  1
  Pb  Pb43  1  0.16685227  0.49832977  0.83312186  1
  Pb  Pb44  1  0.83629780  0.83037953  0.49995522  1
  Pb  Pb45  1  0.49936021  0.49862425  0.50224773  1
  Pb  Pb46  1  0.49991196  0.83369021  0.83564494  1
  Pb  Pb47  1  0.16650412  0.83660576  0.83299354  1
  Pb  Pb48  1  0.83345270  0.83299602  0.83313914  1
  Pb  Pb49  1  0.49834467  0.16465219  0.16630197  1
  Pb  Pb50  1  0.16782681  0.16713601  0.49981590  1
  Pb  Pb51  1  0.83616228  0.16937724  0.16454513  1
  Pb  Pb52  1  0.49773440  0.83618608  0.49735609  1
  Pb  Pb53  1  0.83045563  0.16932713  0.50236698  1
  I  I54  1  0.17284270  -0.00017726  0.16557659  1
  I  I55  1  0.17029204  -0.00189864  0.49712404  1
  I  I56  1  0.16813627  0.00489639  0.83738710  1
  I  I57  1  0.16249592  0.33410756  0.16657469  1
  I  I58  1  0.16360200  0.33624111  0.49707645  1
  I  I59  1  0.16742482  0.33025297  0.83685255  1
  I  I60  1  0.16657874  0.66608364  0.17083845  1
  I  I61  1  0.16357365  0.66555010  0.49222111  1
  I  I62  1  0.16667434  0.66650330  0.83562106  1
  I  I63  1  0.49181757  -0.00295085  0.16473364  1
  I  I64  1  0.49667404  0.00366128  0.50924715  1
  I  I65  1  0.49945386  0.00363119  0.83022416  1
  I  I66  1  0.49871298  0.33331003  0.16757643  1
  I  I67  1  0.49647351  0.33083471  0.50179197  1
  I  I68  1  0.50040040  0.33243394  0.83122937  1
  I  I69  1  0.49312367  0.66927239  0.16498342  1
  I  I70  1  0.50178150  0.66669896  0.50147607  1
  I  I71  1  0.50527948  0.66386173  0.83465019  1
  I  I72  1  0.83365228  0.00020223  0.16383699  1
  I  I73  1  0.83391455  0.00027251  0.50204202  1
  I  I74  1  0.83288727  0.00356224  0.83425526  1
  I  I75  1  0.83806949  0.33750623  0.16811680  1
  I  I76  1  0.84221963  0.33731191  0.49850314  1
  I  I77  1  0.83288432  0.33418522  0.83399405  1
  I  I78  1  0.83951041  0.66228314  0.16258499  1
  I  I79  1  0.83289535  0.66195435  0.50272623  1
  I  I80  1  0.82919859  0.66236281  0.83388927  1
  I  I81  1  0.16922048  0.16766054  0.00013180  1
  I  I82  1  0.17004246  0.16686929  0.33066461  1
  I  I83  1  0.16594515  0.16766807  0.66925911  1
  I  I84  1  0.16398800  0.50229288  0.00267047  1
  I  I85  1  0.15944536  0.49847050  0.33255776  1
  I  I86  1  0.16365808  0.50260809  0.66413041  1
  I  I87  1  0.16977520  0.83048247  0.00331945  1
  I  I88  1  0.17113935  0.83401714  0.33208448  1
  I  I89  1  0.16564473  0.82810663  0.66362606  1
  I  I90  1  0.50081126  0.16967347  -0.00321662  1
  I  I91  1  0.49529866  0.16637411  0.33525259  1
  I  I92  1  0.49608094  0.17088814  0.66864862  1
  I  I93  1  0.50331932  0.49284557  -0.00351073  1
  I  I94  1  0.50286730  0.49852630  0.33328110  1
  I  I95  1  0.50300689  0.49739460  0.67023986  1
  I  I96  1  0.49120123  0.83424177  0.00315681  1
  I  I97  1  0.49584874  0.83258348  0.32991289  1
  I  I98  1  0.49859976  0.83211820  0.66647499  1
  I  I99  1  0.82809350  0.17270354  -0.00363382  1
  I  I100  1  0.83272351  0.16748944  0.33336121  1
  I  I101  1  0.84030236  0.17352234  0.67059189  1
  I  I102  1  0.83421313  0.49670910  -0.00037212  1
  I  I103  1  0.83971004  0.50154519  0.33324850  1
  I  I104  1  0.83545874  0.49523855  0.66709933  1
  I  I105  1  0.83562805  0.83066794  0.00019177  1
  I  I106  1  0.83017025  0.83383025  0.33327094  1
  I  I107  1  0.83526557  0.83148649  0.66643011  1
  I  I108  1  0.00445917  0.16168291  0.16240739  1
  I  I109  1  -0.00011825  0.16452333  0.50132587  1
  I  I110  1  -0.00002543  0.17140048  0.83845805  1
  I  I111  1  0.00115849  0.50161939  0.16430410  1
  I  I112  1  0.00062545  0.50287568  0.50147878  1
  I  I113  1  -0.00248401  0.49570302  0.83333183  1
  I  I114  1  0.00383199  0.83521005  0.16987626  1
  I  I115  1  0.00427251  0.83512530  0.49240774  1
  I  I116  1  0.00026603  0.83249601  0.83653132  1
  I  I117  1  0.32987411  0.17126997  0.16140758  1
  I  I118  1  0.33534124  0.16890536  0.50690638  1
  I  I119  1  0.33366500  0.17097690  0.83332800  1
  I  I120  1  0.32989855  0.49853773  0.16983877  1
  I  I121  1  0.33016958  0.50194319  0.49568196  1
  I  I122  1  0.33538898  0.49440988  0.83369959  1
  I  I123  1  0.33099505  0.83102285  0.16911958  1
  I  I124  1  0.32982068  0.82590228  0.49798702  1
  I  I125  1  0.33308927  0.83182374  0.83240239  1
  I  I126  1  0.66689103  0.16556541  0.16643030  1
  I  I127  1  0.66288937  0.16844128  0.50489288  1
  I  I128  1  0.66642358  0.17279543  0.82900113  1
  I  I129  1  0.66923462  0.50188501  0.16830233  1
  I  I130  1  0.66922031  0.49660714  0.49740141  1
  I  I131  1  0.66763562  0.49159390  0.83484548  1
  I  I132  1  0.66451357  0.83290797  0.16378422  1
  I  I133  1  0.66653950  0.83283795  0.49906410  1
  I  I134  1  0.66654998  0.83657809  0.83623773  1
