# generated using pymatgen
data_Cs27Sn13Pb14I81
_symmetry_space_group_name_H-M   'P 1'
_cell_length_a   18.99012836
_cell_length_b   18.98795960
_cell_length_c   18.99818929
_cell_angle_alpha   89.99935362
_cell_angle_beta   90.00066659
_cell_angle_gamma   90.00215060
_symmetry_Int_Tables_number   1
_chemical_formula_structural   Cs27Sn13Pb14I81
_chemical_formula_sum   'Cs27 Sn13 Pb14 I81'
_cell_volume   6850.43909240
_cell_formula_units_Z   1
loop_
 _symmetry_equiv_pos_site_id
 _symmetry_equiv_pos_as_xyz
  1  'x, y, z'
loop_
 _atom_site_type_symbol
 _atom_site_label
 _atom_site_symmetry_multiplicity
 _atom_site_fract_x
 _atom_site_fract_y
 _atom_site_fract_z
 _atom_site_occupancy
  Cs  Cs0  1  -0.00100213  0.00135094  0.00497981  1
  Cs  Cs1  1  -0.00134790  -0.00105249  0.33232168  1
  Cs  Cs2  1  0.00082347  0.00135421  0.66513781  1
  Cs  Cs3  1  0.00154457  0.33247005  0.00912575  1
  Cs  Cs4  1  0.00669492  0.33514342  0.32651533  1
  Cs  Cs5  1  0.00105597  0.33072771  0.66563982  1
  Cs  Cs6  1  -0.00681537  0.66589994  -0.00251187  1
  Cs  Cs7  1  0.00056649  0.66886276  0.33260271  1
  Cs  Cs8  1  -0.00029662  0.66689031  0.66771493  1
  Cs  Cs9  1  0.33479596  -0.00065730  0.00030268  1
  Cs  Cs10  1  0.33781265  -0.00277521  0.33303280  1
  Cs  Cs11  1  0.33397522  0.00029544  0.66753202  1
  Cs  Cs12  1  0.33070301  0.33378540  0.00331226  1
  Cs  Cs13  1  0.32814657  0.34387588  0.33292749  1
  Cs  Cs14  1  0.32953644  0.33352113  0.66450826  1
  Cs  Cs15  1  0.33453191  0.66679866  -0.00208286  1
  Cs  Cs16  1  0.33320657  0.66549854  0.33349855  1
  Cs  Cs17  1  0.33329957  0.66586536  0.66872391  1
  Cs  Cs18  1  0.66602751  -0.00048465  0.00017894  1
  Cs  Cs19  1  0.66463547  0.00120356  0.33509301  1
  Cs  Cs20  1  0.66573214  0.00166811  0.66571677  1
  Cs  Cs21  1  0.66809737  0.33842357  0.00013578  1
  Cs  Cs22  1  0.66522499  0.33258718  0.33355436  1
  Cs  Cs23  1  0.66699325  0.33065718  0.66625263  1
  Cs  Cs24  1  0.67501889  0.65815964  -0.00994241  1
  Cs  Cs25  1  0.66578883  0.66501066  0.33365172  1
  Cs  Cs26  1  0.66713751  0.66366183  0.67257293  1
  Sn  Sn27  1  0.16651799  0.50044128  0.83307514  1
  Sn  Sn28  1  0.16713450  0.83373014  0.50005786  1
  Sn  Sn29  1  0.83261687  0.83320119  0.50032164  1
  Sn  Sn30  1  0.50009835  0.16623992  0.49966212  1
  Sn  Sn31  1  0.16656741  0.83295710  0.83351776  1
  Sn  Sn32  1  0.50062869  0.16649859  0.83321311  1
  Sn  Sn33  1  0.83290694  0.16626691  0.83288055  1
  Sn  Sn34  1  0.83337653  0.49947462  0.49986108  1
  Sn  Sn35  1  0.50019876  0.83367288  0.49973510  1
  Sn  Sn36  1  0.49986955  0.16612994  0.16726746  1
  Sn  Sn37  1  0.50003550  0.83328490  0.16671102  1
  Sn  Sn38  1  0.16744800  0.83353358  0.16653624  1
  Sn  Sn39  1  0.83305666  0.16696636  0.50044648  1
  Pb  Pb40  1  0.16677472  0.50384992  0.16401722  1
  Pb  Pb41  1  0.49855438  0.83488273  0.83337427  1
  Pb  Pb42  1  0.50013525  0.50124421  0.16662589  1
  Pb  Pb43  1  0.50198982  0.50024759  0.50019543  1
  Pb  Pb44  1  0.16636793  0.16632346  0.83337657  1
  Pb  Pb45  1  0.16423895  0.50299099  0.50166163  1
  Pb  Pb46  1  0.49775136  0.49648314  0.83309026  1
  Pb  Pb47  1  0.83571083  0.83588810  0.83086012  1
  Pb  Pb48  1  0.83194968  0.83327263  0.16876756  1
  Pb  Pb49  1  0.83579453  0.49663474  0.83107557  1
  Pb  Pb50  1  0.83060608  0.16647938  0.16738959  1
  Pb  Pb51  1  0.16693830  0.16469632  0.49972877  1
  Pb  Pb52  1  0.16983219  0.16395908  0.16700312  1
  Pb  Pb53  1  0.83323069  0.50003812  0.16961098  1
  I  I54  1  0.16702635  -0.00419043  0.16387691  1
  I  I55  1  0.16229124  -0.00410101  0.50374295  1
  I  I56  1  0.16719579  -0.00311516  0.83213282  1
  I  I57  1  0.16723446  0.33368365  0.16452373  1
  I  I58  1  0.16710956  0.33356528  0.50315444  1
  I  I59  1  0.16723498  0.33542114  0.83120024  1
  I  I60  1  0.17427119  0.67163832  0.17196143  1
  I  I61  1  0.16770795  0.67149402  0.49748162  1
  I  I62  1  0.16729129  0.66847054  0.83200349  1
  I  I63  1  0.49553154  -0.00034169  0.16829821  1
  I  I64  1  0.50390482  -0.00025585  0.49966243  1
  I  I65  1  0.50059495  0.00308580  0.83211230  1
  I  I66  1  0.50220774  0.33000372  0.16748245  1
  I  I67  1  0.50534356  0.32967641  0.50009082  1
  I  I68  1  0.50228170  0.32812088  0.83195756  1
  I  I69  1  0.49380074  0.67113411  0.17502479  1
  I  I70  1  0.49954315  0.67053304  0.49406486  1
  I  I71  1  0.50029028  0.66671671  0.83340499  1
  I  I72  1  0.83800129  -0.00013953  0.16782338  1
  I  I73  1  0.83294588  -0.00000737  0.50386413  1
  I  I74  1  0.83122795  0.00340604  0.82662320  1
  I  I75  1  0.83208190  0.33297924  0.16812273  1
  I  I76  1  0.82666070  0.33179657  0.50561373  1
  I  I77  1  0.83046355  0.32920214  0.82593560  1
  I  I78  1  0.83168735  0.66697725  0.16824110  1
  I  I79  1  0.83510929  0.66791924  0.49788308  1
  I  I80  1  0.83271287  0.66664197  0.83213661  1
  I  I81  1  0.16590020  0.16448644  -0.00004619  1
  I  I82  1  0.16368875  0.16603789  0.33340593  1
  I  I83  1  0.17132953  0.16353550  0.66665060  1
  I  I84  1  0.16641225  0.50386243  -0.00358363  1
  I  I85  1  0.16533383  0.49932662  0.33325720  1
  I  I86  1  0.16693193  0.50614443  0.66921019  1
  I  I87  1  0.17363614  0.83040559  0.00015093  1
  I  I88  1  0.16663093  0.83593088  0.33403007  1
  I  I89  1  0.16624861  0.83004796  0.66599790  1
  I  I90  1  0.50242069  0.16133832  0.00011073  1
  I  I91  1  0.50547069  0.16003616  0.33449484  1
  I  I92  1  0.50440253  0.16205025  0.66567308  1
  I  I93  1  0.50004807  0.50023956  -0.00016071  1
  I  I94  1  0.50018055  0.49524601  0.33351816  1
  I  I95  1  0.49896245  0.50146345  0.66661363  1
  I  I96  1  0.49172346  0.84012979  0.00267277  1
  I  I97  1  0.49499245  0.84199384  0.33450452  1
  I  I98  1  0.49906114  0.83790777  0.66350349  1
  I  I99  1  0.83053119  0.16639633  -0.00268147  1
  I  I100  1  0.82939269  0.16507299  0.33729599  1
  I  I101  1  0.82542374  0.16575373  0.66515431  1
  I  I102  1  0.83410433  0.49904955  -0.00060168  1
  I  I103  1  0.83351771  0.49802637  0.33808205  1
  I  I104  1  0.83384601  0.50355453  0.66341631  1
  I  I105  1  0.83459109  0.83487669  -0.00031743  1
  I  I106  1  0.83878369  0.83680018  0.33775336  1
  I  I107  1  0.83255423  0.83197434  0.66231211  1
  I  I108  1  -0.00003905  0.16655567  0.16537162  1
  I  I109  1  -0.00336340  0.16497677  0.50745656  1
  I  I110  1  -0.00277422  0.16578243  0.82509482  1
  I  I111  1  0.00031245  0.50024775  0.16681465  1
  I  I112  1  -0.00349825  0.49835244  0.50190385  1
  I  I113  1  0.00310003  0.50520035  0.83116245  1
  I  I114  1  0.00263446  0.83188682  0.16789471  1
  I  I115  1  -0.00009586  0.83345245  0.50084821  1
  I  I116  1  0.00383018  0.83182879  0.83332059  1
  I  I117  1  0.33796509  0.16428711  0.16556008  1
  I  I118  1  0.33711156  0.16083637  0.50238611  1
  I  I119  1  0.33631036  0.16576473  0.83186527  1
  I  I120  1  0.33323970  0.49598950  0.16773067  1
  I  I121  1  0.33306830  0.49873068  0.50041502  1
  I  I122  1  0.33007898  0.50402578  0.83209984  1
  I  I123  1  0.33351173  0.83829241  0.17217422  1
  I  I124  1  0.33380377  0.83900747  0.49969726  1
  I  I125  1  0.33038927  0.83298249  0.82796670  1
  I  I126  1  0.66268986  0.15790628  0.16728891  1
  I  I127  1  0.66636701  0.16153517  0.50094171  1
  I  I128  1  0.66610122  0.16532497  0.83096066  1
  I  I129  1  0.66658748  0.50263740  0.16532895  1
  I  I130  1  0.66988621  0.50478186  0.50136948  1
  I  I131  1  0.66708236  0.50181780  0.83337508  1
  I  I132  1  0.66266259  0.83976096  0.17362378  1
  I  I133  1  0.66614814  0.83535682  0.49406638  1
  I  I134  1  0.66680133  0.83254647  0.83388843  1
