# generated using pymatgen
data_Cs27Sn13Pb14I81
_symmetry_space_group_name_H-M   'P 1'
_cell_length_a   18.98319109
_cell_length_b   18.97779073
_cell_length_c   18.97146961
_cell_angle_alpha   89.99870487
_cell_angle_beta   89.99915974
_cell_angle_gamma   90.00230618
_symmetry_Int_Tables_number   1
_chemical_formula_structural   Cs27Sn13Pb14I81
_chemical_formula_sum   'Cs27 Sn13 Pb14 I81'
_cell_volume   6834.64319136
_cell_formula_units_Z   1
loop_
 _symmetry_equiv_pos_site_id
 _symmetry_equiv_pos_as_xyz
  1  'x, y, z'
loop_
 _atom_site_type_symbol
 _atom_site_label
 _atom_site_symmetry_multiplicity
 _atom_site_fract_x
 _atom_site_fract_y
 _atom_site_fract_z
 _atom_site_occupancy
  Cs  Cs0  1  0.00107431  -0.00117646  -0.00063048  1
  Cs  Cs1  1  -0.00118243  -0.00062018  0.33270457  1
  Cs  Cs2  1  -0.00198555  -0.00297825  0.66662926  1
  Cs  Cs3  1  -0.00166997  0.33105227  0.00238828  1
  Cs  Cs4  1  -0.00033529  0.33315940  0.33401471  1
  Cs  Cs5  1  0.00361576  0.33445580  0.66166519  1
  Cs  Cs6  1  0.00007247  0.66886186  -0.00333846  1
  Cs  Cs7  1  -0.00184091  0.66653349  0.33318827  1
  Cs  Cs8  1  0.00098796  0.66781335  0.67113509  1
  Cs  Cs9  1  0.33126525  -0.00022910  0.00169269  1
  Cs  Cs10  1  0.33548514  -0.00266522  0.33404732  1
  Cs  Cs11  1  0.33774540  0.00216182  0.66479502  1
  Cs  Cs12  1  0.33448012  0.33159942  0.00118761  1
  Cs  Cs13  1  0.33120354  0.33497298  0.33224611  1
  Cs  Cs14  1  0.33245481  0.33227820  0.66683528  1
  Cs  Cs15  1  0.33304958  0.66777639  -0.00011593  1
  Cs  Cs16  1  0.33559990  0.66754722  0.33223504  1
  Cs  Cs17  1  0.32994603  0.66462484  0.67042248  1
  Cs  Cs18  1  0.66794142  0.00200455  -0.00197453  1
  Cs  Cs19  1  0.66633782  -0.00208669  0.33639880  1
  Cs  Cs20  1  0.66247983  0.00827201  0.66804569  1
  Cs  Cs21  1  0.66582089  0.33162583  -0.00474645  1
  Cs  Cs22  1  0.66986031  0.33771451  0.33169077  1
  Cs  Cs23  1  0.66373039  0.32761283  0.67535528  1
  Cs  Cs24  1  0.66731010  0.66581999  -0.00058368  1
  Cs  Cs25  1  0.66713889  0.66655109  0.33355023  1
  Cs  Cs26  1  0.66919165  0.66570861  0.66586757  1
  Sn  Sn27  1  0.49961370  0.16723821  0.16734418  1
  Sn  Sn28  1  0.83335633  0.50104273  0.16695627  1
  Sn  Sn29  1  0.16625742  0.16664184  0.83386454  1
  Sn  Sn30  1  0.16645957  0.50031812  0.16675457  1
  Sn  Sn31  1  0.83393616  0.83255773  0.49915700  1
  Sn  Sn32  1  0.16622334  0.83311149  0.49914201  1
  Sn  Sn33  1  0.50020899  0.49915700  0.16725821  1
  Sn  Sn34  1  0.16750952  0.16650191  0.16619911  1
  Sn  Sn35  1  0.50078649  0.50004956  0.49949744  1
  Sn  Sn36  1  0.83399745  0.83253344  0.16736643  1
  Sn  Sn37  1  0.16588281  0.83316228  0.16745807  1
  Sn  Sn38  1  0.50008624  0.83293485  0.83337390  1
  Sn  Sn39  1  0.83233301  0.50075038  0.49932641  1
  Pb  Pb40  1  0.16641949  0.50227956  0.49791108  1
  Pb  Pb41  1  0.16821717  0.83509289  0.83339118  1
  Pb  Pb42  1  0.83321031  0.16703667  0.49983528  1
  Pb  Pb43  1  0.49786637  0.16468488  0.83603374  1
  Pb  Pb44  1  0.50049274  0.83306604  0.16562858  1
  Pb  Pb45  1  0.16663401  0.16386374  0.49899038  1
  Pb  Pb46  1  0.49996797  0.50153136  0.83355799  1
  Pb  Pb47  1  0.49998458  0.17010525  0.49695432  1
  Pb  Pb48  1  0.50044063  0.83109596  0.50215490  1
  Pb  Pb49  1  0.16663495  0.49732125  0.83632569  1
  Pb  Pb50  1  0.83669194  0.16666043  0.83332234  1
  Pb  Pb51  1  0.83355857  0.49995487  0.83306209  1
  Pb  Pb52  1  0.83112966  0.83335930  0.83299130  1
  Pb  Pb53  1  0.83339351  0.16658992  0.16679773  1
  I  I54  1  0.16717057  -0.00048122  0.16594741  1
  I  I55  1  0.16128911  -0.00421212  0.49444017  1
  I  I56  1  0.16830360  0.00256354  0.84137172  1
  I  I57  1  0.16760182  0.33365796  0.16185985  1
  I  I58  1  0.16627292  0.33359861  0.50023118  1
  I  I59  1  0.16831124  0.32949422  0.83867337  1
  I  I60  1  0.16725411  0.66696085  0.17153413  1
  I  I61  1  0.16626985  0.67016572  0.49455550  1
  I  I62  1  0.16789872  0.66689332  0.83429654  1
  I  I63  1  0.49586392  0.00192510  0.16275077  1
  I  I64  1  0.50006540  -0.00015075  0.50060216  1
  I  I65  1  0.49973132  -0.00278495  0.83432017  1
  I  I66  1  0.49610337  0.33444615  0.16976198  1
  I  I67  1  0.50517843  0.33823033  0.49892861  1
  I  I68  1  0.49930788  0.33310987  0.83171038  1
  I  I69  1  0.49743660  0.66365868  0.16859806  1
  I  I70  1  0.50084498  0.66346231  0.49166839  1
  I  I71  1  0.49810187  0.66908270  0.83700811  1
  I  I72  1  0.83622136  -0.00336824  0.17013896  1
  I  I73  1  0.83828006  -0.00384647  0.49493358  1
  I  I74  1  0.83165768  -0.00034554  0.83452287  1
  I  I75  1  0.83603225  0.33676344  0.17116594  1
  I  I76  1  0.83058378  0.33747328  0.49371680  1
  I  I77  1  0.83141903  0.33340228  0.83470297  1
  I  I78  1  0.83561630  0.66644843  0.17014426  1
  I  I79  1  0.83288716  0.66676320  0.49420534  1
  I  I80  1  0.83398911  0.66683688  0.83507453  1
  I  I81  1  0.17083284  0.16482169  0.00274780  1
  I  I82  1  0.16987666  0.16870295  0.32923954  1
  I  I83  1  0.16612066  0.16435053  0.66896852  1
  I  I84  1  0.16753474  0.50602026  0.00538619  1
  I  I85  1  0.16725117  0.49504008  0.32922907  1
  I  I86  1  0.16699147  0.49998151  0.66632725  1
  I  I87  1  0.16408571  0.83184215  0.00362092  1
  I  I88  1  0.16403784  0.83536078  0.33146476  1
  I  I89  1  0.16331970  0.83440530  0.66389715  1
  I  I90  1  0.49823351  0.17300307  0.00395355  1
  I  I91  1  0.49213534  0.16515009  0.32894792  1
  I  I92  1  0.49854342  0.16665381  0.66680846  1
  I  I93  1  0.50020812  0.49732900  0.00392531  1
  I  I94  1  0.50048720  0.49755892  0.33159779  1
  I  I95  1  0.50522745  0.50391362  0.66357241  1
  I  I96  1  0.49870141  0.83223559  -0.00168167  1
  I  I97  1  0.49895859  0.83571681  0.33328034  1
  I  I98  1  0.49839851  0.83166624  0.66936805  1
  I  I99  1  0.83080215  0.16640108  0.00063335  1
  I  I100  1  0.83600673  0.16604176  0.33290953  1
  I  I101  1  0.83438901  0.16600696  0.66658424  1
  I  I102  1  0.83280436  0.50414352  0.00424120  1
  I  I103  1  0.83213185  0.50415160  0.33190354  1
  I  I104  1  0.82870587  0.50542573  0.66261859  1
  I  I105  1  0.83693970  0.82939321  0.00342412  1
  I  I106  1  0.83717466  0.82951199  0.33247078  1
  I  I107  1  0.83831027  0.82781377  0.66297028  1
  I  I108  1  0.00332238  0.16848642  0.16285022  1
  I  I109  1  0.00020686  0.17151073  0.49858319  1
  I  I110  1  0.00449298  0.16479161  0.84304964  1
  I  I111  1  -0.00010954  0.49975733  0.17012020  1
  I  I112  1  -0.00295850  0.50131518  0.49535891  1
  I  I113  1  0.00021170  0.50037830  0.83316042  1
  I  I114  1  0.00063083  0.83121480  0.16920750  1
  I  I115  1  -0.00038550  0.82873137  0.49603832  1
  I  I116  1  0.00008097  0.83527735  0.83361931  1
  I  I117  1  0.33224185  0.16954935  0.16296463  1
  I  I118  1  0.33324277  0.16565788  0.50165377  1
  I  I119  1  0.33031930  0.16534110  0.83731494  1
  I  I120  1  0.33334162  0.49951689  0.17003389  1
  I  I121  1  0.33549235  0.50163011  0.49505922  1
  I  I122  1  0.33329599  0.50183848  0.83230248  1
  I  I123  1  0.33057837  0.83169399  0.16865157  1
  I  I124  1  0.33091246  0.83289906  0.49585966  1
  I  I125  1  0.33561921  0.83340516  0.83482159  1
  I  I126  1  0.66389949  0.16953814  0.16707320  1
  I  I127  1  0.66643433  0.16016795  0.49861275  1
  I  I128  1  0.66625146  0.16535458  0.83424403  1
  I  I129  1  0.66679011  0.50072431  0.17079527  1
  I  I130  1  0.66733486  0.50705065  0.48961671  1
  I  I131  1  0.66663055  0.50052972  0.83833126  1
  I  I132  1  0.66957137  0.83059562  0.16933490  1
  I  I133  1  0.66986025  0.83059038  0.49498372  1
  I  I134  1  0.66371977  0.83303176  0.83572554  1
