# generated using pymatgen
data_Cs27Sn13Pb14I81
_symmetry_space_group_name_H-M   'P 1'
_cell_length_a   18.97680964
_cell_length_b   18.97276941
_cell_length_c   18.98182298
_cell_angle_alpha   90.00111319
_cell_angle_beta   89.99927383
_cell_angle_gamma   90.00388226
_symmetry_Int_Tables_number   1
_chemical_formula_structural   Cs27Sn13Pb14I81
_chemical_formula_sum   'Cs27 Sn13 Pb14 I81'
_cell_volume   6834.26551611
_cell_formula_units_Z   1
loop_
 _symmetry_equiv_pos_site_id
 _symmetry_equiv_pos_as_xyz
  1  'x, y, z'
loop_
 _atom_site_type_symbol
 _atom_site_label
 _atom_site_symmetry_multiplicity
 _atom_site_fract_x
 _atom_site_fract_y
 _atom_site_fract_z
 _atom_site_occupancy
  Cs  Cs0  1  -0.00056201  -0.00096932  -0.00770419  1
  Cs  Cs1  1  0.00012770  0.00295401  0.33247678  1
  Cs  Cs2  1  -0.00154941  -0.00178142  0.67412772  1
  Cs  Cs3  1  0.00228903  0.33217902  -0.00209004  1
  Cs  Cs4  1  0.00092085  0.33156739  0.33411609  1
  Cs  Cs5  1  -0.00039868  0.33508718  0.66618868  1
  Cs  Cs6  1  -0.00163391  0.66794142  -0.00091630  1
  Cs  Cs7  1  -0.00260897  0.66630073  0.33215212  1
  Cs  Cs8  1  0.00056414  0.66593620  0.66920523  1
  Cs  Cs9  1  0.33280427  -0.00112257  0.00127238  1
  Cs  Cs10  1  0.33422838  0.00008045  0.33235593  1
  Cs  Cs11  1  0.33379083  -0.00194689  0.66741294  1
  Cs  Cs12  1  0.33495247  0.33228495  -0.00122383  1
  Cs  Cs13  1  0.33120917  0.33122211  0.33226159  1
  Cs  Cs14  1  0.33555092  0.33442624  0.66787512  1
  Cs  Cs15  1  0.33415862  0.66782494  0.00097553  1
  Cs  Cs16  1  0.33360330  0.66873634  0.33313449  1
  Cs  Cs17  1  0.33314288  0.66746653  0.66556438  1
  Cs  Cs18  1  0.66730655  -0.00059631  -0.00047264  1
  Cs  Cs19  1  0.66556127  -0.00006446  0.33348515  1
  Cs  Cs20  1  0.66851328  0.00001051  0.66727167  1
  Cs  Cs21  1  0.66262986  0.33507938  -0.00209030  1
  Cs  Cs22  1  0.66838153  0.33406949  0.33244438  1
  Cs  Cs23  1  0.66438361  0.33330136  0.67018429  1
  Cs  Cs24  1  0.66615823  0.66548705  0.00541341  1
  Cs  Cs25  1  0.67402564  0.66172024  0.33738776  1
  Cs  Cs26  1  0.66479740  0.66670622  0.65543079  1
  Sn  Sn27  1  0.83259737  0.16645755  0.16679438  1
  Sn  Sn28  1  0.83336408  0.50030812  0.83343184  1
  Sn  Sn29  1  0.50021082  0.83305716  0.83408609  1
  Sn  Sn30  1  0.49994377  0.16663973  0.49912923  1
  Sn  Sn31  1  0.83341917  0.16665515  0.49943008  1
  Sn  Sn32  1  0.16661470  0.16621389  0.50012217  1
  Sn  Sn33  1  0.49972120  0.83375991  0.16641906  1
  Sn  Sn34  1  0.16687813  0.50080824  0.16664699  1
  Sn  Sn35  1  0.16647509  0.83356404  0.49914488  1
  Sn  Sn36  1  0.50087392  0.16591651  0.16748761  1
  Sn  Sn37  1  0.16698589  0.83281836  0.16738942  1
  Sn  Sn38  1  0.16673925  0.50022106  0.49976596  1
  Sn  Sn39  1  0.16629411  0.50001131  0.83356749  1
  Pb  Pb40  1  0.49803129  0.50010044  0.16698000  1
  Pb  Pb41  1  0.82996123  0.83012411  0.83340715  1
  Pb  Pb42  1  0.49833421  0.83527459  0.49890574  1
  Pb  Pb43  1  0.49995135  0.16446163  0.83382182  1
  Pb  Pb44  1  0.83571442  0.49755596  0.50163929  1
  Pb  Pb45  1  0.16676724  0.16609915  0.16785427  1
  Pb  Pb46  1  0.49768300  0.49717081  0.49963493  1
  Pb  Pb47  1  0.83609699  0.49726856  0.16489911  1
  Pb  Pb48  1  0.50001213  0.50293340  0.83335071  1
  Pb  Pb49  1  0.83318263  0.16853013  0.83358446  1
  Pb  Pb50  1  0.16798631  0.83110742  0.83367731  1
  Pb  Pb51  1  0.83651829  0.83596232  0.49985575  1
  Pb  Pb52  1  0.83345069  0.83558025  0.16673153  1
  Pb  Pb53  1  0.16689674  0.16910415  0.83006085  1
  I  I54  1  0.16847617  -0.00272593  0.17228744  1
  I  I55  1  0.16763150  0.00024850  0.49359332  1
  I  I56  1  0.16733057  -0.00038581  0.83320520  1
  I  I57  1  0.16622215  0.33550941  0.16761437  1
  I  I58  1  0.16657135  0.33312940  0.49989034  1
  I  I59  1  0.16417480  0.33750350  0.83516027  1
  I  I60  1  0.17231581  0.66709228  0.17109913  1
  I  I61  1  0.16802670  0.66652631  0.50006800  1
  I  I62  1  0.16404215  0.66314419  0.82843197  1
  I  I63  1  0.49658063  0.00024330  0.16665160  1
  I  I64  1  0.49662223  0.00358450  0.49891411  1
  I  I65  1  0.49793300  -0.00312753  0.83454019  1
  I  I66  1  0.50167414  0.32996550  0.17090071  1
  I  I67  1  0.49743434  0.32865950  0.49507089  1
  I  I68  1  0.49938593  0.33355758  0.83302047  1
  I  I69  1  0.49540856  0.66993253  0.16096951  1
  I  I70  1  0.49770586  0.66693468  0.50112628  1
  I  I71  1  0.49783018  0.67043586  0.84027278  1
  I  I72  1  0.83463604  0.00380132  0.17087868  1
  I  I73  1  0.83521592  0.00444582  0.49692882  1
  I  I74  1  0.83321066  -0.00009723  0.83273613  1
  I  I75  1  0.82913873  0.32938658  0.17123123  1
  I  I76  1  0.83610055  0.32940718  0.49631824  1
  I  I77  1  0.83892032  0.33617556  0.83259950  1
  I  I78  1  0.83117010  0.66641767  0.16501779  1
  I  I79  1  0.83364909  0.66642582  0.50152993  1
  I  I80  1  0.84121145  0.66273767  0.83398834  1
  I  I81  1  0.16655237  0.16738886  0.00006493  1
  I  I82  1  0.16675573  0.17127526  0.33626946  1
  I  I83  1  0.16658446  0.16530309  0.66131935  1
  I  I84  1  0.16306248  0.50469533  0.00040793  1
  I  I85  1  0.16880450  0.49950950  0.33368646  1
  I  I86  1  0.16287197  0.49853608  0.66605331  1
  I  I87  1  0.16922848  0.82929835  0.00306943  1
  I  I88  1  0.17249368  0.82935958  0.33308458  1
  I  I89  1  0.16874442  0.83380067  0.66396899  1
  I  I90  1  0.50423082  0.16553109  0.00357918  1
  I  I91  1  0.49942511  0.16113064  0.33304855  1
  I  I92  1  0.49928085  0.16617362  0.66353823  1
  I  I93  1  0.49639470  0.49479158  0.00013071  1
  I  I94  1  0.49803277  0.50393509  0.33329454  1
  I  I95  1  0.49718446  0.49999876  0.66658908  1
  I  I96  1  0.49316078  0.83874551  0.00189758  1
  I  I97  1  0.49493689  0.83756888  0.33013502  1
  I  I98  1  0.49758003  0.83399787  0.66799881  1
  I  I99  1  0.82861508  0.16803501  0.00306214  1
  I  I100  1  0.83339861  0.16720908  0.33392440  1
  I  I101  1  0.83408901  0.16813284  0.66345552  1
  I  I102  1  0.84034037  0.49736462  -0.00278947  1
  I  I103  1  0.83435748  0.50045963  0.33334165  1
  I  I104  1  0.83993635  0.49770115  0.66936576  1
  I  I105  1  0.83873337  0.83707462  0.00008060  1
  I  I106  1  0.82985748  0.83034527  0.33333021  1
  I  I107  1  0.83319870  0.83646146  0.66663394  1
  I  I108  1  -0.00180468  0.16851287  0.17193943  1
  I  I109  1  0.00058069  0.16821990  0.49496507  1
  I  I110  1  0.00012349  0.16406458  0.83463612  1
  I  I111  1  0.00444064  0.50378962  0.16976496  1
  I  I112  1  0.00431115  0.49723555  0.49791900  1
  I  I113  1  0.00183762  0.49925048  0.83232465  1
  I  I114  1  0.00353515  0.83034153  0.17126912  1
  I  I115  1  0.00508639  0.83422556  0.49477882  1
  I  I116  1  0.00006536  0.83484716  0.83322229  1
  I  I117  1  0.33578172  0.16604036  0.17101466  1
  I  I118  1  0.33285253  0.16751482  0.49595037  1
  I  I119  1  0.33335496  0.16997576  0.83324239  1
  I  I120  1  0.32923364  0.49813373  0.16471750  1
  I  I121  1  0.32871325  0.49748276  0.50329207  1
  I  I122  1  0.33006237  0.50033201  0.83213234  1
  I  I123  1  0.33285558  0.83575793  0.16644230  1
  I  I124  1  0.32980422  0.83508996  0.49925363  1
  I  I125  1  0.33564587  0.83184996  0.83461954  1
  I  I126  1  0.66560734  0.16163654  0.17466847  1
  I  I127  1  0.66643108  0.16605327  0.49586202  1
  I  I128  1  0.66654065  0.16997011  0.82831849  1
  I  I129  1  0.66692870  0.50164879  0.16366097  1
  I  I130  1  0.66695703  0.49935002  0.50301557  1
  I  I131  1  0.66922142  0.49854884  0.83392358  1
  I  I132  1  0.66338211  0.83711738  0.16133955  1
  I  I133  1  0.66657546  0.83471944  0.50093589  1
  I  I134  1  0.66235551  0.83393479  0.84014782  1
