# generated using pymatgen
data_Cs27Sn13Pb14I81
_symmetry_space_group_name_H-M   'P 1'
_cell_length_a   18.97073427
_cell_length_b   18.97630186
_cell_length_c   18.98194142
_cell_angle_alpha   90.00049679
_cell_angle_beta   89.99950211
_cell_angle_gamma   89.99846663
_symmetry_Int_Tables_number   1
_chemical_formula_structural   Cs27Sn13Pb14I81
_chemical_formula_sum   'Cs27 Sn13 Pb14 I81'
_cell_volume   6833.39223275
_cell_formula_units_Z   1
loop_
 _symmetry_equiv_pos_site_id
 _symmetry_equiv_pos_as_xyz
  1  'x, y, z'
loop_
 _atom_site_type_symbol
 _atom_site_label
 _atom_site_symmetry_multiplicity
 _atom_site_fract_x
 _atom_site_fract_y
 _atom_site_fract_z
 _atom_site_occupancy
  Cs  Cs0  1  -0.00775504  0.00077794  0.00013866  1
  Cs  Cs1  1  -0.00213255  -0.00063832  0.32732414  1
  Cs  Cs2  1  -0.00330677  -0.00295257  0.67164547  1
  Cs  Cs3  1  0.00077568  0.33306015  0.00040949  1
  Cs  Cs4  1  0.00106769  0.33576358  0.32927456  1
  Cs  Cs5  1  0.00079067  0.33635262  0.66859285  1
  Cs  Cs6  1  0.00196414  0.66390415  -0.00055934  1
  Cs  Cs7  1  0.00084566  0.66448865  0.33477650  1
  Cs  Cs8  1  0.00075237  0.66566069  0.66586800  1
  Cs  Cs9  1  0.33327150  0.00093711  -0.00093260  1
  Cs  Cs10  1  0.33256668  0.00124904  0.33563293  1
  Cs  Cs11  1  0.33299053  0.00040705  0.66503040  1
  Cs  Cs12  1  0.33420602  0.33318571  -0.00015031  1
  Cs  Cs13  1  0.33249328  0.33186145  0.33378474  1
  Cs  Cs14  1  0.33351511  0.33252139  0.66673623  1
  Cs  Cs15  1  0.33950153  0.66819106  -0.00110948  1
  Cs  Cs16  1  0.33255043  0.66688393  0.33407471  1
  Cs  Cs17  1  0.33206863  0.66755726  0.66672738  1
  Cs  Cs18  1  0.67337148  -0.00592116  0.00132580  1
  Cs  Cs19  1  0.67292702  0.00014147  0.33326154  1
  Cs  Cs20  1  0.67610054  0.00469155  0.66616573  1
  Cs  Cs21  1  0.66399066  0.33521998  -0.00196099  1
  Cs  Cs22  1  0.66546155  0.33131460  0.33900253  1
  Cs  Cs23  1  0.66773790  0.33000329  0.66420058  1
  Cs  Cs24  1  0.65612589  0.67012680  0.00271512  1
  Cs  Cs25  1  0.66830165  0.66969580  0.33145724  1
  Cs  Cs26  1  0.66723656  0.66771681  0.66584296  1
  Sn  Sn27  1  0.16673406  0.16656322  0.50073032  1
  Sn  Sn28  1  0.16749588  0.16727598  0.83273434  1
  Sn  Sn29  1  0.16766231  0.49983440  0.50004828  1
  Sn  Sn30  1  0.16720295  0.83263109  0.16693344  1
  Sn  Sn31  1  0.49907241  0.50103162  0.49999767  1
  Sn  Sn32  1  0.16651997  0.49934204  0.83356679  1
  Sn  Sn33  1  0.16720796  0.83347734  0.49913061  1
  Sn  Sn34  1  0.49929047  0.83289896  0.50030131  1
  Sn  Sn35  1  0.83359474  0.50006698  0.83466425  1
  Sn  Sn36  1  0.49928276  0.16637066  0.83442977  1
  Sn  Sn37  1  0.49988795  0.16652401  0.16571106  1
  Sn  Sn38  1  0.83343370  0.49981073  0.16539298  1
  Sn  Sn39  1  0.16662085  0.50094728  0.16632367  1
  Pb  Pb40  1  0.16762114  0.16663230  0.16608896  1
  Pb  Pb41  1  0.83325852  0.82930845  0.83352974  1
  Pb  Pb42  1  0.83408922  0.83313389  0.49992507  1
  Pb  Pb43  1  0.49962916  0.49866180  0.16900772  1
  Pb  Pb44  1  0.49987632  0.83682511  0.83022281  1
  Pb  Pb45  1  0.49758922  0.83596819  0.16901436  1
  Pb  Pb46  1  0.16675255  0.83335487  0.83349097  1
  Pb  Pb47  1  0.83790897  0.16692118  0.49987781  1
  Pb  Pb48  1  0.83383522  0.16910134  0.83352938  1
  Pb  Pb49  1  0.49850246  0.16611543  0.50037601  1
  Pb  Pb50  1  0.49975045  0.49855418  0.83088433  1
  Pb  Pb51  1  0.83361666  0.50000915  0.49991711  1
  Pb  Pb52  1  0.83616104  0.83006473  0.16663811  1
  Pb  Pb53  1  0.83006212  0.16973189  0.16651459  1
  I  I54  1  0.17084272  -0.00217858  0.17165465  1
  I  I55  1  0.17238502  -0.00027772  0.49952086  1
  I  I56  1  0.17183287  0.00321140  0.82927341  1
  I  I57  1  0.16451840  0.33638102  0.16958153  1
  I  I58  1  0.17088497  0.33442633  0.50018614  1
  I  I59  1  0.16659487  0.33427087  0.82992619  1
  I  I60  1  0.16285816  0.66517258  0.17092677  1
  I  I61  1  0.17002479  0.66566646  0.49940754  1
  I  I62  1  0.16180873  0.66318065  0.83038389  1
  I  I63  1  0.49544621  0.00354695  0.16498982  1
  I  I64  1  0.49300458  -0.00237444  0.49971765  1
  I  I65  1  0.49080317  0.00475190  0.83502007  1
  I  I66  1  0.49674834  0.33100430  0.16626068  1
  I  I67  1  0.49576119  0.33545674  0.49952833  1
  I  I68  1  0.49739778  0.33066228  0.83363205  1
  I  I69  1  0.50190633  0.66668438  0.16646442  1
  I  I70  1  0.49130195  0.66595514  0.49979744  1
  I  I71  1  0.50015877  0.66660471  0.83379330  1
  I  I72  1  0.83441159  -0.00015621  0.16743627  1
  I  I73  1  0.83066511  -0.00001444  0.50034601  1
  I  I74  1  0.83393564  0.00017597  0.83216752  1
  I  I75  1  0.84278543  0.33750615  0.16412357  1
  I  I76  1  0.83021380  0.33381561  0.49984657  1
  I  I77  1  0.83643002  0.33698278  0.83629065  1
  I  I78  1  0.83454564  0.66216131  0.16367164  1
  I  I79  1  0.83682859  0.66632542  0.50110245  1
  I  I80  1  0.84213956  0.66127122  0.83476862  1
  I  I81  1  0.16965046  0.17097326  -0.00279433  1
  I  I82  1  0.16975174  0.16954814  0.33572558  1
  I  I83  1  0.17296836  0.17074747  0.66672216  1
  I  I84  1  0.16135895  0.49878304  -0.00005000  1
  I  I85  1  0.16622126  0.49974028  0.33374969  1
  I  I86  1  0.16624645  0.49906153  0.66632107  1
  I  I87  1  0.16596233  0.82958084  0.00290276  1
  I  I88  1  0.17018568  0.83012045  0.33442607  1
  I  I89  1  0.17040173  0.83104790  0.66336593  1
  I  I90  1  0.49196518  0.17001885  -0.00079629  1
  I  I91  1  0.49710485  0.16836679  0.33201399  1
  I  I92  1  0.49654006  0.16801238  0.66889454  1
  I  I93  1  0.49807351  0.49907511  -0.00006718  1
  I  I94  1  0.49519419  0.49950770  0.33680326  1
  I  I95  1  0.49521584  0.50056754  0.66308033  1
  I  I96  1  0.49875084  0.83232814  0.00011733  1
  I  I97  1  0.49611262  0.83084005  0.33690045  1
  I  I98  1  0.49077663  0.82940880  0.66228052  1
  I  I99  1  0.83859488  0.16620560  -0.00002092  1
  I  I100  1  0.83170203  0.16967064  0.33316408  1
  I  I101  1  0.82753596  0.16957086  0.66680980  1
  I  I102  1  0.84386518  0.49824347  -0.00004640  1
  I  I103  1  0.83800957  0.50007963  0.33062375  1
  I  I104  1  0.83761775  0.49889448  0.66934478  1
  I  I105  1  0.83600609  0.83625643  0.00027451  1
  I  I106  1  0.83190027  0.83088291  0.33325963  1
  I  I107  1  0.83532869  0.83201679  0.66655284  1
  I  I108  1  0.00013693  0.16463602  0.16757322  1
  I  I109  1  0.00619977  0.16868023  0.50546211  1
  I  I110  1  0.00359570  0.16879671  0.82811623  1
  I  I111  1  0.00224115  0.50238986  0.16881941  1
  I  I112  1  0.00386309  0.50028392  0.50017156  1
  I  I113  1  0.00241217  0.49468039  0.83177593  1
  I  I114  1  0.00447001  0.83399718  0.17408033  1
  I  I115  1  0.00444223  0.83161388  0.49692511  1
  I  I116  1  0.00049953  0.83861270  0.83066370  1
  I  I117  1  0.33519982  0.17000233  0.16621842  1
  I  I118  1  0.33012094  0.16802756  0.50099565  1
  I  I119  1  0.33187228  0.17342315  0.83268441  1
  I  I120  1  0.32982585  0.50174938  0.16515116  1
  I  I121  1  0.33110527  0.50006623  0.49980017  1
  I  I122  1  0.32992159  0.49744313  0.83492337  1
  I  I123  1  0.32954850  0.82575202  0.16900916  1
  I  I124  1  0.33156065  0.83178461  0.49642191  1
  I  I125  1  0.33310690  0.82840673  0.83504918  1
  I  I126  1  0.66221230  0.16830568  0.16247278  1
  I  I127  1  0.66645010  0.16754945  0.50041014  1
  I  I128  1  0.66389926  0.16856720  0.83577081  1
  I  I129  1  0.66889297  0.49626783  0.16353406  1
  I  I130  1  0.66368534  0.50345469  0.49991381  1
  I  I131  1  0.66892619  0.49813281  0.83599831  1
  I  I132  1  0.66651243  0.83331342  0.16837603  1
  I  I133  1  0.66351994  0.82759167  0.50079188  1
  I  I134  1  0.66642592  0.83335251  0.83125880  1
