# generated using pymatgen
data_Cs27Sn14Pb13I81
_symmetry_space_group_name_H-M   'P 1'
_cell_length_a   18.95946309
_cell_length_b   18.96002803
_cell_length_c   18.96402733
_cell_angle_alpha   89.99979261
_cell_angle_beta   90.00148965
_cell_angle_gamma   90.00027163
_symmetry_Int_Tables_number   1
_chemical_formula_structural   Cs27Sn14Pb13I81
_chemical_formula_sum   'Cs27 Sn14 Pb13 I81'
_cell_volume   6817.03591376
_cell_formula_units_Z   1
loop_
 _symmetry_equiv_pos_site_id
 _symmetry_equiv_pos_as_xyz
  1  'x, y, z'
loop_
 _atom_site_type_symbol
 _atom_site_label
 _atom_site_symmetry_multiplicity
 _atom_site_fract_x
 _atom_site_fract_y
 _atom_site_fract_z
 _atom_site_occupancy
  Cs  Cs0  1  0.00078330  0.00069072  -0.00360359  1
  Cs  Cs1  1  0.00001573  -0.00024394  0.33295999  1
  Cs  Cs2  1  -0.00257635  -0.00207056  0.67019282  1
  Cs  Cs3  1  -0.00255240  0.33248922  -0.00139560  1
  Cs  Cs4  1  0.00225824  0.33134592  0.33343186  1
  Cs  Cs5  1  0.00127608  0.33421729  0.66783393  1
  Cs  Cs6  1  -0.00047288  0.66509764  0.00201108  1
  Cs  Cs7  1  -0.00020603  0.66720192  0.33302880  1
  Cs  Cs8  1  0.00209835  0.66928983  0.66650687  1
  Cs  Cs9  1  0.33729855  0.00067389  0.00119318  1
  Cs  Cs10  1  0.33275282  0.00717488  0.33121299  1
  Cs  Cs11  1  0.33494520  -0.00021930  0.66744006  1
  Cs  Cs12  1  0.33647499  0.33328683  0.00116649  1
  Cs  Cs13  1  0.33143870  0.32968702  0.33326937  1
  Cs  Cs14  1  0.33295546  0.33428272  0.66610341  1
  Cs  Cs15  1  0.33446227  0.66693610  -0.00027313  1
  Cs  Cs16  1  0.33378672  0.66547138  0.33379881  1
  Cs  Cs17  1  0.33172984  0.66584831  0.66709733  1
  Cs  Cs18  1  0.66098163  -0.00182185  0.00117286  1
  Cs  Cs19  1  0.66657734  -0.00101803  0.33295845  1
  Cs  Cs20  1  0.66964863  0.00099339  0.66607757  1
  Cs  Cs21  1  0.66860668  0.33623728  -0.00376933  1
  Cs  Cs22  1  0.66653908  0.33578693  0.33486884  1
  Cs  Cs23  1  0.66616626  0.33217077  0.66712801  1
  Cs  Cs24  1  0.66425044  0.66451485  0.00403421  1
  Cs  Cs25  1  0.66622308  0.66589813  0.33270899  1
  Cs  Cs26  1  0.66555889  0.66721442  0.66389883  1
  Sn  Sn27  1  0.16646485  0.83288134  0.16661681  1
  Sn  Sn28  1  0.83312279  0.50028961  0.50008291  1
  Sn  Sn29  1  0.83317927  0.16633354  0.16640255  1
  Sn  Sn30  1  0.83363977  0.16659921  0.49988280  1
  Sn  Sn31  1  0.16728014  0.50041405  0.16672660  1
  Sn  Sn32  1  0.49911630  0.50004278  0.16766392  1
  Sn  Sn33  1  0.16692564  0.83350277  0.49979968  1
  Sn  Sn34  1  0.50042999  0.50078647  0.49920995  1
  Sn  Sn35  1  0.16601580  0.83412733  0.83367234  1
  Sn  Sn36  1  0.83360127  0.83354335  0.83319815  1
  Sn  Sn37  1  0.83405152  0.16560740  0.83357899  1
  Sn  Sn38  1  0.16621311  0.16594346  0.83322426  1
  Sn  Sn39  1  0.83331480  0.83319538  0.50038416  1
  Sn  Sn40  1  0.49993649  0.83292994  0.49983856  1
  Pb  Pb41  1  0.16658416  0.50035318  0.83598826  1
  Pb  Pb42  1  0.49999662  0.50023748  0.83264952  1
  Pb  Pb43  1  0.16429599  0.16395628  0.50245663  1
  Pb  Pb44  1  0.16679016  0.50171509  0.49826855  1
  Pb  Pb45  1  0.50293774  0.16969396  0.16674430  1
  Pb  Pb46  1  0.49726101  0.83164949  0.16936535  1
  Pb  Pb47  1  0.50216971  0.16680907  0.50001909  1
  Pb  Pb48  1  0.50021487  0.83321473  0.83102088  1
  Pb  Pb49  1  0.83357232  0.49809677  0.16894659  1
  Pb  Pb50  1  0.50033234  0.16648926  0.83325812  1
  Pb  Pb51  1  0.83502314  0.83501013  0.16637620  1
  Pb  Pb52  1  0.83341794  0.50075994  0.83055150  1
  Pb  Pb53  1  0.16497950  0.16648627  0.16439295  1
  I  I54  1  0.16369357  -0.00295866  0.16913227  1
  I  I55  1  0.16777068  -0.00463778  0.49432568  1
  I  I56  1  0.16131196  -0.00147297  0.83401938  1
  I  I57  1  0.16892057  0.33571531  0.16613069  1
  I  I58  1  0.16622566  0.33313125  0.49980188  1
  I  I59  1  0.16117252  0.33043561  0.83476288  1
  I  I60  1  0.16849157  0.66754775  0.16543246  1
  I  I61  1  0.16194943  0.67035340  0.50424556  1
  I  I62  1  0.16229581  0.67053948  0.83092445  1
  I  I63  1  0.49922209  -0.00006076  0.16760749  1
  I  I64  1  0.50055143  -0.00325467  0.50161521  1
  I  I65  1  0.49996570  -0.00032430  0.83177485  1
  I  I66  1  0.49278190  0.33759180  0.17425189  1
  I  I67  1  0.50523516  0.33671027  0.49638983  1
  I  I68  1  0.50015205  0.33333186  0.83142936  1
  I  I69  1  0.50063561  0.66353307  0.16874884  1
  I  I70  1  0.50565128  0.66687338  0.49690423  1
  I  I71  1  0.50028845  0.66694957  0.83466895  1
  I  I72  1  0.83644528  0.00296819  0.17146552  1
  I  I73  1  0.83371307  -0.00089369  0.50101350  1
  I  I74  1  0.83839805  -0.00018809  0.82725783  1
  I  I75  1  0.83505887  0.33007673  0.16611536  1
  I  I76  1  0.82814598  0.33320342  0.49952593  1
  I  I77  1  0.83720709  0.33012902  0.83278930  1
  I  I78  1  0.83252415  0.66664143  0.16648551  1
  I  I79  1  0.83280297  0.66796034  0.50389293  1
  I  I80  1  0.83833846  0.67044027  0.82839777  1
  I  I81  1  0.15911777  0.16146708  -0.00336621  1
  I  I82  1  0.16421753  0.16557224  0.33334930  1
  I  I83  1  0.16116843  0.16259959  0.67037802  1
  I  I84  1  0.17158941  0.50530443  0.00400670  1
  I  I85  1  0.16656649  0.50516555  0.33031222  1
  I  I86  1  0.16702497  0.50037476  0.66650241  1
  I  I87  1  0.16072984  0.83282366  -0.00073950  1
  I  I88  1  0.16526024  0.82779390  0.33387933  1
  I  I89  1  0.16526522  0.83709126  0.66648921  1
  I  I90  1  0.50262105  0.16867724  0.00011285  1
  I  I91  1  0.50147394  0.16422993  0.33347580  1
  I  I92  1  0.50140271  0.16941387  0.66642799  1
  I  I93  1  0.49594400  0.49878767  0.00317348  1
  I  I94  1  0.50125177  0.50477821  0.33443139  1
  I  I95  1  0.50477817  0.50346976  0.66258605  1
  I  I96  1  0.50068554  0.83162047  0.00030828  1
  I  I97  1  0.50328522  0.83097246  0.33761846  1
  I  I98  1  0.49696251  0.82694645  0.66257857  1
  I  I99  1  0.83791341  0.16348329  -0.00129720  1
  I  I100  1  0.83247369  0.16660108  0.33452148  1
  I  I101  1  0.83625542  0.16548015  0.66658181  1
  I  I102  1  0.83248709  0.49904871  0.00020764  1
  I  I103  1  0.83221652  0.50157411  0.33722722  1
  I  I104  1  0.82775076  0.49669655  0.66217855  1
  I  I105  1  0.83885609  0.83825600  -0.00297622  1
  I  I106  1  0.83427122  0.83417991  0.33657285  1
  I  I107  1  0.83727000  0.83706524  0.66545221  1
  I  I108  1  -0.00302763  0.16899032  0.16947448  1
  I  I109  1  -0.00428537  0.16843304  0.49764706  1
  I  I110  1  -0.00131372  0.16223041  0.83289083  1
  I  I111  1  0.00247238  0.50311431  0.16766445  1
  I  I112  1  -0.00274280  0.50058190  0.49878618  1
  I  I113  1  -0.00005178  0.49954299  0.83366505  1
  I  I114  1  0.00333803  0.82760334  0.17117969  1
  I  I115  1  -0.00069479  0.83317772  0.50079429  1
  I  I116  1  0.00007030  0.83748114  0.82770404  1
  I  I117  1  0.33313179  0.16545748  0.16492677  1
  I  I118  1  0.33294117  0.16688797  0.50142546  1
  I  I119  1  0.33002498  0.16182562  0.83427520  1
  I  I120  1  0.33324257  0.50411637  0.17204909  1
  I  I121  1  0.33602886  0.50557385  0.49810539  1
  I  I122  1  0.33306740  0.49951390  0.82880480  1
  I  I123  1  0.32891181  0.83245144  0.16515639  1
  I  I124  1  0.33291040  0.82695219  0.50078672  1
  I  I125  1  0.32977716  0.83699198  0.83252264  1
  I  I126  1  0.67113888  0.16664926  0.16525428  1
  I  I127  1  0.67106713  0.16256731  0.50285895  1
  I  I128  1  0.67097150  0.16284047  0.83220530  1
  I  I129  1  0.66442056  0.49769174  0.16956871  1
  I  I130  1  0.66699421  0.50431748  0.49471287  1
  I  I131  1  0.66696115  0.49918214  0.83815691  1
  I  I132  1  0.66663565  0.83290010  0.16621857  1
  I  I133  1  0.66806880  0.83298528  0.50465568  1
  I  I134  1  0.67026508  0.83832140  0.82803525  1
