# generated using pymatgen
data_Cs27Sn13Pb14I81
_symmetry_space_group_name_H-M   'P 1'
_cell_length_a   18.98345621
_cell_length_b   18.97094737
_cell_length_c   18.97862217
_cell_angle_alpha   89.99888654
_cell_angle_beta   90.00032193
_cell_angle_gamma   90.00164400
_symmetry_Int_Tables_number   1
_chemical_formula_structural   Cs27Sn13Pb14I81
_chemical_formula_sum   'Cs27 Sn13 Pb14 I81'
_cell_volume   6834.84993821
_cell_formula_units_Z   1
loop_
 _symmetry_equiv_pos_site_id
 _symmetry_equiv_pos_as_xyz
  1  'x, y, z'
loop_
 _atom_site_type_symbol
 _atom_site_label
 _atom_site_symmetry_multiplicity
 _atom_site_fract_x
 _atom_site_fract_y
 _atom_site_fract_z
 _atom_site_occupancy
  Cs  Cs0  1  0.00083965  0.00112592  0.00227376  1
  Cs  Cs1  1  0.00026635  -0.00013220  0.32732074  1
  Cs  Cs2  1  -0.00118154  0.00097232  0.66739702  1
  Cs  Cs3  1  -0.00178696  0.32807837  0.00196778  1
  Cs  Cs4  1  0.00198701  0.33926918  0.32978493  1
  Cs  Cs5  1  0.00011247  0.33368758  0.66697379  1
  Cs  Cs6  1  0.00225630  0.66956762  -0.00217974  1
  Cs  Cs7  1  -0.00022374  0.66249736  0.33783691  1
  Cs  Cs8  1  -0.00195638  0.66627411  0.66505659  1
  Cs  Cs9  1  0.33301002  -0.00104043  -0.00009136  1
  Cs  Cs10  1  0.33539446  0.00004588  0.33696167  1
  Cs  Cs11  1  0.33528973  0.00276138  0.66167194  1
  Cs  Cs12  1  0.33493137  0.33441003  -0.00111332  1
  Cs  Cs13  1  0.32796763  0.33596807  0.33760551  1
  Cs  Cs14  1  0.33427233  0.33121295  0.66625066  1
  Cs  Cs15  1  0.33399653  0.66704333  0.00015662  1
  Cs  Cs16  1  0.33082409  0.66531036  0.32965994  1
  Cs  Cs17  1  0.33433084  0.66667323  0.66859461  1
  Cs  Cs18  1  0.66653861  -0.00009907  -0.00027133  1
  Cs  Cs19  1  0.66488036  0.00093597  0.33520018  1
  Cs  Cs20  1  0.66634343  -0.00248874  0.66379953  1
  Cs  Cs21  1  0.66596553  0.33302085  -0.00045585  1
  Cs  Cs22  1  0.66904107  0.33467245  0.33082733  1
  Cs  Cs23  1  0.66585560  0.33234064  0.66774333  1
  Cs  Cs24  1  0.66451642  0.66667584  -0.00173266  1
  Cs  Cs25  1  0.67015488  0.66302249  0.33464322  1
  Cs  Cs26  1  0.66812849  0.67076558  0.66630441  1
  Sn  Sn27  1  0.49961880  0.16621366  0.16610961  1
  Sn  Sn28  1  0.50026813  0.49947779  0.83217413  1
  Sn  Sn29  1  0.16667787  0.83363479  0.50026904  1
  Sn  Sn30  1  0.83298630  0.83291261  0.16650188  1
  Sn  Sn31  1  0.50035255  0.83404814  0.16641469  1
  Sn  Sn32  1  0.16694586  0.83306626  0.83275225  1
  Sn  Sn33  1  0.83225236  0.16711237  0.83241502  1
  Sn  Sn34  1  0.83367432  0.16684014  0.50021149  1
  Sn  Sn35  1  0.50089178  0.16696095  0.83394389  1
  Sn  Sn36  1  0.16672861  0.83335404  0.16690491  1
  Sn  Sn37  1  0.50012345  0.50006112  0.50087959  1
  Sn  Sn38  1  0.16663187  0.50044533  0.83351011  1
  Sn  Sn39  1  0.83312495  0.49947871  0.83342017  1
  Pb  Pb40  1  0.16846681  0.50192842  0.50276082  1
  Pb  Pb41  1  0.16976875  0.16475094  0.16671577  1
  Pb  Pb42  1  0.83541060  0.83531292  0.49760929  1
  Pb  Pb43  1  0.49806668  0.83370837  0.83462186  1
  Pb  Pb44  1  0.83134271  0.16509981  0.16625420  1
  Pb  Pb45  1  0.49993379  0.49964042  0.16632901  1
  Pb  Pb46  1  0.16685052  0.16679224  0.83329863  1
  Pb  Pb47  1  0.83341402  0.50241301  0.16377874  1
  Pb  Pb48  1  0.16650317  0.50205398  0.16396141  1
  Pb  Pb49  1  0.50158661  0.16860850  0.49992597  1
  Pb  Pb50  1  0.83149851  0.49788191  0.50251450  1
  Pb  Pb51  1  0.16371516  0.16487795  0.49996163  1
  Pb  Pb52  1  0.83532284  0.83390855  0.83469056  1
  Pb  Pb53  1  0.49837844  0.83090518  0.49719948  1
  I  I54  1  0.16391606  -0.00435270  0.16196537  1
  I  I55  1  0.16864607  -0.00384547  0.50267177  1
  I  I56  1  0.16627105  -0.00308888  0.83538737  1
  I  I57  1  0.16785651  0.33340624  0.16556995  1
  I  I58  1  0.16768828  0.33371871  0.50165064  1
  I  I59  1  0.16749366  0.33639198  0.83236132  1
  I  I60  1  0.17074024  0.67105618  0.16769521  1
  I  I61  1  0.16651520  0.67013105  0.49654273  1
  I  I62  1  0.16716652  0.66675293  0.83494746  1
  I  I63  1  0.49934875  -0.00040157  0.16052496  1
  I  I64  1  0.49937618  0.00001574  0.50182657  1
  I  I65  1  0.50330573  0.00284214  0.83652782  1
  I  I66  1  0.50263910  0.33050328  0.16384261  1
  I  I67  1  0.49992253  0.33630113  0.50085776  1
  I  I68  1  0.49846617  0.33349802  0.83599558  1
  I  I69  1  0.49806989  0.66963837  0.16583162  1
  I  I70  1  0.50020164  0.66335582  0.50708003  1
  I  I71  1  0.50173920  0.66389026  0.83192717  1
  I  I72  1  0.83640724  -0.00308330  0.16364836  1
  I  I73  1  0.83173547  0.00294638  0.50818512  1
  I  I74  1  0.82978785  0.00299608  0.83165713  1
  I  I75  1  0.83071225  0.33315011  0.16821707  1
  I  I76  1  0.83206741  0.33005991  0.50123830  1
  I  I77  1  0.83430245  0.33322777  0.83028703  1
  I  I78  1  0.83103114  0.67084243  0.16538487  1
  I  I79  1  0.83325862  0.66659094  0.49978482  1
  I  I80  1  0.83089901  0.66409825  0.83634584  1
  I  I81  1  0.16246618  0.16390772  -0.00024911  1
  I  I82  1  0.16685364  0.16394727  0.33329467  1
  I  I83  1  0.17123194  0.16198743  0.66694736  1
  I  I84  1  0.17058602  0.50604102  -0.00449339  1
  I  I85  1  0.16937057  0.50168473  0.33361985  1
  I  I86  1  0.16490957  0.50696648  0.67087657  1
  I  I87  1  0.16692888  0.82887941  0.00011399  1
  I  I88  1  0.16750131  0.83597420  0.33238138  1
  I  I89  1  0.16636478  0.82872547  0.66756393  1
  I  I90  1  0.50530476  0.16813569  -0.00137591  1
  I  I91  1  0.50169854  0.16228436  0.33078623  1
  I  I92  1  0.50137582  0.16942357  0.66979292  1
  I  I93  1  0.49971590  0.49957771  -0.00356403  1
  I  I94  1  0.49982398  0.50137380  0.33559575  1
  I  I95  1  0.49878956  0.49441532  0.66917658  1
  I  I96  1  0.49720510  0.83244548  0.00282047  1
  I  I97  1  0.49761364  0.83859798  0.32910276  1
  I  I98  1  0.49732559  0.83550962  0.66662293  1
  I  I99  1  0.83140471  0.16962266  -0.00317436  1
  I  I100  1  0.83118340  0.16200422  0.33521767  1
  I  I101  1  0.82791915  0.16919734  0.66874597  1
  I  I102  1  0.83001015  0.49364843  -0.00467444  1
  I  I103  1  0.83093931  0.49927894  0.33356920  1
  I  I104  1  0.83560288  0.50011800  0.67086157  1
  I  I105  1  0.83564630  0.83476630  0.00268032  1
  I  I106  1  0.83449776  0.83617293  0.32956797  1
  I  I107  1  0.83587123  0.83199852  0.66677568  1
  I  I108  1  -0.00022590  0.16354920  0.16510178  1
  I  I109  1  -0.00406630  0.16566482  0.50819095  1
  I  I110  1  -0.00295405  0.16903699  0.82984791  1
  I  I111  1  -0.00007479  0.50149336  0.16601747  1
  I  I112  1  -0.00003258  0.50062009  0.50096788  1
  I  I113  1  -0.00007669  0.50132709  0.83502175  1
  I  I114  1  0.00076263  0.83301030  0.16515889  1
  I  I115  1  0.00342532  0.83308958  0.49878747  1
  I  I116  1  0.00346838  0.82970280  0.83629442  1
  I  I117  1  0.33791349  0.16149591  0.15965204  1
  I  I118  1  0.33358284  0.16641555  0.50028352  1
  I  I119  1  0.33653070  0.16925763  0.83782801  1
  I  I120  1  0.33347996  0.50262324  0.16405502  1
  I  I121  1  0.33635362  0.49918405  0.50519788  1
  I  I122  1  0.33402701  0.50085580  0.83059057  1
  I  I123  1  0.33314455  0.83683453  0.16558034  1
  I  I124  1  0.33031572  0.83345603  0.49908046  1
  I  I125  1  0.32999579  0.82920896  0.83678636  1
  I  I126  1  0.66351495  0.15982520  0.16450501  1
  I  I127  1  0.66922321  0.16594971  0.50224387  1
  I  I128  1  0.66628230  0.17429015  0.83452730  1
  I  I129  1  0.66647896  0.50467086  0.16491792  1
  I  I130  1  0.66363848  0.50096701  0.50520050  1
  I  I131  1  0.66606991  0.49505720  0.83083382  1
  I  I132  1  0.66589767  0.83749800  0.16472072  1
  I  I133  1  0.66671184  0.83299322  0.49808430  1
  I  I134  1  0.66661813  0.83053718  0.83667192  1
