# generated using pymatgen
data_Cs27Sn13Pb14I81
_symmetry_space_group_name_H-M   'P 1'
_cell_length_a   18.98486912
_cell_length_b   18.97483895
_cell_length_c   18.97191713
_cell_angle_alpha   90.00111497
_cell_angle_beta   89.99921275
_cell_angle_gamma   90.00112909
_symmetry_Int_Tables_number   1
_chemical_formula_structural   Cs27Sn13Pb14I81
_chemical_formula_sum   'Cs27 Sn13 Pb14 I81'
_cell_volume   6834.34541660
_cell_formula_units_Z   1
loop_
 _symmetry_equiv_pos_site_id
 _symmetry_equiv_pos_as_xyz
  1  'x, y, z'
loop_
 _atom_site_type_symbol
 _atom_site_label
 _atom_site_symmetry_multiplicity
 _atom_site_fract_x
 _atom_site_fract_y
 _atom_site_fract_z
 _atom_site_occupancy
  Cs  Cs0  1  0.00082527  -0.00099676  0.00008408  1
  Cs  Cs1  1  0.00563099  0.00027138  0.33515687  1
  Cs  Cs2  1  0.00140366  0.00502786  0.66516598  1
  Cs  Cs3  1  0.00026120  0.33141716  0.00004214  1
  Cs  Cs4  1  -0.00173522  0.33389034  0.33278208  1
  Cs  Cs5  1  -0.00256435  0.32666829  0.66753009  1
  Cs  Cs6  1  0.00053684  0.66707645  0.00017507  1
  Cs  Cs7  1  0.00050243  0.66559679  0.33157311  1
  Cs  Cs8  1  0.00086125  0.66738096  0.66723129  1
  Cs  Cs9  1  0.33674982  0.00988748  0.00549792  1
  Cs  Cs10  1  0.32919091  0.00173357  0.32864169  1
  Cs  Cs11  1  0.33019062  -0.00252584  0.66594608  1
  Cs  Cs12  1  0.33357692  0.32460479  0.00138044  1
  Cs  Cs13  1  0.33359298  0.33672916  0.33052598  1
  Cs  Cs14  1  0.33526716  0.33375218  0.66861489  1
  Cs  Cs15  1  0.33017946  0.66629397  -0.00135118  1
  Cs  Cs16  1  0.33158612  0.66453854  0.33413935  1
  Cs  Cs17  1  0.33355975  0.66767136  0.66615006  1
  Cs  Cs18  1  0.66308240  -0.00142580  0.00606974  1
  Cs  Cs19  1  0.66621758  0.00007940  0.33123093  1
  Cs  Cs20  1  0.66826438  -0.00222289  0.66539298  1
  Cs  Cs21  1  0.66681816  0.33305797  -0.00560719  1
  Cs  Cs22  1  0.66812293  0.33451254  0.33536176  1
  Cs  Cs23  1  0.66805261  0.33291919  0.67031988  1
  Cs  Cs24  1  0.66809733  0.66755013  -0.00113465  1
  Cs  Cs25  1  0.66721513  0.66522743  0.33482947  1
  Cs  Cs26  1  0.66592462  0.66642261  0.66665378  1
  Sn  Sn27  1  0.16695449  0.83266191  0.83326200  1
  Sn  Sn28  1  0.83329149  0.83298626  0.83231876  1
  Sn  Sn29  1  0.83205744  0.49911235  0.16704879  1
  Sn  Sn30  1  0.49995583  0.16651699  0.50016095  1
  Sn  Sn31  1  0.16630373  0.50010206  0.50135684  1
  Sn  Sn32  1  0.50042806  0.83356264  0.50040090  1
  Sn  Sn33  1  0.83313667  0.16756369  0.16704603  1
  Sn  Sn34  1  0.50027554  0.49992195  0.49973418  1
  Sn  Sn35  1  0.49978625  0.83302542  0.83288498  1
  Sn  Sn36  1  0.16670244  0.50033551  0.83238671  1
  Sn  Sn37  1  0.83339380  0.50066350  0.49988026  1
  Sn  Sn38  1  0.83293444  0.83253898  0.50069918  1
  Sn  Sn39  1  0.50109219  0.50063378  0.16669121  1
  Pb  Pb40  1  0.16694294  0.83316430  0.16340906  1
  Pb  Pb41  1  0.49803084  0.50169179  0.83335261  1
  Pb  Pb42  1  0.83155125  0.16639740  0.49851927  1
  Pb  Pb43  1  0.83528137  0.50161793  0.83317420  1
  Pb  Pb44  1  0.83333901  0.83273140  0.16759510  1
  Pb  Pb45  1  0.50214386  0.16970694  0.16924951  1
  Pb  Pb46  1  0.16662108  0.83153223  0.50141506  1
  Pb  Pb47  1  0.50029404  0.16335816  0.83059364  1
  Pb  Pb48  1  0.49991528  0.83078136  0.16748777  1
  Pb  Pb49  1  0.16642209  0.50002624  0.16639118  1
  Pb  Pb50  1  0.16369756  0.16701808  0.16702341  1
  Pb  Pb51  1  0.16963364  0.17007302  0.50002248  1
  Pb  Pb52  1  0.83297370  0.16308372  0.83596213  1
  Pb  Pb53  1  0.16669233  0.16657912  0.83307681  1
  I  I54  1  0.16512980  0.00014080  0.16581820  1
  I  I55  1  0.16601462  -0.00013071  0.50139879  1
  I  I56  1  0.16580645  -0.00375566  0.83310029  1
  I  I57  1  0.16952448  0.33396294  0.16399550  1
  I  I58  1  0.16488644  0.33861121  0.50559456  1
  I  I59  1  0.16665373  0.33667268  0.82981432  1
  I  I60  1  0.16391235  0.66614084  0.16805955  1
  I  I61  1  0.17055503  0.66324612  0.50156472  1
  I  I62  1  0.16674231  0.66702276  0.82935904  1
  I  I63  1  0.50135663  0.00018979  0.16649874  1
  I  I64  1  0.50612003  -0.00155308  0.50590334  1
  I  I65  1  0.49801883  -0.00514801  0.82910099  1
  I  I66  1  0.50046858  0.33761159  0.17214921  1
  I  I67  1  0.49932638  0.33511299  0.49436948  1
  I  I68  1  0.49739119  0.33348768  0.83311696  1
  I  I69  1  0.50662991  0.66284848  0.17257989  1
  I  I70  1  0.50102125  0.66622940  0.50037855  1
  I  I71  1  0.50200606  0.66990187  0.82761917  1
  I  I72  1  0.83353063  0.00198779  0.16525282  1
  I  I73  1  0.82853331  -0.00328016  0.50237626  1
  I  I74  1  0.83627135  -0.00527159  0.82749672  1
  I  I75  1  0.83031283  0.33554258  0.17335963  1
  I  I76  1  0.83283308  0.33668198  0.49731871  1
  I  I77  1  0.83573740  0.33344828  0.83122814  1
  I  I78  1  0.83021253  0.66337151  0.16827946  1
  I  I79  1  0.82892519  0.66589261  0.49837240  1
  I  I80  1  0.83147133  0.66988170  0.83381608  1
  I  I81  1  0.16763833  0.16805313  -0.00003621  1
  I  I82  1  0.16724553  0.16719529  0.33371710  1
  I  I83  1  0.16510287  0.16575733  0.66639600  1
  I  I84  1  0.16596176  0.50593214  -0.00298131  1
  I  I85  1  0.16751621  0.49983717  0.33649645  1
  I  I86  1  0.16794303  0.50504762  0.66571304  1
  I  I87  1  0.16454066  0.82478036  -0.00540179  1
  I  I88  1  0.16595185  0.83200235  0.33372867  1
  I  I89  1  0.16704028  0.82977395  0.66961888  1
  I  I90  1  0.49979737  0.16627638  0.00032414  1
  I  I91  1  0.50109857  0.16161883  0.33694935  1
  I  I92  1  0.50172970  0.17396078  0.66266557  1
  I  I93  1  0.50372567  0.50308610  0.00241799  1
  I  I94  1  0.49855119  0.50203614  0.33540307  1
  I  I95  1  0.50230646  0.49906830  0.66310298  1
  I  I96  1  0.50115992  0.83038888  -0.00292133  1
  I  I97  1  0.50664069  0.83398151  0.33743780  1
  I  I98  1  0.50097770  0.83055504  0.66548744  1
  I  I99  1  0.83302863  0.17381527  0.00369878  1
  I  I100  1  0.83122343  0.16755731  0.33076329  1
  I  I101  1  0.83285196  0.16867728  0.66646794  1
  I  I102  1  0.83041698  0.49848445  0.00266117  1
  I  I103  1  0.83432193  0.50227792  0.33478040  1
  I  I104  1  0.83002538  0.50292492  0.66331507  1
  I  I105  1  0.83362965  0.83309373  -0.00276955  1
  I  I106  1  0.82694941  0.83145639  0.33702245  1
  I  I107  1  0.83153413  0.82718433  0.66567586  1
  I  I108  1  -0.00423255  0.17399929  0.16775561  1
  I  I109  1  -0.00014145  0.16604716  0.49839477  1
  I  I110  1  -0.00021337  0.16475401  0.83349589  1
  I  I111  1  -0.00332181  0.49711477  0.17036540  1
  I  I112  1  -0.00119229  0.50580537  0.49864190  1
  I  I113  1  0.00304851  0.50697900  0.83007753  1
  I  I114  1  -0.00030079  0.83142621  0.16706289  1
  I  I115  1  -0.00302926  0.82863460  0.50287289  1
  I  I116  1  -0.00025135  0.82857858  0.83074198  1
  I  I117  1  0.33383547  0.16735076  0.16629659  1
  I  I118  1  0.33766927  0.16443569  0.50022516  1
  I  I119  1  0.33354447  0.16537423  0.83421845  1
  I  I120  1  0.33610317  0.50236849  0.17141438  1
  I  I121  1  0.33448040  0.50061669  0.49929763  1
  I  I122  1  0.33028193  0.50709447  0.82900148  1
  I  I123  1  0.33366570  0.83065577  0.16798046  1
  I  I124  1  0.33647462  0.83152162  0.50433751  1
  I  I125  1  0.33370174  0.82756332  0.82777256  1
  I  I126  1  0.66963693  0.16781670  0.16737740  1
  I  I127  1  0.66375325  0.17041192  0.49880880  1
  I  I128  1  0.66663496  0.16751540  0.83346058  1
  I  I129  1  0.66727321  0.49785850  0.17525205  1
  I  I130  1  0.66655593  0.50147458  0.49461889  1
  I  I131  1  0.66669444  0.50195957  0.83218811  1
  I  I132  1  0.66674263  0.83475783  0.16067446  1
  I  I133  1  0.66638784  0.82841002  0.50775655  1
  I  I134  1  0.66663512  0.83328117  0.82870959  1
