# generated using pymatgen
data_Cs27Sn13Pb14I81
_symmetry_space_group_name_H-M   'P 1'
_cell_length_a   18.97894962
_cell_length_b   18.97309489
_cell_length_c   18.97787463
_cell_angle_alpha   90.00140957
_cell_angle_beta   89.99969556
_cell_angle_gamma   90.00150180
_symmetry_Int_Tables_number   1
_chemical_formula_structural   Cs27Sn13Pb14I81
_chemical_formula_sum   'Cs27 Sn13 Pb14 I81'
_cell_volume   6833.73171535
_cell_formula_units_Z   1
loop_
 _symmetry_equiv_pos_site_id
 _symmetry_equiv_pos_as_xyz
  1  'x, y, z'
loop_
 _atom_site_type_symbol
 _atom_site_label
 _atom_site_symmetry_multiplicity
 _atom_site_fract_x
 _atom_site_fract_y
 _atom_site_fract_z
 _atom_site_occupancy
  Cs  Cs0  1  0.00044394  -0.00097811  -0.00081468  1
  Cs  Cs1  1  -0.00071363  0.00155928  0.33253155  1
  Cs  Cs2  1  -0.00234184  -0.00141407  0.66740116  1
  Cs  Cs3  1  -0.00224062  0.33381638  0.00149055  1
  Cs  Cs4  1  0.00227552  0.32892491  0.33132165  1
  Cs  Cs5  1  0.00025024  0.33477580  0.66633045  1
  Cs  Cs6  1  0.00289143  0.66747751  -0.00186345  1
  Cs  Cs7  1  -0.00038825  0.66816497  0.33756359  1
  Cs  Cs8  1  -0.00156137  0.66720278  0.66609432  1
  Cs  Cs9  1  0.33480683  -0.00091807  -0.00087105  1
  Cs  Cs10  1  0.33395329  0.00385148  0.33211716  1
  Cs  Cs11  1  0.33451368  -0.00038696  0.66852381  1
  Cs  Cs12  1  0.33289201  0.33231968  -0.00204102  1
  Cs  Cs13  1  0.33699187  0.32840910  0.34456000  1
  Cs  Cs14  1  0.33594679  0.33183486  0.66104828  1
  Cs  Cs15  1  0.33112225  0.66830377  -0.00123213  1
  Cs  Cs16  1  0.33541875  0.66570889  0.33187104  1
  Cs  Cs17  1  0.33219253  0.66793366  0.66862820  1
  Cs  Cs18  1  0.66485079  0.00057918  0.00009935  1
  Cs  Cs19  1  0.66798625  -0.00082285  0.32996543  1
  Cs  Cs20  1  0.66866102  0.00012226  0.66682491  1
  Cs  Cs21  1  0.66902814  0.33418781  0.00712986  1
  Cs  Cs22  1  0.66021999  0.34072277  0.32424896  1
  Cs  Cs23  1  0.66441949  0.33195922  0.66577026  1
  Cs  Cs24  1  0.66547742  0.66475230  0.00110853  1
  Cs  Cs25  1  0.66461921  0.66018148  0.33387148  1
  Cs  Cs26  1  0.67040518  0.66724955  0.66595937  1
  Sn  Sn27  1  0.16689278  0.50052606  0.16629674  1
  Sn  Sn28  1  0.16760377  0.83349403  0.49988267  1
  Sn  Sn29  1  0.49933966  0.50081120  0.83331614  1
  Sn  Sn30  1  0.83295265  0.16708715  0.50042667  1
  Sn  Sn31  1  0.16580896  0.83257221  0.16678372  1
  Sn  Sn32  1  0.83409150  0.83303666  0.16575116  1
  Sn  Sn33  1  0.16749458  0.49981539  0.83391047  1
  Sn  Sn34  1  0.49944860  0.83352541  0.50077652  1
  Sn  Sn35  1  0.50018352  0.83240673  0.83244327  1
  Sn  Sn36  1  0.83412251  0.16604323  0.83234208  1
  Sn  Sn37  1  0.16585739  0.16683438  0.83319166  1
  Sn  Sn38  1  0.83326123  0.83392387  0.83430554  1
  Sn  Sn39  1  0.16658228  0.83333399  0.83328079  1
  Pb  Pb40  1  0.83307871  0.83419591  0.49979242  1
  Pb  Pb41  1  0.50310791  0.16378602  0.50024734  1
  Pb  Pb42  1  0.49958061  0.83333891  0.16645740  1
  Pb  Pb43  1  0.16494473  0.16386776  0.50272384  1
  Pb  Pb44  1  0.16689018  0.16665004  0.16440291  1
  Pb  Pb45  1  0.49626921  0.50034260  0.16391507  1
  Pb  Pb46  1  0.83349820  0.49611332  0.49989957  1
  Pb  Pb47  1  0.16646520  0.50211685  0.50016152  1
  Pb  Pb48  1  0.49988846  0.50272212  0.50287491  1
  Pb  Pb49  1  0.49963866  0.16681763  0.16664751  1
  Pb  Pb50  1  0.83346362  0.16450503  0.16609505  1
  Pb  Pb51  1  0.50043786  0.16679896  0.83351834  1
  Pb  Pb52  1  0.83646585  0.50310738  0.16650076  1
  Pb  Pb53  1  0.83344395  0.49981391  0.83314933  1
  I  I54  1  0.16295484  -0.00378619  0.16568580  1
  I  I55  1  0.16962145  -0.00449695  0.49982600  1
  I  I56  1  0.16615464  -0.00171531  0.83315857  1
  I  I57  1  0.16667156  0.33638175  0.15939321  1
  I  I58  1  0.16461265  0.33296784  0.49979709  1
  I  I59  1  0.16621487  0.33371493  0.83893797  1
  I  I60  1  0.16309820  0.66846178  0.16043534  1
  I  I61  1  0.16817967  0.67092854  0.50505003  1
  I  I62  1  0.16721066  0.66833968  0.83405119  1
  I  I63  1  0.49818440  -0.00091541  0.16378854  1
  I  I64  1  0.49528608  -0.00427753  0.50812922  1
  I  I65  1  0.49742881  -0.00353260  0.83033844  1
  I  I66  1  0.50051783  0.33401493  0.16348602  1
  I  I67  1  0.50095564  0.33328040  0.50097310  1
  I  I68  1  0.49563177  0.33625895  0.83465755  1
  I  I69  1  0.50347093  0.66705150  0.16878539  1
  I  I70  1  0.49710771  0.67096475  0.50190598  1
  I  I71  1  0.49632330  0.66844336  0.83028247  1
  I  I72  1  0.84018384  -0.00385742  0.16476684  1
  I  I73  1  0.83415533  0.00172490  0.50352718  1
  I  I74  1  0.83679924  -0.00152831  0.83316225  1
  I  I75  1  0.83371291  0.33340296  0.16622376  1
  I  I76  1  0.83559379  0.32826726  0.51048194  1
  I  I77  1  0.83706761  0.33016205  0.82846389  1
  I  I78  1  0.83490206  0.67136692  0.15983171  1
  I  I79  1  0.83333052  0.66710287  0.50048249  1
  I  I80  1  0.83569260  0.67017837  0.83649959  1
  I  I81  1  0.16085458  0.16184518  -0.00433814  1
  I  I82  1  0.16475848  0.16624762  0.33363043  1
  I  I83  1  0.16510827  0.16642340  0.67109715  1
  I  I84  1  0.16958858  0.50597440  -0.00178447  1
  I  I85  1  0.16376318  0.50697352  0.33031612  1
  I  I86  1  0.16978091  0.50124976  0.67052720  1
  I  I87  1  0.16584183  0.83299326  -0.00162163  1
  I  I88  1  0.16542437  0.82836981  0.33284022  1
  I  I89  1  0.16667330  0.83347183  0.66844430  1
  I  I90  1  0.50189932  0.16294218  -0.00089692  1
  I  I91  1  0.50124455  0.16369901  0.33388654  1
  I  I92  1  0.49796822  0.16792061  0.66706915  1
  I  I93  1  0.49874300  0.50798347  -0.00419017  1
  I  I94  1  0.50039152  0.50078916  0.33326743  1
  I  I95  1  0.49233703  0.50178109  0.67097824  1
  I  I96  1  0.49794899  0.83068320  -0.00365594  1
  I  I97  1  0.49714102  0.83581400  0.33612763  1
  I  I98  1  0.49653035  0.83036075  0.66850674  1
  I  I99  1  0.83730264  0.16409179  -0.00368184  1
  I  I100  1  0.83372363  0.16216766  0.33568621  1
  I  I101  1  0.83741997  0.15853034  0.66887719  1
  I  I102  1  0.83052986  0.49561709  -0.00037303  1
  I  I103  1  0.83470223  0.50182612  0.33302335  1
  I  I104  1  0.83632049  0.50631854  0.66720254  1
  I  I105  1  0.83662512  0.83845514  -0.00186385  1
  I  I106  1  0.83757782  0.83585757  0.33101503  1
  I  I107  1  0.83573934  0.83512681  0.66979614  1
  I  I108  1  0.00014372  0.16790892  0.16825729  1
  I  I109  1  -0.00272195  0.16216842  0.50291586  1
  I  I110  1  0.00025070  0.16203091  0.83039256  1
  I  I111  1  0.00421725  0.50195977  0.15753082  1
  I  I112  1  0.00037366  0.50506478  0.50367346  1
  I  I113  1  0.00350464  0.50284890  0.83666333  1
  I  I114  1  0.00115829  0.83073913  0.16285526  1
  I  I115  1  0.00261542  0.83427380  0.50263674  1
  I  I116  1  0.00104208  0.83375880  0.83354191  1
  I  I117  1  0.33262779  0.16200457  0.16356810  1
  I  I118  1  0.33336633  0.16754987  0.50056222  1
  I  I119  1  0.33034518  0.16308412  0.83518533  1
  I  I120  1  0.32867237  0.51024769  0.16277471  1
  I  I121  1  0.33313508  0.49731642  0.49821192  1
  I  I122  1  0.33195084  0.50481268  0.83736040  1
  I  I123  1  0.32968475  0.82988370  0.16357367  1
  I  I124  1  0.33243484  0.83293906  0.50470415  1
  I  I125  1  0.33200145  0.83336172  0.83307386  1
  I  I126  1  0.66715966  0.16339384  0.16355556  1
  I  I127  1  0.67061655  0.16195219  0.51032384  1
  I  I128  1  0.66996724  0.16159430  0.82956326  1
  I  I129  1  0.66642330  0.50003208  0.16595367  1
  I  I130  1  0.66646787  0.50442995  0.50272593  1
  I  I131  1  0.66396085  0.50485165  0.83108071  1
  I  I132  1  0.66940098  0.83672064  0.16299731  1
  I  I133  1  0.66436914  0.83569902  0.50491611  1
  I  I134  1  0.66689700  0.83385140  0.83266383  1
