# generated using pymatgen
data_Cs27Sn13Pb14I81
_symmetry_space_group_name_H-M   'P 1'
_cell_length_a   18.97750233
_cell_length_b   18.97742647
_cell_length_c   18.97530726
_cell_angle_alpha   90.00073257
_cell_angle_beta   89.99898767
_cell_angle_gamma   90.00093598
_symmetry_Int_Tables_number   1
_chemical_formula_structural   Cs27Sn13Pb14I81
_chemical_formula_sum   'Cs27 Sn13 Pb14 I81'
_cell_volume   6833.84599374
_cell_formula_units_Z   1
loop_
 _symmetry_equiv_pos_site_id
 _symmetry_equiv_pos_as_xyz
  1  'x, y, z'
loop_
 _atom_site_type_symbol
 _atom_site_label
 _atom_site_symmetry_multiplicity
 _atom_site_fract_x
 _atom_site_fract_y
 _atom_site_fract_z
 _atom_site_occupancy
  Cs  Cs0  1  0.00010955  -0.00142077  0.00940766  1
  Cs  Cs1  1  -0.00176753  0.00107903  0.32770176  1
  Cs  Cs2  1  0.00259542  -0.00268367  0.66520835  1
  Cs  Cs3  1  0.00059319  0.33503263  -0.00209813  1
  Cs  Cs4  1  -0.00162744  0.32941833  0.33478638  1
  Cs  Cs5  1  -0.00134464  0.33450452  0.66715872  1
  Cs  Cs6  1  0.00153545  0.66598592  -0.00271509  1
  Cs  Cs7  1  -0.00298984  0.66835086  0.33543428  1
  Cs  Cs8  1  0.00052145  0.66701281  0.66708019  1
  Cs  Cs9  1  0.33350219  -0.00030455  -0.00334414  1
  Cs  Cs10  1  0.33244799  0.00181220  0.33385196  1
  Cs  Cs11  1  0.33289775  -0.00051308  0.66715329  1
  Cs  Cs12  1  0.33206006  0.33615270  0.00423213  1
  Cs  Cs13  1  0.33500776  0.33298996  0.33324092  1
  Cs  Cs14  1  0.33313331  0.33271582  0.66505032  1
  Cs  Cs15  1  0.33486084  0.66266742  0.01012362  1
  Cs  Cs16  1  0.33706879  0.66579438  0.33023192  1
  Cs  Cs17  1  0.33225862  0.66826548  0.66510836  1
  Cs  Cs18  1  0.66672685  0.00068478  -0.00325615  1
  Cs  Cs19  1  0.66958311  0.00004568  0.33122432  1
  Cs  Cs20  1  0.66448188  0.00076027  0.67047632  1
  Cs  Cs21  1  0.66662986  0.33208804  -0.00663589  1
  Cs  Cs22  1  0.66535614  0.33461172  0.33454202  1
  Cs  Cs23  1  0.66687056  0.33262774  0.66820089  1
  Cs  Cs24  1  0.66514081  0.66799548  0.00508072  1
  Cs  Cs25  1  0.66644151  0.66588745  0.33227161  1
  Cs  Cs26  1  0.66709668  0.66743210  0.66548594  1
  Sn  Sn27  1  0.50013317  0.16653877  0.16747487  1
  Sn  Sn28  1  0.16594175  0.83340599  0.50024576  1
  Sn  Sn29  1  0.83406500  0.83328117  0.83231558  1
  Sn  Sn30  1  0.83395500  0.83284491  0.50105436  1
  Sn  Sn31  1  0.16664903  0.50010350  0.50013021  1
  Sn  Sn32  1  0.49999781  0.49933612  0.50114176  1
  Sn  Sn33  1  0.16725976  0.16651606  0.50085741  1
  Sn  Sn34  1  0.16639223  0.16619156  0.83244780  1
  Sn  Sn35  1  0.83334132  0.50057749  0.49940716  1
  Sn  Sn36  1  0.83376997  0.49957032  0.16732219  1
  Sn  Sn37  1  0.49967737  0.50057641  0.83226536  1
  Sn  Sn38  1  0.16590768  0.83401411  0.83265924  1
  Sn  Sn39  1  0.49952258  0.16719969  0.49930767  1
  Pb  Pb40  1  0.16675982  0.83323721  0.16695337  1
  Pb  Pb41  1  0.83071594  0.16951318  0.16655085  1
  Pb  Pb42  1  0.16844117  0.16675710  0.16682953  1
  Pb  Pb43  1  0.50003373  0.83368216  0.49983876  1
  Pb  Pb44  1  0.49911835  0.83068163  0.83319456  1
  Pb  Pb45  1  0.50010209  0.83669240  0.16677685  1
  Pb  Pb46  1  0.83667678  0.16361979  0.83307101  1
  Pb  Pb47  1  0.50203084  0.49824291  0.16733230  1
  Pb  Pb48  1  0.49760895  0.16854951  0.83260224  1
  Pb  Pb49  1  0.16859902  0.50056389  0.83136464  1
  Pb  Pb50  1  0.83156770  0.50210731  0.83257141  1
  Pb  Pb51  1  0.83341536  0.83132280  0.16680578  1
  Pb  Pb52  1  0.83339382  0.16621246  0.50032513  1
  Pb  Pb53  1  0.16384279  0.49982867  0.17006990  1
  I  I54  1  0.16705302  0.00006547  0.17114748  1
  I  I55  1  0.16773795  0.00003949  0.50418453  1
  I  I56  1  0.16493273  -0.00040106  0.82423518  1
  I  I57  1  0.16614897  0.33337651  0.16510077  1
  I  I58  1  0.16769189  0.33326640  0.50323686  1
  I  I59  1  0.16995154  0.33112430  0.82902416  1
  I  I60  1  0.16844526  0.66641310  0.16511471  1
  I  I61  1  0.16576156  0.66674541  0.50419565  1
  I  I62  1  0.16321544  0.66976925  0.82802904  1
  I  I63  1  0.49938998  0.00466278  0.17396055  1
  I  I64  1  0.49659188  0.00320805  0.49612371  1
  I  I65  1  0.50206517  0.00002468  0.83394009  1
  I  I66  1  0.50019642  0.33071541  0.16966189  1
  I  I67  1  0.49689875  0.33402471  0.49963103  1
  I  I68  1  0.49970322  0.33634320  0.83100222  1
  I  I69  1  0.50071416  0.66616651  0.16615130  1
  I  I70  1  0.49799922  0.66347141  0.50383654  1
  I  I71  1  0.49924924  0.66291080  0.82572686  1
  I  I72  1  0.83200338  -0.00005378  0.16724577  1
  I  I73  1  0.83600159  -0.00335574  0.50395397  1
  I  I74  1  0.83153551  -0.00443901  0.82586556  1
  I  I75  1  0.83352645  0.33729177  0.17518472  1
  I  I76  1  0.83528453  0.33643540  0.49560091  1
  I  I77  1  0.83326015  0.33359795  0.83400434  1
  I  I78  1  0.83070273  0.66357904  0.17023051  1
  I  I79  1  0.83603835  0.66603727  0.49978737  1
  I  I80  1  0.84009531  0.66985209  0.83107966  1
  I  I81  1  0.16814721  0.16110256  -0.00312389  1
  I  I82  1  0.16858927  0.16662170  0.33721833  1
  I  I83  1  0.17287551  0.16562326  0.66476994  1
  I  I84  1  0.16791412  0.49972387  -0.00015754  1
  I  I85  1  0.17294982  0.49997857  0.33883811  1
  I  I86  1  0.16245483  0.49964973  0.66266728  1
  I  I87  1  0.16237124  0.83898939  -0.00370350  1
  I  I88  1  0.16242234  0.83416243  0.33771712  1
  I  I89  1  0.16250755  0.83401836  0.66535824  1
  I  I90  1  0.49925526  0.16898010  0.00172655  1
  I  I91  1  0.49426929  0.17290197  0.33569571  1
  I  I92  1  0.49764602  0.16943086  0.66342816  1
  I  I93  1  0.50157443  0.49912745  -0.00195198  1
  I  I94  1  0.49820177  0.49808673  0.33700941  1
  I  I95  1  0.50221186  0.49438577  0.66400323  1
  I  I96  1  0.50057673  0.83180891  -0.00032831  1
  I  I97  1  0.49994042  0.82812630  0.33385420  1
  I  I98  1  0.50122781  0.83684708  0.66642366  1
  I  I99  1  0.83208997  0.16760107  -0.00023105  1
  I  I100  1  0.83750465  0.16237397  0.33374861  1
  I  I101  1  0.82744131  0.17233049  0.66648275  1
  I  I102  1  0.82943612  0.50104823  0.00173001  1
  I  I103  1  0.83124355  0.50566065  0.33622988  1
  I  I104  1  0.83461538  0.50205873  0.66299539  1
  I  I105  1  0.83771184  0.83210523  -0.00307779  1
  I  I106  1  0.83745344  0.83138372  0.33689727  1
  I  I107  1  0.83753642  0.82682279  0.66530345  1
  I  I108  1  0.00000548  0.16656132  0.16717632  1
  I  I109  1  0.00339342  0.16981685  0.50439624  1
  I  I110  1  0.00466077  0.16870303  0.82534031  1
  I  I111  1  -0.00393261  0.50078130  0.17081988  1
  I  I112  1  0.00007901  0.50043458  0.49559119  1
  I  I113  1  0.00018256  0.49787366  0.83374858  1
  I  I114  1  -0.00000835  0.83407400  0.16735124  1
  I  I115  1  0.00045250  0.82931861  0.50402756  1
  I  I116  1  0.00071176  0.83542156  0.82768484  1
  I  I117  1  0.33623981  0.16979037  0.16973512  1
  I  I118  1  0.33276677  0.16976606  0.49966346  1
  I  I119  1  0.32992982  0.15991605  0.83065335  1
  I  I120  1  0.33356089  0.49941643  0.16628314  1
  I  I121  1  0.33338687  0.49929981  0.50528052  1
  I  I122  1  0.33634001  0.50051483  0.82740598  1
  I  I123  1  0.33327528  0.83062053  0.16654234  1
  I  I124  1  0.32993047  0.83152624  0.50485487  1
  I  I125  1  0.32951428  0.83758194  0.82682694  1
  I  I126  1  0.66285505  0.16715657  0.17467897  1
  I  I127  1  0.66365026  0.17048365  0.49568134  1
  I  I128  1  0.66641170  0.16605515  0.83388068  1
  I  I129  1  0.66946282  0.50001214  0.17347228  1
  I  I130  1  0.66663940  0.50009519  0.49957424  1
  I  I131  1  0.66378253  0.50000602  0.82756536  1
  I  I132  1  0.66701942  0.83271811  0.16688004  1
  I  I133  1  0.66984994  0.82946108  0.50332311  1
  I  I134  1  0.66936825  0.83061321  0.82886547  1
