# generated using pymatgen
data_Cs27Sn14Pb13I81
_symmetry_space_group_name_H-M   'P 1'
_cell_length_a   18.97110355
_cell_length_b   18.98540861
_cell_length_c   18.97512378
_cell_angle_alpha   89.99988408
_cell_angle_beta   89.99935344
_cell_angle_gamma   89.99819555
_symmetry_Int_Tables_number   1
_chemical_formula_structural   Cs27Sn14Pb13I81
_chemical_formula_sum   'Cs27 Sn14 Pb13 I81'
_cell_volume   6834.34912714
_cell_formula_units_Z   1
loop_
 _symmetry_equiv_pos_site_id
 _symmetry_equiv_pos_as_xyz
  1  'x, y, z'
loop_
 _atom_site_type_symbol
 _atom_site_label
 _atom_site_symmetry_multiplicity
 _atom_site_fract_x
 _atom_site_fract_y
 _atom_site_fract_z
 _atom_site_occupancy
  Cs  Cs0  1  -0.00133091  0.00167826  0.00416418  1
  Cs  Cs1  1  0.00189540  -0.00362663  0.33402150  1
  Cs  Cs2  1  -0.00072310  0.00023865  0.66327335  1
  Cs  Cs3  1  -0.00010701  0.33306249  0.00092878  1
  Cs  Cs4  1  0.00181620  0.33408966  0.33257693  1
  Cs  Cs5  1  0.00025350  0.33324436  0.66623866  1
  Cs  Cs6  1  0.00261620  0.66561225  -0.00008968  1
  Cs  Cs7  1  -0.00150499  0.66908802  0.33142386  1
  Cs  Cs8  1  0.00116924  0.66650962  0.66838827  1
  Cs  Cs9  1  0.33354403  0.00011704  0.00046321  1
  Cs  Cs10  1  0.33092783  -0.00154281  0.33301496  1
  Cs  Cs11  1  0.33663332  0.00151038  0.66734526  1
  Cs  Cs12  1  0.33221292  0.33194657  0.00040058  1
  Cs  Cs13  1  0.33364144  0.33608802  0.33319363  1
  Cs  Cs14  1  0.33233005  0.33270933  0.66587332  1
  Cs  Cs15  1  0.33111158  0.67031429  -0.00165474  1
  Cs  Cs16  1  0.33560801  0.66459687  0.33191747  1
  Cs  Cs17  1  0.32915743  0.66546952  0.66854384  1
  Cs  Cs18  1  0.66761527  0.00216056  0.00342381  1
  Cs  Cs19  1  0.66728055  -0.00068468  0.33190191  1
  Cs  Cs20  1  0.66512037  -0.00135034  0.66691161  1
  Cs  Cs21  1  0.66720138  0.33076180  -0.00079488  1
  Cs  Cs22  1  0.66381233  0.33494565  0.33315941  1
  Cs  Cs23  1  0.66756856  0.33240819  0.66777689  1
  Cs  Cs24  1  0.66597401  0.66660711  -0.00299269  1
  Cs  Cs25  1  0.66618849  0.66575277  0.33439314  1
  Cs  Cs26  1  0.66712948  0.66914860  0.66669265  1
  Sn  Sn27  1  0.50075125  0.83395628  0.50093906  1
  Sn  Sn28  1  0.83266276  0.50061621  0.83331526  1
  Sn  Sn29  1  0.16709426  0.16659551  0.83383426  1
  Sn  Sn30  1  0.83320837  0.50008705  0.50023378  1
  Sn  Sn31  1  0.16671630  0.16744041  0.16594905  1
  Sn  Sn32  1  0.83271160  0.83291782  0.83278141  1
  Sn  Sn33  1  0.50110879  0.16612245  0.50068933  1
  Sn  Sn34  1  0.83235930  0.16660973  0.50000103  1
  Sn  Sn35  1  0.50105396  0.83348246  0.83243780  1
  Sn  Sn36  1  0.50055484  0.49999386  0.83320270  1
  Sn  Sn37  1  0.16611385  0.49931725  0.16645189  1
  Sn  Sn38  1  0.83364072  0.49981466  0.16637610  1
  Sn  Sn39  1  0.49939774  0.16659475  0.83276968  1
  Sn  Sn40  1  0.83230950  0.83328987  0.50109112  1
  Pb  Pb41  1  0.16664657  0.83308410  0.16651899  1
  Pb  Pb42  1  0.16394270  0.50017118  0.49746481  1
  Pb  Pb43  1  0.50191729  0.50018634  0.50247107  1
  Pb  Pb44  1  0.16740380  0.16661549  0.49996420  1
  Pb  Pb45  1  0.83308157  0.83088214  0.16640281  1
  Pb  Pb46  1  0.50023351  0.50002444  0.16367119  1
  Pb  Pb47  1  0.16626942  0.83620581  0.83317925  1
  Pb  Pb48  1  0.16627811  0.49798248  0.83487738  1
  Pb  Pb49  1  0.50032273  0.83338810  0.16673740  1
  Pb  Pb50  1  0.83524218  0.16896013  0.16996638  1
  Pb  Pb51  1  0.16727384  0.83315987  0.50035316  1
  Pb  Pb52  1  0.49794348  0.16667134  0.16723299  1
  Pb  Pb53  1  0.83307328  0.16629444  0.83183358  1
  I  I54  1  0.16823801  0.00329736  0.16323052  1
  I  I55  1  0.16014892  0.00024074  0.49660086  1
  I  I56  1  0.17035466  0.00412889  0.83938086  1
  I  I57  1  0.16176810  0.33332924  0.16238981  1
  I  I58  1  0.16620955  0.33322231  0.50184796  1
  I  I59  1  0.17040056  0.33015306  0.83478018  1
  I  I60  1  0.16137821  0.66318935  0.16707818  1
  I  I61  1  0.16773134  0.66654331  0.49762561  1
  I  I62  1  0.16930090  0.66657417  0.83574010  1
  I  I63  1  0.49700937  0.00022608  0.16220485  1
  I  I64  1  0.50800052  0.00028816  0.50846645  1
  I  I65  1  0.49919334  0.00003489  0.82902250  1
  I  I66  1  0.50199870  0.33340924  0.16702848  1
  I  I67  1  0.50371923  0.33069567  0.50407086  1
  I  I68  1  0.50031860  0.33287149  0.83031356  1
  I  I69  1  0.49668671  0.66642306  0.16794104  1
  I  I70  1  0.50417002  0.66956520  0.50307723  1
  I  I71  1  0.50544608  0.66705948  0.83069122  1
  I  I72  1  0.83571138  0.00017749  0.16625319  1
  I  I73  1  0.83067000  -0.00047229  0.50586026  1
  I  I74  1  0.83143122  -0.00263467  0.82800312  1
  I  I75  1  0.83503768  0.33705230  0.16453790  1
  I  I76  1  0.83032521  0.33349082  0.50033280  1
  I  I77  1  0.83090029  0.33594280  0.83262465  1
  I  I78  1  0.84026200  0.66265510  0.17055400  1
  I  I79  1  0.82982334  0.66691538  0.49969946  1
  I  I80  1  0.82635089  0.66606212  0.82963056  1
  I  I81  1  0.17197322  0.17043015  -0.00066907  1
  I  I82  1  0.16518725  0.17144551  0.33075962  1
  I  I83  1  0.16825545  0.16624396  0.66920337  1
  I  I84  1  0.16028683  0.49716210  0.00270041  1
  I  I85  1  0.16236526  0.49217893  0.32925606  1
  I  I86  1  0.16579905  0.49828827  0.66698457  1
  I  I87  1  0.16703868  0.83222846  -0.00040200  1
  I  I88  1  0.16612748  0.83607169  0.33339930  1
  I  I89  1  0.16488738  0.83478704  0.66699708  1
  I  I90  1  0.49790328  0.16621542  -0.00340245  1
  I  I91  1  0.50329880  0.16199177  0.33705186  1
  I  I92  1  0.49756069  0.16605112  0.66750300  1
  I  I93  1  0.50592590  0.49966138  -0.00467042  1
  I  I94  1  0.50008588  0.49974381  0.33353858  1
  I  I95  1  0.50523402  0.49882919  0.67060958  1
  I  I96  1  0.50378891  0.83367659  -0.00422089  1
  I  I97  1  0.50418066  0.83854300  0.33735953  1
  I  I98  1  0.50517415  0.83513511  0.66745885  1
  I  I99  1  0.83161478  0.16657951  0.00002440  1
  I  I100  1  0.82883946  0.16548218  0.33816360  1
  I  I101  1  0.83511421  0.17160465  0.66380694  1
  I  I102  1  0.83372430  0.50471321  -0.00115531  1
  I  I103  1  0.83910895  0.49935572  0.33391741  1
  I  I104  1  0.82809579  0.50046586  0.66707542  1
  I  I105  1  0.82920300  0.82929273  -0.00360093  1
  I  I106  1  0.82983034  0.83311174  0.33687374  1
  I  I107  1  0.82976196  0.82842384  0.66645093  1
  I  I108  1  0.00306764  0.16875180  0.16009191  1
  I  I109  1  -0.00290257  0.16674652  0.50042069  1
  I  I110  1  0.00186518  0.16779483  0.83551249  1
  I  I111  1  -0.00114084  0.49553581  0.16530587  1
  I  I112  1  -0.00514064  0.49904293  0.50632749  1
  I  I113  1  -0.00353223  0.50312541  0.83138656  1
  I  I114  1  -0.00036295  0.83561604  0.16723337  1
  I  I115  1  -0.00400359  0.83417509  0.50338923  1
  I  I116  1  -0.00363295  0.82856581  0.82919482  1
  I  I117  1  0.32996541  0.17452914  0.16695127  1
  I  I118  1  0.33690201  0.16098795  0.50138978  1
  I  I119  1  0.33500308  0.16716790  0.83135772  1
  I  I120  1  0.33057472  0.49537240  0.16523949  1
  I  I121  1  0.33370438  0.49959962  0.49931168  1
  I  I122  1  0.33614827  0.50256886  0.83507361  1
  I  I123  1  0.33340600  0.83026553  0.16723289  1
  I  I124  1  0.33751600  0.84016951  0.50441182  1
  I  I125  1  0.33693509  0.82994683  0.82906297  1
  I  I126  1  0.66681535  0.16806677  0.16402666  1
  I  I127  1  0.66646646  0.16664772  0.50643678  1
  I  I128  1  0.66376326  0.16754911  0.83037488  1
  I  I129  1  0.67003799  0.50143868  0.16910581  1
  I  I130  1  0.67045254  0.49925652  0.49461601  1
  I  I131  1  0.66769004  0.49832635  0.83530946  1
  I  I132  1  0.66694205  0.83178804  0.16637298  1
  I  I133  1  0.66752932  0.83407961  0.50455819  1
  I  I134  1  0.66652718  0.83341178  0.82906526  1
