# generated using pymatgen
data_Cs27Sn13Pb14I81
_symmetry_space_group_name_H-M   'P 1'
_cell_length_a   19.00269806
_cell_length_b   18.98889406
_cell_length_c   18.98251119
_cell_angle_alpha   89.99970556
_cell_angle_beta   90.00168057
_cell_angle_gamma   90.00077503
_symmetry_Int_Tables_number   1
_chemical_formula_structural   Cs27Sn13Pb14I81
_chemical_formula_sum   'Cs27 Sn13 Pb14 I81'
_cell_volume   6849.65351786
_cell_formula_units_Z   1
loop_
 _symmetry_equiv_pos_site_id
 _symmetry_equiv_pos_as_xyz
  1  'x, y, z'
loop_
 _atom_site_type_symbol
 _atom_site_label
 _atom_site_symmetry_multiplicity
 _atom_site_fract_x
 _atom_site_fract_y
 _atom_site_fract_z
 _atom_site_occupancy
  Cs  Cs0  1  0.00189007  -0.00686698  0.00062681  1
  Cs  Cs1  1  0.00060605  0.00125343  0.33444324  1
  Cs  Cs2  1  0.00179135  0.00119964  0.66114271  1
  Cs  Cs3  1  -0.00099189  0.33393036  0.00230482  1
  Cs  Cs4  1  -0.00078891  0.33137866  0.33121016  1
  Cs  Cs5  1  -0.00036361  0.33724551  0.67060820  1
  Cs  Cs6  1  -0.00180118  0.67242299  -0.00690770  1
  Cs  Cs7  1  0.00020992  0.66712038  0.33310632  1
  Cs  Cs8  1  -0.00054974  0.66152441  0.67264191  1
  Cs  Cs9  1  0.33357037  -0.00314700  -0.00974401  1
  Cs  Cs10  1  0.33089077  0.00118625  0.33470629  1
  Cs  Cs11  1  0.33535241  0.00109673  0.66993624  1
  Cs  Cs12  1  0.33364933  0.33014967  0.00045812  1
  Cs  Cs13  1  0.33293812  0.33563355  0.33209128  1
  Cs  Cs14  1  0.33126390  0.33646719  0.67026548  1
  Cs  Cs15  1  0.33760746  0.67871720  0.00234117  1
  Cs  Cs16  1  0.33688297  0.66341340  0.33417177  1
  Cs  Cs17  1  0.32948093  0.66049091  0.66307444  1
  Cs  Cs18  1  0.66518835  -0.00495663  -0.00311061  1
  Cs  Cs19  1  0.66821156  0.00204983  0.33640938  1
  Cs  Cs20  1  0.66367585  0.00135141  0.66308501  1
  Cs  Cs21  1  0.66737239  0.33356773  0.00046117  1
  Cs  Cs22  1  0.66768786  0.33271072  0.33201915  1
  Cs  Cs23  1  0.66842446  0.33294251  0.66907147  1
  Cs  Cs24  1  0.66606730  0.67363720  -0.00238667  1
  Cs  Cs25  1  0.66398954  0.66504660  0.33200424  1
  Cs  Cs26  1  0.66897370  0.66507937  0.66837440  1
  Sn  Sn27  1  0.49983705  0.16647946  0.16713071  1
  Sn  Sn28  1  0.49988990  0.49968705  0.83389868  1
  Sn  Sn29  1  0.49974027  0.83379720  0.49968890  1
  Sn  Sn30  1  0.16682742  0.16712246  0.16729608  1
  Sn  Sn31  1  0.49865195  0.16666462  0.49924441  1
  Sn  Sn32  1  0.16682573  0.83373034  0.49942760  1
  Sn  Sn33  1  0.83423973  0.49982643  0.16717017  1
  Sn  Sn34  1  0.16584025  0.49981852  0.16635065  1
  Sn  Sn35  1  0.83338418  0.16692399  0.16519108  1
  Sn  Sn36  1  0.83347777  0.83168226  0.49945231  1
  Sn  Sn37  1  0.16790710  0.16661208  0.49938948  1
  Sn  Sn38  1  0.83363128  0.16643997  0.83489530  1
  Sn  Sn39  1  0.83334596  0.50067630  0.49900178  1
  Pb  Pb40  1  0.16924621  0.49982484  0.83780800  1
  Pb  Pb41  1  0.16425932  0.49934543  0.49810642  1
  Pb  Pb42  1  0.50223815  0.49913154  0.50108875  1
  Pb  Pb43  1  0.16663314  0.83357446  0.16892500  1
  Pb  Pb44  1  0.83362732  0.16702180  0.49937637  1
  Pb  Pb45  1  0.50026795  0.49807898  0.16470003  1
  Pb  Pb46  1  0.16667478  0.83334759  0.82964527  1
  Pb  Pb47  1  0.83208277  0.49848944  0.83459323  1
  Pb  Pb48  1  0.16409805  0.16683110  0.83358030  1
  Pb  Pb49  1  0.49995784  0.83684381  0.16938208  1
  Pb  Pb50  1  0.50003723  0.83060537  0.82969097  1
  Pb  Pb51  1  0.83332204  0.83332599  0.16888917  1
  Pb  Pb52  1  0.83332114  0.83660821  0.82997185  1
  Pb  Pb53  1  0.50180136  0.16782599  0.83313005  1
  I  I54  1  0.16462224  0.00377514  0.17014959  1
  I  I55  1  0.16389301  0.00101065  0.49409739  1
  I  I56  1  0.16683926  0.00029394  0.83803267  1
  I  I57  1  0.16559506  0.33161593  0.17367145  1
  I  I58  1  0.17019832  0.33011530  0.49758052  1
  I  I59  1  0.16674575  0.33330197  0.82546523  1
  I  I60  1  0.16099364  0.66365338  0.16818905  1
  I  I61  1  0.16964572  0.66907744  0.49844034  1
  I  I62  1  0.16571834  0.66638742  0.83248805  1
  I  I63  1  0.50112896  0.00525109  0.16773258  1
  I  I64  1  0.50307575  0.00088381  0.49630123  1
  I  I65  1  0.50133388  -0.00010113  0.83494033  1
  I  I66  1  0.50074394  0.32980010  0.17396588  1
  I  I67  1  0.49753522  0.32992741  0.49713826  1
  I  I68  1  0.50227352  0.33519046  0.82991440  1
  I  I69  1  0.49992696  0.66667008  0.16619363  1
  I  I70  1  0.49788874  0.66911067  0.50319346  1
  I  I71  1  0.50269930  0.66332245  0.83395553  1
  I  I72  1  0.83410364  0.00370664  0.16489084  1
  I  I73  1  0.83300795  -0.00176721  0.50073042  1
  I  I74  1  0.83161223  0.00422375  0.83972708  1
  I  I75  1  0.83375834  0.33250827  0.17035877  1
  I  I76  1  0.83245381  0.33531588  0.49920858  1
  I  I77  1  0.83166111  0.33075803  0.83024136  1
  I  I78  1  0.83812214  0.66331896  0.17024572  1
  I  I79  1  0.83246539  0.66665299  0.49450431  1
  I  I80  1  0.83180845  0.66680974  0.83447902  1
  I  I81  1  0.16933676  0.17224225  0.00382324  1
  I  I82  1  0.16469995  0.16612030  0.33332967  1
  I  I83  1  0.16954116  0.16106958  0.66318367  1
  I  I84  1  0.15814465  0.48963746  0.00536739  1
  I  I85  1  0.16596645  0.49738302  0.33034784  1
  I  I86  1  0.16541356  0.50044549  0.66666378  1
  I  I87  1  0.16667516  0.83364592  0.00025040  1
  I  I88  1  0.16595740  0.83621762  0.33724768  1
  I  I89  1  0.16636472  0.84066707  0.66101699  1
  I  I90  1  0.49813431  0.17108838  0.00302163  1
  I  I91  1  0.50252885  0.16401158  0.33377218  1
  I  I92  1  0.49853739  0.16320454  0.66324946  1
  I  I93  1  0.50233744  0.49478943  -0.00251763  1
  I  I94  1  0.49941936  0.50198806  0.33315851  1
  I  I95  1  0.50357135  0.49802564  0.66855823  1
  I  I96  1  0.50034514  0.83350199  -0.00017959  1
  I  I97  1  0.50046883  0.83268340  0.33768298  1
  I  I98  1  0.50096396  0.84249718  0.66177401  1
  I  I99  1  0.83244691  0.17500883  0.00237286  1
  I  I100  1  0.83306930  0.16755891  0.33066500  1
  I  I101  1  0.83198809  0.16631688  0.66780720  1
  I  I102  1  0.83600723  0.49468956  0.00364315  1
  I  I103  1  0.83502806  0.49675107  0.33279001  1
  I  I104  1  0.83130314  0.50175257  0.66441982  1
  I  I105  1  0.83292986  0.83065564  -0.00007678  1
  I  I106  1  0.83323048  0.83560740  0.33730294  1
  I  I107  1  0.83337777  0.82884365  0.66166201  1
  I  I108  1  0.00001434  0.17140668  0.16855133  1
  I  I109  1  0.00223525  0.16296235  0.49712286  1
  I  I110  1  -0.00363257  0.16911688  0.83455690  1
  I  I111  1  -0.00094856  0.48954374  0.17273872  1
  I  I112  1  -0.00357125  0.50242794  0.49941667  1
  I  I113  1  -0.00002892  0.49879349  0.83008576  1
  I  I114  1  -0.00008979  0.83845474  0.17111126  1
  I  I115  1  0.00014217  0.83639795  0.49868080  1
  I  I116  1  -0.00031011  0.83250235  0.83154725  1
  I  I117  1  0.33289002  0.17202554  0.17379515  1
  I  I118  1  0.33338109  0.15872690  0.49236705  1
  I  I119  1  0.33333640  0.16752243  0.83509316  1
  I  I120  1  0.33078077  0.49459891  0.16610703  1
  I  I121  1  0.33322898  0.50297393  0.50003155  1
  I  I122  1  0.33646269  0.49705010  0.82963430  1
  I  I123  1  0.33333506  0.83002617  0.16975817  1
  I  I124  1  0.33332502  0.83952908  0.49960755  1
  I  I125  1  0.33360917  0.83422160  0.83332516  1
  I  I126  1  0.66709029  0.17125816  0.16871893  1
  I  I127  1  0.66473115  0.16371430  0.49758088  1
  I  I128  1  0.66946214  0.16888538  0.83561032  1
  I  I129  1  0.66976837  0.49437130  0.17032867  1
  I  I130  1  0.67002361  0.50244624  0.49448668  1
  I  I131  1  0.66472476  0.49727159  0.83301537  1
  I  I132  1  0.66667468  0.83274770  0.17050952  1
  I  I133  1  0.66658074  0.83556295  0.49980464  1
  I  I134  1  0.66675138  0.83328481  0.83081254  1
