# generated using pymatgen
data_Cs27Sn13Pb14I81
_symmetry_space_group_name_H-M   'P 1'
_cell_length_a   18.99187881
_cell_length_b   18.98726166
_cell_length_c   18.99490740
_cell_angle_alpha   89.99944976
_cell_angle_beta   89.99995343
_cell_angle_gamma   89.99936169
_symmetry_Int_Tables_number   1
_chemical_formula_structural   Cs27Sn13Pb14I81
_chemical_formula_sum   'Cs27 Sn13 Pb14 I81'
_cell_volume   6849.63526052
_cell_formula_units_Z   1
loop_
 _symmetry_equiv_pos_site_id
 _symmetry_equiv_pos_as_xyz
  1  'x, y, z'
loop_
 _atom_site_type_symbol
 _atom_site_label
 _atom_site_symmetry_multiplicity
 _atom_site_fract_x
 _atom_site_fract_y
 _atom_site_fract_z
 _atom_site_occupancy
  Cs  Cs0  1  0.00087210  0.00381396  -0.01167383  1
  Cs  Cs1  1  0.00053465  0.00055975  0.33535502  1
  Cs  Cs2  1  0.00189724  0.00756647  0.67451913  1
  Cs  Cs3  1  -0.00683033  0.32655196  0.00810370  1
  Cs  Cs4  1  -0.00657034  0.32445353  0.32827593  1
  Cs  Cs5  1  -0.00702093  0.32710447  0.66510140  1
  Cs  Cs6  1  -0.00126463  0.66620625  -0.00336127  1
  Cs  Cs7  1  0.00190244  0.66741725  0.33399295  1
  Cs  Cs8  1  0.00143195  0.66547164  0.66852099  1
  Cs  Cs9  1  0.33288308  0.00113958  -0.00227201  1
  Cs  Cs10  1  0.33313995  -0.00165539  0.33497865  1
  Cs  Cs11  1  0.33454463  0.00093854  0.66684749  1
  Cs  Cs12  1  0.33237943  0.33601640  0.00757017  1
  Cs  Cs13  1  0.33095082  0.33373012  0.32642809  1
  Cs  Cs14  1  0.33527774  0.33756701  0.66628692  1
  Cs  Cs15  1  0.33230883  0.66494962  -0.00124174  1
  Cs  Cs16  1  0.33206976  0.66725216  0.33528436  1
  Cs  Cs17  1  0.33347097  0.66430072  0.66526369  1
  Cs  Cs18  1  0.66606678  -0.00030858  0.00061837  1
  Cs  Cs19  1  0.66605039  -0.00423131  0.33260894  1
  Cs  Cs20  1  0.66248390  0.00002068  0.66680655  1
  Cs  Cs21  1  0.67165876  0.33273517  0.00838677  1
  Cs  Cs22  1  0.67361432  0.33239149  0.32634784  1
  Cs  Cs23  1  0.66785386  0.33563108  0.66608280  1
  Cs  Cs24  1  0.66785911  0.66660948  -0.00123708  1
  Cs  Cs25  1  0.66732113  0.66969999  0.33438964  1
  Cs  Cs26  1  0.66533040  0.66505809  0.66609486  1
  Sn  Sn27  1  0.16700862  0.50012177  0.50063064  1
  Sn  Sn28  1  0.49944697  0.83288642  0.16663396  1
  Sn  Sn29  1  0.83417987  0.83316145  0.16724436  1
  Sn  Sn30  1  0.16632288  0.83315548  0.16686232  1
  Sn  Sn31  1  0.49949303  0.16781178  0.83263313  1
  Sn  Sn32  1  0.49962684  0.83297671  0.83308400  1
  Sn  Sn33  1  0.16637156  0.83289685  0.49997136  1
  Sn  Sn34  1  0.16710120  0.49953768  0.83247618  1
  Sn  Sn35  1  0.49937829  0.49945408  0.50004608  1
  Sn  Sn36  1  0.83413245  0.83314417  0.50010949  1
  Sn  Sn37  1  0.49967725  0.83305683  0.50018678  1
  Sn  Sn38  1  0.49939198  0.49930741  0.83289745  1
  Sn  Sn39  1  0.49956574  0.16760435  0.50028107  1
  Pb  Pb40  1  0.83333015  0.49998080  0.83312888  1
  Pb  Pb41  1  0.16973916  0.17101515  0.83301006  1
  Pb  Pb42  1  0.83082602  0.83318525  0.83271336  1
  Pb  Pb43  1  0.83008732  0.16337549  0.50015218  1
  Pb  Pb44  1  0.16902537  0.83182809  0.83262118  1
  Pb  Pb45  1  0.49975463  0.16396559  0.16694032  1
  Pb  Pb46  1  0.50014940  0.50260438  0.16716487  1
  Pb  Pb47  1  0.83376874  0.50206973  0.50000256  1
  Pb  Pb48  1  0.16916543  0.16731396  0.50011412  1
  Pb  Pb49  1  0.83366228  0.50321190  0.16696674  1
  Pb  Pb50  1  0.82978816  0.16683265  0.83308234  1
  Pb  Pb51  1  0.16647731  0.50204015  0.16728285  1
  Pb  Pb52  1  0.83319641  0.16240366  0.16681302  1
  Pb  Pb53  1  0.16695902  0.16302205  0.16674016  1
  I  I54  1  0.16901154  -0.00576285  0.17408930  1
  I  I55  1  0.16817792  -0.00347411  0.49421373  1
  I  I56  1  0.16739693  0.00023908  0.83470179  1
  I  I57  1  0.16745127  0.33352776  0.16672223  1
  I  I58  1  0.17373692  0.33719352  0.50566072  1
  I  I59  1  0.17413180  0.33864828  0.82510889  1
  I  I60  1  0.16846401  0.67077625  0.16877479  1
  I  I61  1  0.17223847  0.66806201  0.49951732  1
  I  I62  1  0.17428137  0.66413856  0.83240052  1
  I  I63  1  0.50065733  -0.00490779  0.16722333  1
  I  I64  1  0.50080691  -0.00205263  0.50215042  1
  I  I65  1  0.50181391  -0.00097041  0.83066596  1
  I  I66  1  0.50042803  0.33339049  0.16652935  1
  I  I67  1  0.49414864  0.33430281  0.51004698  1
  I  I68  1  0.49581261  0.33418652  0.82292054  1
  I  I69  1  0.50029561  0.67130729  0.16702351  1
  I  I70  1  0.50011655  0.66807446  0.50201730  1
  I  I71  1  0.49728716  0.66684563  0.83103007  1
  I  I72  1  0.82984207  -0.00537582  0.17251590  1
  I  I73  1  0.83258253  -0.00506359  0.49448241  1
  I  I74  1  0.83259756  -0.00031114  0.83405129  1
  I  I75  1  0.83291639  0.33279794  0.16574886  1
  I  I76  1  0.83318374  0.33312636  0.50069703  1
  I  I77  1  0.83165368  0.33333956  0.83296993  1
  I  I78  1  0.83111131  0.67165766  0.17090461  1
  I  I79  1  0.82678272  0.67066720  0.49569657  1
  I  I80  1  0.82906201  0.66692837  0.83504216  1
  I  I81  1  0.16996788  0.16535746  -0.00027032  1
  I  I82  1  0.17044373  0.17068443  0.33355436  1
  I  I83  1  0.16530747  0.15811493  0.66665138  1
  I  I84  1  0.17446217  0.50324443  -0.00288382  1
  I  I85  1  0.17419745  0.50489859  0.33713373  1
  I  I86  1  0.17367413  0.50932993  0.66553761  1
  I  I87  1  0.16783888  0.83159974  0.00225957  1
  I  I88  1  0.17179488  0.82807726  0.33463923  1
  I  I89  1  0.16761336  0.83142465  0.66324149  1
  I  I90  1  0.49975863  0.16520032  -0.00311125  1
  I  I91  1  0.49961931  0.16487262  0.33661250  1
  I  I92  1  0.49976243  0.15961740  0.66627200  1
  I  I93  1  0.49554481  0.50122697  -0.00323375  1
  I  I94  1  0.49532461  0.50132251  0.33713002  1
  I  I95  1  0.49679270  0.50561882  0.66615782  1
  I  I96  1  0.50061915  0.83356700  -0.00013356  1
  I  I97  1  0.50065317  0.83369956  0.33458225  1
  I  I98  1  0.50059697  0.83382829  0.66560690  1
  I  I99  1  0.83107412  0.16455437  0.00005184  1
  I  I100  1  0.83032428  0.16911385  0.33355663  1
  I  I101  1  0.83536656  0.16301324  0.66642054  1
  I  I102  1  0.83170662  0.50340847  -0.00007910  1
  I  I103  1  0.83104289  0.49933636  0.33373979  1
  I  I104  1  0.83182007  0.50477736  0.66644056  1
  I  I105  1  0.83187135  0.83293538  0.00289869  1
  I  I106  1  0.82689538  0.83258158  0.33391146  1
  I  I107  1  0.83126051  0.83219001  0.66332412  1
  I  I108  1  -0.00009934  0.16657780  0.16679144  1
  I  I109  1  -0.00007768  0.16656475  0.49910349  1
  I  I110  1  0.00030358  0.16628917  0.83440896  1
  I  I111  1  0.00033261  0.50393736  0.16529448  1
  I  I112  1  0.00376934  0.50821328  0.50498927  1
  I  I113  1  0.00361895  0.50534498  0.82824401  1
  I  I114  1  0.00033469  0.83179000  0.17692840  1
  I  I115  1  0.00089350  0.82656981  0.49031035  1
  I  I116  1  0.00027450  0.83102108  0.83440444  1
  I  I117  1  0.33379240  0.16377523  0.16649614  1
  I  I118  1  0.33747343  0.15905744  0.50404248  1
  I  I119  1  0.33777560  0.16049069  0.82869401  1
  I  I120  1  0.33344728  0.50314475  0.16594313  1
  I  I121  1  0.33461041  0.50727206  0.50488197  1
  I  I122  1  0.33513956  0.50215825  0.82857811  1
  I  I123  1  0.33391410  0.83310423  0.17032269  1
  I  I124  1  0.33460529  0.83307404  0.49713575  1
  I  I125  1  0.33759174  0.83556861  0.83378308  1
  I  I126  1  0.66626823  0.16456684  0.16592169  1
  I  I127  1  0.66168132  0.16633224  0.50492684  1
  I  I128  1  0.66129943  0.16630779  0.82844442  1
  I  I129  1  0.66640689  0.50287634  0.16588691  1
  I  I130  1  0.66298700  0.50214430  0.50531507  1
  I  I131  1  0.66229409  0.50175161  0.82799264  1
  I  I132  1  0.66574347  0.83340569  0.17001669  1
  I  I133  1  0.66465995  0.83370214  0.49733229  1
  I  I134  1  0.66179508  0.83111863  0.83302725  1
