# generated using pymatgen
data_Cs27Sn13Pb14I81
_symmetry_space_group_name_H-M   'P 1'
_cell_length_a   18.98808805
_cell_length_b   18.98765375
_cell_length_c   19.00149398
_cell_angle_alpha   90.00071870
_cell_angle_beta   90.00026627
_cell_angle_gamma   89.99449402
_symmetry_Int_Tables_number   1
_chemical_formula_structural   Cs27Sn13Pb14I81
_chemical_formula_sum   'Cs27 Sn13 Pb14 I81'
_cell_volume   6850.78419156
_cell_formula_units_Z   1
loop_
 _symmetry_equiv_pos_site_id
 _symmetry_equiv_pos_as_xyz
  1  'x, y, z'
loop_
 _atom_site_type_symbol
 _atom_site_label
 _atom_site_symmetry_multiplicity
 _atom_site_fract_x
 _atom_site_fract_y
 _atom_site_fract_z
 _atom_site_occupancy
  Cs  Cs0  1  -0.00216833  0.00042620  0.00184204  1
  Cs  Cs1  1  0.00034123  -0.00219357  0.33305795  1
  Cs  Cs2  1  -0.00148980  -0.00288110  0.66357441  1
  Cs  Cs3  1  0.00206651  0.33501426  -0.00318591  1
  Cs  Cs4  1  0.00140745  0.33385815  0.32912011  1
  Cs  Cs5  1  0.00123020  0.33665640  0.67612224  1
  Cs  Cs6  1  0.00117807  0.66579006  -0.00000401  1
  Cs  Cs7  1  0.00124397  0.66805526  0.33559284  1
  Cs  Cs8  1  -0.00092962  0.66647986  0.66419678  1
  Cs  Cs9  1  0.33508280  -0.00255371  0.00059478  1
  Cs  Cs10  1  0.33058775  0.00273304  0.33831300  1
  Cs  Cs11  1  0.33359535  0.00001028  0.66107633  1
  Cs  Cs12  1  0.32887339  0.33074672  -0.00392540  1
  Cs  Cs13  1  0.33402678  0.33293069  0.33822564  1
  Cs  Cs14  1  0.33377935  0.33237588  0.66672904  1
  Cs  Cs15  1  0.33557013  0.67051375  0.00156704  1
  Cs  Cs16  1  0.33276414  0.66441292  0.33183876  1
  Cs  Cs17  1  0.33290768  0.66914453  0.66786358  1
  Cs  Cs18  1  0.66661135  0.00011119  -0.00105041  1
  Cs  Cs19  1  0.66956048  0.00192380  0.33226411  1
  Cs  Cs20  1  0.66748302  0.00111984  0.66878058  1
  Cs  Cs21  1  0.66853194  0.33176518  0.00037444  1
  Cs  Cs22  1  0.66367651  0.33806557  0.33476099  1
  Cs  Cs23  1  0.66428416  0.33275101  0.66535109  1
  Cs  Cs24  1  0.66239159  0.66727659  0.00350146  1
  Cs  Cs25  1  0.66412354  0.65609485  0.33430154  1
  Cs  Cs26  1  0.66807282  0.66570212  0.66329846  1
  Sn  Sn27  1  0.16632334  0.49986592  0.49949671  1
  Sn  Sn28  1  0.16567914  0.83381274  0.83404368  1
  Sn  Sn29  1  0.83259511  0.16573335  0.83340678  1
  Sn  Sn30  1  0.50061984  0.83336265  0.49932693  1
  Sn  Sn31  1  0.50061470  0.16729253  0.83427089  1
  Sn  Sn32  1  0.83380395  0.16708003  0.49994827  1
  Sn  Sn33  1  0.83404513  0.83378860  0.83430391  1
  Sn  Sn34  1  0.16596908  0.83279324  0.16581789  1
  Sn  Sn35  1  0.50029090  0.49925028  0.83380884  1
  Sn  Sn36  1  0.16668237  0.50072805  0.16714214  1
  Sn  Sn37  1  0.50052079  0.16637409  0.16606497  1
  Sn  Sn38  1  0.83356966  0.83348265  0.16604009  1
  Sn  Sn39  1  0.83241750  0.16608504  0.16669058  1
  Pb  Pb40  1  0.49801925  0.50192040  0.50220402  1
  Pb  Pb41  1  0.16805540  0.83195136  0.49946601  1
  Pb  Pb42  1  0.83147334  0.83452719  0.49941232  1
  Pb  Pb43  1  0.49723767  0.49692920  0.16453477  1
  Pb  Pb44  1  0.16869750  0.50278753  0.83386729  1
  Pb  Pb45  1  0.50194952  0.16540474  0.50014859  1
  Pb  Pb46  1  0.16651596  0.16608323  0.16656401  1
  Pb  Pb47  1  0.83577794  0.49689376  0.50007086  1
  Pb  Pb48  1  0.16348498  0.16932699  0.50021044  1
  Pb  Pb49  1  0.50074803  0.83417104  0.83219085  1
  Pb  Pb50  1  0.83533852  0.50019521  0.16646692  1
  Pb  Pb51  1  0.16660004  0.16350353  0.83335557  1
  Pb  Pb52  1  0.50037271  0.83544185  0.16888810  1
  Pb  Pb53  1  0.83094139  0.50064013  0.83364165  1
  I  I54  1  0.16540126  -0.00315991  0.16195746  1
  I  I55  1  0.16854218  -0.00015083  0.49986936  1
  I  I56  1  0.16795985  -0.00420474  0.84008155  1
  I  I57  1  0.16716030  0.33559649  0.17159198  1
  I  I58  1  0.16828147  0.33707016  0.49256252  1
  I  I59  1  0.16460213  0.33335167  0.83335264  1
  I  I60  1  0.16126298  0.66805035  0.16651215  1
  I  I61  1  0.16786947  0.66428950  0.49902714  1
  I  I62  1  0.16280729  0.67040383  0.83411552  1
  I  I63  1  0.49981225  0.00314254  0.15923328  1
  I  I64  1  0.49766640  -0.00212354  0.50326340  1
  I  I65  1  0.50179832  0.00293601  0.83582560  1
  I  I66  1  0.50663656  0.32914281  0.16665021  1
  I  I67  1  0.49968662  0.33324746  0.49881085  1
  I  I68  1  0.50469804  0.33154798  0.83606622  1
  I  I69  1  0.50239133  0.66668306  0.16609156  1
  I  I70  1  0.50119359  0.66953977  0.50226573  1
  I  I71  1  0.49804567  0.66538568  0.82974290  1
  I  I72  1  0.83608023  0.00030491  0.16571557  1
  I  I73  1  0.83256937  0.00266734  0.50055302  1
  I  I74  1  0.83102259  0.00064513  0.83400843  1
  I  I75  1  0.83090660  0.32973416  0.16593326  1
  I  I76  1  0.83138972  0.32863621  0.49990711  1
  I  I77  1  0.83166757  0.32992099  0.83376738  1
  I  I78  1  0.83575613  0.67025954  0.16114224  1
  I  I79  1  0.83195172  0.66667355  0.50075513  1
  I  I80  1  0.83605144  0.67043532  0.83776715  1
  I  I81  1  0.16392757  0.17288638  0.00001611  1
  I  I82  1  0.16747712  0.16219834  0.33320888  1
  I  I83  1  0.16764612  0.16689572  0.66687262  1
  I  I84  1  0.16758728  0.50198457  0.00258205  1
  I  I85  1  0.16640965  0.50656090  0.33226473  1
  I  I86  1  0.16827583  0.50082252  0.66508135  1
  I  I87  1  0.16393997  0.82733081  0.00071480  1
  I  I88  1  0.16301708  0.83184657  0.33015058  1
  I  I89  1  0.16387079  0.83217800  0.66911552  1
  I  I90  1  0.50794288  0.16918533  -0.00067288  1
  I  I91  1  0.50391145  0.16325270  0.33078080  1
  I  I92  1  0.50428231  0.16869375  0.66969012  1
  I  I93  1  0.49808630  0.50073361  -0.00302521  1
  I  I94  1  0.50058903  0.49962601  0.33311110  1
  I  I95  1  0.49722597  0.49310061  0.66979370  1
  I  I96  1  0.49855277  0.83144038  0.00017285  1
  I  I97  1  0.49898844  0.83620844  0.33601053  1
  I  I98  1  0.49871610  0.83491700  0.66491950  1
  I  I99  1  0.82834034  0.16175562  -0.00012554  1
  I  I100  1  0.83031835  0.16200328  0.33178492  1
  I  I101  1  0.82938394  0.16231410  0.66836711  1
  I  I102  1  0.83668349  0.49494728  0.00000117  1
  I  I103  1  0.83089082  0.50006329  0.33321623  1
  I  I104  1  0.83668773  0.50080788  0.66691077  1
  I  I105  1  0.83751117  0.84213713  0.00000096  1
  I  I106  1  0.83789898  0.83961030  0.33000732  1
  I  I107  1  0.83614701  0.83792334  0.66956791  1
  I  I108  1  -0.00340995  0.16596922  0.16571113  1
  I  I109  1  -0.00454176  0.16374576  0.49918351  1
  I  I110  1  -0.00362460  0.16542146  0.83464450  1
  I  I111  1  0.00334878  0.49884302  0.16911639  1
  I  I112  1  0.00354283  0.50247214  0.49693235  1
  I  I113  1  0.00013640  0.49678252  0.83290647  1
  I  I114  1  -0.00034580  0.83615809  0.16344924  1
  I  I115  1  -0.00019976  0.83336237  0.50098861  1
  I  I116  1  -0.00091532  0.83863836  0.83610255  1
  I  I117  1  0.33599795  0.16660657  0.16128090  1
  I  I118  1  0.33346526  0.16566361  0.49960144  1
  I  I119  1  0.33650290  0.16935844  0.83807132  1
  I  I120  1  0.32967420  0.50653030  0.16988012  1
  I  I121  1  0.33039930  0.50048005  0.49524159  1
  I  I122  1  0.33625417  0.49422120  0.83296199  1
  I  I123  1  0.33059491  0.83071141  0.16291105  1
  I  I124  1  0.33570140  0.83456369  0.50225929  1
  I  I125  1  0.33138261  0.83185434  0.83609815  1
  I  I126  1  0.66810453  0.16001824  0.16519938  1
  I  I127  1  0.66974601  0.16465885  0.50036084  1
  I  I128  1  0.66756468  0.16416308  0.83398507  1
  I  I129  1  0.66641586  0.50318567  0.16613713  1
  I  I130  1  0.66652575  0.50127910  0.50110650  1
  I  I131  1  0.66326257  0.50050580  0.83228215  1
  I  I132  1  0.66987227  0.83760032  0.16163257  1
  I  I133  1  0.66410097  0.83470752  0.50274124  1
  I  I134  1  0.66977807  0.83529442  0.83656257  1
