# generated using pymatgen
data_Cs27Sn13Pb14I81
_symmetry_space_group_name_H-M   'P 1'
_cell_length_a   18.97216030
_cell_length_b   18.97706480
_cell_length_c   18.98178489
_cell_angle_alpha   89.99827991
_cell_angle_beta   89.99912497
_cell_angle_gamma   90.00124561
_symmetry_Int_Tables_number   1
_chemical_formula_structural   Cs27Sn13Pb14I81
_chemical_formula_sum   'Cs27 Sn13 Pb14 I81'
_cell_volume   6834.12429290
_cell_formula_units_Z   1
loop_
 _symmetry_equiv_pos_site_id
 _symmetry_equiv_pos_as_xyz
  1  'x, y, z'
loop_
 _atom_site_type_symbol
 _atom_site_label
 _atom_site_symmetry_multiplicity
 _atom_site_fract_x
 _atom_site_fract_y
 _atom_site_fract_z
 _atom_site_occupancy
  Cs  Cs0  1  -0.00466335  -0.00899860  0.00251959  1
  Cs  Cs1  1  -0.00011197  0.00274465  0.33354692  1
  Cs  Cs2  1  0.00429550  0.00104731  0.66494607  1
  Cs  Cs3  1  0.00304816  0.33413650  -0.00234263  1
  Cs  Cs4  1  -0.00053151  0.33228336  0.33475444  1
  Cs  Cs5  1  -0.00020312  0.33314852  0.66636333  1
  Cs  Cs6  1  -0.00266689  0.67468746  0.00074389  1
  Cs  Cs7  1  -0.00091826  0.66595273  0.33038568  1
  Cs  Cs8  1  -0.00093913  0.66550120  0.66973593  1
  Cs  Cs9  1  0.33389167  0.00371561  -0.00232869  1
  Cs  Cs10  1  0.33183495  -0.00176138  0.33729373  1
  Cs  Cs11  1  0.33250928  -0.00108042  0.66607241  1
  Cs  Cs12  1  0.33239296  0.33169754  0.00199575  1
  Cs  Cs13  1  0.33298140  0.33578027  0.32976719  1
  Cs  Cs14  1  0.33240970  0.33432411  0.66780142  1
  Cs  Cs15  1  0.33213493  0.66547606  0.00204484  1
  Cs  Cs16  1  0.33368275  0.66518896  0.33107186  1
  Cs  Cs17  1  0.33564929  0.66657342  0.66644675  1
  Cs  Cs18  1  0.67143893  0.00675021  0.00256980  1
  Cs  Cs19  1  0.66857935  -0.00095123  0.33198161  1
  Cs  Cs20  1  0.66425652  0.00218563  0.66676604  1
  Cs  Cs21  1  0.66712933  0.32483677  -0.00052295  1
  Cs  Cs22  1  0.66717501  0.33335614  0.33191591  1
  Cs  Cs23  1  0.66789872  0.33421479  0.66811552  1
  Cs  Cs24  1  0.66889938  0.66744098  -0.00135201  1
  Cs  Cs25  1  0.66500880  0.66573492  0.33568771  1
  Cs  Cs26  1  0.66448302  0.66531948  0.66375515  1
  Sn  Sn27  1  0.83307067  0.49969917  0.16683682  1
  Sn  Sn28  1  0.49978749  0.83326938  0.16636071  1
  Sn  Sn29  1  0.16683583  0.50020580  0.50052013  1
  Sn  Sn30  1  0.16757802  0.49965549  0.83276711  1
  Sn  Sn31  1  0.16659965  0.16653821  0.16581826  1
  Sn  Sn32  1  0.49930136  0.50047308  0.83309295  1
  Sn  Sn33  1  0.49986776  0.49964913  0.50045164  1
  Sn  Sn34  1  0.16665822  0.16709571  0.83423949  1
  Sn  Sn35  1  0.83283128  0.83255403  0.50037674  1
  Sn  Sn36  1  0.83321442  0.50088072  0.49908284  1
  Sn  Sn37  1  0.50078025  0.83328715  0.49999883  1
  Sn  Sn38  1  0.50000602  0.83270501  0.83373840  1
  Sn  Sn39  1  0.50000485  0.16720299  0.49983313  1
  Pb  Pb40  1  0.50180616  0.50125138  0.16589256  1
  Pb  Pb41  1  0.49840240  0.16703379  0.83146348  1
  Pb  Pb42  1  0.83089923  0.83137506  0.16919642  1
  Pb  Pb43  1  0.16663326  0.83038910  0.50000452  1
  Pb  Pb44  1  0.49824909  0.16417109  0.16922592  1
  Pb  Pb45  1  0.83012732  0.83328709  0.83017693  1
  Pb  Pb46  1  0.16886853  0.83595458  0.16680496  1
  Pb  Pb47  1  0.16882157  0.83270157  0.83322872  1
  Pb  Pb48  1  0.16468097  0.49903449  0.16600021  1
  Pb  Pb49  1  0.83312274  0.49992313  0.83303250  1
  Pb  Pb50  1  0.83604265  0.16906678  0.16680500  1
  Pb  Pb51  1  0.16874091  0.16915182  0.50030348  1
  Pb  Pb52  1  0.83093657  0.16688666  0.50012643  1
  Pb  Pb53  1  0.83693524  0.16647444  0.83309899  1
  I  I54  1  0.16783918  0.00390951  0.16139306  1
  I  I55  1  0.16741223  0.00014178  0.50028441  1
  I  I56  1  0.16894973  0.00263744  0.83658351  1
  I  I57  1  0.16772008  0.33115824  0.16599983  1
  I  I58  1  0.16675325  0.33733388  0.50113570  1
  I  I59  1  0.17291698  0.33483212  0.83285175  1
  I  I60  1  0.16616610  0.66658052  0.16694878  1
  I  I61  1  0.17125382  0.66207297  0.50534234  1
  I  I62  1  0.16899914  0.66307017  0.82780943  1
  I  I63  1  0.49919849  -0.00384804  0.16697040  1
  I  I64  1  0.50374541  -0.00143131  0.50026857  1
  I  I65  1  0.49823068  -0.00256234  0.83025399  1
  I  I66  1  0.50059749  0.33323277  0.16770177  1
  I  I67  1  0.49969835  0.33518221  0.50467201  1
  I  I68  1  0.49828023  0.33656105  0.82753535  1
  I  I69  1  0.50008232  0.66927325  0.17197301  1
  I  I70  1  0.50083118  0.66621499  0.50104551  1
  I  I71  1  0.49448432  0.66575550  0.82757890  1
  I  I72  1  0.83356819  -0.00022751  0.16802188  1
  I  I73  1  0.82740904  -0.00308112  0.50055165  1
  I  I74  1  0.83245336  -0.00030757  0.83201430  1
  I  I75  1  0.83115593  0.33698885  0.17470516  1
  I  I76  1  0.83241868  0.33710910  0.49699393  1
  I  I77  1  0.82771385  0.33373353  0.83107275  1
  I  I78  1  0.83499888  0.66353861  0.16931301  1
  I  I79  1  0.82766524  0.66536036  0.49676588  1
  I  I80  1  0.83885765  0.66645803  0.83601458  1
  I  I81  1  0.16944156  0.17460686  -0.00104057  1
  I  I82  1  0.16874233  0.16808230  0.33168428  1
  I  I83  1  0.16880002  0.16930662  0.66910896  1
  I  I84  1  0.17124552  0.49690561  -0.00319765  1
  I  I85  1  0.16980620  0.49863959  0.33614038  1
  I  I86  1  0.16647574  0.49448639  0.66646618  1
  I  I87  1  0.16877836  0.82852947  -0.00008944  1
  I  I88  1  0.17060109  0.83385486  0.33362247  1
  I  I89  1  0.16830623  0.83876749  0.66652590  1
  I  I90  1  0.50020938  0.16641578  -0.00008687  1
  I  I91  1  0.49714098  0.16843577  0.33718148  1
  I  I92  1  0.49749790  0.16311110  0.66355930  1
  I  I93  1  0.49619259  0.50511438  -0.00327381  1
  I  I94  1  0.49755453  0.50125101  0.33662777  1
  I  I95  1  0.50048572  0.50395840  0.66527160  1
  I  I96  1  0.49649208  0.82681773  -0.00082040  1
  I  I97  1  0.50325301  0.83320064  0.33514136  1
  I  I98  1  0.50311644  0.83180361  0.66552211  1
  I  I99  1  0.82868684  0.16953345  0.00016441  1
  I  I100  1  0.83633664  0.16563822  0.33358762  1
  I  I101  1  0.83486111  0.16903624  0.66622507  1
  I  I102  1  0.83340954  0.49924421  0.00232426  1
  I  I103  1  0.83308910  0.50344741  0.33577340  1
  I  I104  1  0.83280956  0.50365990  0.66312179  1
  I  I105  1  0.83232474  0.83154021  0.00014765  1
  I  I106  1  0.82627095  0.83055810  0.33709508  1
  I  I107  1  0.82802604  0.82533303  0.66217311  1
  I  I108  1  0.00390621  0.16760383  0.16428933  1
  I  I109  1  0.00031368  0.16635454  0.50021184  1
  I  I110  1  0.00526833  0.17534299  0.83405622  1
  I  I111  1  -0.00294831  0.49866886  0.17293963  1
  I  I112  1  -0.00015809  0.50364840  0.50004824  1
  I  I113  1  0.00304853  0.49416544  0.82904114  1
  I  I114  1  -0.00042672  0.83353222  0.16787745  1
  I  I115  1  -0.00301731  0.82870164  0.49914949  1
  I  I116  1  -0.00009631  0.83342737  0.83263545  1
  I  I117  1  0.33060206  0.16896222  0.16307067  1
  I  I118  1  0.33668943  0.16479937  0.50033019  1
  I  I119  1  0.33055213  0.16899928  0.83583068  1
  I  I120  1  0.33340430  0.50034655  0.16975130  1
  I  I121  1  0.33443065  0.49996040  0.50438080  1
  I  I122  1  0.33385413  0.50039962  0.82518231  1
  I  I123  1  0.33727394  0.83079348  0.17139963  1
  I  I124  1  0.33723393  0.83307089  0.50053292  1
  I  I125  1  0.33732524  0.83195856  0.82829594  1
  I  I126  1  0.66658004  0.16637293  0.16780451  1
  I  I127  1  0.66267902  0.17011772  0.50029371  1
  I  I128  1  0.66619326  0.16760203  0.83218915  1
  I  I129  1  0.66943794  0.50197019  0.17295813  1
  I  I130  1  0.66547897  0.50131871  0.50020726  1
  I  I131  1  0.66322138  0.50516563  0.82885133  1
  I  I132  1  0.66287498  0.83299725  0.16582919  1
  I  I133  1  0.66474376  0.82798991  0.50011232  1
  I  I134  1  0.66171292  0.82554268  0.83376180  1
