# generated using pymatgen
data_Cs27Sn14Pb13I81
_symmetry_space_group_name_H-M   'P 1'
_cell_length_a   18.99245369
_cell_length_b   18.98799947
_cell_length_c   18.95095670
_cell_angle_alpha   90.00000008
_cell_angle_beta   89.99999993
_cell_angle_gamma   90.00031948
_symmetry_Int_Tables_number   1
_chemical_formula_structural   Cs27Sn14Pb13I81
_chemical_formula_sum   'Cs27 Sn14 Pb13 I81'
_cell_volume   6834.25888838
_cell_formula_units_Z   1
loop_
 _symmetry_equiv_pos_site_id
 _symmetry_equiv_pos_as_xyz
  1  'x, y, z'
loop_
 _atom_site_type_symbol
 _atom_site_label
 _atom_site_symmetry_multiplicity
 _atom_site_fract_x
 _atom_site_fract_y
 _atom_site_fract_z
 _atom_site_occupancy
  Cs  Cs0  1  0.00088987  -0.00141027  -0.00035985  1
  Cs  Cs1  1  -0.00137347  -0.00217828  0.33401425  1
  Cs  Cs2  1  -0.00043925  0.00856508  0.66340169  1
  Cs  Cs3  1  0.00064398  0.33231951  -0.00072213  1
  Cs  Cs4  1  0.00108228  0.33627904  0.33269570  1
  Cs  Cs5  1  -0.00684321  0.32482602  0.66254286  1
  Cs  Cs6  1  0.00238736  0.66934947  0.00106315  1
  Cs  Cs7  1  0.00100432  0.66649125  0.33486158  1
  Cs  Cs8  1  0.00003407  0.66607535  0.65952646  1
  Cs  Cs9  1  0.33443133  -0.00135558  0.00002753  1
  Cs  Cs10  1  0.33528832  -0.00007193  0.33490819  1
  Cs  Cs11  1  0.33226508  0.00225070  0.66370990  1
  Cs  Cs12  1  0.33333332  0.33333331  0.00076872  1
  Cs  Cs13  1  0.33333330  0.33333333  0.33423831  1
  Cs  Cs14  1  0.33333328  0.33333335  0.65736219  1
  Cs  Cs15  1  0.33223541  0.66802222  0.00002752  1
  Cs  Cs16  1  0.33137833  0.66673853  0.33490818  1
  Cs  Cs17  1  0.33440163  0.66441585  0.66370983  1
  Cs  Cs18  1  0.66427927  -0.00268290  0.00106308  1
  Cs  Cs19  1  0.66566239  0.00017535  0.33486162  1
  Cs  Cs20  1  0.66663255  0.00059130  0.65952630  1
  Cs  Cs21  1  0.66602261  0.33434704  -0.00072211  1
  Cs  Cs22  1  0.66558444  0.33038744  0.33269562  1
  Cs  Cs23  1  0.67350980  0.34184064  0.66254291  1
  Cs  Cs24  1  0.66577684  0.66807700  -0.00035989  1
  Cs  Cs25  1  0.66804005  0.66884469  0.33401412  1
  Cs  Cs26  1  0.66710584  0.65810143  0.66340150  1
  Sn  Sn27  1  0.16651182  0.83257280  0.83383576  1
  Sn  Sn28  1  0.50015487  0.83409386  0.83383573  1
  Sn  Sn29  1  0.49981982  0.83317363  0.16624078  1
  Sn  Sn30  1  0.83333334  0.83333335  0.83382085  1
  Sn  Sn31  1  0.50013389  0.16647841  0.83408185  1
  Sn  Sn32  1  0.16684134  0.16630020  0.16591891  1
  Sn  Sn33  1  0.16677115  0.50024603  0.16551010  1
  Sn  Sn34  1  0.83341606  0.50036875  0.16570980  1
  Sn  Sn35  1  0.83325062  0.16629789  0.16570978  1
  Sn  Sn36  1  0.83333335  0.83333334  0.16586527  1
  Sn  Sn37  1  0.49982534  0.50036644  0.16591891  1
  Sn  Sn38  1  0.16684683  0.83349306  0.16624075  1
  Sn  Sn39  1  0.49989548  0.16642063  0.16551011  1
  Sn  Sn40  1  0.16653282  0.50018823  0.83408185  1
  Pb  Pb41  1  0.83037957  0.16428275  0.83576390  1
  Pb  Pb42  1  0.49990520  0.50013984  0.49668054  1
  Pb  Pb43  1  0.83628705  0.50238390  0.83576388  1
  Pb  Pb44  1  0.16651356  0.50001177  0.50057193  1
  Pb  Pb45  1  0.16878795  0.16666005  0.83523043  1
  Pb  Pb46  1  0.49995605  0.83323224  0.50098511  1
  Pb  Pb47  1  0.83357414  0.50016349  0.49690148  1
  Pb  Pb48  1  0.49787874  0.50000666  0.83523043  1
  Pb  Pb49  1  0.16671063  0.83343440  0.50098513  1
  Pb  Pb50  1  0.83309251  0.16650317  0.49690149  1
  Pb  Pb51  1  0.50015311  0.16665490  0.50057200  1
  Pb  Pb52  1  0.16676143  0.16652683  0.49668059  1
  Pb  Pb53  1  0.83333334  0.83333333  0.50059617  1
  I  I54  1  0.16640562  -0.00084765  0.16356989  1
  I  I55  1  0.16661968  -0.00010517  0.49919516  1
  I  I56  1  0.16530544  -0.00337763  0.83862291  1
  I  I57  1  0.16673779  0.33383535  0.16382565  1
  I  I58  1  0.16756342  0.33338359  0.49920079  1
  I  I59  1  0.16953036  0.33579348  0.84097023  1
  I  I60  1  0.16683219  0.66711510  0.16412846  1
  I  I61  1  0.16652840  0.66671771  0.49362419  1
  I  I62  1  0.16903685  0.66802750  0.84339726  1
  I  I63  1  0.49983437  -0.00044845  0.16412850  1
  I  I64  1  0.50013823  -0.00005105  0.49362418  1
  I  I65  1  0.49762952  -0.00136086  0.84339724  1
  I  I66  1  0.49992895  0.33283136  0.16382581  1
  I  I67  1  0.49910326  0.33328311  0.49920043  1
  I  I68  1  0.49713654  0.33087315  0.84097030  1
  I  I69  1  0.50026123  0.66751435  0.16356977  1
  I  I70  1  0.50004703  0.66677180  0.49919565  1
  I  I71  1  0.50136134  0.67004433  0.83862279  1
  I  I72  1  0.83379061  -0.00076787  0.16379568  1
  I  I73  1  0.83355024  -0.00015220  0.49650664  1
  I  I74  1  0.83942875  -0.00393086  0.84106075  1
  I  I75  1  0.83333332  0.33333334  0.16865741  1
  I  I76  1  0.83333322  0.33333332  0.49941516  1
  I  I77  1  0.83333322  0.33333336  0.83481852  1
  I  I78  1  0.83287582  0.66743456  0.16379579  1
  I  I79  1  0.83311652  0.66681891  0.49650667  1
  I  I80  1  0.82723807  0.67059754  0.84106068  1
  I  I81  1  0.16477826  0.16675988  0.00424974  1
  I  I82  1  0.16949491  0.16703544  0.32713645  1
  I  I83  1  0.16929623  0.16646945  0.66712511  1
  I  I84  1  0.16696672  0.50195290  0.00266991  1
  I  I85  1  0.16649694  0.50016846  0.32880273  1
  I  I86  1  0.16922076  0.50812065  0.67036163  1
  I  I87  1  0.16685908  0.83245311  0.00172218  1
  I  I88  1  0.16644807  0.83271599  0.32888129  1
  I  I89  1  0.16776563  0.82724565  0.67111138  1
  I  I90  1  0.49969997  0.16471380  0.00266992  1
  I  I91  1  0.50016976  0.16649810  0.32880271  1
  I  I92  1  0.49744600  0.15854619  0.67036162  1
  I  I93  1  0.50188826  0.49990668  0.00424975  1
  I  I94  1  0.49717169  0.49963175  0.32713650  1
  I  I95  1  0.49737055  0.50019687  0.66712517  1
  I  I96  1  0.49980733  0.83421357  0.00172217  1
  I  I97  1  0.50021872  0.83395051  0.32888128  1
  I  I98  1  0.49890120  0.83942123  0.67111136  1
  I  I99  1  0.83586964  0.16892155  0.00453720  1
  I  I100  1  0.83052338  0.16391401  0.32742798  1
  I  I101  1  0.83234125  0.16465675  0.66723925  1
  I  I102  1  0.83079718  0.49774526  0.00453719  1
  I  I103  1  0.83614345  0.50275271  0.32742798  1
  I  I104  1  0.83432527  0.50200993  0.66723931  1
  I  I105  1  0.83333353  0.83333329  0.00210247  1
  I  I106  1  0.83333323  0.83333344  0.32872500  1
  I  I107  1  0.83333325  0.83333340  0.67061372  1
  I  I108  1  0.00016733  0.16662812  0.16794545  1
  I  I109  1  -0.00008650  0.16647176  0.50011859  1
  I  I110  1  -0.00003983  0.16600263  0.83451984  1
  I  I111  1  0.00057398  0.49960742  0.16417091  1
  I  I112  1  0.00013369  0.50105259  0.49594768  1
  I  I113  1  0.00407124  0.50514959  0.84203206  1
  I  I114  1  0.00020511  0.83372789  0.16249981  1
  I  I115  1  0.00002637  0.83261189  0.49666826  1
  I  I116  1  0.00045903  0.82771268  0.84267306  1
  I  I117  1  0.33375372  0.16689673  0.16367750  1
  I  I118  1  0.33355327  0.16686679  0.49675340  1
  I  I119  1  0.33645303  0.16042270  0.84216492  1
  I  I120  1  0.33291292  0.49977001  0.16367757  1
  I  I121  1  0.33311340  0.49979989  0.49675347  1
  I  I122  1  0.33021362  0.50624423  0.84216486  1
  I  I123  1  0.33333333  0.83333328  0.16255949  1
  I  I124  1  0.33333334  0.83333331  0.49656811  1
  I  I125  1  0.33333335  0.83333326  0.84102090  1
  I  I126  1  0.66609271  0.16705939  0.16417092  1
  I  I127  1  0.66653298  0.16561392  0.49594753  1
  I  I128  1  0.66259541  0.16151682  0.84203216  1
  I  I129  1  0.66649931  0.50003847  0.16794552  1
  I  I130  1  0.66675317  0.50019504  0.50011845  1
  I  I131  1  0.66670651  0.50066418  0.83452002  1
  I  I132  1  0.66646158  0.83293887  0.16249948  1
  I  I133  1  0.66664029  0.83405481  0.49666829  1
  I  I134  1  0.66620764  0.83895419  0.84267350  1
