# generated using pymatgen
data_Cs27Sn14Pb13I81
_symmetry_space_group_name_H-M   'P 1'
_cell_length_a   18.95913299
_cell_length_b   18.96193676
_cell_length_c   18.96351656
_cell_angle_alpha   90.00031851
_cell_angle_beta   90.00348833
_cell_angle_gamma   89.99860526
_symmetry_Int_Tables_number   1
_chemical_formula_structural   Cs27Sn14Pb13I81
_chemical_formula_sum   'Cs27 Sn14 Pb13 I81'
_cell_volume   6817.41985895
_cell_formula_units_Z   1
loop_
 _symmetry_equiv_pos_site_id
 _symmetry_equiv_pos_as_xyz
  1  'x, y, z'
loop_
 _atom_site_type_symbol
 _atom_site_label
 _atom_site_symmetry_multiplicity
 _atom_site_fract_x
 _atom_site_fract_y
 _atom_site_fract_z
 _atom_site_occupancy
  Cs  Cs0  1  0.00005159  -0.00070897  0.00135185  1
  Cs  Cs1  1  0.00090224  0.00540267  0.33188455  1
  Cs  Cs2  1  0.00108915  -0.00161991  0.66719865  1
  Cs  Cs3  1  -0.00274844  0.33035348  0.00004137  1
  Cs  Cs4  1  0.00091146  0.32785529  0.33330733  1
  Cs  Cs5  1  -0.00067686  0.33476616  0.66694639  1
  Cs  Cs6  1  0.00050843  0.66837992  0.00096662  1
  Cs  Cs7  1  -0.00219557  0.66680789  0.33535493  1
  Cs  Cs8  1  0.00100599  0.66678673  0.66507024  1
  Cs  Cs9  1  0.33543184  -0.00111173  -0.00219039  1
  Cs  Cs10  1  0.33409874  0.00340686  0.33362617  1
  Cs  Cs11  1  0.33337515  -0.00062690  0.66882693  1
  Cs  Cs12  1  0.33524791  0.33489582  0.00135506  1
  Cs  Cs13  1  0.33348989  0.33393265  0.33237167  1
  Cs  Cs14  1  0.33249872  0.33312016  0.66581230  1
  Cs  Cs15  1  0.33311070  0.66586415  0.00159888  1
  Cs  Cs16  1  0.33329752  0.66302581  0.33174950  1
  Cs  Cs17  1  0.33066176  0.66781006  0.66607236  1
  Cs  Cs18  1  0.66424528  -0.00110950  0.00084249  1
  Cs  Cs19  1  0.66553886  -0.00016793  0.33282432  1
  Cs  Cs20  1  0.66513716  -0.00070261  0.66519948  1
  Cs  Cs21  1  0.66704338  0.33353776  -0.00324778  1
  Cs  Cs22  1  0.66601507  0.33269284  0.33571198  1
  Cs  Cs23  1  0.66833155  0.33507326  0.66812520  1
  Cs  Cs24  1  0.66751547  0.66681970  0.00028238  1
  Cs  Cs25  1  0.66912606  0.66780827  0.33381971  1
  Cs  Cs26  1  0.66725190  0.66604552  0.66541591  1
  Sn  Sn27  1  0.83277065  0.83279350  0.16687840  1
  Sn  Sn28  1  0.16595823  0.83275166  0.50027553  1
  Sn  Sn29  1  0.16720231  0.16654239  0.83343662  1
  Sn  Sn30  1  0.83438228  0.50082636  0.49906860  1
  Sn  Sn31  1  0.49995354  0.83355748  0.83397515  1
  Sn  Sn32  1  0.50053555  0.83372154  0.16604843  1
  Sn  Sn33  1  0.16567843  0.50094125  0.50063162  1
  Sn  Sn34  1  0.50023727  0.16591402  0.16578563  1
  Sn  Sn35  1  0.16651599  0.50021313  0.83306224  1
  Sn  Sn36  1  0.83326705  0.83325463  0.83323443  1
  Sn  Sn37  1  0.16670206  0.83318082  0.83287140  1
  Sn  Sn38  1  0.49921508  0.16595501  0.83400727  1
  Sn  Sn39  1  0.83432018  0.83310967  0.49979556  1
  Sn  Sn40  1  0.83353295  0.50061084  0.16734787  1
  Pb  Pb41  1  0.16682713  0.83331945  0.16723495  1
  Pb  Pb42  1  0.49964824  0.83320489  0.49984271  1
  Pb  Pb43  1  0.83090736  0.16636795  0.16657885  1
  Pb  Pb44  1  0.50278537  0.50040857  0.16655987  1
  Pb  Pb45  1  0.83343621  0.16653386  0.50011313  1
  Pb  Pb46  1  0.49992065  0.16661390  0.50071056  1
  Pb  Pb47  1  0.83291097  0.16384315  0.83325509  1
  Pb  Pb48  1  0.16390124  0.50005766  0.16713564  1
  Pb  Pb49  1  0.49743163  0.50046105  0.83322005  1
  Pb  Pb50  1  0.16663865  0.16658090  0.50234745  1
  Pb  Pb51  1  0.83557234  0.50233060  0.83312826  1
  Pb  Pb52  1  0.49993662  0.50018734  0.50009285  1
  Pb  Pb53  1  0.16945438  0.16664805  0.16370499  1
  I  I54  1  0.16110635  -0.00030611  0.16834464  1
  I  I55  1  0.16265140  -0.00347112  0.50390307  1
  I  I56  1  0.16765278  -0.00146192  0.82970835  1
  I  I57  1  0.16642441  0.33340898  0.16644367  1
  I  I58  1  0.16231397  0.33669272  0.50415129  1
  I  I59  1  0.17136642  0.33343340  0.82980477  1
  I  I60  1  0.17231680  0.66689002  0.16082354  1
  I  I61  1  0.16246629  0.66726425  0.50940693  1
  I  I62  1  0.16652735  0.66797800  0.82930378  1
  I  I63  1  0.50584553  -0.00146320  0.16204657  1
  I  I64  1  0.50048412  -0.00048619  0.49972760  1
  I  I65  1  0.49549106  -0.00142261  0.83716965  1
  I  I66  1  0.50008129  0.33046192  0.16156328  1
  I  I67  1  0.50049030  0.33335137  0.49970541  1
  I  I68  1  0.49568993  0.33020069  0.83762720  1
  I  I69  1  0.50161765  0.67013734  0.16197715  1
  I  I70  1  0.49943798  0.66711615  0.50036558  1
  I  I71  1  0.49981612  0.67054512  0.83736147  1
  I  I72  1  0.83179983  -0.00377533  0.16658185  1
  I  I73  1  0.83704449  -0.00429567  0.49982549  1
  I  I74  1  0.83778120  -0.00487487  0.83363194  1
  I  I75  1  0.83357519  0.33625027  0.17176486  1
  I  I76  1  0.83734321  0.33714392  0.49522160  1
  I  I77  1  0.83335793  0.33360439  0.83319460  1
  I  I78  1  0.82784971  0.66853849  0.16714660  1
  I  I79  1  0.83720723  0.66792603  0.49929717  1
  I  I80  1  0.83200764  0.67091104  0.83390511  1
  I  I81  1  0.16712277  0.16502728  -0.00471938  1
  I  I82  1  0.16812512  0.16696463  0.33334450  1
  I  I83  1  0.17363672  0.16536298  0.67064634  1
  I  I84  1  0.16647133  0.50143210  -0.00308224  1
  I  I85  1  0.16565359  0.50653031  0.33689346  1
  I  I86  1  0.16144664  0.50098122  0.66674132  1
  I  I87  1  0.16442056  0.83331924  -0.00340813  1
  I  I88  1  0.16410117  0.82721223  0.33677429  1
  I  I89  1  0.16428559  0.83309285  0.66796801  1
  I  I90  1  0.49585498  0.16130466  -0.00102517  1
  I  I91  1  0.50232481  0.16160231  0.33011205  1
  I  I92  1  0.49581501  0.16117843  0.67083970  1
  I  I93  1  0.49986676  0.50031212  -0.00014367  1
  I  I94  1  0.49489073  0.49934024  0.33313777  1
  I  I95  1  0.50523376  0.49919979  0.66691034  1
  I  I96  1  0.50267665  0.83695104  -0.00087676  1
  I  I97  1  0.50352285  0.83727622  0.33017383  1
  I  I98  1  0.50169531  0.83779497  0.67004946  1
  I  I99  1  0.83675256  0.16845446  -0.00015463  1
  I  I100  1  0.83084690  0.16257486  0.33320130  1
  I  I101  1  0.83011356  0.16697687  0.66692232  1
  I  I102  1  0.83374130  0.50449095  0.00215472  1
  I  I103  1  0.83762249  0.50906398  0.33409869  1
  I  I104  1  0.83519933  0.50404019  0.66378023  1
  I  I105  1  0.83298745  0.83002661  -0.00005565  1
  I  I106  1  0.83241529  0.82904856  0.33334707  1
  I  I107  1  0.83371886  0.83041053  0.66670013  1
  I  I108  1  -0.00012901  0.16645197  0.16600856  1
  I  I109  1  0.00016474  0.16571862  0.50153942  1
  I  I110  1  0.00302786  0.16578575  0.83120596  1
  I  I111  1  -0.00400322  0.50840184  0.16691677  1
  I  I112  1  0.00001579  0.50547789  0.50084830  1
  I  I113  1  0.00382940  0.49969441  0.83230808  1
  I  I114  1  -0.00319975  0.82853324  0.16358627  1
  I  I115  1  -0.00027722  0.82935444  0.50409554  1
  I  I116  1  0.00050603  0.83304929  0.83300611  1
  I  I117  1  0.33750059  0.15945873  0.16562272  1
  I  I118  1  0.33312288  0.16664846  0.49756356  1
  I  I119  1  0.33325588  0.16144173  0.83640008  1
  I  I120  1  0.33335356  0.49986247  0.16723862  1
  I  I121  1  0.32936304  0.50442977  0.50490660  1
  I  I122  1  0.32909959  0.50445683  0.82767962  1
  I  I123  1  0.33640698  0.83791065  0.16295352  1
  I  I124  1  0.32995257  0.82961035  0.50425479  1
  I  I125  1  0.33281979  0.83416938  0.83298898  1
  I  I126  1  0.66304710  0.16474196  0.15868151  1
  I  I127  1  0.66668276  0.16700385  0.50274578  1
  I  I128  1  0.66317190  0.16219103  0.83744739  1
  I  I129  1  0.67078113  0.50260273  0.17236651  1
  I  I130  1  0.67056107  0.50484138  0.49603127  1
  I  I131  1  0.66704147  0.49934147  0.83277538  1
  I  I132  1  0.66721359  0.83330811  0.16358891  1
  I  I133  1  0.66993267  0.82915098  0.50249356  1
  I  I134  1  0.66656323  0.83782890  0.83375186  1
