# generated using pymatgen
data_Cs27Sn14Pb13I81
_symmetry_space_group_name_H-M   'P 1'
_cell_length_a   18.95739245
_cell_length_b   18.96504727
_cell_length_c   18.96228479
_cell_angle_alpha   90.00090092
_cell_angle_beta   89.99857058
_cell_angle_gamma   90.00033590
_symmetry_Int_Tables_number   1
_chemical_formula_structural   Cs27Sn14Pb13I81
_chemical_formula_sum   'Cs27 Sn14 Pb13 I81'
_cell_volume   6817.46936293
_cell_formula_units_Z   1
loop_
 _symmetry_equiv_pos_site_id
 _symmetry_equiv_pos_as_xyz
  1  'x, y, z'
loop_
 _atom_site_type_symbol
 _atom_site_label
 _atom_site_symmetry_multiplicity
 _atom_site_fract_x
 _atom_site_fract_y
 _atom_site_fract_z
 _atom_site_occupancy
  Cs  Cs0  1  0.00111880  0.00184620  -0.00015756  1
  Cs  Cs1  1  -0.00034596  -0.00077980  0.33385292  1
  Cs  Cs2  1  -0.00041227  0.00144958  0.66591871  1
  Cs  Cs3  1  0.00114770  0.33565057  0.00036519  1
  Cs  Cs4  1  -0.00120522  0.33312728  0.33249011  1
  Cs  Cs5  1  0.00278170  0.33294969  0.66705625  1
  Cs  Cs6  1  -0.00272742  0.66369255  -0.00476215  1
  Cs  Cs7  1  0.00196071  0.66757884  0.33444867  1
  Cs  Cs8  1  -0.00117856  0.66605945  0.66791938  1
  Cs  Cs9  1  0.33368996  -0.00037337  0.00154311  1
  Cs  Cs10  1  0.33180819  -0.00607102  0.33241922  1
  Cs  Cs11  1  0.33350283  -0.00102702  0.66527008  1
  Cs  Cs12  1  0.33272978  0.33284177  -0.00088148  1
  Cs  Cs13  1  0.33390078  0.33406493  0.33234749  1
  Cs  Cs14  1  0.33333912  0.33295038  0.66812811  1
  Cs  Cs15  1  0.33519985  0.66728672  0.00349944  1
  Cs  Cs16  1  0.33161168  0.67085339  0.33213252  1
  Cs  Cs17  1  0.33529039  0.66884813  0.66371568  1
  Cs  Cs18  1  0.66559833  -0.00030623  -0.00193982  1
  Cs  Cs19  1  0.66925312  0.00194566  0.33359410  1
  Cs  Cs20  1  0.66647545  0.00068112  0.66846107  1
  Cs  Cs21  1  0.66554249  0.33315714  0.00319367  1
  Cs  Cs22  1  0.66591809  0.33309127  0.33203179  1
  Cs  Cs23  1  0.66315236  0.33038681  0.66395493  1
  Cs  Cs24  1  0.66713128  0.66788656  -0.00472739  1
  Cs  Cs25  1  0.66698624  0.66539156  0.33470621  1
  Cs  Cs26  1  0.66656620  0.66929758  0.66957025  1
  Sn  Sn27  1  0.49986038  0.49910371  0.83402031  1
  Sn  Sn28  1  0.50075765  0.16765684  0.83421152  1
  Sn  Sn29  1  0.16610104  0.16748781  0.49890871  1
  Sn  Sn30  1  0.49898117  0.16728986  0.16615048  1
  Sn  Sn31  1  0.16597936  0.49896965  0.49915563  1
  Sn  Sn32  1  0.16677030  0.83322488  0.83347718  1
  Sn  Sn33  1  0.83287567  0.16724224  0.83289654  1
  Sn  Sn34  1  0.16719803  0.49910418  0.16740597  1
  Sn  Sn35  1  0.83357428  0.83341760  0.49924225  1
  Sn  Sn36  1  0.83418893  0.16706050  0.50078548  1
  Sn  Sn37  1  0.83333811  0.83318074  0.16684056  1
  Sn  Sn38  1  0.49928274  0.49916845  0.16592631  1
  Sn  Sn39  1  0.83401698  0.49957278  0.50000439  1
  Sn  Sn40  1  0.16744421  0.16733834  0.16766562  1
  Pb  Pb41  1  0.50324911  0.83345107  0.49985586  1
  Pb  Pb42  1  0.49930987  0.16652025  0.49940249  1
  Pb  Pb43  1  0.49767586  0.83378158  0.83352905  1
  Pb  Pb44  1  0.83491666  0.83555834  0.83301659  1
  Pb  Pb45  1  0.16452680  0.83302130  0.16493392  1
  Pb  Pb46  1  0.83344554  0.16553270  0.16684470  1
  Pb  Pb47  1  0.16468173  0.83330125  0.50170666  1
  Pb  Pb48  1  0.16890562  0.50196228  0.83318965  1
  Pb  Pb49  1  0.83088186  0.49717101  0.83060748  1
  Pb  Pb50  1  0.83328430  0.50205892  0.16844870  1
  Pb  Pb51  1  0.16715805  0.16561515  0.83333088  1
  Pb  Pb52  1  0.50257040  0.83332334  0.16673546  1
  Pb  Pb53  1  0.49932791  0.49994470  0.49948099  1
  I  I54  1  0.16942832  0.00304768  0.16941507  1
  I  I55  1  0.16308328  0.00305179  0.49760974  1
  I  I56  1  0.16681841  -0.00180783  0.83308178  1
  I  I57  1  0.16955632  0.33308071  0.16990014  1
  I  I58  1  0.15827243  0.33304344  0.49715387  1
  I  I59  1  0.16513550  0.33338508  0.83283575  1
  I  I60  1  0.17025622  0.66345381  0.17024275  1
  I  I61  1  0.16357949  0.66364735  0.49732419  1
  I  I62  1  0.16657061  0.66922249  0.83318955  1
  I  I63  1  0.49682727  0.00348700  0.16262358  1
  I  I64  1  0.49903404  0.00049884  0.50077133  1
  I  I65  1  0.50313622  0.00358125  0.83688922  1
  I  I66  1  0.49712718  0.33303583  0.16229723  1
  I  I67  1  0.50586265  0.33324756  0.50086319  1
  I  I68  1  0.50310250  0.33238299  0.83713494  1
  I  I69  1  0.49652419  0.66318917  0.16336960  1
  I  I70  1  0.49958385  0.66623325  0.50086562  1
  I  I71  1  0.49831696  0.66382011  0.83709608  1
  I  I72  1  0.83393057  -0.00210667  0.17202260  1
  I  I73  1  0.83682706  0.00108027  0.49999757  1
  I  I74  1  0.82822340  0.00346437  0.82826654  1
  I  I75  1  0.83302815  0.33344530  0.16726389  1
  I  I76  1  0.83734075  0.33259243  0.50449918  1
  I  I77  1  0.83375916  0.32916064  0.82940687  1
  I  I78  1  0.83399995  0.66965272  0.17226884  1
  I  I79  1  0.83675605  0.66634390  0.49443275  1
  I  I80  1  0.83243329  0.66644362  0.83235799  1
  I  I81  1  0.16664507  0.16886156  0.00275370  1
  I  I82  1  0.16562606  0.16946757  0.33338282  1
  I  I83  1  0.16490648  0.16884441  0.66395163  1
  I  I84  1  0.16864516  0.49674940  0.00300029  1
  I  I85  1  0.16826350  0.49686367  0.33319185  1
  I  I86  1  0.16374147  0.49702898  0.66362988  1
  I  I87  1  0.16347189  0.83497002  -0.00232689  1
  I  I88  1  0.16668958  0.83365723  0.33340558  1
  I  I89  1  0.16482272  0.83452125  0.66906091  1
  I  I90  1  0.50051933  0.17023280  0.00022070  1
  I  I91  1  0.50062192  0.17183130  0.33005008  1
  I  I92  1  0.50131312  0.17011175  0.66936675  1
  I  I93  1  0.49469241  0.49590614  0.00100892  1
  I  I94  1  0.50015124  0.49486904  0.33008189  1
  I  I95  1  0.50063488  0.49592875  0.66911619  1
  I  I96  1  0.50344603  0.83335534  0.00013106  1
  I  I97  1  0.49708666  0.83322609  0.33299604  1
  I  I98  1  0.50066794  0.83267233  0.66698949  1
  I  I99  1  0.83245699  0.16275638  -0.00199696  1
  I  I100  1  0.83393657  0.16719132  0.33626098  1
  I  I101  1  0.83323160  0.16430047  0.66537860  1
  I  I102  1  0.83582028  0.50137657  -0.00011716  1
  I  I103  1  0.83227224  0.49499887  0.33678198  1
  I  I104  1  0.83831563  0.50498401  0.66242446  1
  I  I105  1  0.83484854  0.83544320  0.00193553  1
  I  I106  1  0.83425298  0.83651064  0.33466951  1
  I  I107  1  0.83521323  0.83218423  0.66369965  1
  I  I108  1  0.00275498  0.16906264  0.16720895  1
  I  I109  1  -0.00040836  0.16671622  0.50032976  1
  I  I110  1  -0.00194620  0.16282578  0.83164960  1
  I  I111  1  0.00298641  0.49650391  0.16918878  1
  I  I112  1  0.00048487  0.49932718  0.49471843  1
  I  I113  1  0.00001338  0.50021089  0.83561266  1
  I  I114  1  -0.00298515  0.83500468  0.17075201  1
  I  I115  1  -0.00339565  0.83430989  0.49707838  1
  I  I116  1  0.00234846  0.83506019  0.83349991  1
  I  I117  1  0.33306020  0.16978043  0.16579309  1
  I  I118  1  0.32987698  0.17254064  0.50049920  1
  I  I119  1  0.33610997  0.16878147  0.83405549  1
  I  I120  1  0.33289581  0.49659516  0.16848942  1
  I  I121  1  0.32990850  0.49415876  0.50002960  1
  I  I122  1  0.33671628  0.49313814  0.83246537  1
  I  I123  1  0.33312672  0.83373618  0.16464356  1
  I  I124  1  0.33274040  0.83339989  0.50228630  1
  I  I125  1  0.33023430  0.83581000  0.83340861  1
  I  I126  1  0.66418277  0.16934185  0.16582214  1
  I  I127  1  0.66971538  0.16640140  0.50101409  1
  I  I128  1  0.66626360  0.16849823  0.83262431  1
  I  I129  1  0.66384741  0.49650459  0.16498613  1
  I  I130  1  0.66949202  0.50005778  0.50011130  1
  I  I131  1  0.66297591  0.49992537  0.83864828  1
  I  I132  1  0.67036076  0.83438923  0.17097057  1
  I  I133  1  0.67192775  0.83352983  0.49756842  1
  I  I134  1  0.66676701  0.83233006  0.83239439  1
