# generated using pymatgen
data_Cs27Sn13Pb14I81
_symmetry_space_group_name_H-M   'P 1'
_cell_length_a   18.98082265
_cell_length_b   18.98031199
_cell_length_c   18.97163416
_cell_angle_alpha   90.00010872
_cell_angle_beta   90.00024757
_cell_angle_gamma   89.99965909
_symmetry_Int_Tables_number   1
_chemical_formula_structural   Cs27Sn13Pb14I81
_chemical_formula_sum   'Cs27 Sn13 Pb14 I81'
_cell_volume   6834.75764661
_cell_formula_units_Z   1
loop_
 _symmetry_equiv_pos_site_id
 _symmetry_equiv_pos_as_xyz
  1  'x, y, z'
loop_
 _atom_site_type_symbol
 _atom_site_label
 _atom_site_symmetry_multiplicity
 _atom_site_fract_x
 _atom_site_fract_y
 _atom_site_fract_z
 _atom_site_occupancy
  Cs  Cs0  1  0.00247307  -0.00128340  -0.00115386  1
  Cs  Cs1  1  0.00996572  -0.00025206  0.33495559  1
  Cs  Cs2  1  -0.00049756  -0.00309454  0.66604361  1
  Cs  Cs3  1  -0.00234502  0.33493448  0.00030892  1
  Cs  Cs4  1  -0.00016337  0.33349749  0.32785808  1
  Cs  Cs5  1  -0.00057515  0.33311551  0.66764144  1
  Cs  Cs6  1  0.00332035  0.66615870  0.00211099  1
  Cs  Cs7  1  0.00163903  0.66682648  0.33052498  1
  Cs  Cs8  1  -0.00228939  0.66873356  0.66680342  1
  Cs  Cs9  1  0.33483143  0.00005269  -0.00084709  1
  Cs  Cs10  1  0.32840391  0.00154992  0.33337970  1
  Cs  Cs11  1  0.32974012  -0.00033500  0.66741158  1
  Cs  Cs12  1  0.33493812  0.32957606  -0.00296164  1
  Cs  Cs13  1  0.33214174  0.33250173  0.33487567  1
  Cs  Cs14  1  0.33187928  0.33483637  0.66695089  1
  Cs  Cs15  1  0.33309959  0.66956656  -0.00004076  1
  Cs  Cs16  1  0.33772980  0.66595040  0.33221339  1
  Cs  Cs17  1  0.33407938  0.66288600  0.66918212  1
  Cs  Cs18  1  0.66401056  0.00107622  0.00187161  1
  Cs  Cs19  1  0.66603463  -0.00224528  0.33266287  1
  Cs  Cs20  1  0.66976815  -0.00029415  0.66690220  1
  Cs  Cs21  1  0.66814770  0.32871643  -0.00047880  1
  Cs  Cs22  1  0.66781325  0.33388565  0.33427326  1
  Cs  Cs23  1  0.66820590  0.33401506  0.66591940  1
  Cs  Cs24  1  0.66515198  0.66880248  0.00172096  1
  Cs  Cs25  1  0.66527942  0.66765210  0.33356968  1
  Cs  Cs26  1  0.66822771  0.66653133  0.66652324  1
  Sn  Sn27  1  0.83368957  0.49936085  0.50033328  1
  Sn  Sn28  1  0.50034539  0.49998498  0.16709067  1
  Sn  Sn29  1  0.16562810  0.49909476  0.83245038  1
  Sn  Sn30  1  0.50066911  0.16672158  0.50018732  1
  Sn  Sn31  1  0.83290662  0.16728126  0.50025061  1
  Sn  Sn32  1  0.83386989  0.49952523  0.83280397  1
  Sn  Sn33  1  0.16555352  0.16776132  0.83293293  1
  Sn  Sn34  1  0.83415187  0.16743920  0.83240142  1
  Sn  Sn35  1  0.50018607  0.49994038  0.49931594  1
  Sn  Sn36  1  0.50104862  0.83256839  0.16789922  1
  Sn  Sn37  1  0.16617450  0.49993620  0.50045781  1
  Sn  Sn38  1  0.83296553  0.83354026  0.16704009  1
  Sn  Sn39  1  0.50019564  0.83335201  0.49975448  1
  Pb  Pb40  1  0.16760257  0.83320433  0.16677449  1
  Pb  Pb41  1  0.50049849  0.50000358  0.83335613  1
  Pb  Pb42  1  0.50009743  0.16664063  0.16957424  1
  Pb  Pb43  1  0.16596689  0.16897210  0.50169215  1
  Pb  Pb44  1  0.16651719  0.16713893  0.16314105  1
  Pb  Pb45  1  0.50020346  0.83338452  0.83322254  1
  Pb  Pb46  1  0.83342288  0.16409078  0.16713643  1
  Pb  Pb47  1  0.16973692  0.82997540  0.50015488  1
  Pb  Pb48  1  0.83323296  0.83328714  0.83567760  1
  Pb  Pb49  1  0.16957158  0.49977803  0.16608263  1
  Pb  Pb50  1  0.50054831  0.16668383  0.83041920  1
  Pb  Pb51  1  0.16645222  0.83277143  0.83302697  1
  Pb  Pb52  1  0.83121953  0.50140541  0.16660028  1
  Pb  Pb53  1  0.83184832  0.83336104  0.49817709  1
  I  I54  1  0.16870852  -0.00002178  0.16559283  1
  I  I55  1  0.16724828  0.00022028  0.50138018  1
  I  I56  1  0.16278884  0.00328957  0.83369749  1
  I  I57  1  0.16875952  0.33383829  0.16971767  1
  I  I58  1  0.17293050  0.33698279  0.50204527  1
  I  I59  1  0.16332048  0.33444613  0.82905380  1
  I  I60  1  0.16515634  0.66635130  0.16399558  1
  I  I61  1  0.16517174  0.66160393  0.50635885  1
  I  I62  1  0.16332629  0.66261170  0.82990483  1
  I  I63  1  0.50386543  -0.00326480  0.16986972  1
  I  I64  1  0.50568359  0.00020854  0.49713010  1
  I  I65  1  0.49936124  0.00027340  0.83361789  1
  I  I66  1  0.49914119  0.33626023  0.17074396  1
  I  I67  1  0.50066552  0.33447041  0.49672353  1
  I  I68  1  0.49922152  0.33345928  0.83545272  1
  I  I69  1  0.50352032  0.66661039  0.17511800  1
  I  I70  1  0.49959650  0.66551775  0.49564135  1
  I  I71  1  0.49949232  0.66631057  0.82930432  1
  I  I72  1  0.82432491  -0.00352147  0.16576532  1
  I  I73  1  0.82760936  0.00303202  0.50399525  1
  I  I74  1  0.83721246  0.00349501  0.82886264  1
  I  I75  1  0.83156807  0.33339780  0.16625876  1
  I  I76  1  0.82736909  0.33425386  0.50380016  1
  I  I77  1  0.83681605  0.33387947  0.82990738  1
  I  I78  1  0.82963051  0.66916203  0.16696601  1
  I  I79  1  0.83215359  0.66323587  0.50366151  1
  I  I80  1  0.83669229  0.66311988  0.82887199  1
  I  I81  1  0.16103665  0.17351267  -0.00525411  1
  I  I82  1  0.16684474  0.16679564  0.33385899  1
  I  I83  1  0.16664270  0.16961348  0.66962743  1
  I  I84  1  0.16260861  0.49662647  -0.00364540  1
  I  I85  1  0.16480667  0.50092215  0.33652413  1
  I  I86  1  0.16975046  0.49658484  0.66637159  1
  I  I87  1  0.16941817  0.83187037  -0.00007600  1
  I  I88  1  0.16393151  0.83276705  0.33361974  1
  I  I89  1  0.16900444  0.83473493  0.66639052  1
  I  I90  1  0.49925622  0.16597024  -0.00011607  1
  I  I91  1  0.50619554  0.16797978  0.33788660  1
  I  I92  1  0.50127296  0.16847441  0.66219993  1
  I  I93  1  0.49969991  0.50681963  0.00274754  1
  I  I94  1  0.50010157  0.50129239  0.33547609  1
  I  I95  1  0.49950122  0.50077245  0.66305142  1
  I  I96  1  0.50286352  0.82752062  0.00374834  1
  I  I97  1  0.50470540  0.83093103  0.33385662  1
  I  I98  1  0.49953005  0.83116107  0.66278978  1
  I  I99  1  0.83753756  0.17079034  -0.00335063  1
  I  I100  1  0.82730140  0.17158820  0.33709570  1
  I  I101  1  0.83192916  0.17041267  0.66626107  1
  I  I102  1  0.83651254  0.49712872  -0.00306497  1
  I  I103  1  0.83478498  0.49661592  0.33677986  1
  I  I104  1  0.83119939  0.49734384  0.66570298  1
  I  I105  1  0.82533528  0.83268248  0.00338530  1
  I  I106  1  0.82892305  0.83187915  0.33054407  1
  I  I107  1  0.83136945  0.83308536  0.66642431  1
  I  I108  1  -0.00028300  0.16388616  0.17273921  1
  I  I109  1  -0.00332690  0.17051489  0.50161870  1
  I  I110  1  -0.00112249  0.17100314  0.82781171  1
  I  I111  1  -0.00018956  0.50269500  0.16928975  1
  I  I112  1  -0.00100254  0.49535651  0.50482816  1
  I  I113  1  -0.00055821  0.49644610  0.82585873  1
  I  I114  1  -0.00257350  0.83334778  0.16517512  1
  I  I115  1  -0.00003016  0.83386982  0.49786101  1
  I  I116  1  -0.00029286  0.83300421  0.83612756  1
  I  I117  1  0.33358540  0.16466352  0.16654880  1
  I  I118  1  0.33579062  0.16724136  0.50040741  1
  I  I119  1  0.33062315  0.17123753  0.83276834  1
  I  I120  1  0.33755981  0.50709082  0.17131394  1
  I  I121  1  0.33423045  0.50066929  0.50040260  1
  I  I122  1  0.33061557  0.49627713  0.82986218  1
  I  I123  1  0.33743593  0.82854039  0.17053628  1
  I  I124  1  0.33819317  0.83525502  0.49306341  1
  I  I125  1  0.33328024  0.83345422  0.83548853  1
  I  I126  1  0.66667938  0.16806480  0.16090686  1
  I  I127  1  0.66700902  0.17135414  0.50522304  1
  I  I128  1  0.67018994  0.17150108  0.83182177  1
  I  I129  1  0.66333994  0.50258856  0.17140609  1
  I  I130  1  0.66659417  0.49962451  0.50039075  1
  I  I131  1  0.66998757  0.49599972  0.82984979  1
  I  I132  1  0.66515436  0.82913336  0.17008352  1
  I  I133  1  0.66350856  0.82884896  0.49790823  1
  I  I134  1  0.66689080  0.83266921  0.83226134  1
