# generated using pymatgen
data_Cs27Sn13Pb14I81
_symmetry_space_group_name_H-M   'P 1'
_cell_length_a   18.98088550
_cell_length_b   18.97270915
_cell_length_c   18.98088549
_cell_angle_alpha   89.99749224
_cell_angle_beta   89.99981411
_cell_angle_gamma   90.00250748
_symmetry_Int_Tables_number   1
_chemical_formula_structural   Cs27Sn13Pb14I81
_chemical_formula_sum   'Cs27 Sn13 Pb14 I81'
_cell_volume   6835.37407164
_cell_formula_units_Z   1
loop_
 _symmetry_equiv_pos_site_id
 _symmetry_equiv_pos_as_xyz
  1  'x, y, z'
loop_
 _atom_site_type_symbol
 _atom_site_label
 _atom_site_symmetry_multiplicity
 _atom_site_fract_x
 _atom_site_fract_y
 _atom_site_fract_z
 _atom_site_occupancy
  Cs  Cs0  1  0.00566415  -0.00586446  -0.00133227  1
  Cs  Cs1  1  0.00265494  0.00231629  0.33430213  1
  Cs  Cs2  1  0.00215124  0.00064794  0.66833587  1
  Cs  Cs3  1  -0.00017412  0.33333341  -0.00017420  1
  Cs  Cs4  1  0.00184385  0.33284803  0.33244425  1
  Cs  Cs5  1  -0.00140041  0.33553342  0.66761109  1
  Cs  Cs6  1  -0.00133228  0.67253117  0.00566404  1
  Cs  Cs7  1  -0.00080770  0.66601008  0.33233319  1
  Cs  Cs8  1  -0.00016479  0.66544426  0.66600424  1
  Cs  Cs9  1  0.33233308  0.00065652  -0.00080763  1
  Cs  Cs10  1  0.33489462  0.00076993  0.33253709  1
  Cs  Cs11  1  0.33230958  0.00039941  0.66823417  1
  Cs  Cs12  1  0.33244410  0.33381866  0.00184374  1
  Cs  Cs13  1  0.33295001  0.33333339  0.33294998  1
  Cs  Cs14  1  0.33308047  0.33594836  0.66526502  1
  Cs  Cs15  1  0.33430220  0.66435027  0.00265497  1
  Cs  Cs16  1  0.33253702  0.66589682  0.33489463  1
  Cs  Cs17  1  0.33268282  0.66483622  0.66483228  1
  Cs  Cs18  1  0.66600432  0.00122244  -0.00016476  1
  Cs  Cs19  1  0.66483237  0.00183047  0.33268274  1
  Cs  Cs20  1  0.66704860  0.00016458  0.66761523  1
  Cs  Cs21  1  0.66761087  0.33113325  -0.00140044  1
  Cs  Cs22  1  0.66526498  0.33071829  0.33308023  1
  Cs  Cs23  1  0.66754036  0.33333326  0.66754027  1
  Cs  Cs24  1  0.66833590  0.66601867  0.00215133  1
  Cs  Cs25  1  0.66823421  0.66626731  0.33230962  1
  Cs  Cs26  1  0.66761519  0.66650211  0.66704864  1
  Sn  Sn27  1  0.16548257  0.50033389  0.83300085  1
  Sn  Sn28  1  0.16653402  0.83282986  0.50035420  1
  Sn  Sn29  1  0.50069856  0.16600716  0.83379177  1
  Sn  Sn30  1  0.83295581  0.16688028  0.83426533  1
  Sn  Sn31  1  0.83379175  0.50065951  0.50069853  1
  Sn  Sn32  1  0.83300083  0.16633279  0.16548259  1
  Sn  Sn33  1  0.50035418  0.83383683  0.16653401  1
  Sn  Sn34  1  0.83338071  0.83290734  0.50027921  1
  Sn  Sn35  1  0.16557302  0.50086881  0.50100671  1
  Sn  Sn36  1  0.50027923  0.83375931  0.83338069  1
  Sn  Sn37  1  0.50100671  0.16579784  0.16557298  1
  Sn  Sn38  1  0.50014715  0.83333335  0.50014714  1
  Sn  Sn39  1  0.83426529  0.49978639  0.83295579  1
  Pb  Pb40  1  0.16936328  0.83333334  0.16936331  1
  Pb  Pb41  1  0.50045363  0.50226095  0.49993209  1
  Pb  Pb42  1  0.16633543  0.50012967  0.16690705  1
  Pb  Pb43  1  0.50023668  0.49931913  0.16662624  1
  Pb  Pb44  1  0.16690702  0.16653693  0.16633541  1
  Pb  Pb45  1  0.83171843  0.83333332  0.83171848  1
  Pb  Pb46  1  0.49993211  0.16440565  0.50045350  1
  Pb  Pb47  1  0.83327259  0.49764806  0.16669468  1
  Pb  Pb48  1  0.16669469  0.16901863  0.83327257  1
  Pb  Pb49  1  0.16662623  0.16734754  0.50023670  1
  Pb  Pb50  1  0.50044527  0.49957157  0.83339010  1
  Pb  Pb51  1  0.83339019  0.16709513  0.50044529  1
  Pb  Pb52  1  0.83137370  0.83599863  0.16930964  1
  Pb  Pb53  1  0.16930970  0.83066803  0.83137374  1
  I  I54  1  0.16443774  -0.00019982  0.16944454  1
  I  I55  1  0.16676981  -0.00354752  0.49843944  1
  I  I56  1  0.16495045  -0.00030374  0.83167041  1
  I  I57  1  0.17073665  0.33333338  0.17073665  1
  I  I58  1  0.16119161  0.33745107  0.50341354  1
  I  I59  1  0.16811347  0.33694732  0.82524655  1
  I  I60  1  0.16944460  0.66686651  0.16443766  1
  I  I61  1  0.16748720  0.66674981  0.50422088  1
  I  I62  1  0.16190817  0.66283688  0.83028681  1
  I  I63  1  0.50422072  -0.00008315  0.16748745  1
  I  I64  1  0.50064020  -0.00430845  0.49978610  1
  I  I65  1  0.50552887  0.00019519  0.83278092  1
  I  I66  1  0.50341362  0.32921558  0.16119165  1
  I  I67  1  0.49930873  0.33333335  0.49930878  1
  I  I68  1  0.50088258  0.33009985  0.83906177  1
  I  I69  1  0.49843950  0.67021421  0.16676949  1
  I  I70  1  0.49978620  0.67097512  0.50064039  1
  I  I71  1  0.49964555  0.66958533  0.83232610  1
  I  I72  1  0.83028683  0.00382979  0.16190844  1
  I  I73  1  0.83232599  -0.00291867  0.49964556  1
  I  I74  1  0.82916304  0.00275041  0.83465028  1
  I  I75  1  0.82524640  0.32971935  0.16811318  1
  I  I76  1  0.83906174  0.33656683  0.50088297  1
  I  I77  1  0.83061024  0.33333335  0.83061014  1
  I  I78  1  0.83167050  0.66697042  0.16495053  1
  I  I79  1  0.83278115  0.66647146  0.50552860  1
  I  I80  1  0.83465047  0.66391624  0.82916328  1
  I  I81  1  0.16722193  0.16963582  -0.00032959  1
  I  I82  1  0.16704150  0.16882274  0.33329401  1
  I  I83  1  0.16776322  0.16385693  0.66689739  1
  I  I84  1  0.16404530  0.49747786  -0.00335649  1
  I  I85  1  0.16298520  0.50421321  0.33728966  1
  I  I86  1  0.16304900  0.50362483  0.66582172  1
  I  I87  1  0.16805499  0.83192295  -0.00018420  1
  I  I88  1  0.16818239  0.82652632  0.33788599  1
  I  I89  1  0.16939881  0.83190918  0.66303905  1
  I  I90  1  0.50454191  0.15819755  -0.00048714  1
  I  I91  1  0.50456160  0.16290490  0.33025907  1
  I  I92  1  0.50446310  0.16301038  0.67013116  1
  I  I93  1  0.49878008  0.50636610  -0.00031307  1
  I  I94  1  0.49929491  0.49936174  0.33352521  1
  I  I95  1  0.49978662  0.49953999  0.66674120  1
  I  I96  1  0.50056657  0.83764873  -0.00025741  1
  I  I97  1  0.49961781  0.83709313  0.33366806  1
  I  I98  1  0.50009645  0.83692707  0.66643687  1
  I  I99  1  0.82723759  0.17370609  -0.00124567  1
  I  I100  1  0.82771250  0.16569293  0.33087446  1
  I  I101  1  0.82822562  0.16809518  0.66985112  1
  I  I102  1  0.83629908  0.49742299  -0.00344702  1
  I  I103  1  0.83732135  0.50342153  0.33676833  1
  I  I104  1  0.83653427  0.49774242  0.66667652  1
  I  I105  1  0.83099960  0.82981281  0.00001603  1
  I  I106  1  0.83112585  0.82825201  0.33753862  1
  I  I107  1  0.82989501  0.83412457  0.66341737  1
  I  I108  1  -0.00335648  0.16918881  0.16404572  1
  I  I109  1  -0.00031306  0.16030036  0.49877900  1
  I  I110  1  -0.00344701  0.16924376  0.83629943  1
  I  I111  1  -0.00032963  0.49703071  0.16722205  1
  I  I112  1  -0.00048709  0.50846898  0.50454174  1
  I  I113  1  -0.00124568  0.49296036  0.82723769  1
  I  I114  1  -0.00018416  0.83474378  0.16805467  1
  I  I115  1  -0.00025742  0.82901826  0.50056674  1
  I  I116  1  0.00001603  0.83685400  0.83099972  1
  I  I117  1  0.33728963  0.16245355  0.16298498  1
  I  I118  1  0.33352520  0.16730499  0.49929537  1
  I  I119  1  0.33676835  0.16324493  0.83732132  1
  I  I120  1  0.33329397  0.49784382  0.16704080  1
  I  I121  1  0.33025902  0.50376194  0.50456154  1
  I  I122  1  0.33087450  0.50097398  0.82771308  1
  I  I123  1  0.33788598  0.84014018  0.16818266  1
  I  I124  1  0.33366804  0.82957328  0.49961775  1
  I  I125  1  0.33753862  0.83841467  0.83112568  1
  I  I126  1  0.66582172  0.16304178  0.16304894  1
  I  I127  1  0.66674117  0.16712661  0.49978721  1
  I  I128  1  0.66667651  0.16892458  0.83653401  1
  I  I129  1  0.66689744  0.50280981  0.16776399  1
  I  I130  1  0.67013118  0.50365634  0.50446328  1
  I  I131  1  0.66985109  0.49857145  0.82822503  1
  I  I132  1  0.66303908  0.83475754  0.16939882  1
  I  I133  1  0.66643689  0.82973959  0.50009639  1
  I  I134  1  0.66341744  0.83254188  0.82989500  1
