# generated using pymatgen
data_Cs27Sn14Pb13I81
_symmetry_space_group_name_H-M   'P 1'
_cell_length_a   18.98649220
_cell_length_b   18.98262894
_cell_length_c   18.96249559
_cell_angle_alpha   90.00115721
_cell_angle_beta   89.99861415
_cell_angle_gamma   90.00029002
_symmetry_Int_Tables_number   1
_chemical_formula_structural   Cs27Sn14Pb13I81
_chemical_formula_sum   'Cs27 Sn14 Pb13 I81'
_cell_volume   6834.34008869
_cell_formula_units_Z   1
loop_
 _symmetry_equiv_pos_site_id
 _symmetry_equiv_pos_as_xyz
  1  'x, y, z'
loop_
 _atom_site_type_symbol
 _atom_site_label
 _atom_site_symmetry_multiplicity
 _atom_site_fract_x
 _atom_site_fract_y
 _atom_site_fract_z
 _atom_site_occupancy
  Cs  Cs0  1  0.00234735  -0.00191896  -0.00242321  1
  Cs  Cs1  1  -0.00083653  0.00013308  0.33345660  1
  Cs  Cs2  1  0.00085071  0.00149663  0.66964521  1
  Cs  Cs3  1  -0.00276388  0.33691775  -0.00074886  1
  Cs  Cs4  1  0.00061251  0.33400132  0.33454593  1
  Cs  Cs5  1  0.00150936  0.32975675  0.66362421  1
  Cs  Cs6  1  -0.00278458  0.66512549  0.00121583  1
  Cs  Cs7  1  0.00086089  0.66647742  0.33205837  1
  Cs  Cs8  1  0.00176808  0.66884245  0.66629899  1
  Cs  Cs9  1  0.33093814  0.00453946  -0.00136417  1
  Cs  Cs10  1  0.33333569  -0.00036924  0.33226226  1
  Cs  Cs11  1  0.33120628  -0.00475394  0.67087883  1
  Cs  Cs12  1  0.33814350  0.33023457  -0.00313509  1
  Cs  Cs13  1  0.33280356  0.33344505  0.33378825  1
  Cs  Cs14  1  0.33178150  0.33548830  0.66694971  1
  Cs  Cs15  1  0.33322604  0.66646669  -0.00076013  1
  Cs  Cs16  1  0.33269993  0.66713321  0.33322628  1
  Cs  Cs17  1  0.33633568  0.66765042  0.66935506  1
  Cs  Cs18  1  0.66659856  0.00490948  -0.00007011  1
  Cs  Cs19  1  0.66781673  0.00000134  0.33376977  1
  Cs  Cs20  1  0.66787382  -0.00493620  0.66727569  1
  Cs  Cs21  1  0.66335960  0.33592277  -0.00904272  1
  Cs  Cs22  1  0.66652869  0.33121956  0.33417486  1
  Cs  Cs23  1  0.66750411  0.33522000  0.66743834  1
  Cs  Cs24  1  0.66862299  0.66177647  -0.00498822  1
  Cs  Cs25  1  0.66632802  0.66865541  0.33342195  1
  Cs  Cs26  1  0.66229952  0.66691243  0.67106693  1
  Sn  Sn27  1  0.83319922  0.83411321  0.16748171  1
  Sn  Sn28  1  0.16655391  0.83399985  0.16776988  1
  Sn  Sn29  1  0.16701161  0.16546036  0.49894222  1
  Sn  Sn30  1  0.50009803  0.50054664  0.16779473  1
  Sn  Sn31  1  0.83256674  0.50043066  0.49935147  1
  Sn  Sn32  1  0.50074399  0.49942541  0.49872828  1
  Sn  Sn33  1  0.83422095  0.83324833  0.49924460  1
  Sn  Sn34  1  0.16594524  0.83422329  0.49896175  1
  Sn  Sn35  1  0.50032427  0.83254230  0.16713335  1
  Sn  Sn36  1  0.16621238  0.49998865  0.83345976  1
  Sn  Sn37  1  0.83312662  0.16636831  0.49919715  1
  Sn  Sn38  1  0.49991154  0.16703852  0.49956601  1
  Sn  Sn39  1  0.16554148  0.16621997  0.16771906  1
  Sn  Sn40  1  0.83417849  0.16624512  0.16729706  1
  Pb  Pb41  1  0.50003041  0.83356874  0.83769062  1
  Pb  Pb42  1  0.16876791  0.49951585  0.16501536  1
  Pb  Pb43  1  0.16691276  0.50037207  0.50092803  1
  Pb  Pb44  1  0.83585673  0.50000816  0.82969924  1
  Pb  Pb45  1  0.83346528  0.83349970  0.83372943  1
  Pb  Pb46  1  0.50001952  0.16642749  0.82902750  1
  Pb  Pb47  1  0.50033645  0.16661474  0.16827455  1
  Pb  Pb48  1  0.83110297  0.49948125  0.16861185  1
  Pb  Pb49  1  0.83352209  0.16652760  0.83367705  1
  Pb  Pb50  1  0.49994232  0.83341763  0.49858038  1
  Pb  Pb51  1  0.16647416  0.83153895  0.83366146  1
  Pb  Pb52  1  0.49824680  0.49999505  0.83278435  1
  Pb  Pb53  1  0.16642251  0.16846080  0.83363729  1
  I  I54  1  0.16877210  -0.00040558  0.17047100  1
  I  I55  1  0.16461520  0.00029397  0.49671040  1
  I  I56  1  0.16718545  0.00000508  0.83277831  1
  I  I57  1  0.16335397  0.32998269  0.17109929  1
  I  I58  1  0.16436762  0.33048624  0.49758139  1
  I  I59  1  0.16785073  0.33588218  0.83155408  1
  I  I60  1  0.16451762  0.66983355  0.17011852  1
  I  I61  1  0.16342136  0.66962152  0.49685780  1
  I  I62  1  0.16788187  0.66410943  0.83156610  1
  I  I63  1  0.49975440  -0.00256642  0.16907450  1
  I  I64  1  0.50215533  0.00250770  0.49740851  1
  I  I65  1  0.49857622  -0.00000170  0.83291497  1
  I  I66  1  0.49861230  0.33538651  0.16935365  1
  I  I67  1  0.50224344  0.33362436  0.49397455  1
  I  I68  1  0.49845052  0.33348065  0.83990451  1
  I  I69  1  0.49870275  0.66701568  0.17364494  1
  I  I70  1  0.50240742  0.66428565  0.49815347  1
  I  I71  1  0.49836571  0.66653500  0.82760020  1
  I  I72  1  0.83164216  -0.00042931  0.17478335  1
  I  I73  1  0.83313093  0.00017468  0.49601733  1
  I  I74  1  0.83401385  0.00000670  0.82811092  1
  I  I75  1  0.83803197  0.33019429  0.17213381  1
  I  I76  1  0.83358330  0.33232536  0.49661880  1
  I  I77  1  0.83381382  0.33343060  0.83465018  1
  I  I78  1  0.83643575  0.66960726  0.17118601  1
  I  I79  1  0.83448751  0.66763533  0.49570092  1
  I  I80  1  0.83419353  0.66658748  0.83413069  1
  I  I81  1  0.16296297  0.16247759  0.00383004  1
  I  I82  1  0.16574768  0.16374892  0.33418468  1
  I  I83  1  0.16596414  0.16401101  0.66282277  1
  I  I84  1  0.16938461  0.50046210  -0.00242083  1
  I  I85  1  0.16628776  0.50011352  0.33333455  1
  I  I86  1  0.16784905  0.49969755  0.66835448  1
  I  I87  1  0.16679617  0.83678289  0.00400087  1
  I  I88  1  0.16569477  0.83603171  0.33313341  1
  I  I89  1  0.16211588  0.83687094  0.66311744  1
  I  I90  1  0.49942104  0.16729351  0.00044692  1
  I  I91  1  0.49993701  0.16895422  0.33653732  1
  I  I92  1  0.49998267  0.17420586  0.66045830  1
  I  I93  1  0.49821645  0.50482560  0.00282622  1
  I  I94  1  0.50176255  0.50000757  0.33435616  1
  I  I95  1  0.50311518  0.49520929  0.66300675  1
  I  I96  1  0.49935448  0.82644520  0.00622824  1
  I  I97  1  0.49941838  0.83149895  0.33043276  1
  I  I98  1  0.49934315  0.83290774  0.66627009  1
  I  I99  1  0.83850294  0.16080779  0.00413100  1
  I  I100  1  0.83433390  0.16555791  0.33447788  1
  I  I101  1  0.83411476  0.16681467  0.66225664  1
  I  I102  1  0.83187682  0.50006868  0.00020415  1
  I  I103  1  0.83355444  0.49966615  0.33701110  1
  I  I104  1  0.82626402  0.49944724  0.66118218  1
  I  I105  1  0.83435951  0.83782299  0.00435599  1
  I  I106  1  0.83438747  0.83423476  0.33369428  1
  I  I107  1  0.83818746  0.83453609  0.66247236  1
  I  I108  1  0.00009365  0.15962354  0.17470904  1
  I  I109  1  -0.00011700  0.16771558  0.49718384  1
  I  I110  1  0.00009873  0.16881650  0.82793312  1
  I  I111  1  -0.00011470  0.50218759  0.16611232  1
  I  I112  1  -0.00240911  0.49768891  0.50247207  1
  I  I113  1  0.00300548  0.50012027  0.83379357  1
  I  I114  1  0.00005090  0.83753113  0.17054764  1
  I  I115  1  -0.00021343  0.83430976  0.49346877  1
  I  I116  1  0.00009721  0.83102653  0.83627160  1
  I  I117  1  0.33091029  0.16401411  0.17092454  1
  I  I118  1  0.33244765  0.16809448  0.49513945  1
  I  I119  1  0.33306622  0.16812187  0.83526120  1
  I  I120  1  0.33650964  0.50373316  0.17320633  1
  I  I121  1  0.33589493  0.49667725  0.49843135  1
  I  I122  1  0.33094085  0.50003864  0.83033805  1
  I  I123  1  0.33240497  0.83289359  0.17152734  1
  I  I124  1  0.33068635  0.83563964  0.49581915  1
  I  I125  1  0.33306420  0.83148859  0.83015881  1
  I  I126  1  0.66939210  0.16259599  0.17226786  1
  I  I127  1  0.66770079  0.16765758  0.49535501  1
  I  I128  1  0.66676218  0.16879047  0.83647580  1
  I  I129  1  0.66327756  0.50406501  0.16904650  1
  I  I130  1  0.66659140  0.49645733  0.49580517  1
  I  I131  1  0.66667800  0.49988833  0.83507472  1
  I  I132  1  0.66773081  0.83403720  0.17261201  1
  I  I133  1  0.66947000  0.83581239  0.49566693  1
  I  I134  1  0.66677753  0.83123881  0.82970921  1
