# generated using pymatgen
data_Cs27Sn14Pb13I81
_symmetry_space_group_name_H-M   'P 1'
_cell_length_a   18.97121855
_cell_length_b   18.97503680
_cell_length_c   18.98042721
_cell_angle_alpha   89.99913862
_cell_angle_beta   89.99948225
_cell_angle_gamma   89.99966622
_symmetry_Int_Tables_number   1
_chemical_formula_structural   Cs27Sn14Pb13I81
_chemical_formula_sum   'Cs27 Sn14 Pb13 I81'
_cell_volume   6832.56602525
_cell_formula_units_Z   1
loop_
 _symmetry_equiv_pos_site_id
 _symmetry_equiv_pos_as_xyz
  1  'x, y, z'
loop_
 _atom_site_type_symbol
 _atom_site_label
 _atom_site_symmetry_multiplicity
 _atom_site_fract_x
 _atom_site_fract_y
 _atom_site_fract_z
 _atom_site_occupancy
  Cs  Cs0  1  0.00194211  0.00040509  -0.00113205  1
  Cs  Cs1  1  -0.00509260  0.00117800  0.33400781  1
  Cs  Cs2  1  -0.00003895  0.00152687  0.66763791  1
  Cs  Cs3  1  0.00045063  0.33831350  -0.00019000  1
  Cs  Cs4  1  0.00147203  0.33290463  0.33362330  1
  Cs  Cs5  1  -0.00182305  0.33554660  0.66682059  1
  Cs  Cs6  1  0.00046757  0.66445716  0.00063125  1
  Cs  Cs7  1  0.00031819  0.66590910  0.33178712  1
  Cs  Cs8  1  -0.00067196  0.66371834  0.66877762  1
  Cs  Cs9  1  0.33183379  0.00001965  -0.00314390  1
  Cs  Cs10  1  0.33293987  -0.00146479  0.33532226  1
  Cs  Cs11  1  0.33282898  -0.00083546  0.66735805  1
  Cs  Cs12  1  0.33934658  0.32867395  0.00039541  1
  Cs  Cs13  1  0.33252540  0.33533407  0.33482607  1
  Cs  Cs14  1  0.33609148  0.33116719  0.66289958  1
  Cs  Cs15  1  0.33038370  0.67047268  0.00377763  1
  Cs  Cs16  1  0.33330175  0.66623011  0.33445589  1
  Cs  Cs17  1  0.33342178  0.66959545  0.65999527  1
  Cs  Cs18  1  0.66684181  0.00125793  0.00254009  1
  Cs  Cs19  1  0.67368715  0.00098679  0.33473138  1
  Cs  Cs20  1  0.66750109  -0.00165932  0.66351131  1
  Cs  Cs21  1  0.65756252  0.33314070  -0.00230446  1
  Cs  Cs22  1  0.66515075  0.32965806  0.32955495  1
  Cs  Cs23  1  0.66811459  0.33738831  0.67218902  1
  Cs  Cs24  1  0.66756526  0.66541919  -0.00382654  1
  Cs  Cs25  1  0.66634936  0.66900751  0.33292748  1
  Cs  Cs26  1  0.66756415  0.66564320  0.67045755  1
  Sn  Sn27  1  0.16644934  0.16637290  0.16727091  1
  Sn  Sn28  1  0.49959529  0.16582128  0.49992406  1
  Sn  Sn29  1  0.16708004  0.16569917  0.49923842  1
  Sn  Sn30  1  0.83309283  0.50013118  0.49844524  1
  Sn  Sn31  1  0.16761586  0.49990772  0.83403821  1
  Sn  Sn32  1  0.16660044  0.83421558  0.49902317  1
  Sn  Sn33  1  0.49954052  0.83350469  0.16706496  1
  Sn  Sn34  1  0.50074223  0.83343964  0.83331925  1
  Sn  Sn35  1  0.16633637  0.49971980  0.16560990  1
  Sn  Sn36  1  0.16702113  0.83383314  0.16776898  1
  Sn  Sn37  1  0.49954747  0.83430257  0.49961696  1
  Sn  Sn38  1  0.83350488  0.16584653  0.83372844  1
  Sn  Sn39  1  0.83341810  0.49991444  0.16768298  1
  Sn  Sn40  1  0.83302764  0.83451509  0.83351556  1
  Pb  Pb41  1  0.16684297  0.83195226  0.83304928  1
  Pb  Pb42  1  0.49941451  0.50223792  0.16673506  1
  Pb  Pb43  1  0.16545036  0.16894802  0.83292370  1
  Pb  Pb44  1  0.16550569  0.50000950  0.49937184  1
  Pb  Pb45  1  0.50210120  0.16405267  0.83082163  1
  Pb  Pb46  1  0.83369123  0.83157461  0.50183321  1
  Pb  Pb47  1  0.83440890  0.50006353  0.83425686  1
  Pb  Pb48  1  0.49751733  0.16358800  0.16909784  1
  Pb  Pb49  1  0.83343084  0.16882772  0.50143055  1
  Pb  Pb50  1  0.50289385  0.50014234  0.49981427  1
  Pb  Pb51  1  0.49622665  0.50269156  0.83332155  1
  Pb  Pb52  1  0.83561323  0.16938129  0.16423761  1
  Pb  Pb53  1  0.83380043  0.83168837  0.16446788  1
  I  I54  1  0.17154367  -0.00080342  0.17054390  1
  I  I55  1  0.16972510  -0.00057593  0.49368216  1
  I  I56  1  0.16674492  -0.00007617  0.83572265  1
  I  I57  1  0.16004465  0.33361082  0.16712900  1
  I  I58  1  0.16929339  0.33071948  0.49791139  1
  I  I59  1  0.16087779  0.33661000  0.83655924  1
  I  I60  1  0.16676814  0.66716406  0.16617926  1
  I  I61  1  0.17028012  0.66946749  0.49812668  1
  I  I62  1  0.16341881  0.66425826  0.83724796  1
  I  I63  1  0.49490011  -0.00449431  0.16322859  1
  I  I64  1  0.49546349  -0.00148194  0.50096251  1
  I  I65  1  0.49934653  -0.00413434  0.83542996  1
  I  I66  1  0.49997771  0.33290174  0.16806302  1
  I  I67  1  0.49498693  0.33036349  0.50018435  1
  I  I68  1  0.50242842  0.33300462  0.83150912  1
  I  I69  1  0.49395853  0.67066421  0.16973338  1
  I  I70  1  0.49537791  0.67046763  0.50014913  1
  I  I71  1  0.50788510  0.67102130  0.83035943  1
  I  I72  1  0.83411117  0.00003647  0.16637102  1
  I  I73  1  0.83370827  -0.00002425  0.50095736  1
  I  I74  1  0.83151014  -0.00097749  0.83175377  1
  I  I75  1  0.84042607  0.33724769  0.16891859  1
  I  I76  1  0.83561755  0.33640608  0.49993462  1
  I  I77  1  0.83768740  0.33172506  0.83130209  1
  I  I78  1  0.83996109  0.66389758  0.16768634  1
  I  I79  1  0.83511100  0.66393610  0.49949785  1
  I  I80  1  0.83018350  0.66884682  0.83269123  1
  I  I81  1  0.16352621  0.16404386  0.00279989  1
  I  I82  1  0.16959768  0.16863747  0.33360658  1
  I  I83  1  0.16881063  0.16295510  0.66347941  1
  I  I84  1  0.15889549  0.50227173  0.00191048  1
  I  I85  1  0.16387205  0.50080754  0.33036552  1
  I  I86  1  0.16265744  0.50155342  0.66801789  1
  I  I87  1  0.16925378  0.83429240  0.00278326  1
  I  I88  1  0.17414184  0.83054661  0.33301368  1
  I  I89  1  0.16942319  0.83548857  0.66389030  1
  I  I90  1  0.49986162  0.16611345  0.00008301  1
  I  I91  1  0.49996764  0.16148175  0.33693982  1
  I  I92  1  0.49259793  0.16122017  0.66305072  1
  I  I93  1  0.50564703  0.50145415  0.00001294  1
  I  I94  1  0.49645089  0.50319910  0.33336416  1
  I  I95  1  0.50089878  0.50266277  0.66655864  1
  I  I96  1  0.49902783  0.83042200  0.00030086  1
  I  I97  1  0.49397683  0.83513084  0.33389322  1
  I  I98  1  0.49925180  0.83642489  0.66580442  1
  I  I99  1  0.83587881  0.16356019  -0.00332144  1
  I  I100  1  0.83196386  0.16699479  0.33318540  1
  I  I101  1  0.83584722  0.16566446  0.66911623  1
  I  I102  1  0.83847481  0.50166412  0.00257469  1
  I  I103  1  0.84084329  0.50118635  0.33253286  1
  I  I104  1  0.83583085  0.50021065  0.66544001  1
  I  I105  1  0.83029736  0.83343964  -0.00338273  1
  I  I106  1  0.83099481  0.83250410  0.33320301  1
  I  I107  1  0.83048471  0.83281938  0.66969721  1
  I  I108  1  0.00402249  0.16125441  0.17327707  1
  I  I109  1  0.00315591  0.16340044  0.49749182  1
  I  I110  1  -0.00231089  0.16020269  0.83074543  1
  I  I111  1  0.00160335  0.50309142  0.16626834  1
  I  I112  1  -0.00219864  0.50051282  0.50018317  1
  I  I113  1  0.00222925  0.50343291  0.83450132  1
  I  I114  1  0.00351891  0.83371915  0.16976083  1
  I  I115  1  0.00315815  0.83594255  0.49647114  1
  I  I116  1  -0.00195999  0.83386916  0.83298916  1
  I  I117  1  0.32915144  0.17290704  0.16633451  1
  I  I118  1  0.33216541  0.16342154  0.49756097  1
  I  I119  1  0.33343426  0.16704822  0.83477785  1
  I  I120  1  0.32955214  0.49937217  0.16256544  1
  I  I121  1  0.33337857  0.50042721  0.50081894  1
  I  I122  1  0.32867565  0.50056807  0.83976673  1
  I  I123  1  0.33208993  0.83061383  0.16513118  1
  I  I124  1  0.33306865  0.83533424  0.50233250  1
  I  I125  1  0.33577511  0.83018310  0.83299833  1
  I  I126  1  0.66655491  0.16733247  0.16738324  1
  I  I127  1  0.66415157  0.16195661  0.50227909  1
  I  I128  1  0.66997691  0.16763981  0.83151410  1
  I  I129  1  0.66931117  0.50268222  0.17048762  1
  I  I130  1  0.67069308  0.50073843  0.49622836  1
  I  I131  1  0.66649167  0.49880679  0.83297284  1
  I  I132  1  0.66407414  0.83064822  0.16900605  1
  I  I133  1  0.66369843  0.83640496  0.49770238  1
  I  I134  1  0.66622323  0.83558298  0.83245804  1
