# generated using pymatgen
data_Cs27Sn13Pb14I81
_symmetry_space_group_name_H-M   'P 1'
_cell_length_a   18.98203920
_cell_length_b   18.97477861
_cell_length_c   18.97477928
_cell_angle_alpha   89.99900438
_cell_angle_beta   89.99985989
_cell_angle_gamma   90.00034217
_symmetry_Int_Tables_number   1
_chemical_formula_structural   Cs27Sn13Pb14I81
_chemical_formula_sum   'Cs27 Sn13 Pb14 I81'
_cell_volume   6834.33583757
_cell_formula_units_Z   1
loop_
 _symmetry_equiv_pos_site_id
 _symmetry_equiv_pos_as_xyz
  1  'x, y, z'
loop_
 _atom_site_type_symbol
 _atom_site_label
 _atom_site_symmetry_multiplicity
 _atom_site_fract_x
 _atom_site_fract_y
 _atom_site_fract_z
 _atom_site_occupancy
  Cs  Cs0  1  0.00080681  0.00023493  -0.00092723  1
  Cs  Cs1  1  -0.00160005  -0.00295908  0.33622931  1
  Cs  Cs2  1  0.00042039  -0.00038884  0.66476924  1
  Cs  Cs3  1  -0.00029599  0.33668836  0.00202156  1
  Cs  Cs4  1  0.00002047  0.33324061  0.33133026  1
  Cs  Cs5  1  -0.00162780  0.33348164  0.66596819  1
  Cs  Cs6  1  -0.00200682  0.66344316  0.00387291  1
  Cs  Cs7  1  -0.00520665  0.67413480  0.32364222  1
  Cs  Cs8  1  0.00029565  0.66712609  0.66820626  1
  Cs  Cs9  1  0.33529389  0.00104982  -0.00119983  1
  Cs  Cs10  1  0.33351080  -0.00109999  0.33336639  1
  Cs  Cs11  1  0.33144494  0.00082134  0.66842651  1
  Cs  Cs12  1  0.33396121  0.33289900  0.00070386  1
  Cs  Cs13  1  0.33362875  0.33260681  0.33375412  1
  Cs  Cs14  1  0.33310118  0.33388544  0.66597509  1
  Cs  Cs15  1  0.33330455  0.66493549  -0.00058062  1
  Cs  Cs16  1  0.33500628  0.67414963  0.33463937  1
  Cs  Cs17  1  0.33387466  0.66467228  0.66703493  1
  Cs  Cs18  1  0.66452028  0.00104389  -0.00101639  1
  Cs  Cs19  1  0.66763624  -0.00447722  0.33275078  1
  Cs  Cs20  1  0.67209414  0.00369191  0.66894508  1
  Cs  Cs21  1  0.66526152  0.33218719  -0.00165330  1
  Cs  Cs22  1  0.66493698  0.33421884  0.33614560  1
  Cs  Cs23  1  0.67445817  0.33370582  0.66498443  1
  Cs  Cs24  1  0.66742657  0.66732971  0.00066654  1
  Cs  Cs25  1  0.66945623  0.67230363  0.34142954  1
  Cs  Cs26  1  0.66546488  0.66248469  0.66120899  1
  Sn  Sn27  1  0.16662443  0.83286277  0.83354148  1
  Sn  Sn28  1  0.50025499  0.83229833  0.83328515  1
  Sn  Sn29  1  0.16765970  0.16768018  0.49995860  1
  Sn  Sn30  1  0.83303093  0.16702531  0.16645747  1
  Sn  Sn31  1  0.49935689  0.50036932  0.83400608  1
  Sn  Sn32  1  0.49928308  0.16670708  0.49951246  1
  Sn  Sn33  1  0.16675309  0.16724080  0.83324853  1
  Sn  Sn34  1  0.49991158  0.49973622  0.16665984  1
  Sn  Sn35  1  0.50008021  0.16751688  0.16768614  1
  Sn  Sn36  1  0.16661980  0.16671137  0.16689463  1
  Sn  Sn37  1  0.83318859  0.83306356  0.83336783  1
  Sn  Sn38  1  0.16748522  0.49975893  0.83268999  1
  Sn  Sn39  1  0.16659433  0.49978432  0.49981012  1
  Pb  Pb40  1  0.82967115  0.49791195  0.16669269  1
  Pb  Pb41  1  0.16691607  0.83597794  0.16400320  1
  Pb  Pb42  1  0.16867119  0.49837590  0.16713587  1
  Pb  Pb43  1  0.16672298  0.83303044  0.50209609  1
  Pb  Pb44  1  0.49980141  0.83661022  0.50341278  1
  Pb  Pb45  1  0.83384089  0.16675823  0.49744019  1
  Pb  Pb46  1  0.83663604  0.16514367  0.83539937  1
  Pb  Pb47  1  0.83738340  0.49992076  0.49968837  1
  Pb  Pb48  1  0.83332888  0.50216551  0.83339631  1
  Pb  Pb49  1  0.49862885  0.16738777  0.83295811  1
  Pb  Pb50  1  0.49999891  0.83321595  0.16472640  1
  Pb  Pb51  1  0.49810133  0.49809510  0.50005110  1
  Pb  Pb52  1  0.83304674  0.83567317  0.16430802  1
  Pb  Pb53  1  0.83346776  0.83338531  0.50272949  1
  I  I54  1  0.16981985  0.00507227  0.16666451  1
  I  I55  1  0.16949920  0.00360628  0.50079982  1
  I  I56  1  0.16723310  0.00041829  0.83436028  1
  I  I57  1  0.16567451  0.32951983  0.16119511  1
  I  I58  1  0.17062599  0.33176661  0.50598385  1
  I  I59  1  0.17219325  0.33331868  0.83313740  1
  I  I60  1  0.16809951  0.66647209  0.16678255  1
  I  I61  1  0.16792601  0.66344127  0.50734482  1
  I  I62  1  0.16794334  0.66610674  0.82776314  1
  I  I63  1  0.49923704  0.00372734  0.16812532  1
  I  I64  1  0.49286207  0.00465474  0.49441883  1
  I  I65  1  0.49816523  -0.00184587  0.83343486  1
  I  I66  1  0.49912662  0.33187229  0.16266993  1
  I  I67  1  0.49640797  0.32995533  0.50046334  1
  I  I68  1  0.49375217  0.33601809  0.83532495  1
  I  I69  1  0.49776062  0.66359434  0.16206125  1
  I  I70  1  0.49864356  0.66654723  0.49743054  1
  I  I71  1  0.49458520  0.66602468  0.83913423  1
  I  I72  1  0.83180399  0.00395088  0.16556248  1
  I  I73  1  0.83541917  0.00043445  0.50060592  1
  I  I74  1  0.83180180  -0.00289042  0.83476321  1
  I  I75  1  0.83735050  0.32950790  0.16462814  1
  I  I76  1  0.83114244  0.33294366  0.50248767  1
  I  I77  1  0.83294882  0.33329859  0.83386192  1
  I  I78  1  0.83369571  0.66674942  0.16554917  1
  I  I79  1  0.83300675  0.66663223  0.49990614  1
  I  I80  1  0.83866344  0.67015714  0.83454014  1
  I  I81  1  0.16729135  0.16523743  -0.00021957  1
  I  I82  1  0.16767909  0.17244522  0.33343857  1
  I  I83  1  0.17202229  0.16599840  0.66696449  1
  I  I84  1  0.16862510  0.49937157  -0.00314472  1
  I  I85  1  0.16841389  0.49153343  0.33597085  1
  I  I86  1  0.17228990  0.49530244  0.66857783  1
  I  I87  1  0.16735746  0.83349640  -0.00484803  1
  I  I88  1  0.16599623  0.83329242  0.33330778  1
  I  I89  1  0.16709357  0.83910446  0.67105621  1
  I  I90  1  0.49860849  0.16655854  0.00242029  1
  I  I91  1  0.49491633  0.17249845  0.33208603  1
  I  I92  1  0.49355595  0.16509421  0.66448647  1
  I  I93  1  0.49420048  0.49741580  -0.00114440  1
  I  I94  1  0.49824000  0.49403517  0.33083281  1
  I  I95  1  0.49686041  0.50341622  0.66973211  1
  I  I96  1  0.49832336  0.83590417  -0.00391499  1
  I  I97  1  0.50051704  0.83122816  0.33355122  1
  I  I98  1  0.49791548  0.82838433  0.67162841  1
  I  I99  1  0.83168142  0.16535461  0.00318346  1
  I  I100  1  0.83771314  0.16657526  0.32957643  1
  I  I101  1  0.83239965  0.16477502  0.66676923  1
  I  I102  1  0.83823160  0.49952754  -0.00005937  1
  I  I103  1  0.83355569  0.49918265  0.33313211  1
  I  I104  1  0.82853759  0.49920963  0.66687198  1
  I  I105  1  0.83454743  0.83457803  -0.00381104  1
  I  I106  1  0.83382067  0.83410622  0.33306127  1
  I  I107  1  0.83476902  0.83604745  0.67125309  1
  I  I108  1  0.00138228  0.16525725  0.16470801  1
  I  I109  1  0.00388072  0.16948738  0.50088539  1
  I  I110  1  0.00517565  0.16669289  0.83254406  1
  I  I111  1  0.00023957  0.49794004  0.16556590  1
  I  I112  1  0.00566423  0.49097426  0.50914354  1
  I  I113  1  0.00371218  0.49953199  0.82961512  1
  I  I114  1  0.00013427  0.83471813  0.16363500  1
  I  I115  1  0.00041788  0.83635566  0.50331342  1
  I  I116  1  0.00135373  0.83597157  0.83304695  1
  I  I117  1  0.33330329  0.16991154  0.16628536  1
  I  I118  1  0.33198956  0.16946206  0.49617693  1
  I  I119  1  0.33020917  0.16252031  0.83697079  1
  I  I120  1  0.33646577  0.49238073  0.16279982  1
  I  I121  1  0.33009139  0.49594371  0.50371851  1
  I  I122  1  0.33255247  0.50403011  0.83382168  1
  I  I123  1  0.33341526  0.83670113  0.16363261  1
  I  I124  1  0.33328189  0.83313421  0.50227985  1
  I  I125  1  0.33277041  0.83373303  0.83367761  1
  I  I126  1  0.66518147  0.16998021  0.16989981  1
  I  I127  1  0.66373353  0.16617616  0.49678646  1
  I  I128  1  0.66665697  0.16532693  0.83339471  1
  I  I129  1  0.66161516  0.49301716  0.15816887  1
  I  I130  1  0.66631204  0.49770884  0.50153584  1
  I  I131  1  0.66317656  0.50352292  0.83767798  1
  I  I132  1  0.66639276  0.83720604  0.16163954  1
  I  I133  1  0.66636554  0.83539599  0.50256681  1
  I  I134  1  0.66573002  0.83037545  0.83490131  1
