# generated using pymatgen
data_Cs27Sn13Pb14I81
_symmetry_space_group_name_H-M   'P 1'
_cell_length_a   18.97717924
_cell_length_b   18.97709379
_cell_length_c   18.97568302
_cell_angle_alpha   90.00124040
_cell_angle_beta   90.00150292
_cell_angle_gamma   89.99886711
_symmetry_Int_Tables_number   1
_chemical_formula_structural   Cs27Sn13Pb14I81
_chemical_formula_sum   'Cs27 Sn13 Pb14 I81'
_cell_volume   6833.74517490
_cell_formula_units_Z   1
loop_
 _symmetry_equiv_pos_site_id
 _symmetry_equiv_pos_as_xyz
  1  'x, y, z'
loop_
 _atom_site_type_symbol
 _atom_site_label
 _atom_site_symmetry_multiplicity
 _atom_site_fract_x
 _atom_site_fract_y
 _atom_site_fract_z
 _atom_site_occupancy
  Cs  Cs0  1  -0.00184067  -0.00041334  -0.00113284  1
  Cs  Cs1  1  -0.00224098  -0.00346796  0.33550630  1
  Cs  Cs2  1  0.00218437  0.00281393  0.66705957  1
  Cs  Cs3  1  -0.00066237  0.33230815  -0.00019101  1
  Cs  Cs4  1  0.00925325  0.33445108  0.34074668  1
  Cs  Cs5  1  0.00062425  0.33550023  0.65922276  1
  Cs  Cs6  1  -0.00263865  0.66787494  0.00189985  1
  Cs  Cs7  1  0.00340867  0.66764325  0.33361216  1
  Cs  Cs8  1  -0.00292019  0.66258936  0.66370265  1
  Cs  Cs9  1  0.33023718  0.00139110  -0.00347935  1
  Cs  Cs10  1  0.33524607  0.00620117  0.33379717  1
  Cs  Cs11  1  0.33241068  -0.00232829  0.66966244  1
  Cs  Cs12  1  0.33302888  0.33239906  0.00062372  1
  Cs  Cs13  1  0.32857192  0.32890939  0.33404328  1
  Cs  Cs14  1  0.33197923  0.33315920  0.66786275  1
  Cs  Cs15  1  0.33410979  0.66680229  -0.00113119  1
  Cs  Cs16  1  0.33085862  0.66484682  0.33252166  1
  Cs  Cs17  1  0.33644462  0.66903689  0.67000886  1
  Cs  Cs18  1  0.66927363  0.00133707  0.00078474  1
  Cs  Cs19  1  0.66564365  0.00156453  0.33787198  1
  Cs  Cs20  1  0.66482470  -0.00117791  0.66000301  1
  Cs  Cs21  1  0.66678558  0.33357981  -0.00149178  1
  Cs  Cs22  1  0.66391516  0.32943309  0.33286152  1
  Cs  Cs23  1  0.66870773  0.33563596  0.66966371  1
  Cs  Cs24  1  0.66688946  0.66595888  0.00098652  1
  Cs  Cs25  1  0.66660795  0.66862614  0.32994604  1
  Cs  Cs26  1  0.66582582  0.66590008  0.66377496  1
  Sn  Sn27  1  0.83292441  0.83348957  0.16596369  1
  Sn  Sn28  1  0.49929180  0.49931683  0.83351196  1
  Sn  Sn29  1  0.83349890  0.16693523  0.16639513  1
  Sn  Sn30  1  0.50019539  0.49998063  0.49944307  1
  Sn  Sn31  1  0.16699667  0.83341528  0.16717222  1
  Sn  Sn32  1  0.50051293  0.50029353  0.16705379  1
  Sn  Sn33  1  0.49989368  0.83324804  0.16623285  1
  Sn  Sn34  1  0.50097240  0.16700859  0.83370838  1
  Sn  Sn35  1  0.16705176  0.83332103  0.49956971  1
  Sn  Sn36  1  0.83223526  0.16581639  0.83387031  1
  Sn  Sn37  1  0.83293887  0.83400125  0.83360573  1
  Sn  Sn38  1  0.83308194  0.49940847  0.16677229  1
  Sn  Sn39  1  0.16701126  0.50012278  0.83392501  1
  Pb  Pb40  1  0.83083132  0.50008154  0.49599858  1
  Pb  Pb41  1  0.83491964  0.83317644  0.49976189  1
  Pb  Pb42  1  0.16937719  0.50208037  0.50247130  1
  Pb  Pb43  1  0.83321460  0.16678259  0.50022881  1
  Pb  Pb44  1  0.16697233  0.50162411  0.16510838  1
  Pb  Pb45  1  0.16589261  0.16917441  0.83347415  1
  Pb  Pb46  1  0.49783102  0.83145335  0.49701715  1
  Pb  Pb47  1  0.16399828  0.83134472  0.83364802  1
  Pb  Pb48  1  0.83292612  0.49982210  0.83491485  1
  Pb  Pb49  1  0.50008255  0.16928133  0.50334872  1
  Pb  Pb50  1  0.50233951  0.83325425  0.83528935  1
  Pb  Pb51  1  0.50165302  0.16682703  0.16475655  1
  Pb  Pb52  1  0.16692070  0.16366673  0.50012732  1
  Pb  Pb53  1  0.16344239  0.16353170  0.16646867  1
  I  I54  1  0.16842441  -0.00490887  0.16880337  1
  I  I55  1  0.16611082  -0.00436820  0.49601872  1
  I  I56  1  0.16900807  -0.00026289  0.83278049  1
  I  I57  1  0.16622625  0.33337901  0.16535632  1
  I  I58  1  0.16636049  0.33376448  0.50136029  1
  I  I59  1  0.16733980  0.33707875  0.83412675  1
  I  I60  1  0.16190204  0.66981281  0.16867961  1
  I  I61  1  0.16579693  0.66953601  0.49466680  1
  I  I62  1  0.17260197  0.66380459  0.83427859  1
  I  I63  1  0.50065630  -0.00276950  0.16466930  1
  I  I64  1  0.49886212  -0.00012565  0.49990331  1
  I  I65  1  0.50232063  0.00226941  0.83632827  1
  I  I66  1  0.50542803  0.33664863  0.16702821  1
  I  I67  1  0.49968207  0.33745845  0.49369683  1
  I  I68  1  0.50224738  0.33463645  0.83530634  1
  I  I69  1  0.50484104  0.66592784  0.16438989  1
  I  I70  1  0.49991383  0.66349515  0.50577084  1
  I  I71  1  0.49770165  0.66366627  0.83273462  1
  I  I72  1  0.83426828  -0.00097199  0.16158333  1
  I  I73  1  0.83351615  -0.00014304  0.49640877  1
  I  I74  1  0.82954657  0.00012962  0.84262386  1
  I  I75  1  0.82625186  0.33365237  0.16060201  1
  I  I76  1  0.83426163  0.33355833  0.50144547  1
  I  I77  1  0.83160261  0.33091594  0.83893521  1
  I  I78  1  0.83218832  0.66747601  0.16228142  1
  I  I79  1  0.83367068  0.66660012  0.50260309  1
  I  I80  1  0.83435562  0.66873736  0.83865697  1
  I  I81  1  0.16852707  0.16438082  -0.00006340  1
  I  I82  1  0.16578702  0.17050566  0.33302412  1
  I  I83  1  0.16463581  0.16454384  0.66709504  1
  I  I84  1  0.17237247  0.50281820  -0.00258042  1
  I  I85  1  0.16640996  0.49994166  0.33327307  1
  I  I86  1  0.17010721  0.50241324  0.67027951  1
  I  I87  1  0.16698332  0.83137232  0.00293767  1
  I  I88  1  0.16347480  0.83091185  0.33147444  1
  I  I89  1  0.16505421  0.83105739  0.66477082  1
  I  I90  1  0.50244394  0.17265735  -0.00312329  1
  I  I91  1  0.50164934  0.16686008  0.33308723  1
  I  I92  1  0.50663760  0.17100309  0.67154473  1
  I  I93  1  0.50047519  0.50069956  0.00031267  1
  I  I94  1  0.50592795  0.50657582  0.33176124  1
  I  I95  1  0.49495912  0.49565963  0.66796611  1
  I  I96  1  0.49656327  0.82697527  0.00353666  1
  I  I97  1  0.50610346  0.82823451  0.32865830  1
  I  I98  1  0.49974097  0.83224726  0.66684207  1
  I  I99  1  0.82948996  0.16508795  0.00003714  1
  I  I100  1  0.83250549  0.16435766  0.32970076  1
  I  I101  1  0.82970915  0.16164067  0.67062665  1
  I  I102  1  0.82820945  0.50181487  0.00306252  1
  I  I103  1  0.82935839  0.50250752  0.32771005  1
  I  I104  1  0.83345896  0.50045644  0.66677344  1
  I  I105  1  0.83564366  0.83358900  0.00172505  1
  I  I106  1  0.83177074  0.83351907  0.32927077  1
  I  I107  1  0.83514461  0.83769531  0.66971642  1
  I  I108  1  -0.00499870  0.16781892  0.15866824  1
  I  I109  1  -0.00003264  0.16813552  0.50191659  1
  I  I110  1  -0.00372602  0.16306860  0.83829557  1
  I  I111  1  -0.00269763  0.50188327  0.16219585  1
  I  I112  1  0.00032033  0.50032504  0.50145940  1
  I  I113  1  0.00149710  0.50190818  0.83639122  1
  I  I114  1  -0.00116435  0.83290267  0.16658251  1
  I  I115  1  0.00272400  0.83171889  0.49390006  1
  I  I116  1  -0.00372863  0.83697497  0.83973940  1
  I  I117  1  0.33340870  0.16638911  0.16523770  1
  I  I118  1  0.33368961  0.16686666  0.50064522  1
  I  I119  1  0.33614326  0.16943681  0.83317515  1
  I  I120  1  0.33679309  0.50560905  0.16666993  1
  I  I121  1  0.33702698  0.50149708  0.49493621  1
  I  I122  1  0.33550005  0.49623386  0.83555464  1
  I  I123  1  0.33385607  0.82625548  0.17032645  1
  I  I124  1  0.33012193  0.83128794  0.49581148  1
  I  I125  1  0.33345764  0.83508221  0.83461964  1
  I  I126  1  0.66988089  0.16287491  0.16382091  1
  I  I127  1  0.66650925  0.16521278  0.49797718  1
  I  I128  1  0.66716171  0.16992737  0.83817220  1
  I  I129  1  0.66599780  0.50555875  0.16405342  1
  I  I130  1  0.66296607  0.50136446  0.50694661  1
  I  I131  1  0.66369203  0.49893180  0.83271532  1
  I  I132  1  0.66734063  0.83080956  0.16130636  1
  I  I133  1  0.66631973  0.83254895  0.49962947  1
  I  I134  1  0.67017750  0.83182050  0.84022121  1
