# generated using pymatgen
data_Cs27Sn13Pb14I81
_symmetry_space_group_name_H-M   'P 1'
_cell_length_a   18.98216195
_cell_length_b   18.97353280
_cell_length_c   18.97463845
_cell_angle_alpha   89.99913772
_cell_angle_beta   89.99926630
_cell_angle_gamma   90.00151643
_symmetry_Int_Tables_number   1
_chemical_formula_structural   Cs27Sn13Pb14I81
_chemical_formula_sum   'Cs27 Sn13 Pb14 I81'
_cell_volume   6833.88058977
_cell_formula_units_Z   1
loop_
 _symmetry_equiv_pos_site_id
 _symmetry_equiv_pos_as_xyz
  1  'x, y, z'
loop_
 _atom_site_type_symbol
 _atom_site_label
 _atom_site_symmetry_multiplicity
 _atom_site_fract_x
 _atom_site_fract_y
 _atom_site_fract_z
 _atom_site_occupancy
  Cs  Cs0  1  0.00045816  -0.00158556  -0.00740913  1
  Cs  Cs1  1  0.00049847  -0.00020084  0.33306591  1
  Cs  Cs2  1  0.00226642  0.00086643  0.67319582  1
  Cs  Cs3  1  -0.00086570  0.33248503  0.00010555  1
  Cs  Cs4  1  0.00043947  0.33448354  0.33381873  1
  Cs  Cs5  1  -0.00094631  0.33291080  0.66603183  1
  Cs  Cs6  1  -0.00208392  0.66921319  -0.00109748  1
  Cs  Cs7  1  -0.00098025  0.66640097  0.33493673  1
  Cs  Cs8  1  -0.00016388  0.66530667  0.66613472  1
  Cs  Cs9  1  0.33222288  -0.00091096  0.00177260  1
  Cs  Cs10  1  0.33217478  0.00029763  0.33300347  1
  Cs  Cs11  1  0.33310212  -0.00071527  0.66584754  1
  Cs  Cs12  1  0.33306011  0.33324200  0.00703550  1
  Cs  Cs13  1  0.33163963  0.33783590  0.32474322  1
  Cs  Cs14  1  0.33433888  0.33355016  0.66673489  1
  Cs  Cs15  1  0.33379495  0.66765969  -0.00095979  1
  Cs  Cs16  1  0.33266220  0.66365559  0.33375742  1
  Cs  Cs17  1  0.33471346  0.66661005  0.66709115  1
  Cs  Cs18  1  0.66785838  -0.00141579  0.00068982  1
  Cs  Cs19  1  0.66769029  -0.00085439  0.33372050  1
  Cs  Cs20  1  0.66574295  0.00205207  0.66553953  1
  Cs  Cs21  1  0.66695829  0.33441442  0.00002104  1
  Cs  Cs22  1  0.66721540  0.33237795  0.33088168  1
  Cs  Cs23  1  0.66720386  0.33171735  0.66783577  1
  Cs  Cs24  1  0.66696754  0.66611232  0.00018077  1
  Cs  Cs25  1  0.66745671  0.66891452  0.34203374  1
  Cs  Cs26  1  0.66484883  0.66670666  0.65940466  1
  Sn  Sn27  1  0.49997060  0.49984333  0.83353513  1
  Sn  Sn28  1  0.16676059  0.83393227  0.49930989  1
  Sn  Sn29  1  0.49933794  0.16694231  0.49993306  1
  Sn  Sn30  1  0.83349773  0.16695897  0.16698025  1
  Sn  Sn31  1  0.50011808  0.83338201  0.83396171  1
  Sn  Sn32  1  0.83305103  0.49964990  0.16626934  1
  Sn  Sn33  1  0.16722369  0.83345237  0.16725981  1
  Sn  Sn34  1  0.16683762  0.49965964  0.83351683  1
  Sn  Sn35  1  0.49952735  0.83323991  0.16646034  1
  Sn  Sn36  1  0.16703072  0.16629884  0.49982448  1
  Sn  Sn37  1  0.83361460  0.16655748  0.49930946  1
  Sn  Sn38  1  0.49976857  0.16678834  0.83327984  1
  Sn  Sn39  1  0.83308833  0.49996012  0.83395253  1
  Pb  Pb40  1  0.49803041  0.83545799  0.49989459  1
  Pb  Pb41  1  0.83327240  0.49765105  0.49988606  1
  Pb  Pb42  1  0.83025364  0.83046738  0.83302907  1
  Pb  Pb43  1  0.50172400  0.16476947  0.16667619  1
  Pb  Pb44  1  0.16678671  0.49980198  0.50176117  1
  Pb  Pb45  1  0.16423736  0.50256344  0.16435899  1
  Pb  Pb46  1  0.50232594  0.50272796  0.16470561  1
  Pb  Pb47  1  0.83638621  0.83646539  0.50026960  1
  Pb  Pb48  1  0.83136362  0.16837705  0.83343344  1
  Pb  Pb49  1  0.16938538  0.16887096  0.83145044  1
  Pb  Pb50  1  0.16874244  0.83157967  0.83313171  1
  Pb  Pb51  1  0.49983903  0.49695860  0.50193920  1
  Pb  Pb52  1  0.16407338  0.16461084  0.16863048  1
  Pb  Pb53  1  0.83335081  0.83324757  0.16669035  1
  I  I54  1  0.16880883  -0.00331231  0.16704376  1
  I  I55  1  0.16677177  0.00061565  0.49687395  1
  I  I56  1  0.16776069  0.00001312  0.83445082  1
  I  I57  1  0.16747660  0.33341583  0.16730682  1
  I  I58  1  0.16570501  0.32992954  0.50377171  1
  I  I59  1  0.16789943  0.33678248  0.83104019  1
  I  I60  1  0.16933227  0.67034807  0.17301952  1
  I  I61  1  0.16765395  0.66958563  0.49765088  1
  I  I62  1  0.16825149  0.66364022  0.83162649  1
  I  I63  1  0.49888637  -0.00302104  0.16063138  1
  I  I64  1  0.50249503  0.00346422  0.50637908  1
  I  I65  1  0.49978341  0.00015104  0.83239146  1
  I  I66  1  0.49984427  0.33333504  0.16620738  1
  I  I67  1  0.49854016  0.32853513  0.50576170  1
  I  I68  1  0.50121585  0.33352882  0.82669020  1
  I  I69  1  0.49774878  0.67056338  0.16080542  1
  I  I70  1  0.49880105  0.66695164  0.50116397  1
  I  I71  1  0.49965336  0.66644552  0.83909885  1
  I  I72  1  0.83204956  0.00268373  0.17247767  1
  I  I73  1  0.82940906  0.00463124  0.49352297  1
  I  I74  1  0.83216821  0.00025002  0.83398980  1
  I  I75  1  0.83236939  0.33312999  0.16648725  1
  I  I76  1  0.83558086  0.32938974  0.49983665  1
  I  I77  1  0.83067038  0.33646360  0.83394511  1
  I  I78  1  0.83379254  0.66397694  0.15962542  1
  I  I79  1  0.83434865  0.66665984  0.49964108  1
  I  I80  1  0.83284299  0.66213918  0.84068831  1
  I  I81  1  0.16609251  0.16569673  -0.00000558  1
  I  I82  1  0.17165606  0.16568014  0.33705755  1
  I  I83  1  0.16163924  0.16035978  0.66314304  1
  I  I84  1  0.16983029  0.50156707  -0.00360717  1
  I  I85  1  0.16457432  0.49878287  0.33301085  1
  I  I86  1  0.16478814  0.50186112  0.67012199  1
  I  I87  1  0.16868729  0.83063360  0.00220936  1
  I  I88  1  0.17219278  0.83754596  0.33325149  1
  I  I89  1  0.16763908  0.83660498  0.66419768  1
  I  I90  1  0.50278624  0.16853569  -0.00279645  1
  I  I91  1  0.49973068  0.16300242  0.33600753  1
  I  I92  1  0.50245709  0.16530243  0.66692014  1
  I  I93  1  0.49829763  0.49480166  -0.00398078  1
  I  I94  1  0.50167927  0.50044459  0.33297133  1
  I  I95  1  0.50316893  0.50560371  0.67108285  1
  I  I96  1  0.49438144  0.83502285  -0.00069088  1
  I  I97  1  0.49884544  0.83610885  0.33091309  1
  I  I98  1  0.49889272  0.83103745  0.66944076  1
  I  I99  1  0.83064332  0.16887676  0.00233076  1
  I  I100  1  0.83102714  0.17237096  0.33370008  1
  I  I101  1  0.83420414  0.16777735  0.66405545  1
  I  I102  1  0.83268010  0.49368851  -0.00055048  1
  I  I103  1  0.83408873  0.49797903  0.33049864  1
  I  I104  1  0.83256994  0.49912702  0.66983656  1
  I  I105  1  0.83791891  0.83862115  -0.00002388  1
  I  I106  1  0.82815542  0.82855192  0.33332822  1
  I  I107  1  0.83351012  0.83290122  0.66667924  1
  I  I108  1  -0.00380654  0.16915363  0.17157186  1
  I  I109  1  0.00004735  0.16345179  0.49495891  1
  I  I110  1  0.00003096  0.16839258  0.83221614  1
  I  I111  1  -0.00347756  0.49752217  0.16053310  1
  I  I112  1  -0.00002431  0.49837250  0.50411733  1
  I  I113  1  -0.00057408  0.49981648  0.83648331  1
  I  I114  1  0.00270025  0.83268077  0.17179924  1
  I  I115  1  0.00432550  0.83701528  0.49381400  1
  I  I116  1  0.00025125  0.83179527  0.83405966  1
  I  I117  1  0.33329979  0.16709747  0.16716212  1
  I  I118  1  0.33337885  0.16167740  0.50739355  1
  I  I119  1  0.33755067  0.16815698  0.82802354  1
  I  I120  1  0.33334379  0.49894926  0.16511431  1
  I  I121  1  0.33331328  0.49765727  0.50298753  1
  I  I122  1  0.33444964  0.50094980  0.83017302  1
  I  I123  1  0.33356251  0.83454663  0.16566416  1
  I  I124  1  0.33040427  0.83984734  0.49978695  1
  I  I125  1  0.33679941  0.83109557  0.83399259  1
  I  I126  1  0.66957472  0.16814261  0.17146407  1
  I  I127  1  0.66645787  0.16826850  0.50136828  1
  I  I128  1  0.66325695  0.16815578  0.82796314  1
  I  I129  1  0.67004480  0.49720343  0.16024776  1
  I  I130  1  0.66664303  0.49983312  0.50238979  1
  I  I131  1  0.66623948  0.49918841  0.83782842  1
  I  I132  1  0.66400618  0.83400246  0.16055899  1
  I  I133  1  0.66641283  0.83392834  0.49978346  1
  I  I134  1  0.66192024  0.83297212  0.83974978  1
