# generated using pymatgen
data_Cs27Sn14Pb13I81
_symmetry_space_group_name_H-M   'P 1'
_cell_length_a   18.97972949
_cell_length_b   18.97923153
_cell_length_c   18.96972159
_cell_angle_alpha   89.99986255
_cell_angle_beta   90.00314013
_cell_angle_gamma   89.99861952
_symmetry_Int_Tables_number   1
_chemical_formula_structural   Cs27Sn14Pb13I81
_chemical_formula_sum   'Cs27 Sn14 Pb13 I81'
_cell_volume   6833.28600289
_cell_formula_units_Z   1
loop_
 _symmetry_equiv_pos_site_id
 _symmetry_equiv_pos_as_xyz
  1  'x, y, z'
loop_
 _atom_site_type_symbol
 _atom_site_label
 _atom_site_symmetry_multiplicity
 _atom_site_fract_x
 _atom_site_fract_y
 _atom_site_fract_z
 _atom_site_occupancy
  Cs  Cs0  1  0.00181458  0.00239952  0.00187702  1
  Cs  Cs1  1  0.00054936  0.00356067  0.33006186  1
  Cs  Cs2  1  -0.00082311  -0.00446430  0.66818957  1
  Cs  Cs3  1  0.00447962  0.32970906  0.00072053  1
  Cs  Cs4  1  -0.00865021  0.33130489  0.33588422  1
  Cs  Cs5  1  -0.00221560  0.33626297  0.66510506  1
  Cs  Cs6  1  0.00130289  0.66755037  -0.00288909  1
  Cs  Cs7  1  0.00258416  0.66323581  0.33831170  1
  Cs  Cs8  1  0.00086334  0.66745760  0.66666649  1
  Cs  Cs9  1  0.33085831  0.00395435  0.00061817  1
  Cs  Cs10  1  0.33251734  0.00118988  0.33442018  1
  Cs  Cs11  1  0.33598055  0.00144423  0.66545010  1
  Cs  Cs12  1  0.33099622  0.33117133  0.00035231  1
  Cs  Cs13  1  0.33401526  0.33140886  0.33230449  1
  Cs  Cs14  1  0.33673683  0.33109040  0.66730393  1
  Cs  Cs15  1  0.33365677  0.66606095  0.00044604  1
  Cs  Cs16  1  0.33282652  0.66667691  0.33433535  1
  Cs  Cs17  1  0.33326627  0.66739314  0.66575682  1
  Cs  Cs18  1  0.66794025  -0.00428688  0.00058236  1
  Cs  Cs19  1  0.66844123  0.00119252  0.33238950  1
  Cs  Cs20  1  0.66499154  -0.00006551  0.66633084  1
  Cs  Cs21  1  0.66554432  0.33819640  0.00006219  1
  Cs  Cs22  1  0.67470465  0.33272163  0.33401879  1
  Cs  Cs23  1  0.66474602  0.33029069  0.66459992  1
  Cs  Cs24  1  0.66524814  0.66708218  0.00250248  1
  Cs  Cs25  1  0.66458798  0.66608405  0.32343638  1
  Cs  Cs26  1  0.66521670  0.66876492  0.66904046  1
  Sn  Sn27  1  0.83322261  0.16658549  0.83331075  1
  Sn  Sn28  1  0.16712733  0.83282476  0.83414140  1
  Sn  Sn29  1  0.50009722  0.50087184  0.50039505  1
  Sn  Sn30  1  0.16663252  0.50074001  0.16637720  1
  Sn  Sn31  1  0.83328898  0.50004963  0.83323293  1
  Sn  Sn32  1  0.50040509  0.16667186  0.16642690  1
  Sn  Sn33  1  0.16679216  0.83231707  0.16602319  1
  Sn  Sn34  1  0.49965611  0.83272240  0.83283033  1
  Sn  Sn35  1  0.50124343  0.83226760  0.50041686  1
  Sn  Sn36  1  0.16696412  0.50077858  0.83382642  1
  Sn  Sn37  1  0.49972175  0.50086646  0.83252058  1
  Sn  Sn38  1  0.16652174  0.16689485  0.50062354  1
  Sn  Sn39  1  0.83317897  0.83319374  0.83278752  1
  Sn  Sn40  1  0.83210416  0.83285345  0.50034420  1
  Pb  Pb41  1  0.16864051  0.49798475  0.50061172  1
  Pb  Pb42  1  0.16484358  0.16677031  0.83147165  1
  Pb  Pb43  1  0.83625837  0.83302545  0.16658146  1
  Pb  Pb44  1  0.83661715  0.50027685  0.16390038  1
  Pb  Pb45  1  0.49775061  0.83475226  0.16650030  1
  Pb  Pb46  1  0.83030691  0.50285781  0.50239160  1
  Pb  Pb47  1  0.16762625  0.16713794  0.16864584  1
  Pb  Pb48  1  0.83533646  0.16395591  0.50240119  1
  Pb  Pb49  1  0.49925008  0.16646540  0.49820549  1
  Pb  Pb50  1  0.16687570  0.83444319  0.50044439  1
  Pb  Pb51  1  0.50212469  0.16654458  0.83493391  1
  Pb  Pb52  1  0.49804477  0.49833156  0.16640353  1
  Pb  Pb53  1  0.83058268  0.16661614  0.16392000  1
  I  I54  1  0.16797873  -0.00251181  0.16283523  1
  I  I55  1  0.16876252  0.00177541  0.49996165  1
  I  I56  1  0.16651957  -0.00327042  0.83596086  1
  I  I57  1  0.16961785  0.33613760  0.16098097  1
  I  I58  1  0.16988598  0.33073610  0.50043444  1
  I  I59  1  0.16697540  0.33659147  0.83658115  1
  I  I60  1  0.16843294  0.66684648  0.16198977  1
  I  I61  1  0.16519353  0.66663722  0.49883103  1
  I  I62  1  0.16331760  0.66704074  0.83647333  1
  I  I63  1  0.49612226  0.00210293  0.16613364  1
  I  I64  1  0.50137269  -0.00330000  0.50433140  1
  I  I65  1  0.49956337  -0.00342572  0.83016398  1
  I  I66  1  0.49554331  0.33104112  0.16541905  1
  I  I67  1  0.49564841  0.33597775  0.50466477  1
  I  I68  1  0.49957016  0.33656640  0.83073962  1
  I  I69  1  0.50013603  0.66666618  0.16714355  1
  I  I70  1  0.50117682  0.66757791  0.50499507  1
  I  I71  1  0.50273860  0.66698776  0.83041552  1
  I  I72  1  0.83646883  -0.00024125  0.16366505  1
  I  I73  1  0.82745972  -0.00379106  0.50726003  1
  I  I74  1  0.83349510  -0.00177729  0.82963256  1
  I  I75  1  0.83563087  0.33344436  0.16529807  1
  I  I76  1  0.83329681  0.33356491  0.50142928  1
  I  I77  1  0.83373904  0.33441738  0.83513764  1
  I  I78  1  0.82864321  0.66671490  0.16496789  1
  I  I79  1  0.83583119  0.67056129  0.50735289  1
  I  I80  1  0.83448568  0.66726141  0.82945976  1
  I  I81  1  0.16618390  0.16628107  -0.00022244  1
  I  I82  1  0.16892034  0.16442729  0.33598869  1
  I  I83  1  0.16844417  0.16530253  0.66425436  1
  I  I84  1  0.16856325  0.50311187  -0.00192634  1
  I  I85  1  0.17086299  0.50399600  0.33107187  1
  I  I86  1  0.16445648  0.50429217  0.67038944  1
  I  I87  1  0.16679297  0.83081848  -0.00199551  1
  I  I88  1  0.16743128  0.83138145  0.33120351  1
  I  I89  1  0.16576435  0.82999897  0.67006648  1
  I  I90  1  0.49818295  0.16653019  0.00225777  1
  I  I91  1  0.49596442  0.16595272  0.33080692  1
  I  I92  1  0.49953020  0.16690021  0.66681091  1
  I  I93  1  0.50246770  0.50343155  -0.00369108  1
  I  I94  1  0.49612549  0.50377225  0.33589630  1
  I  I95  1  0.49711612  0.50296899  0.66843079  1
  I  I96  1  0.50314966  0.82989080  -0.00356204  1
  I  I97  1  0.50255514  0.83074494  0.33632309  1
  I  I98  1  0.49811734  0.83074010  0.66794269  1
  I  I99  1  0.83567394  0.16303198  -0.00420352  1
  I  I100  1  0.83437672  0.16507727  0.33358735  1
  I  I101  1  0.83253524  0.16864421  0.67027891  1
  I  I102  1  0.82652275  0.50411273  -0.00504149  1
  I  I103  1  0.83352391  0.50021572  0.33364029  1
  I  I104  1  0.84011054  0.49853698  0.67099722  1
  I  I105  1  0.83023431  0.83297803  -0.00404803  1
  I  I106  1  0.82939261  0.83489638  0.33632086  1
  I  I107  1  0.83541982  0.83360293  0.66884384  1
  I  I108  1  -0.00005616  0.16635936  0.16757584  1
  I  I109  1  0.00286282  0.16573519  0.49886792  1
  I  I110  1  -0.00298662  0.16560750  0.83239800  1
  I  I111  1  0.00469759  0.50330763  0.16196999  1
  I  I112  1  -0.00018155  0.49978044  0.49993759  1
  I  I113  1  0.00037606  0.50267535  0.83812535  1
  I  I114  1  0.00423947  0.83144815  0.16217330  1
  I  I115  1  -0.00193319  0.83637481  0.50438412  1
  I  I116  1  -0.00003332  0.83115492  0.83255557  1
  I  I117  1  0.33516149  0.16618003  0.16556080  1
  I  I118  1  0.33150786  0.16368694  0.50055626  1
  I  I119  1  0.33343405  0.16638565  0.83356109  1
  I  I120  1  0.33032292  0.50288697  0.16016957  1
  I  I121  1  0.33639350  0.50628757  0.50593576  1
  I  I122  1  0.33337412  0.50659722  0.83345909  1
  I  I123  1  0.33000062  0.83074695  0.16255027  1
  I  I124  1  0.33608263  0.83178416  0.50335152  1
  I  I125  1  0.33345741  0.82695494  0.83278864  1
  I  I126  1  0.66316229  0.16613626  0.16830202  1
  I  I127  1  0.66693545  0.16818450  0.49887836  1
  I  I128  1  0.66986779  0.16589441  0.83355520  1
  I  I129  1  0.66657496  0.49732526  0.16609325  1
  I  I130  1  0.66240526  0.49874090  0.50549974  1
  I  I131  1  0.66614956  0.50196422  0.82859448  1
  I  I132  1  0.66652144  0.83605531  0.16447488  1
  I  I133  1  0.66576771  0.83180314  0.50982523  1
  I  I134  1  0.66647718  0.83178611  0.82863114  1
