# generated using pymatgen
data_Cs27Sn13Pb14I81
_symmetry_space_group_name_H-M   'P 1'
_cell_length_a   18.97312446
_cell_length_b   18.97312449
_cell_length_c   18.98585166
_cell_angle_alpha   90.00102614
_cell_angle_beta   89.99897382
_cell_angle_gamma   89.99738966
_symmetry_Int_Tables_number   1
_chemical_formula_structural   Cs27Sn13Pb14I81
_chemical_formula_sum   'Cs27 Sn13 Pb14 I81'
_cell_volume   6834.51647188
_cell_formula_units_Z   1
loop_
 _symmetry_equiv_pos_site_id
 _symmetry_equiv_pos_as_xyz
  1  'x, y, z'
loop_
 _atom_site_type_symbol
 _atom_site_label
 _atom_site_symmetry_multiplicity
 _atom_site_fract_x
 _atom_site_fract_y
 _atom_site_fract_z
 _atom_site_occupancy
  Cs  Cs0  1  0.00315437  0.00327621  0.00243958  1
  Cs  Cs1  1  0.00014157  0.00027459  0.33081377  1
  Cs  Cs2  1  -0.00167511  -0.00033416  0.66585972  1
  Cs  Cs3  1  0.00084434  0.32978707  -0.00200285  1
  Cs  Cs4  1  -0.00048363  0.33369422  0.33488997  1
  Cs  Cs5  1  0.00014215  0.33427715  0.66555217  1
  Cs  Cs6  1  -0.00132431  0.66665366  -0.00081396  1
  Cs  Cs7  1  0.00037393  0.66704073  0.33333336  1
  Cs  Cs8  1  -0.00001307  0.66534223  0.66748055  1
  Cs  Cs9  1  0.33234994  0.00387978  -0.00039374  1
  Cs  Cs10  1  0.33221902  -0.00111441  0.33333325  1
  Cs  Cs11  1  0.33721339  -0.00098329  0.66706053  1
  Cs  Cs12  1  0.33327629  0.33157943  -0.00175066  1
  Cs  Cs13  1  0.33580651  0.33530750  0.33521699  1
  Cs  Cs14  1  0.33201283  0.33145263  0.66464582  1
  Cs  Cs15  1  0.33299918  0.66499134  0.00080694  1
  Cs  Cs16  1  0.33360789  0.66680832  0.33585306  1
  Cs  Cs17  1  0.33660954  0.66982098  0.66422689  1
  Cs  Cs18  1  0.66478621  -0.00132058  0.00202074  1
  Cs  Cs19  1  0.66864089  0.00247324  0.33144974  1
  Cs  Cs20  1  0.66491272  -0.00005705  0.66841757  1
  Cs  Cs21  1  0.66624252  0.33514384  -0.00844107  1
  Cs  Cs22  1  0.66501416  0.33168067  0.33333336  1
  Cs  Cs23  1  0.66847724  0.33290918  0.67510799  1
  Cs  Cs24  1  0.66761058  0.66680871  0.00111443  1
  Cs  Cs25  1  0.66702771  0.66618304  0.33177675  1
  Cs  Cs26  1  0.66312031  0.66751092  0.66866958  1
  Sn  Sn27  1  0.83443028  0.83315616  0.83357794  1
  Sn  Sn28  1  0.49950378  0.16684594  0.49918648  1
  Sn  Sn29  1  0.83350256  0.83238612  0.49976911  1
  Sn  Sn30  1  0.83427295  0.50039052  0.16737631  1
  Sn  Sn31  1  0.50020096  0.83391106  0.16708795  1
  Sn  Sn32  1  0.50017930  0.16617046  0.16748022  1
  Sn  Sn33  1  0.16592059  0.83258728  0.83333334  1
  Sn  Sn34  1  0.16724448  0.16686760  0.49957876  1
  Sn  Sn35  1  0.16603511  0.49969176  0.49987782  1
  Sn  Sn36  1  0.83302502  0.83270178  0.16678886  1
  Sn  Sn37  1  0.83372385  0.50093962  0.49929039  1
  Sn  Sn38  1  0.16571947  0.50016928  0.16689758  1
  Sn  Sn39  1  0.16648951  0.50109694  0.83308872  1
  Pb  Pb40  1  0.16481572  0.83305819  0.50184640  1
  Pb  Pb41  1  0.49655647  0.50036918  0.83312431  1
  Pb  Pb42  1  0.83521710  0.50188377  0.83333328  1
  Pb  Pb43  1  0.50084130  0.49794770  0.50009346  1
  Pb  Pb44  1  0.83128100  0.16750791  0.16657320  1
  Pb  Pb45  1  0.16652866  0.16648559  0.83063956  1
  Pb  Pb46  1  0.49981889  0.83319530  0.83602711  1
  Pb  Pb47  1  0.83319801  0.16727696  0.49991405  1
  Pb  Pb48  1  0.50293039  0.83546026  0.49753162  1
  Pb  Pb49  1  0.49984745  0.16651413  0.83333341  1
  Pb  Pb50  1  0.50061029  0.49986470  0.16675269  1
  Pb  Pb51  1  0.16879367  0.16959701  0.16913501  1
  Pb  Pb52  1  0.83370250  0.16322322  0.83354235  1
  Pb  Pb53  1  0.16639148  0.83148236  0.16482025  1
  I  I54  1  0.16471033  0.00002629  0.16607846  1
  I  I55  1  0.16889191  0.00221377  0.50226365  1
  I  I56  1  0.16250754  -0.00312757  0.83269632  1
  I  I57  1  0.16179367  0.33778558  0.16166735  1
  I  I58  1  0.16504367  0.33492123  0.50168073  1
  I  I59  1  0.16739958  0.33665201  0.83528275  1
  I  I60  1  0.16772970  0.66324980  0.17163828  1
  I  I61  1  0.16386422  0.66342087  0.49857929  1
  I  I62  1  0.16224382  0.66602897  0.83169129  1
  I  I63  1  0.50614172  -0.00068433  0.17004533  1
  I  I64  1  0.49418176  0.00330499  0.49829044  1
  I  I65  1  0.49837335  -0.00030744  0.83151130  1
  I  I66  1  0.49845248  0.33069763  0.17162841  1
  I  I67  1  0.49939006  0.32996961  0.49210499  1
  I  I68  1  0.50003313  0.33328357  0.83640634  1
  I  I69  1  0.50220259  0.66923704  0.16485807  1
  I  I70  1  0.49697054  0.66687058  0.49873188  1
  I  I71  1  0.50134755  0.66708300  0.83502518  1
  I  I72  1  0.83078375  -0.00331410  0.16729706  1
  I  I73  1  0.83335168  -0.00297020  0.49995106  1
  I  I74  1  0.83958623  -0.00551505  0.83250086  1
  I  I75  1  0.83653304  0.33718704  0.17304778  1
  I  I76  1  0.83509807  0.33691136  0.49423200  1
  I  I77  1  0.83339481  0.33385026  0.83304681  1
  I  I78  1  0.83103295  0.66727026  0.16733181  1
  I  I79  1  0.83973285  0.66623917  0.49854344  1
  I  I80  1  0.83579605  0.66997591  0.83385741  1
  I  I81  1  0.16848930  0.16777067  0.00018899  1
  I  I82  1  0.16770657  0.17098670  0.33696239  1
  I  I83  1  0.17233256  0.17221266  0.66275570  1
  I  I84  1  0.16371285  0.50565738  0.00028131  1
  I  I85  1  0.16285195  0.49546043  0.33382969  1
  I  I86  1  0.16241997  0.49881634  0.66572797  1
  I  I87  1  0.16200352  0.82782918  -0.00302810  1
  I  I88  1  0.16623852  0.83290513  0.33333333  1
  I  I89  1  0.16116193  0.82866980  0.66969474  1
  I  I90  1  0.50095451  0.16244843  0.00330509  1
  I  I91  1  0.49632215  0.16298906  0.33333333  1
  I  I92  1  0.49578188  0.16762096  0.66336163  1
  I  I93  1  0.50041916  0.49737288  0.00031085  1
  I  I94  1  0.49487533  0.50155340  0.33328510  1
  I  I95  1  0.50145537  0.49776195  0.66640688  1
  I  I96  1  0.50554575  0.83899996  0.00391099  1
  I  I97  1  0.50431972  0.83437286  0.32970428  1
  I  I98  1  0.50110432  0.83515581  0.66647771  1
  I  I99  1  0.83109489  0.16812193  0.00025977  1
  I  I100  1  0.83488648  0.16154244  0.33338158  1
  I  I101  1  0.83070665  0.16708552  0.66635578  1
  I  I102  1  0.83618362  0.50400663  0.00287774  1
  I  I103  1  0.84144378  0.50811041  0.33333334  1
  I  I104  1  0.83733985  0.50285020  0.66378894  1
  I  I105  1  0.83214946  0.82908674  0.00093870  1
  I  I106  1  0.82879397  0.82951833  0.33283696  1
  I  I107  1  0.83899079  0.83037972  0.66638536  1
  I  I108  1  0.00020389  0.16363718  0.16793484  1
  I  I109  1  0.00257032  0.16886935  0.50180800  1
  I  I110  1  0.00041631  0.16801413  0.83164205  1
  I  I111  1  -0.00042746  0.50639947  0.16812332  1
  I  I112  1  0.00060363  0.49769963  0.49933486  1
  I  I113  1  0.00330923  0.50246289  0.83280923  1
  I  I114  1  -0.00324579  0.83053082  0.16808715  1
  I  I115  1  -0.00341690  0.83439631  0.49502832  1
  I  I116  1  -0.00063773  0.82891041  0.83497589  1
  I  I117  1  0.33663828  0.16084851  0.16837594  1
  I  I118  1  0.33264898  0.17280837  0.49662179  1
  I  I119  1  0.33302582  0.16504012  0.83515490  1
  I  I120  1  0.33036312  0.50001821  0.16671511  1
  I  I121  1  0.33001925  0.49745046  0.49936987  1
  I  I122  1  0.32781833  0.50625286  0.83416600  1
  I  I123  1  0.33554708  0.83555880  0.16440310  1
  I  I124  1  0.33335963  0.83137702  0.50058855  1
  I  I125  1  0.33020576  0.82917428  0.83396981  1
  I  I126  1  0.66330295  0.16605685  0.17456184  1
  I  I127  1  0.66403101  0.16511909  0.49503829  1
  I  I128  1  0.66661692  0.16669959  0.83025997  1
  I  I129  1  0.67024472  0.50176478  0.17243477  1
  I  I130  1  0.67052039  0.50319976  0.49361853  1
  I  I131  1  0.66718355  0.50006149  0.83361981  1
  I  I132  1  0.66825453  0.83171029  0.16498604  1
  I  I133  1  0.67111895  0.82846041  0.50499909  1
  I  I134  1  0.66998534  0.83406640  0.83138397  1
