# generated using pymatgen
data_Cs27Sn13Pb14I81
_symmetry_space_group_name_H-M   'P 1'
_cell_length_a   18.98233451
_cell_length_b   18.97236769
_cell_length_c   18.97841429
_cell_angle_alpha   90.00075365
_cell_angle_beta   89.99907690
_cell_angle_gamma   89.99746616
_symmetry_Int_Tables_number   1
_chemical_formula_structural   Cs27Sn13Pb14I81
_chemical_formula_sum   'Cs27 Sn13 Pb14 I81'
_cell_volume   6834.88288429
_cell_formula_units_Z   1
loop_
 _symmetry_equiv_pos_site_id
 _symmetry_equiv_pos_as_xyz
  1  'x, y, z'
loop_
 _atom_site_type_symbol
 _atom_site_label
 _atom_site_symmetry_multiplicity
 _atom_site_fract_x
 _atom_site_fract_y
 _atom_site_fract_z
 _atom_site_occupancy
  Cs  Cs0  1  0.00108095  0.00100852  -0.00177098  1
  Cs  Cs1  1  -0.00188053  -0.00064753  0.33670294  1
  Cs  Cs2  1  -0.00168145  0.00114050  0.66500834  1
  Cs  Cs3  1  -0.00128497  0.33849132  0.00260086  1
  Cs  Cs4  1  0.00333369  0.33538663  0.33081244  1
  Cs  Cs5  1  0.00257755  0.33085407  0.66685459  1
  Cs  Cs6  1  0.00645184  0.65918552  0.00144190  1
  Cs  Cs7  1  0.00000734  0.66826649  0.33091899  1
  Cs  Cs8  1  -0.00220868  0.66828527  0.66905049  1
  Cs  Cs9  1  0.33405186  -0.00451049  0.00160171  1
  Cs  Cs10  1  0.33434486  -0.00029176  0.33183690  1
  Cs  Cs11  1  0.33305332  0.00187359  0.66752787  1
  Cs  Cs12  1  0.33245703  0.33135608  0.00070907  1
  Cs  Cs13  1  0.33176088  0.33683614  0.33616272  1
  Cs  Cs14  1  0.33370205  0.33596199  0.66379327  1
  Cs  Cs15  1  0.32756866  0.67296880  -0.00429194  1
  Cs  Cs16  1  0.33186422  0.66244638  0.33064000  1
  Cs  Cs17  1  0.33577869  0.65963958  0.67347782  1
  Cs  Cs18  1  0.66414747  0.00155293  0.00184167  1
  Cs  Cs19  1  0.66699572  0.00008027  0.33297336  1
  Cs  Cs20  1  0.66884242  0.00010252  0.66539437  1
  Cs  Cs21  1  0.66892284  0.33396180  0.00451524  1
  Cs  Cs22  1  0.66564111  0.33349698  0.32929290  1
  Cs  Cs23  1  0.66564957  0.33322745  0.66747497  1
  Cs  Cs24  1  0.66441853  0.66357929  -0.00342744  1
  Cs  Cs25  1  0.66687839  0.66810930  0.33628373  1
  Cs  Cs26  1  0.66576933  0.66512778  0.66573759  1
  Sn  Sn27  1  0.83253400  0.16715922  0.50036050  1
  Sn  Sn28  1  0.83312667  0.83334867  0.50023841  1
  Sn  Sn29  1  0.83316088  0.83347149  0.16580023  1
  Sn  Sn30  1  0.50085802  0.16584674  0.50059235  1
  Sn  Sn31  1  0.49997805  0.50052141  0.16634225  1
  Sn  Sn32  1  0.83334216  0.83402397  0.83382256  1
  Sn  Sn33  1  0.50041762  0.16636999  0.83273194  1
  Sn  Sn34  1  0.16645835  0.16622678  0.83437314  1
  Sn  Sn35  1  0.83351377  0.49945856  0.49999053  1
  Sn  Sn36  1  0.83309990  0.16581818  0.83287515  1
  Sn  Sn37  1  0.16644031  0.16607139  0.16607554  1
  Sn  Sn38  1  0.49942755  0.83379578  0.50014361  1
  Sn  Sn39  1  0.16735853  0.83314280  0.50039044  1
  Pb  Pb40  1  0.83183786  0.50283811  0.16894339  1
  Pb  Pb41  1  0.83498540  0.16508748  0.16668934  1
  Pb  Pb42  1  0.16430576  0.83554740  0.83101161  1
  Pb  Pb43  1  0.16449557  0.83532844  0.16857310  1
  Pb  Pb44  1  0.83328726  0.49957257  0.83114395  1
  Pb  Pb45  1  0.49803048  0.16762293  0.16712643  1
  Pb  Pb46  1  0.16382683  0.50346518  0.50018470  1
  Pb  Pb47  1  0.50227386  0.83548655  0.83100824  1
  Pb  Pb48  1  0.16916589  0.49789943  0.16668089  1
  Pb  Pb49  1  0.50185207  0.83131042  0.16870777  1
  Pb  Pb50  1  0.16658135  0.49710332  0.83308248  1
  Pb  Pb51  1  0.50188208  0.49972990  0.49893219  1
  Pb  Pb52  1  0.50020941  0.49721234  0.83597454  1
  Pb  Pb53  1  0.16682433  0.16526768  0.50035574  1
  I  I54  1  0.16795345  0.00316209  0.16299510  1
  I  I55  1  0.16058541  -0.00242825  0.50000459  1
  I  I56  1  0.16795392  0.00385068  0.83607306  1
  I  I57  1  0.16446982  0.32967802  0.16421545  1
  I  I58  1  0.16618765  0.33316969  0.49975462  1
  I  I59  1  0.16279749  0.32807444  0.83511417  1
  I  I60  1  0.16591881  0.66692689  0.16905031  1
  I  I61  1  0.16593181  0.67158209  0.49802422  1
  I  I62  1  0.16510027  0.66727634  0.83233969  1
  I  I63  1  0.49971946  -0.00004876  0.16621800  1
  I  I64  1  0.50564088  0.00060082  0.50222445  1
  I  I65  1  0.49853316  0.00398098  0.83270347  1
  I  I66  1  0.50079979  0.33515254  0.16933916  1
  I  I67  1  0.50425335  0.32986991  0.50241256  1
  I  I68  1  0.50244581  0.32839831  0.82564282  1
  I  I69  1  0.50274962  0.66390577  0.17124865  1
  I  I70  1  0.50303967  0.66950791  0.49692791  1
  I  I71  1  0.50212447  0.66697645  0.83194689  1
  I  I72  1  0.83310770  -0.00274778  0.17323906  1
  I  I73  1  0.83305822  -0.00036070  0.50074312  1
  I  I74  1  0.83380353  0.00099362  0.82719038  1
  I  I75  1  0.83400729  0.33335030  0.16759681  1
  I  I76  1  0.82826153  0.33158693  0.50482043  1
  I  I77  1  0.83358118  0.32925618  0.82838109  1
  I  I78  1  0.83297471  0.67088068  0.16889765  1
  I  I79  1  0.83302408  0.66871481  0.49956333  1
  I  I80  1  0.83281951  0.66988738  0.83040012  1
  I  I81  1  0.16625641  0.16633873  -0.00116233  1
  I  I82  1  0.16622012  0.16473520  0.33189921  1
  I  I83  1  0.16539325  0.16440481  0.66917054  1
  I  I84  1  0.16568115  0.50182603  0.00007982  1
  I  I85  1  0.16655012  0.49562730  0.33352487  1
  I  I86  1  0.16766424  0.49708091  0.66633013  1
  I  I87  1  0.16458317  0.83317072  -0.00030980  1
  I  I88  1  0.16261066  0.83761327  0.33666230  1
  I  I89  1  0.16253986  0.83743689  0.66306897  1
  I  I90  1  0.50333269  0.16968292  -0.00283112  1
  I  I91  1  0.50390367  0.16402705  0.33673887  1
  I  I92  1  0.49959837  0.16315259  0.66584673  1
  I  I93  1  0.50261647  0.49743180  0.00339132  1
  I  I94  1  0.50206552  0.49727388  0.33147823  1
  I  I95  1  0.50093005  0.50125128  0.66664148  1
  I  I96  1  0.50267186  0.83407839  -0.00025204  1
  I  I97  1  0.50415971  0.84016767  0.33742776  1
  I  I98  1  0.50329076  0.83460552  0.66249209  1
  I  I99  1  0.83078928  0.16133702  -0.00317898  1
  I  I100  1  0.83051556  0.16437516  0.33678377  1
  I  I101  1  0.83480684  0.16225440  0.66597488  1
  I  I102  1  0.83227891  0.49983461  0.00010542  1
  I  I103  1  0.83203872  0.49945723  0.33701300  1
  I  I104  1  0.83138446  0.50469222  0.66301608  1
  I  I105  1  0.83247497  0.84101507  -0.00086493  1
  I  I106  1  0.83342676  0.83372552  0.33559678  1
  I  I107  1  0.83385828  0.83483756  0.66510316  1
  I  I108  1  0.00267208  0.16524537  0.16432112  1
  I  I109  1  -0.00312863  0.16464602  0.50255347  1
  I  I110  1  -0.00123555  0.16201438  0.83141914  1
  I  I111  1  -0.00003323  0.50002908  0.16780804  1
  I  I112  1  -0.00445499  0.49780796  0.49919183  1
  I  I113  1  -0.00035616  0.49834221  0.83329634  1
  I  I114  1  -0.00365502  0.83448515  0.17128386  1
  I  I115  1  -0.00220917  0.83459337  0.49968274  1
  I  I116  1  -0.00402365  0.83987479  0.82895751  1
  I  I117  1  0.33039256  0.16727230  0.16369465  1
  I  I118  1  0.33608521  0.16192783  0.50225233  1
  I  I119  1  0.33363520  0.16831653  0.83226656  1
  I  I120  1  0.33655474  0.49846637  0.17100843  1
  I  I121  1  0.33352728  0.49917946  0.49801036  1
  I  I122  1  0.33354601  0.49869487  0.83185949  1
  I  I123  1  0.33327314  0.83311875  0.16963710  1
  I  I124  1  0.33418738  0.84171900  0.49829126  1
  I  I125  1  0.33335862  0.83503993  0.83155572  1
  I  I126  1  0.66668819  0.16716487  0.16518985  1
  I  I127  1  0.66763106  0.16208541  0.50634595  1
  I  I128  1  0.66749691  0.16302652  0.82732691  1
  I  I129  1  0.66448632  0.49687478  0.16810489  1
  I  I130  1  0.66973974  0.50446259  0.49917088  1
  I  I131  1  0.66682386  0.49789990  0.83363271  1
  I  I132  1  0.67010284  0.83545313  0.17088601  1
  I  I133  1  0.66826057  0.83435735  0.49964203  1
  I  I134  1  0.67063363  0.83905487  0.83048313  1
