# generated using pymatgen
data_Cs27Sn13Pb14I81
_symmetry_space_group_name_H-M   'P 1'
_cell_length_a   18.97132151
_cell_length_b   18.98000834
_cell_length_c   18.97939316
_cell_angle_alpha   89.99990778
_cell_angle_beta   90.00118832
_cell_angle_gamma   90.00053477
_symmetry_Int_Tables_number   1
_chemical_formula_structural   Cs27Sn13Pb14I81
_chemical_formula_sum   'Cs27 Sn13 Pb14 I81'
_cell_volume   6834.02094001
_cell_formula_units_Z   1
loop_
 _symmetry_equiv_pos_site_id
 _symmetry_equiv_pos_as_xyz
  1  'x, y, z'
loop_
 _atom_site_type_symbol
 _atom_site_label
 _atom_site_symmetry_multiplicity
 _atom_site_fract_x
 _atom_site_fract_y
 _atom_site_fract_z
 _atom_site_occupancy
  Cs  Cs0  1  0.00035549  -0.00146190  0.00273124  1
  Cs  Cs1  1  0.00053597  0.00017974  0.33279726  1
  Cs  Cs2  1  0.00114254  -0.00072999  0.66765567  1
  Cs  Cs3  1  -0.00269276  0.33457468  0.00253697  1
  Cs  Cs4  1  -0.00016685  0.33168286  0.33180992  1
  Cs  Cs5  1  0.00135064  0.33317630  0.66676296  1
  Cs  Cs6  1  0.00114886  0.66625749  0.00042545  1
  Cs  Cs7  1  -0.00042032  0.66926048  0.33087820  1
  Cs  Cs8  1  -0.00015724  0.66758408  0.67108057  1
  Cs  Cs9  1  0.34170940  0.00108025  -0.00735703  1
  Cs  Cs10  1  0.33183051  -0.00069385  0.33419507  1
  Cs  Cs11  1  0.33346739  0.00184733  0.67007288  1
  Cs  Cs12  1  0.33703251  0.32980719  -0.00063815  1
  Cs  Cs13  1  0.33498558  0.33618249  0.33523712  1
  Cs  Cs14  1  0.32463535  0.33383573  0.66543758  1
  Cs  Cs15  1  0.33290285  0.66905695  -0.00130704  1
  Cs  Cs16  1  0.33508693  0.66581673  0.33440829  1
  Cs  Cs17  1  0.33018123  0.66385978  0.66596073  1
  Cs  Cs18  1  0.65772372  -0.00475083  -0.00171856  1
  Cs  Cs19  1  0.66617894  -0.00145606  0.33566951  1
  Cs  Cs20  1  0.66618240  -0.00152942  0.66402829  1
  Cs  Cs21  1  0.66840018  0.33356317  -0.00188275  1
  Cs  Cs22  1  0.66639124  0.33361206  0.33419861  1
  Cs  Cs23  1  0.66853578  0.33438859  0.66716658  1
  Cs  Cs24  1  0.66420223  0.67033342  -0.00049288  1
  Cs  Cs25  1  0.66416492  0.66812083  0.33320223  1
  Cs  Cs26  1  0.66894055  0.66557027  0.66644158  1
  Sn  Sn27  1  0.16631096  0.49966246  0.16681155  1
  Sn  Sn28  1  0.16737147  0.83338232  0.49950956  1
  Sn  Sn29  1  0.50049619  0.49955770  0.83312359  1
  Sn  Sn30  1  0.83244989  0.49920650  0.83365154  1
  Sn  Sn31  1  0.83280297  0.16747132  0.49997103  1
  Sn  Sn32  1  0.83331921  0.16687457  0.83370444  1
  Sn  Sn33  1  0.49892634  0.83385414  0.49989637  1
  Sn  Sn34  1  0.50032311  0.16653442  0.49987118  1
  Sn  Sn35  1  0.16649769  0.16664787  0.16674419  1
  Sn  Sn36  1  0.16681904  0.83372100  0.16725283  1
  Sn  Sn37  1  0.83342128  0.16693246  0.16631614  1
  Sn  Sn38  1  0.83366917  0.49953255  0.16684405  1
  Sn  Sn39  1  0.83351911  0.49937125  0.49959771  1
  Pb  Pb40  1  0.50245301  0.16889036  0.83021441  1
  Pb  Pb41  1  0.16366600  0.50221342  0.49763326  1
  Pb  Pb42  1  0.50193421  0.49969534  0.50189260  1
  Pb  Pb43  1  0.16597175  0.49973487  0.83615117  1
  Pb  Pb44  1  0.50006327  0.83069607  0.82997438  1
  Pb  Pb45  1  0.83479155  0.83366015  0.16657242  1
  Pb  Pb46  1  0.83321863  0.83349402  0.83358568  1
  Pb  Pb47  1  0.16666788  0.83355505  0.83350518  1
  Pb  Pb48  1  0.50065943  0.49983863  0.16454886  1
  Pb  Pb49  1  0.16612214  0.16510532  0.49815084  1
  Pb  Pb50  1  0.16386496  0.16679891  0.83653142  1
  Pb  Pb51  1  0.83369423  0.83362335  0.49992506  1
  Pb  Pb52  1  0.49696364  0.83337286  0.16902541  1
  Pb  Pb53  1  0.50077717  0.16683037  0.16885271  1
  I  I54  1  0.16023681  0.00037514  0.17218842  1
  I  I55  1  0.16514121  -0.00281629  0.49301038  1
  I  I56  1  0.16416940  0.00026855  0.83554644  1
  I  I57  1  0.16039078  0.33327766  0.16586830  1
  I  I58  1  0.16969658  0.33338573  0.49874701  1
  I  I59  1  0.16977002  0.33336103  0.83218721  1
  I  I60  1  0.16196637  0.66635278  0.17025863  1
  I  I61  1  0.17154481  0.67000786  0.49416929  1
  I  I62  1  0.16401855  0.66642738  0.83531490  1
  I  I63  1  0.50129653  0.00014106  0.16471109  1
  I  I64  1  0.50344132  0.00043767  0.49874178  1
  I  I65  1  0.50104705  0.00025790  0.83470375  1
  I  I66  1  0.49402310  0.33334466  0.17001720  1
  I  I67  1  0.50401594  0.33073510  0.49995884  1
  I  I68  1  0.50338391  0.33644107  0.83271843  1
  I  I69  1  0.50095088  0.66654942  0.16880412  1
  I  I70  1  0.49739253  0.66896053  0.50119048  1
  I  I71  1  0.50814524  0.66306803  0.83286683  1
  I  I72  1  0.83830448  0.00372604  0.16834363  1
  I  I73  1  0.83253771  0.00344662  0.49945664  1
  I  I74  1  0.83552245  0.00378547  0.83224483  1
  I  I75  1  0.84114885  0.33343083  0.16710665  1
  I  I76  1  0.82797454  0.33261634  0.49936745  1
  I  I77  1  0.82966920  0.33392206  0.83353896  1
  I  I78  1  0.83744386  0.66320342  0.16694511  1
  I  I79  1  0.83354167  0.66365518  0.50006715  1
  I  I80  1  0.83058142  0.66272177  0.83253146  1
  I  I81  1  0.16148206  0.16510026  0.00498105  1
  I  I82  1  0.16029038  0.16807530  0.33005691  1
  I  I83  1  0.16597859  0.16394602  0.66651410  1
  I  I84  1  0.16050647  0.50284737  0.00432496  1
  I  I85  1  0.16163327  0.49797938  0.32954337  1
  I  I86  1  0.16564168  0.50303837  0.66653790  1
  I  I87  1  0.16282129  0.83166393  0.00376452  1
  I  I88  1  0.16961170  0.83309187  0.33273646  1
  I  I89  1  0.16962719  0.83340339  0.66330501  1
  I  I90  1  0.49958710  0.16709578  -0.00033393  1
  I  I91  1  0.50617117  0.16410934  0.33683531  1
  I  I92  1  0.50561169  0.16211822  0.66247412  1
  I  I93  1  0.50596079  0.49943535  -0.00313467  1
  I  I94  1  0.50089275  0.50079203  0.33366025  1
  I  I95  1  0.50778406  0.50089460  0.66949022  1
  I  I96  1  0.49917102  0.83293609  -0.00028744  1
  I  I97  1  0.49998187  0.83521346  0.33703101  1
  I  I98  1  0.49400593  0.83828840  0.66230589  1
  I  I99  1  0.84024439  0.17439090  0.00070777  1
  I  I100  1  0.83381393  0.17233279  0.33327581  1
  I  I101  1  0.82821255  0.17259335  0.66603098  1
  I  I102  1  0.83432753  0.49393026  0.00046982  1
  I  I103  1  0.83784618  0.49442995  0.33289945  1
  I  I104  1  0.82812603  0.49512194  0.66666751  1
  I  I105  1  0.83669490  0.83270507  0.00017981  1
  I  I106  1  0.83168227  0.83212971  0.33344700  1
  I  I107  1  0.83618896  0.83222003  0.66640684  1
  I  I108  1  -0.00112565  0.16745116  0.16905999  1
  I  I109  1  -0.00349693  0.16912870  0.50114545  1
  I  I110  1  -0.00458968  0.17380572  0.82703861  1
  I  I111  1  -0.00115654  0.49984063  0.16533670  1
  I  I112  1  -0.00450284  0.49483225  0.50469964  1
  I  I113  1  -0.00389222  0.49660811  0.83149868  1
  I  I114  1  0.00324211  0.83326300  0.17418820  1
  I  I115  1  0.00270544  0.83296600  0.49489395  1
  I  I116  1  -0.00002041  0.83070861  0.82961376  1
  I  I117  1  0.33033673  0.16742198  0.16966151  1
  I  I118  1  0.33553785  0.16405453  0.49759133  1
  I  I119  1  0.33361816  0.16785659  0.83361755  1
  I  I120  1  0.33023165  0.50015508  0.16545897  1
  I  I121  1  0.33315246  0.49815199  0.50083714  1
  I  I122  1  0.33565732  0.50228382  0.83376955  1
  I  I123  1  0.32852678  0.83207271  0.16886384  1
  I  I124  1  0.33340918  0.83805790  0.49482247  1
  I  I125  1  0.33348752  0.83085999  0.83602128  1
  I  I126  1  0.67064408  0.17346768  0.16576955  1
  I  I127  1  0.66828816  0.16417134  0.49773743  1
  I  I128  1  0.67081045  0.16936704  0.83876461  1
  I  I129  1  0.67064247  0.49408919  0.16863110  1
  I  I130  1  0.67039239  0.50084398  0.49524799  1
  I  I131  1  0.66908233  0.49625388  0.83479160  1
  I  I132  1  0.66638803  0.83270811  0.16775245  1
  I  I133  1  0.66442734  0.83463355  0.50159593  1
  I  I134  1  0.66653053  0.83455461  0.83193785  1
