# generated using pymatgen
data_Cs27Sn13Pb14I81
_symmetry_space_group_name_H-M   'P 1'
_cell_length_a   18.98726759
_cell_length_b   18.97496248
_cell_length_c   18.96923167
_cell_angle_alpha   90.00041897
_cell_angle_beta   90.00079162
_cell_angle_gamma   90.00064243
_symmetry_Int_Tables_number   1
_chemical_formula_structural   Cs27Sn13Pb14I81
_chemical_formula_sum   'Cs27 Sn13 Pb14 I81'
_cell_volume   6834.28581456
_cell_formula_units_Z   1
loop_
 _symmetry_equiv_pos_site_id
 _symmetry_equiv_pos_as_xyz
  1  'x, y, z'
loop_
 _atom_site_type_symbol
 _atom_site_label
 _atom_site_symmetry_multiplicity
 _atom_site_fract_x
 _atom_site_fract_y
 _atom_site_fract_z
 _atom_site_occupancy
  Cs  Cs0  1  0.00197986  0.00484743  -0.00418202  1
  Cs  Cs1  1  0.00150628  -0.00264747  0.33403837  1
  Cs  Cs2  1  0.00117757  -0.00374424  0.67131398  1
  Cs  Cs3  1  -0.00811174  0.33165159  -0.00114564  1
  Cs  Cs4  1  0.00156788  0.33343571  0.33446639  1
  Cs  Cs5  1  0.00112826  0.33328594  0.66652722  1
  Cs  Cs6  1  -0.00523650  0.66185551  0.00290186  1
  Cs  Cs7  1  0.00153210  0.66893413  0.33460573  1
  Cs  Cs8  1  -0.00226510  0.67025105  0.66417626  1
  Cs  Cs9  1  0.33108681  -0.00190171  -0.00383671  1
  Cs  Cs10  1  0.33334249  0.00121038  0.33318790  1
  Cs  Cs11  1  0.33206141  -0.00003780  0.67178793  1
  Cs  Cs12  1  0.33321786  0.33574912  -0.00117736  1
  Cs  Cs13  1  0.33369403  0.33245914  0.33327614  1
  Cs  Cs14  1  0.33343375  0.33359007  0.66552320  1
  Cs  Cs15  1  0.33506200  0.66593137  0.00106307  1
  Cs  Cs16  1  0.33277539  0.66607593  0.33205622  1
  Cs  Cs17  1  0.33452832  0.66481974  0.66673560  1
  Cs  Cs18  1  0.66941595  -0.00022364  -0.00018092  1
  Cs  Cs19  1  0.66537938  0.00220146  0.33230832  1
  Cs  Cs20  1  0.66530521  -0.00350052  0.66792781  1
  Cs  Cs21  1  0.67400340  0.33148380  0.00516705  1
  Cs  Cs22  1  0.66525393  0.32861616  0.33176919  1
  Cs  Cs23  1  0.66438972  0.33496715  0.66426099  1
  Cs  Cs24  1  0.66819711  0.66659186  -0.00247935  1
  Cs  Cs25  1  0.66526034  0.66822198  0.33387824  1
  Cs  Cs26  1  0.66619919  0.66633337  0.66795159  1
  Sn  Sn27  1  0.49931893  0.49846765  0.83281453  1
  Sn  Sn28  1  0.49990540  0.83319684  0.16746788  1
  Sn  Sn29  1  0.16664591  0.49942337  0.50077523  1
  Sn  Sn30  1  0.16577694  0.16700405  0.49963041  1
  Sn  Sn31  1  0.49990632  0.50065869  0.50016030  1
  Sn  Sn32  1  0.50021925  0.16810552  0.83352177  1
  Sn  Sn33  1  0.16712201  0.50006208  0.83255841  1
  Sn  Sn34  1  0.83346994  0.83349211  0.16691396  1
  Sn  Sn35  1  0.16661412  0.83412462  0.16674844  1
  Sn  Sn36  1  0.83326537  0.49927012  0.49983787  1
  Sn  Sn37  1  0.83437870  0.16688239  0.50019862  1
  Sn  Sn38  1  0.49943215  0.83278375  0.49931082  1
  Sn  Sn39  1  0.16707095  0.16632767  0.16713177  1
  Pb  Pb40  1  0.83110012  0.83368664  0.49859284  1
  Pb  Pb41  1  0.16885136  0.83342753  0.49870767  1
  Pb  Pb42  1  0.83318120  0.50179405  0.17001805  1
  Pb  Pb43  1  0.50015364  0.50156740  0.16652746  1
  Pb  Pb44  1  0.16652696  0.82974042  0.83647132  1
  Pb  Pb45  1  0.49989914  0.83257157  0.83335669  1
  Pb  Pb46  1  0.16666738  0.49946325  0.16665328  1
  Pb  Pb47  1  0.83592441  0.16453172  0.16918069  1
  Pb  Pb48  1  0.16800566  0.16902985  0.83303944  1
  Pb  Pb49  1  0.49942786  0.16669697  0.50122094  1
  Pb  Pb50  1  0.49770859  0.16426670  0.16390848  1
  Pb  Pb51  1  0.83302622  0.49988688  0.83068251  1
  Pb  Pb52  1  0.83357361  0.83335162  0.83623891  1
  Pb  Pb53  1  0.83059560  0.16684949  0.83012712  1
  I  I54  1  0.16740630  -0.00011384  0.17348192  1
  I  I55  1  0.16392616  0.00279642  0.49661115  1
  I  I56  1  0.16895160  0.00018673  0.83148586  1
  I  I57  1  0.16779350  0.33054637  0.16932356  1
  I  I58  1  0.16829339  0.33389315  0.49734037  1
  I  I59  1  0.17042883  0.33682210  0.83297098  1
  I  I60  1  0.16744122  0.66943753  0.16688312  1
  I  I61  1  0.16496151  0.66357713  0.50181548  1
  I  I62  1  0.17452704  0.66200544  0.82703798  1
  I  I63  1  0.50184081  -0.00389812  0.17271967  1
  I  I64  1  0.50070251  -0.00224786  0.49744044  1
  I  I65  1  0.49982441  0.00198715  0.83256615  1
  I  I66  1  0.49765131  0.33302480  0.16939453  1
  I  I67  1  0.49990692  0.33629142  0.50325020  1
  I  I68  1  0.49506878  0.33497733  0.82535752  1
  I  I69  1  0.49638442  0.67024218  0.16709703  1
  I  I70  1  0.50009650  0.66532624  0.50140039  1
  I  I71  1  0.49617094  0.66330868  0.83184203  1
  I  I72  1  0.82964019  -0.00335622  0.17054820  1
  I  I73  1  0.83630793  0.00263523  0.49763311  1
  I  I74  1  0.83062204  0.00029533  0.82986292  1
  I  I75  1  0.83503873  0.33293001  0.16503422  1
  I  I76  1  0.83196970  0.33409547  0.50000315  1
  I  I77  1  0.83462424  0.33344934  0.83755577  1
  I  I78  1  0.83617356  0.67011158  0.16846905  1
  I  I79  1  0.83554574  0.66381023  0.49853794  1
  I  I80  1  0.83116252  0.66632797  0.83162363  1
  I  I81  1  0.17004290  0.16213556  0.00241643  1
  I  I82  1  0.16440361  0.16848486  0.33451154  1
  I  I83  1  0.16478600  0.16965574  0.66344087  1
  I  I84  1  0.17385019  0.50211956  -0.00275394  1
  I  I85  1  0.16769350  0.49971222  0.33681313  1
  I  I86  1  0.16850703  0.49403143  0.66475691  1
  I  I87  1  0.17041149  0.83905683  0.00479496  1
  I  I88  1  0.16596567  0.83195449  0.33042267  1
  I  I89  1  0.16932510  0.83635474  0.66659810  1
  I  I90  1  0.49737058  0.17198156  -0.00364191  1
  I  I91  1  0.50127759  0.16800798  0.33337859  1
  I  I92  1  0.49806194  0.16590255  0.66892713  1
  I  I93  1  0.49330880  0.49898003  -0.00335111  1
  I  I94  1  0.49843511  0.50305292  0.33695133  1
  I  I95  1  0.49915150  0.50259359  0.66525615  1
  I  I96  1  0.49961728  0.83355184  0.00306147  1
  I  I97  1  0.49978765  0.82762056  0.33354888  1
  I  I98  1  0.50050582  0.83200107  0.66389043  1
  I  I99  1  0.83390543  0.16478766  0.00019157  1
  I  I100  1  0.83252927  0.17120835  0.33706279  1
  I  I101  1  0.84025825  0.17008670  0.66210817  1
  I  I102  1  0.83354341  0.50239668  0.00001969  1
  I  I103  1  0.83378313  0.49680810  0.33828411  1
  I  I104  1  0.83281171  0.49766784  0.66235098  1
  I  I105  1  0.82958846  0.83275883  0.00477288  1
  I  I106  1  0.83495359  0.83220047  0.33060577  1
  I  I107  1  0.83058507  0.83306038  0.66607912  1
  I  I108  1  0.00380883  0.16143060  0.16742251  1
  I  I109  1  0.00105572  0.17485611  0.49549719  1
  I  I110  1  0.00013216  0.16777920  0.83587227  1
  I  I111  1  0.00018827  0.50399561  0.16559835  1
  I  I112  1  0.00091566  0.49558907  0.50281389  1
  I  I113  1  0.00293554  0.50103991  0.83048783  1
  I  I114  1  0.00068940  0.83621576  0.16754064  1
  I  I115  1  0.00011520  0.83012820  0.49712786  1
  I  I116  1  0.00033585  0.83253607  0.83266443  1
  I  I117  1  0.32994902  0.16135357  0.17442867  1
  I  I118  1  0.33048614  0.16969614  0.49713067  1
  I  I119  1  0.33588954  0.16812902  0.83052888  1
  I  I120  1  0.33324925  0.50342131  0.17065661  1
  I  I121  1  0.33327175  0.50021828  0.50370648  1
  I  I122  1  0.33409628  0.49709839  0.82510956  1
  I  I123  1  0.33338845  0.83630785  0.17075560  1
  I  I124  1  0.33671107  0.82949130  0.49415413  1
  I  I125  1  0.33336660  0.83536641  0.83591002  1
  I  I126  1  0.66673077  0.16495838  0.16717543  1
  I  I127  1  0.66839134  0.16943729  0.50216633  1
  I  I128  1  0.66271515  0.17221010  0.83202904  1
  I  I129  1  0.66659277  0.50267592  0.16618774  1
  I  I130  1  0.66580465  0.50101642  0.50351260  1
  I  I131  1  0.66323837  0.49856417  0.82876436  1
  I  I132  1  0.66596678  0.83105273  0.17138924  1
  I  I133  1  0.66316016  0.82996241  0.49493158  1
  I  I134  1  0.66624182  0.83171498  0.83493851  1
