# generated using pymatgen
data_Cs27Sn13Pb14I81
_symmetry_space_group_name_H-M   'P 1'
_cell_length_a   18.97188695
_cell_length_b   18.98137001
_cell_length_c   18.97741936
_cell_angle_alpha   90.00144580
_cell_angle_beta   89.99834137
_cell_angle_gamma   89.99866220
_symmetry_Int_Tables_number   1
_chemical_formula_structural   Cs27Sn13Pb14I81
_chemical_formula_sum   'Cs27 Sn13 Pb14 I81'
_cell_volume   6834.00414222
_cell_formula_units_Z   1
loop_
 _symmetry_equiv_pos_site_id
 _symmetry_equiv_pos_as_xyz
  1  'x, y, z'
loop_
 _atom_site_type_symbol
 _atom_site_label
 _atom_site_symmetry_multiplicity
 _atom_site_fract_x
 _atom_site_fract_y
 _atom_site_fract_z
 _atom_site_occupancy
  Cs  Cs0  1  0.00141477  -0.00126808  0.00039928  1
  Cs  Cs1  1  -0.00269453  0.00208249  0.33361331  1
  Cs  Cs2  1  0.00232860  -0.00000939  0.66691905  1
  Cs  Cs3  1  -0.00280388  0.33387592  0.00003827  1
  Cs  Cs4  1  0.00122708  0.33257072  0.33471907  1
  Cs  Cs5  1  -0.00069718  0.33524346  0.66440931  1
  Cs  Cs6  1  0.00324899  0.66530192  -0.00082629  1
  Cs  Cs7  1  0.00117696  0.66601686  0.33528384  1
  Cs  Cs8  1  -0.00163566  0.66448703  0.66607717  1
  Cs  Cs9  1  0.32923871  0.00007304  -0.00310803  1
  Cs  Cs10  1  0.33581442  0.00239349  0.33408571  1
  Cs  Cs11  1  0.33149974  0.00393856  0.66929783  1
  Cs  Cs12  1  0.33744073  0.33257238  0.00082201  1
  Cs  Cs13  1  0.33325301  0.33277697  0.33271268  1
  Cs  Cs14  1  0.33907720  0.33091803  0.66725815  1
  Cs  Cs15  1  0.33303024  0.66731823  0.00941267  1
  Cs  Cs16  1  0.33814695  0.66705044  0.32430823  1
  Cs  Cs17  1  0.33256942  0.66486779  0.66573798  1
  Cs  Cs18  1  0.66979314  -0.00108549  0.00273220  1
  Cs  Cs19  1  0.66606724  -0.00721188  0.33157476  1
  Cs  Cs20  1  0.66479167  -0.00205596  0.66563401  1
  Cs  Cs21  1  0.66916895  0.33358180  -0.00140948  1
  Cs  Cs22  1  0.66698144  0.33188832  0.33414128  1
  Cs  Cs23  1  0.66420339  0.33407686  0.66741029  1
  Cs  Cs24  1  0.66403888  0.66644961  -0.00308615  1
  Cs  Cs25  1  0.65971772  0.67639568  0.33361963  1
  Cs  Cs26  1  0.66651893  0.66781074  0.66766389  1
  Sn  Sn27  1  0.16641202  0.50006789  0.50073982  1
  Sn  Sn28  1  0.83315635  0.50047518  0.16750554  1
  Sn  Sn29  1  0.83378821  0.16658902  0.83221502  1
  Sn  Sn30  1  0.49949380  0.16686691  0.16662320  1
  Sn  Sn31  1  0.49989012  0.83331684  0.83309249  1
  Sn  Sn32  1  0.16720447  0.16693343  0.16714454  1
  Sn  Sn33  1  0.16675410  0.83301542  0.49984351  1
  Sn  Sn34  1  0.83408354  0.49995522  0.83310420  1
  Sn  Sn35  1  0.16587837  0.16689873  0.49945890  1
  Sn  Sn36  1  0.83331729  0.49961501  0.49957293  1
  Sn  Sn37  1  0.83382699  0.16712714  0.50092489  1
  Sn  Sn38  1  0.83305710  0.83327370  0.83308428  1
  Sn  Sn39  1  0.16634786  0.49957215  0.83278621  1
  Pb  Pb40  1  0.16471747  0.16915393  0.83290737  1
  Pb  Pb41  1  0.83490111  0.83322688  0.50199286  1
  Pb  Pb42  1  0.83367276  0.16799617  0.16730523  1
  Pb  Pb43  1  0.16641664  0.83066746  0.83161853  1
  Pb  Pb44  1  0.49988266  0.83605523  0.16399459  1
  Pb  Pb45  1  0.83370669  0.82994814  0.16397310  1
  Pb  Pb46  1  0.49979177  0.50184489  0.83334373  1
  Pb  Pb47  1  0.50059611  0.16664186  0.49830717  1
  Pb  Pb48  1  0.16496198  0.49787776  0.16708671  1
  Pb  Pb49  1  0.49666067  0.83344045  0.50249930  1
  Pb  Pb50  1  0.50303470  0.16469819  0.83535707  1
  Pb  Pb51  1  0.50008290  0.50000521  0.49996822  1
  Pb  Pb52  1  0.16629982  0.83622155  0.16961941  1
  Pb  Pb53  1  0.50317923  0.49774400  0.16672286  1
  I  I54  1  0.16851777  0.00445008  0.16979783  1
  I  I55  1  0.16252941  0.00141173  0.49598247  1
  I  I56  1  0.16538131  0.00016310  0.83263500  1
  I  I57  1  0.16867323  0.33011078  0.17216015  1
  I  I58  1  0.16117768  0.33328933  0.49920787  1
  I  I59  1  0.16000815  0.33691954  0.82900859  1
  I  I60  1  0.16563361  0.66631300  0.16660669  1
  I  I61  1  0.16121491  0.66518436  0.50687947  1
  I  I62  1  0.16023505  0.66289082  0.82780290  1
  I  I63  1  0.49798700  0.00368894  0.16724522  1
  I  I64  1  0.50058932  0.00012371  0.49952394  1
  I  I65  1  0.50478155  -0.00304520  0.83370878  1
  I  I66  1  0.49534734  0.33010823  0.16581505  1
  I  I67  1  0.49701031  0.33318352  0.50057640  1
  I  I68  1  0.50093409  0.33310637  0.83450529  1
  I  I69  1  0.50074251  0.66687305  0.16616527  1
  I  I70  1  0.50112702  0.66676040  0.49995392  1
  I  I71  1  0.50699570  0.66951317  0.83257471  1
  I  I72  1  0.83272425  0.00012004  0.16604487  1
  I  I73  1  0.83808957  0.00291689  0.50404979  1
  I  I74  1  0.82903195  0.00049804  0.82904478  1
  I  I75  1  0.83382894  0.33577910  0.16156221  1
  I  I76  1  0.84098567  0.33355267  0.50433215  1
  I  I77  1  0.83798776  0.33407823  0.83354758  1
  I  I78  1  0.83495192  0.66190356  0.16805147  1
  I  I79  1  0.83839403  0.66344413  0.50144361  1
  I  I80  1  0.83290178  0.66547948  0.83334142  1
  I  I81  1  0.16827240  0.16873391  0.00193992  1
  I  I82  1  0.16433496  0.16849799  0.33502454  1
  I  I83  1  0.16361186  0.16481799  0.66347058  1
  I  I84  1  0.16096691  0.49908078  -0.00240378  1
  I  I85  1  0.16122820  0.50061403  0.33680633  1
  I  I86  1  0.15815047  0.49906618  0.66571819  1
  I  I87  1  0.16699293  0.83321674  -0.00026703  1
  I  I88  1  0.16520289  0.82730046  0.33772071  1
  I  I89  1  0.16591774  0.83850744  0.66379086  1
  I  I90  1  0.49441998  0.16648018  0.00303148  1
  I  I91  1  0.50045375  0.16707815  0.33047871  1
  I  I92  1  0.49791201  0.16545870  0.66690806  1
  I  I93  1  0.49996143  0.50003510  -0.00007265  1
  I  I94  1  0.49995432  0.50045209  0.33329942  1
  I  I95  1  0.50312976  0.49938188  0.66678000  1
  I  I96  1  0.50494156  0.83266669  -0.00365117  1
  I  I97  1  0.49974357  0.83355035  0.33323818  1
  I  I98  1  0.50652542  0.83378213  0.67001577  1
  I  I99  1  0.83299777  0.16833745  -0.00239236  1
  I  I100  1  0.83528765  0.17237784  0.33644121  1
  I  I101  1  0.83874755  0.17084683  0.66626623  1
  I  I102  1  0.83682286  0.49880085  -0.00166205  1
  I  I103  1  0.83873206  0.49198439  0.33494618  1
  I  I104  1  0.83797419  0.49930285  0.66685492  1
  I  I105  1  0.83058394  0.83571319  -0.00461482  1
  I  I106  1  0.83410917  0.83424608  0.33367762  1
  I  I107  1  0.83084241  0.82950431  0.67012541  1
  I  I108  1  0.00230130  0.16841978  0.16877608  1
  I  I109  1  0.00029223  0.16766631  0.49770416  1
  I  I110  1  -0.00362707  0.16257092  0.83496867  1
  I  I111  1  -0.00300875  0.49607746  0.16502027  1
  I  I112  1  -0.00033159  0.49872984  0.50155792  1
  I  I113  1  -0.00177369  0.50214639  0.83258538  1
  I  I114  1  -0.00002977  0.83719767  0.16280745  1
  I  I115  1  0.00283031  0.83372426  0.50337931  1
  I  I116  1  -0.00294936  0.83409990  0.83204932  1
  I  I117  1  0.33203170  0.16723933  0.17261605  1
  I  I118  1  0.32982903  0.16759797  0.49793180  1
  I  I119  1  0.33316036  0.16618981  0.83160594  1
  I  I120  1  0.33314605  0.50072082  0.16587739  1
  I  I121  1  0.32913123  0.49805152  0.50606647  1
  I  I122  1  0.33003604  0.50077653  0.82737464  1
  I  I123  1  0.33308553  0.83020846  0.16376669  1
  I  I124  1  0.32861963  0.83401804  0.50290301  1
  I  I125  1  0.33527901  0.83272124  0.83100981  1
  I  I126  1  0.66514213  0.16924027  0.16468544  1
  I  I127  1  0.67055250  0.17250249  0.50288408  1
  I  I128  1  0.67137310  0.17251001  0.82991025  1
  I  I129  1  0.67134534  0.49614043  0.16436854  1
  I  I130  1  0.67106918  0.49397054  0.50226356  1
  I  I131  1  0.67058772  0.49812556  0.83280831  1
  I  I132  1  0.66687523  0.83637834  0.16978500  1
  I  I133  1  0.66681100  0.83368798  0.49896527  1
  I  I134  1  0.66859040  0.83134855  0.83305894  1
