# generated using pymatgen
data_Cs27Sn14Pb13I81
_symmetry_space_group_name_H-M   'P 1'
_cell_length_a   18.95590016
_cell_length_b   18.96132442
_cell_length_c   18.96485403
_cell_angle_alpha   89.99951195
_cell_angle_beta   90.00192457
_cell_angle_gamma   89.99903347
_symmetry_Int_Tables_number   1
_chemical_formula_structural   Cs27Sn14Pb13I81
_chemical_formula_sum   'Cs27 Sn14 Pb13 I81'
_cell_volume   6816.51799574
_cell_formula_units_Z   1
loop_
 _symmetry_equiv_pos_site_id
 _symmetry_equiv_pos_as_xyz
  1  'x, y, z'
loop_
 _atom_site_type_symbol
 _atom_site_label
 _atom_site_symmetry_multiplicity
 _atom_site_fract_x
 _atom_site_fract_y
 _atom_site_fract_z
 _atom_site_occupancy
  Cs  Cs0  1  -0.00032224  -0.00349776  0.00005400  1
  Cs  Cs1  1  0.00170486  -0.00152464  0.33304502  1
  Cs  Cs2  1  0.00256479  -0.00039083  0.66602178  1
  Cs  Cs3  1  0.00064410  0.33476945  -0.00082544  1
  Cs  Cs4  1  -0.00160354  0.33374658  0.33538326  1
  Cs  Cs5  1  -0.00604772  0.34117206  0.66458164  1
  Cs  Cs6  1  -0.00079115  0.66946374  -0.00081761  1
  Cs  Cs7  1  0.00256417  0.66845849  0.33315633  1
  Cs  Cs8  1  -0.00271295  0.66139183  0.66698128  1
  Cs  Cs9  1  0.33230577  0.00089485  -0.00155139  1
  Cs  Cs10  1  0.33214502  -0.00056705  0.33577713  1
  Cs  Cs11  1  0.33283870  -0.00076724  0.66625871  1
  Cs  Cs12  1  0.33441170  0.33352864  0.00025865  1
  Cs  Cs13  1  0.33284104  0.33443187  0.33103612  1
  Cs  Cs14  1  0.33248506  0.33225423  0.66941410  1
  Cs  Cs15  1  0.33354966  0.66598217  -0.00030027  1
  Cs  Cs16  1  0.33445372  0.66591050  0.33276488  1
  Cs  Cs17  1  0.33387278  0.66904442  0.66746777  1
  Cs  Cs18  1  0.66905516  -0.00033088  -0.00086060  1
  Cs  Cs19  1  0.66588454  -0.00023384  0.33554999  1
  Cs  Cs20  1  0.66819809  0.00683769  0.66488715  1
  Cs  Cs21  1  0.66444826  0.33230864  0.00306447  1
  Cs  Cs22  1  0.66814197  0.33369529  0.33097109  1
  Cs  Cs23  1  0.67356467  0.32679680  0.66594150  1
  Cs  Cs24  1  0.66595261  0.66739655  0.00034755  1
  Cs  Cs25  1  0.66307577  0.66596536  0.33306216  1
  Cs  Cs26  1  0.66648367  0.66709755  0.66706884  1
  Sn  Sn27  1  0.83401390  0.83332334  0.50018374  1
  Sn  Sn28  1  0.50055705  0.50018169  0.16650201  1
  Sn  Sn29  1  0.83357710  0.16710742  0.16660112  1
  Sn  Sn30  1  0.50006428  0.16624262  0.16674868  1
  Sn  Sn31  1  0.16637351  0.16655880  0.16659442  1
  Sn  Sn32  1  0.83291715  0.49989807  0.16658481  1
  Sn  Sn33  1  0.49987542  0.49935681  0.50056295  1
  Sn  Sn34  1  0.16655393  0.16628842  0.83311743  1
  Sn  Sn35  1  0.16734054  0.83388787  0.83252703  1
  Sn  Sn36  1  0.49998121  0.50026245  0.83294194  1
  Sn  Sn37  1  0.49951491  0.83308979  0.83400817  1
  Sn  Sn38  1  0.16677965  0.16657485  0.50030129  1
  Sn  Sn39  1  0.16573450  0.83361739  0.50090687  1
  Sn  Sn40  1  0.49967443  0.83354366  0.16586264  1
  Pb  Pb41  1  0.83678107  0.16658197  0.83584976  1
  Pb  Pb42  1  0.83313619  0.83343529  0.83081031  1
  Pb  Pb43  1  0.49950708  0.83219817  0.50065456  1
  Pb  Pb44  1  0.83083415  0.50216405  0.49760197  1
  Pb  Pb45  1  0.49789793  0.16922490  0.49769965  1
  Pb  Pb46  1  0.16849177  0.50050117  0.83336418  1
  Pb  Pb47  1  0.83006256  0.50006403  0.83613490  1
  Pb  Pb48  1  0.16656168  0.49767123  0.16660367  1
  Pb  Pb49  1  0.16885333  0.83524934  0.16652179  1
  Pb  Pb50  1  0.83088052  0.83327363  0.16836160  1
  Pb  Pb51  1  0.49854182  0.16633656  0.83514332  1
  Pb  Pb52  1  0.16860083  0.50042058  0.50006478  1
  Pb  Pb53  1  0.83600915  0.16488899  0.49770181  1
  I  I54  1  0.16695239  0.00369358  0.16697670  1
  I  I55  1  0.16458566  -0.00019231  0.49941223  1
  I  I56  1  0.17310236  -0.00045512  0.83315128  1
  I  I57  1  0.17185900  0.32895007  0.16666701  1
  I  I58  1  0.17014206  0.33029224  0.49852204  1
  I  I59  1  0.16912320  0.33031944  0.83483293  1
  I  I60  1  0.16721184  0.66697776  0.16713305  1
  I  I61  1  0.16475895  0.67015776  0.50450789  1
  I  I62  1  0.16963386  0.67022702  0.82853878  1
  I  I63  1  0.49923298  0.00020946  0.16271790  1
  I  I64  1  0.50145526  0.00016174  0.49852490  1
  I  I65  1  0.49709617  -0.00297741  0.83832415  1
  I  I66  1  0.49975898  0.33356041  0.16678746  1
  I  I67  1  0.49787446  0.33718840  0.49931162  1
  I  I68  1  0.49740435  0.33574113  0.83585713  1
  I  I69  1  0.50434895  0.66597272  0.16660914  1
  I  I70  1  0.49817106  0.66426946  0.49406508  1
  I  I71  1  0.49425906  0.66722365  0.83854426  1
  I  I72  1  0.83269249  0.00285628  0.16815240  1
  I  I73  1  0.83254767  -0.00293475  0.49724508  1
  I  I74  1  0.82782173  -0.00004690  0.83631121  1
  I  I75  1  0.82813843  0.33285073  0.16716705  1
  I  I76  1  0.83398606  0.33333227  0.50016988  1
  I  I77  1  0.83392967  0.33331154  0.83087584  1
  I  I78  1  0.82666634  0.66423796  0.16846719  1
  I  I79  1  0.84014367  0.66981045  0.49743142  1
  I  I80  1  0.83795813  0.66678937  0.83599065  1
  I  I81  1  0.16788234  0.16337495  0.00043021  1
  I  I82  1  0.16772930  0.16289036  0.33290473  1
  I  I83  1  0.16969205  0.16088932  0.66668707  1
  I  I84  1  0.16903074  0.49969933  0.00009291  1
  I  I85  1  0.17082453  0.50050910  0.33322952  1
  I  I86  1  0.16985943  0.49491042  0.66670796  1
  I  I87  1  0.16991824  0.83721449  -0.00266078  1
  I  I88  1  0.16524150  0.83733999  0.33577106  1
  I  I89  1  0.17011218  0.84178090  0.66690017  1
  I  I90  1  0.49725103  0.17075699  0.00381852  1
  I  I91  1  0.49758089  0.16570339  0.32899223  1
  I  I92  1  0.49786795  0.16691392  0.66665043  1
  I  I93  1  0.50282409  0.50068572  0.00109596  1
  I  I94  1  0.50275389  0.50053909  0.33166400  1
  I  I95  1  0.49594431  0.50747575  0.66743670  1
  I  I96  1  0.49514397  0.82900280  0.00013907  1
  I  I97  1  0.49996107  0.83232025  0.33088587  1
  I  I98  1  0.49801134  0.82734011  0.66947903  1
  I  I99  1  0.83349803  0.16918911  0.00448061  1
  I  I100  1  0.83395037  0.16995825  0.32937473  1
  I  I101  1  0.83309674  0.16549910  0.66637464  1
  I  I102  1  0.82812401  0.49685052  0.00431097  1
  I  I103  1  0.82638278  0.49572462  0.32969284  1
  I  I104  1  0.83195442  0.50079922  0.66644892  1
  I  I105  1  0.83537072  0.83299797  0.00024354  1
  I  I106  1  0.83831432  0.83382402  0.33600004  1
  I  I107  1  0.83250307  0.83313530  0.66302930  1
  I  I108  1  0.00052972  0.17112754  0.16710049  1
  I  I109  1  0.00428791  0.16513944  0.49714895  1
  I  I110  1  0.00513401  0.15939383  0.83617472  1
  I  I111  1  -0.00294904  0.49526087  0.16797154  1
  I  I112  1  -0.00021948  0.49862039  0.49773692  1
  I  I113  1  -0.00017588  0.50015999  0.83499456  1
  I  I114  1  0.00012143  0.83312428  0.16504198  1
  I  I115  1  0.00175143  0.83750881  0.50295746  1
  I  I116  1  0.00343697  0.83861451  0.83243832  1
  I  I117  1  0.33349829  0.16699607  0.16675125  1
  I  I118  1  0.32967989  0.15993243  0.49720611  1
  I  I119  1  0.33016714  0.16564098  0.83625742  1
  I  I120  1  0.33709281  0.49924657  0.16655545  1
  I  I121  1  0.33686264  0.50219909  0.49505867  1
  I  I122  1  0.33706001  0.50110106  0.83790956  1
  I  I123  1  0.33726905  0.83183999  0.16797023  1
  I  I124  1  0.33060967  0.83636657  0.50062804  1
  I  I125  1  0.33336563  0.83336683  0.83168847  1
  I  I126  1  0.66581506  0.16840434  0.16662418  1
  I  I127  1  0.66674996  0.16520675  0.49832272  1
  I  I128  1  0.66662277  0.16648248  0.83495756  1
  I  I129  1  0.66466176  0.49509118  0.16676190  1
  I  I130  1  0.66273509  0.50314276  0.50017965  1
  I  I131  1  0.66166078  0.50698139  0.83245832  1
  I  I132  1  0.66249564  0.83646157  0.16364608  1
  I  I133  1  0.66812049  0.82987737  0.49732504  1
  I  I134  1  0.66311398  0.82808340  0.83696638  1
