# generated using pymatgen
data_Cs27Sn14Pb13I81
_symmetry_space_group_name_H-M   'P 1'
_cell_length_a   18.97442726
_cell_length_b   18.97865737
_cell_length_c   18.97446370
_cell_angle_alpha   90.00133009
_cell_angle_beta   89.99779950
_cell_angle_gamma   90.00100944
_symmetry_Int_Tables_number   1
_chemical_formula_structural   Cs27Sn14Pb13I81
_chemical_formula_sum   'Cs27 Sn14 Pb13 I81'
_cell_volume   6832.87805883
_cell_formula_units_Z   1
loop_
 _symmetry_equiv_pos_site_id
 _symmetry_equiv_pos_as_xyz
  1  'x, y, z'
loop_
 _atom_site_type_symbol
 _atom_site_label
 _atom_site_symmetry_multiplicity
 _atom_site_fract_x
 _atom_site_fract_y
 _atom_site_fract_z
 _atom_site_occupancy
  Cs  Cs0  1  -0.00170096  -0.00264919  -0.00156723  1
  Cs  Cs1  1  0.00154466  -0.00151137  0.33541554  1
  Cs  Cs2  1  -0.00185047  -0.00015274  0.66622215  1
  Cs  Cs3  1  0.00198886  0.33426765  -0.00151573  1
  Cs  Cs4  1  -0.00144966  0.33305785  0.33485176  1
  Cs  Cs5  1  0.00072737  0.33280593  0.66621315  1
  Cs  Cs6  1  -0.00228003  0.66792670  -0.00141869  1
  Cs  Cs7  1  -0.00009285  0.66903504  0.33076459  1
  Cs  Cs8  1  0.00212650  0.66767098  0.67058115  1
  Cs  Cs9  1  0.33442716  0.00591660  0.00169168  1
  Cs  Cs10  1  0.33309813  -0.00127701  0.33240833  1
  Cs  Cs11  1  0.33504472  -0.00023078  0.66738786  1
  Cs  Cs12  1  0.33270377  0.33220795  0.00051241  1
  Cs  Cs13  1  0.33278116  0.33185110  0.33005449  1
  Cs  Cs14  1  0.33182526  0.33383706  0.67075317  1
  Cs  Cs15  1  0.33131350  0.66259907  0.00134381  1
  Cs  Cs16  1  0.33204236  0.67017703  0.33528269  1
  Cs  Cs17  1  0.33853308  0.66739454  0.66309753  1
  Cs  Cs18  1  0.66754250  -0.00256980  -0.00160863  1
  Cs  Cs19  1  0.66442103  0.00523048  0.33371550  1
  Cs  Cs20  1  0.66930814  -0.00519343  0.66811533  1
  Cs  Cs21  1  0.66533024  0.33293792  0.00160752  1
  Cs  Cs22  1  0.66925846  0.33187812  0.33450295  1
  Cs  Cs23  1  0.66748867  0.33733764  0.66273828  1
  Cs  Cs24  1  0.67148548  0.67115597  -0.00154569  1
  Cs  Cs25  1  0.66815840  0.66193512  0.33454021  1
  Cs  Cs26  1  0.65660790  0.66975188  0.66607146  1
  Sn  Sn27  1  0.16602196  0.16731212  0.16745895  1
  Sn  Sn28  1  0.50003905  0.16691744  0.16727746  1
  Sn  Sn29  1  0.83383455  0.16684011  0.16566131  1
  Sn  Sn30  1  0.83347420  0.83280074  0.49961072  1
  Sn  Sn31  1  0.49953413  0.50012074  0.16648170  1
  Sn  Sn32  1  0.83334408  0.16785860  0.83391320  1
  Sn  Sn33  1  0.49881290  0.16696678  0.49978737  1
  Sn  Sn34  1  0.49996184  0.83307051  0.16660932  1
  Sn  Sn35  1  0.16730526  0.83257904  0.83360299  1
  Sn  Sn36  1  0.16774277  0.16740712  0.49931696  1
  Sn  Sn37  1  0.16701277  0.49937466  0.16710694  1
  Sn  Sn38  1  0.16647897  0.49939336  0.49964814  1
  Sn  Sn39  1  0.83356677  0.49907250  0.83309834  1
  Sn  Sn40  1  0.16611303  0.50104688  0.83328996  1
  Pb  Pb41  1  0.83573293  0.50247836  0.50280137  1
  Pb  Pb42  1  0.49737802  0.49749422  0.49724439  1
  Pb  Pb43  1  0.83108852  0.83596967  0.16870868  1
  Pb  Pb44  1  0.83475648  0.83291851  0.83174512  1
  Pb  Pb45  1  0.49978024  0.49983929  0.83576319  1
  Pb  Pb46  1  0.16573796  0.83362345  0.50181857  1
  Pb  Pb47  1  0.50194825  0.83583630  0.49758087  1
  Pb  Pb48  1  0.49683876  0.83337004  0.83590051  1
  Pb  Pb49  1  0.83382149  0.49808984  0.16497536  1
  Pb  Pb50  1  0.16820881  0.83346933  0.16483939  1
  Pb  Pb51  1  0.50304845  0.16688767  0.83308804  1
  Pb  Pb52  1  0.83362673  0.16587921  0.50007440  1
  Pb  Pb53  1  0.16511823  0.16716032  0.83330436  1
  I  I54  1  0.16776679  0.00342251  0.16940278  1
  I  I55  1  0.16831180  0.00328204  0.49625786  1
  I  I56  1  0.16432320  -0.00133412  0.83362881  1
  I  I57  1  0.17119114  0.33304237  0.16450519  1
  I  I58  1  0.16908453  0.33279463  0.50113653  1
  I  I59  1  0.16428348  0.33617699  0.83378730  1
  I  I60  1  0.17163019  0.66345266  0.16873127  1
  I  I61  1  0.16338759  0.66372110  0.49736887  1
  I  I62  1  0.15977434  0.66449402  0.83484397  1
  I  I63  1  0.49984413  0.00185642  0.17032595  1
  I  I64  1  0.49371670  0.00379776  0.49313415  1
  I  I65  1  0.49952004  0.00021500  0.83607516  1
  I  I66  1  0.49861584  0.33234795  0.16940901  1
  I  I67  1  0.50120810  0.32960849  0.49368175  1
  I  I68  1  0.49544243  0.33326358  0.83630604  1
  I  I69  1  0.49358980  0.66574226  0.16471926  1
  I  I70  1  0.50026165  0.66649634  0.49850514  1
  I  I71  1  0.50517586  0.66656812  0.83535298  1
  I  I72  1  0.83440621  0.00447471  0.16055635  1
  I  I73  1  0.83541156  -0.00146141  0.50190432  1
  I  I74  1  0.83505306  0.00241345  0.83597906  1
  I  I75  1  0.82936136  0.32975102  0.16643187  1
  I  I76  1  0.83168543  0.33347589  0.49937156  1
  I  I77  1  0.84019256  0.33325474  0.83695928  1
  I  I78  1  0.83264093  0.66660090  0.16573305  1
  I  I79  1  0.83541446  0.66964254  0.50058334  1
  I  I80  1  0.83760323  0.66387526  0.83299914  1
  I  I81  1  0.16976637  0.16921494  0.00305936  1
  I  I82  1  0.16511558  0.17331736  0.33231573  1
  I  I83  1  0.16896044  0.16912843  0.66402654  1
  I  I84  1  0.16735851  0.49939935  0.00054917  1
  I  I85  1  0.17147359  0.49470726  0.33252992  1
  I  I86  1  0.16039920  0.49875185  0.66690367  1
  I  I87  1  0.16560698  0.82940659  -0.00289837  1
  I  I88  1  0.16609345  0.83132195  0.33321792  1
  I  I89  1  0.16419052  0.83015553  0.66966537  1
  I  I90  1  0.49640157  0.16694278  0.00378818  1
  I  I91  1  0.50162643  0.16652316  0.33145948  1
  I  I92  1  0.49523036  0.16615062  0.66358475  1
  I  I93  1  0.49350695  0.49521951  0.00410725  1
  I  I94  1  0.49561144  0.50139433  0.32905498  1
  I  I95  1  0.49984290  0.49852539  0.66638995  1
  I  I96  1  0.50141270  0.83772363  0.00396196  1
  I  I97  1  0.49814101  0.83270592  0.32975108  1
  I  I98  1  0.50123031  0.83525446  0.66640135  1
  I  I99  1  0.83385652  0.16939425  0.00088637  1
  I  I100  1  0.83256133  0.16455100  0.33059937  1
  I  I101  1  0.83494154  0.16810687  0.66895630  1
  I  I102  1  0.83947531  0.49894224  -0.00288352  1
  I  I103  1  0.83368663  0.49968430  0.33335977  1
  I  I104  1  0.84024580  0.49181468  0.67064077  1
  I  I105  1  0.83263086  0.83302981  0.00009634  1
  I  I106  1  0.83588011  0.83583065  0.33599247  1
  I  I107  1  0.83499748  0.83812558  0.66438138  1
  I  I108  1  0.00115529  0.17178802  0.16715707  1
  I  I109  1  0.00292907  0.16888426  0.49680876  1
  I  I110  1  -0.00267158  0.16741238  0.83721176  1
  I  I111  1  0.00351582  0.49495111  0.16788698  1
  I  I112  1  0.00405083  0.49240188  0.49472090  1
  I  I113  1  0.00153656  0.49955222  0.83614368  1
  I  I114  1  -0.00002233  0.83395856  0.16633920  1
  I  I115  1  -0.00183271  0.83747384  0.50039762  1
  I  I116  1  0.00261645  0.83193950  0.83426272  1
  I  I117  1  0.33314183  0.16682718  0.17075232  1
  I  I118  1  0.33227517  0.16891568  0.49163442  1
  I  I119  1  0.33320062  0.16636058  0.83554295  1
  I  I120  1  0.33202700  0.49471493  0.16384281  1
  I  I121  1  0.32911839  0.50010558  0.50603447  1
  I  I122  1  0.32964908  0.50373666  0.83220807  1
  I  I123  1  0.33608679  0.83869213  0.16636565  1
  I  I124  1  0.33347169  0.83229880  0.50105040  1
  I  I125  1  0.32906793  0.82709850  0.83130097  1
  I  I126  1  0.66574514  0.16670952  0.16725285  1
  I  I127  1  0.66460094  0.16371854  0.49546903  1
  I  I128  1  0.67106502  0.17127925  0.83767261  1
  I  I129  1  0.66415964  0.49834096  0.16453716  1
  I  I130  1  0.66652541  0.49946844  0.50034566  1
  I  I131  1  0.66948949  0.49496287  0.83559792  1
  I  I132  1  0.66310604  0.83301092  0.16652126  1
  I  I133  1  0.66948292  0.83644838  0.50177608  1
  I  I134  1  0.66665869  0.83348451  0.83265596  1
