# generated using pymatgen
data_Cs27Sn14Pb13I81
_symmetry_space_group_name_H-M   'P 1'
_cell_length_a   18.96976301
_cell_length_b   18.97511854
_cell_length_c   18.98426839
_cell_angle_alpha   89.99731068
_cell_angle_beta   90.00124030
_cell_angle_gamma   89.99931442
_symmetry_Int_Tables_number   1
_chemical_formula_structural   Cs27Sn14Pb13I81
_chemical_formula_sum   'Cs27 Sn14 Pb13 I81'
_cell_volume   6833.45387524
_cell_formula_units_Z   1
loop_
 _symmetry_equiv_pos_site_id
 _symmetry_equiv_pos_as_xyz
  1  'x, y, z'
loop_
 _atom_site_type_symbol
 _atom_site_label
 _atom_site_symmetry_multiplicity
 _atom_site_fract_x
 _atom_site_fract_y
 _atom_site_fract_z
 _atom_site_occupancy
  Cs  Cs0  1  0.00092168  0.00275258  0.00105401  1
  Cs  Cs1  1  0.00025127  -0.00087145  0.33362187  1
  Cs  Cs2  1  -0.00103676  0.00034559  0.66506042  1
  Cs  Cs3  1  0.00132004  0.33192399  0.00134341  1
  Cs  Cs4  1  -0.00034047  0.33315495  0.33122516  1
  Cs  Cs5  1  0.00278202  0.32824972  0.66756044  1
  Cs  Cs6  1  0.00044454  0.66559624  0.00225220  1
  Cs  Cs7  1  0.00004676  0.66822487  0.33399503  1
  Cs  Cs8  1  -0.00492227  0.67251181  0.66332772  1
  Cs  Cs9  1  0.33488541  -0.00148948  0.00068540  1
  Cs  Cs10  1  0.33772220  -0.00169093  0.33320395  1
  Cs  Cs11  1  0.33183049  0.00051306  0.66520249  1
  Cs  Cs12  1  0.32943110  0.33402830  0.00051440  1
  Cs  Cs13  1  0.33454473  0.33373345  0.33373585  1
  Cs  Cs14  1  0.33417510  0.33399193  0.66646473  1
  Cs  Cs15  1  0.33400970  0.66740754  0.00072472  1
  Cs  Cs16  1  0.33076453  0.66803352  0.33173330  1
  Cs  Cs17  1  0.33444684  0.66611449  0.66619243  1
  Cs  Cs18  1  0.66364957  -0.00213847  0.00060669  1
  Cs  Cs19  1  0.66112615  0.00287319  0.33095064  1
  Cs  Cs20  1  0.66848758  -0.00107792  0.66867641  1
  Cs  Cs21  1  0.67012672  0.33427803  -0.00133691  1
  Cs  Cs22  1  0.66498886  0.33369803  0.33739982  1
  Cs  Cs23  1  0.66163672  0.33841126  0.66477101  1
  Cs  Cs24  1  0.66586236  0.66727575  -0.01007779  1
  Cs  Cs25  1  0.67008880  0.66199589  0.33620056  1
  Cs  Cs26  1  0.67035937  0.66234452  0.67361827  1
  Sn  Sn27  1  0.50086928  0.16666981  0.83362278  1
  Sn  Sn28  1  0.16639960  0.16629647  0.16787664  1
  Sn  Sn29  1  0.83189856  0.16668339  0.83353289  1
  Sn  Sn30  1  0.83394964  0.16566186  0.16695842  1
  Sn  Sn31  1  0.16746565  0.49998309  0.16683974  1
  Sn  Sn32  1  0.16620901  0.16731816  0.49851003  1
  Sn  Sn33  1  0.83360486  0.83405964  0.16665188  1
  Sn  Sn34  1  0.50057811  0.83287509  0.50011642  1
  Sn  Sn35  1  0.16645371  0.49935656  0.49996802  1
  Sn  Sn36  1  0.16609655  0.83367224  0.16581492  1
  Sn  Sn37  1  0.83383560  0.16661784  0.49951521  1
  Sn  Sn38  1  0.16648084  0.83245273  0.83404993  1
  Sn  Sn39  1  0.16635130  0.50154356  0.83305762  1
  Sn  Sn40  1  0.49975651  0.50003148  0.16651060  1
  Pb  Pb41  1  0.16630042  0.16649114  0.83347682  1
  Pb  Pb42  1  0.49978787  0.16557094  0.50198677  1
  Pb  Pb43  1  0.83056203  0.83577866  0.49743439  1
  Pb  Pb44  1  0.49764354  0.50239285  0.49821413  1
  Pb  Pb45  1  0.83648299  0.49748325  0.83320762  1
  Pb  Pb46  1  0.16746462  0.83360824  0.49955986  1
  Pb  Pb47  1  0.83585858  0.83561840  0.83571590  1
  Pb  Pb48  1  0.83613699  0.49750768  0.50011075  1
  Pb  Pb49  1  0.50054758  0.83091158  0.16780241  1
  Pb  Pb50  1  0.83359861  0.49997568  0.16652586  1
  Pb  Pb51  1  0.49766263  0.83504646  0.83126457  1
  Pb  Pb52  1  0.50011785  0.16853881  0.16493471  1
  Pb  Pb53  1  0.49753720  0.49797305  0.83542800  1
  I  I54  1  0.16184273  0.00038743  0.16581045  1
  I  I55  1  0.16443827  0.00300640  0.49830111  1
  I  I56  1  0.16677933  -0.00188637  0.83663243  1
  I  I57  1  0.16648390  0.33304148  0.16614979  1
  I  I58  1  0.16360539  0.33250029  0.49753267  1
  I  I59  1  0.16639048  0.33519179  0.83605533  1
  I  I60  1  0.16684342  0.66658971  0.16626472  1
  I  I61  1  0.17072415  0.66431271  0.49739543  1
  I  I62  1  0.16846188  0.66632480  0.83745908  1
  I  I63  1  0.49706136  -0.00000379  0.16659772  1
  I  I64  1  0.49555745  -0.00183019  0.49840040  1
  I  I65  1  0.50034796  0.00296301  0.83470027  1
  I  I66  1  0.49306248  0.33605681  0.16654162  1
  I  I67  1  0.50136829  0.33344363  0.50033620  1
  I  I68  1  0.50152564  0.33012115  0.83222017  1
  I  I69  1  0.49255546  0.66355693  0.16811221  1
  I  I70  1  0.49553851  0.66964731  0.49799094  1
  I  I71  1  0.50018967  0.66650850  0.83325771  1
  I  I72  1  0.84226712  0.00142951  0.16642393  1
  I  I73  1  0.84208533  0.00401411  0.50243128  1
  I  I74  1  0.83371720  0.00389357  0.83152143  1
  I  I75  1  0.83764996  0.32977009  0.16611705  1
  I  I76  1  0.83393279  0.32880115  0.49568227  1
  I  I77  1  0.83298840  0.32889106  0.83760113  1
  I  I78  1  0.83821190  0.66942336  0.16768965  1
  I  I79  1  0.83399197  0.66693827  0.49750600  1
  I  I80  1  0.83205009  0.66692269  0.83522610  1
  I  I81  1  0.16394585  0.16904559  0.00276617  1
  I  I82  1  0.15995542  0.16946008  0.33247048  1
  I  I83  1  0.16448008  0.16914601  0.66455392  1
  I  I84  1  0.17020532  0.49903926  0.00113593  1
  I  I85  1  0.17046048  0.49885775  0.33232603  1
  I  I86  1  0.16585235  0.49740320  0.66653875  1
  I  I87  1  0.16420471  0.83174504  0.00151598  1
  I  I88  1  0.16447249  0.83140017  0.33018335  1
  I  I89  1  0.17021319  0.83170738  0.66863901  1
  I  I90  1  0.50176891  0.16668225  -0.00272745  1
  I  I91  1  0.50156920  0.16682009  0.33325750  1
  I  I92  1  0.50141970  0.16570552  0.66967028  1
  I  I93  1  0.49256679  0.50031943  0.00311868  1
  I  I94  1  0.49325555  0.49848175  0.33037710  1
  I  I95  1  0.49757742  0.49927823  0.66679752  1
  I  I96  1  0.50079142  0.83331810  0.00001942  1
  I  I97  1  0.49576463  0.83569167  0.33519320  1
  I  I98  1  0.49557681  0.83562794  0.66387029  1
  I  I99  1  0.83537721  0.16378045  0.00105526  1
  I  I100  1  0.83971967  0.16311162  0.33250196  1
  I  I101  1  0.83630300  0.16781265  0.66638974  1
  I  I102  1  0.83576413  0.49630848  0.00012241  1
  I  I103  1  0.83467710  0.49809340  0.33310455  1
  I  I104  1  0.83455278  0.49862708  0.66665754  1
  I  I105  1  0.83480720  0.83943562  0.00369086  1
  I  I106  1  0.84202320  0.83846456  0.32960173  1
  I  I107  1  0.83491560  0.83580585  0.66675511  1
  I  I108  1  0.00108696  0.16830112  0.16471726  1
  I  I109  1  0.00097536  0.17001005  0.50170447  1
  I  I110  1  -0.00205245  0.16720458  0.83374720  1
  I  I111  1  0.00384861  0.49903989  0.16632910  1
  I  I112  1  0.00472595  0.50001177  0.49532382  1
  I  I113  1  0.00483880  0.50032101  0.83853544  1
  I  I114  1  0.00187525  0.83288053  0.16371511  1
  I  I115  1  -0.00006792  0.83173819  0.50181699  1
  I  I116  1  0.00399984  0.83178613  0.83353933  1
  I  I117  1  0.32984262  0.16466705  0.16899478  1
  I  I118  1  0.33002938  0.16890894  0.49745554  1
  I  I119  1  0.33446532  0.16693659  0.83316717  1
  I  I120  1  0.33017222  0.49940876  0.16660004  1
  I  I121  1  0.32914822  0.49239264  0.50147067  1
  I  I122  1  0.32917014  0.49938051  0.83222290  1
  I  I123  1  0.32997607  0.83588209  0.16465199  1
  I  I124  1  0.33467975  0.83639898  0.49782854  1
  I  I125  1  0.32957748  0.83340119  0.84040384  1
  I  I126  1  0.66987497  0.16356547  0.16857959  1
  I  I127  1  0.66951507  0.16293533  0.49649904  1
  I  I128  1  0.66782207  0.16561331  0.83425075  1
  I  I129  1  0.66430875  0.49872410  0.16754237  1
  I  I130  1  0.66653299  0.49888856  0.49673523  1
  I  I131  1  0.66662028  0.50022877  0.83579014  1
  I  I132  1  0.66947628  0.83924777  0.17023676  1
  I  I133  1  0.66347723  0.83695170  0.49684163  1
  I  I134  1  0.66693624  0.83368132  0.83436478  1
