# generated using pymatgen
data_Cs27Sn14Pb13I81
_symmetry_space_group_name_H-M   'P 1'
_cell_length_a   18.97760292
_cell_length_b   18.98245624
_cell_length_c   18.96808643
_cell_angle_alpha   89.99881788
_cell_angle_beta   89.99690738
_cell_angle_gamma   89.99842935
_symmetry_Int_Tables_number   1
_chemical_formula_structural   Cs27Sn14Pb13I81
_chemical_formula_sum   'Cs27 Sn14 Pb13 I81'
_cell_volume   6833.09221763
_cell_formula_units_Z   1
loop_
 _symmetry_equiv_pos_site_id
 _symmetry_equiv_pos_as_xyz
  1  'x, y, z'
loop_
 _atom_site_type_symbol
 _atom_site_label
 _atom_site_symmetry_multiplicity
 _atom_site_fract_x
 _atom_site_fract_y
 _atom_site_fract_z
 _atom_site_occupancy
  Cs  Cs0  1  0.00227463  0.00615796  0.00113444  1
  Cs  Cs1  1  -0.00110108  0.00339631  0.33151729  1
  Cs  Cs2  1  -0.00206647  -0.00225338  0.66716778  1
  Cs  Cs3  1  0.00122178  0.33041397  0.00244931  1
  Cs  Cs4  1  0.00089883  0.33337053  0.33338729  1
  Cs  Cs5  1  -0.00120968  0.33290237  0.66404809  1
  Cs  Cs6  1  -0.00055915  0.66298571  0.00127491  1
  Cs  Cs7  1  0.00220386  0.66534511  0.33414353  1
  Cs  Cs8  1  0.00052066  0.66941728  0.66656085  1
  Cs  Cs9  1  0.33221782  0.00300156  -0.00141900  1
  Cs  Cs10  1  0.33816979  -0.00467890  0.33557635  1
  Cs  Cs11  1  0.33332791  -0.00384480  0.66601587  1
  Cs  Cs12  1  0.33296195  0.33190931  0.00016848  1
  Cs  Cs13  1  0.33390298  0.33505794  0.33355012  1
  Cs  Cs14  1  0.33453188  0.33502665  0.66636496  1
  Cs  Cs15  1  0.33302324  0.66546544  0.00107902  1
  Cs  Cs16  1  0.33225199  0.66688290  0.33245929  1
  Cs  Cs17  1  0.32846890  0.66777786  0.66882728  1
  Cs  Cs18  1  0.66564775  -0.00204081  -0.00200472  1
  Cs  Cs19  1  0.66310301  -0.00345083  0.33140331  1
  Cs  Cs20  1  0.66756796  0.00174128  0.66767223  1
  Cs  Cs21  1  0.66604981  0.33487946  -0.00128901  1
  Cs  Cs22  1  0.66508353  0.33364192  0.33542376  1
  Cs  Cs23  1  0.66628094  0.33056523  0.66653620  1
  Cs  Cs24  1  0.66855863  0.66779993  -0.00052229  1
  Cs  Cs25  1  0.66562038  0.66802883  0.32969429  1
  Cs  Cs26  1  0.67034650  0.66616897  0.67056564  1
  Sn  Sn27  1  0.16646893  0.83289849  0.16667298  1
  Sn  Sn28  1  0.16679595  0.49920276  0.49945600  1
  Sn  Sn29  1  0.16754250  0.50057248  0.16744899  1
  Sn  Sn30  1  0.50036049  0.83391486  0.83321048  1
  Sn  Sn31  1  0.83318500  0.50009176  0.49986827  1
  Sn  Sn32  1  0.50027853  0.16733769  0.16606794  1
  Sn  Sn33  1  0.83261189  0.16607811  0.83274115  1
  Sn  Sn34  1  0.83268399  0.83435142  0.83284072  1
  Sn  Sn35  1  0.16636463  0.16695175  0.50008022  1
  Sn  Sn36  1  0.83302630  0.83358471  0.49999287  1
  Sn  Sn37  1  0.49946318  0.49915747  0.16738972  1
  Sn  Sn38  1  0.49996846  0.50039175  0.49962081  1
  Sn  Sn39  1  0.50064657  0.16592938  0.83396812  1
  Sn  Sn40  1  0.83389961  0.16633652  0.50040071  1
  Pb  Pb41  1  0.16923054  0.16720915  0.16935522  1
  Pb  Pb42  1  0.16576663  0.83342700  0.83595894  1
  Pb  Pb43  1  0.49834153  0.83280781  0.16430315  1
  Pb  Pb44  1  0.16657945  0.16673125  0.83040836  1
  Pb  Pb45  1  0.16653018  0.49974079  0.83345131  1
  Pb  Pb46  1  0.16441925  0.83336061  0.49834275  1
  Pb  Pb47  1  0.50248552  0.83010251  0.50249222  1
  Pb  Pb48  1  0.50017651  0.16799652  0.50041370  1
  Pb  Pb49  1  0.83323726  0.49979815  0.16909823  1
  Pb  Pb50  1  0.83050950  0.16666665  0.16670079  1
  Pb  Pb51  1  0.83574874  0.83346465  0.16591676  1
  Pb  Pb52  1  0.49994974  0.49982797  0.83373367  1
  Pb  Pb53  1  0.83352794  0.49946454  0.83108833  1
  I  I54  1  0.16678724  -0.00161288  0.16730022  1
  I  I55  1  0.16209961  0.00246490  0.49863257  1
  I  I56  1  0.16798738  0.00010930  0.83446561  1
  I  I57  1  0.16898472  0.33630802  0.16973286  1
  I  I58  1  0.16164593  0.33457720  0.49511510  1
  I  I59  1  0.16687783  0.33300343  0.83758589  1
  I  I60  1  0.17204304  0.66478558  0.17241284  1
  I  I61  1  0.16609260  0.66360930  0.49783622  1
  I  I62  1  0.16721325  0.66682183  0.82877455  1
  I  I63  1  0.49863049  0.00224509  0.16503213  1
  I  I64  1  0.49890509  -0.00018288  0.49660124  1
  I  I65  1  0.50418582  0.00104228  0.83882712  1
  I  I66  1  0.49468512  0.33413550  0.16484739  1
  I  I67  1  0.50384460  0.33614762  0.50067388  1
  I  I68  1  0.50489874  0.33037097  0.83385569  1
  I  I69  1  0.49768269  0.66367906  0.17024640  1
  I  I70  1  0.49848226  0.66209053  0.49436899  1
  I  I71  1  0.50516616  0.66921626  0.83240677  1
  I  I72  1  0.83469891  0.00009444  0.17327642  1
  I  I73  1  0.83897643  0.00075664  0.50460276  1
  I  I74  1  0.82832203  0.00033395  0.82357088  1
  I  I75  1  0.83754856  0.33322421  0.16540497  1
  I  I76  1  0.83423109  0.33312459  0.50359398  1
  I  I77  1  0.82826894  0.32974292  0.82891968  1
  I  I78  1  0.82904433  0.66660542  0.16626689  1
  I  I79  1  0.83331451  0.66645010  0.50398349  1
  I  I80  1  0.82859411  0.66972213  0.82915579  1
  I  I81  1  0.16396460  0.16745104  0.00025013  1
  I  I82  1  0.16043119  0.16894663  0.33705522  1
  I  I83  1  0.16719186  0.17334518  0.66241110  1
  I  I84  1  0.17253166  0.50443294  0.00384022  1
  I  I85  1  0.16707297  0.50020651  0.33434633  1
  I  I86  1  0.16775555  0.49615734  0.66255206  1
  I  I87  1  0.16590097  0.82587905  0.00366226  1
  I  I88  1  0.16633939  0.83102681  0.33067853  1
  I  I89  1  0.16855732  0.83250323  0.66660059  1
  I  I90  1  0.50468938  0.16911409  -0.00064741  1
  I  I91  1  0.49927435  0.17014824  0.33146216  1
  I  I92  1  0.50160837  0.16487161  0.66923789  1
  I  I93  1  0.49381721  0.49880839  0.00314351  1
  I  I94  1  0.49973602  0.49381886  0.33333900  1
  I  I95  1  0.49977369  0.49925412  0.66364417  1
  I  I96  1  0.50705103  0.83246135  -0.00341768  1
  I  I97  1  0.50102517  0.83617699  0.33337772  1
  I  I98  1  0.50042133  0.83958518  0.67017158  1
  I  I99  1  0.83151443  0.16044446  -0.00333162  1
  I  I100  1  0.83666260  0.16727662  0.33695305  1
  I  I101  1  0.83083439  0.16694250  0.66591743  1
  I  I102  1  0.83345878  0.50093568  0.00003335  1
  I  I103  1  0.83351227  0.49939852  0.33788555  1
  I  I104  1  0.83291377  0.49981126  0.66224604  1
  I  I105  1  0.82989956  0.83852434  -0.00370286  1
  I  I106  1  0.83541160  0.83319086  0.33641466  1
  I  I107  1  0.83040677  0.83310066  0.66633690  1
  I  I108  1  0.00020631  0.16738583  0.16387430  1
  I  I109  1  -0.00133633  0.17151262  0.50450255  1
  I  I110  1  -0.00339709  0.16185410  0.83077084  1
  I  I111  1  0.00319980  0.50450048  0.17038292  1
  I  I112  1  0.00014417  0.49891844  0.49678305  1
  I  I113  1  -0.00020528  0.50097174  0.83425878  1
  I  I114  1  0.00342117  0.82567029  0.16638712  1
  I  I115  1  -0.00363714  0.82903397  0.50633300  1
  I  I116  1  -0.00372511  0.83739202  0.82879020  1
  I  I117  1  0.33688035  0.16849200  0.16151757  1
  I  I118  1  0.33133072  0.17280912  0.49903989  1
  I  I119  1  0.33659356  0.16324889  0.83623997  1
  I  I120  1  0.33355350  0.50040574  0.17524638  1
  I  I121  1  0.33290978  0.49383974  0.49601066  1
  I  I122  1  0.33360153  0.50070936  0.82704493  1
  I  I123  1  0.33067460  0.83136410  0.16658194  1
  I  I124  1  0.33345012  0.83388962  0.50107306  1
  I  I125  1  0.33593813  0.83719109  0.83495551  1
  I  I126  1  0.66259351  0.17250850  0.16813363  1
  I  I127  1  0.66945969  0.16850715  0.50136622  1
  I  I128  1  0.66690433  0.16309102  0.83056595  1
  I  I129  1  0.66336020  0.49601353  0.17091566  1
  I  I130  1  0.66681929  0.49904128  0.49665618  1
  I  I131  1  0.66665480  0.50058622  0.83316146  1
  I  I132  1  0.66657306  0.83291713  0.16855747  1
  I  I133  1  0.67063755  0.83524461  0.50021760  1
  I  I134  1  0.66732988  0.83715887  0.82987527  1
