# generated using pymatgen
data_Cs27Sn14Pb13I81
_symmetry_space_group_name_H-M   'P 1'
_cell_length_a   18.98005935
_cell_length_b   18.97592753
_cell_length_c   18.96839154
_cell_angle_alpha   90.00054155
_cell_angle_beta   90.00109561
_cell_angle_gamma   90.00035470
_symmetry_Int_Tables_number   1
_chemical_formula_structural   Cs27Sn14Pb13I81
_chemical_formula_sum   'Cs27 Sn14 Pb13 I81'
_cell_volume   6831.73614611
_cell_formula_units_Z   1
loop_
 _symmetry_equiv_pos_site_id
 _symmetry_equiv_pos_as_xyz
  1  'x, y, z'
loop_
 _atom_site_type_symbol
 _atom_site_label
 _atom_site_symmetry_multiplicity
 _atom_site_fract_x
 _atom_site_fract_y
 _atom_site_fract_z
 _atom_site_occupancy
  Cs  Cs0  1  -0.00249429  0.01009470  0.00086363  1
  Cs  Cs1  1  0.00192117  -0.00118870  0.33596930  1
  Cs  Cs2  1  -0.00028379  0.00014443  0.66482001  1
  Cs  Cs3  1  0.00000301  0.32363565  0.00726924  1
  Cs  Cs4  1  -0.00213790  0.33504098  0.32737125  1
  Cs  Cs5  1  0.00227356  0.33302848  0.66728901  1
  Cs  Cs6  1  -0.00062102  0.66522298  -0.00376595  1
  Cs  Cs7  1  0.00165334  0.66563844  0.33222002  1
  Cs  Cs8  1  0.00064757  0.66706995  0.66647676  1
  Cs  Cs9  1  0.33487275  0.00192740  0.00242271  1
  Cs  Cs10  1  0.33194330  -0.00353784  0.33336387  1
  Cs  Cs11  1  0.33408896  0.00006450  0.66572323  1
  Cs  Cs12  1  0.33051097  0.33192270  0.00027397  1
  Cs  Cs13  1  0.33698077  0.33586391  0.33546100  1
  Cs  Cs14  1  0.33337879  0.33311491  0.66563307  1
  Cs  Cs15  1  0.33487700  0.66628566  0.00122215  1
  Cs  Cs16  1  0.33092169  0.66897160  0.32092744  1
  Cs  Cs17  1  0.32943918  0.66718314  0.66901582  1
  Cs  Cs18  1  0.66655340  -0.00051383  0.00052018  1
  Cs  Cs19  1  0.66610802  0.00001536  0.33603041  1
  Cs  Cs20  1  0.66681730  -0.00077705  0.66605841  1
  Cs  Cs21  1  0.66908622  0.32957396  0.00101464  1
  Cs  Cs22  1  0.66606625  0.34169873  0.33653661  1
  Cs  Cs23  1  0.66420513  0.33463549  0.66348930  1
  Cs  Cs24  1  0.66475401  0.66942810  -0.00292684  1
  Cs  Cs25  1  0.66731948  0.66079038  0.33077526  1
  Cs  Cs26  1  0.66859476  0.66783683  0.66880570  1
  Sn  Sn27  1  0.83347620  0.83332647  0.16660127  1
  Sn  Sn28  1  0.83383786  0.49996235  0.83311392  1
  Sn  Sn29  1  0.83235337  0.83365588  0.49985287  1
  Sn  Sn30  1  0.83399673  0.16659367  0.50035156  1
  Sn  Sn31  1  0.16617431  0.50029398  0.83293970  1
  Sn  Sn32  1  0.16648441  0.83340789  0.83330954  1
  Sn  Sn33  1  0.50009199  0.16652479  0.83390610  1
  Sn  Sn34  1  0.50053635  0.83261882  0.50050748  1
  Sn  Sn35  1  0.16686256  0.49941544  0.50058931  1
  Sn  Sn36  1  0.49997995  0.49987190  0.83294717  1
  Sn  Sn37  1  0.16580554  0.16782581  0.50040965  1
  Sn  Sn38  1  0.50035591  0.16663361  0.16656942  1
  Sn  Sn39  1  0.49961657  0.83341114  0.83246866  1
  Sn  Sn40  1  0.83385705  0.83311655  0.83335102  1
  Pb  Pb41  1  0.83328514  0.50249836  0.16321421  1
  Pb  Pb42  1  0.83526760  0.50060356  0.50212221  1
  Pb  Pb43  1  0.16891139  0.16677106  0.83170005  1
  Pb  Pb44  1  0.16655986  0.49999474  0.16576845  1
  Pb  Pb45  1  0.49724560  0.50383273  0.50209839  1
  Pb  Pb46  1  0.50017936  0.49739568  0.16345302  1
  Pb  Pb47  1  0.16348504  0.83363424  0.16252202  1
  Pb  Pb48  1  0.16917537  0.16654544  0.17039428  1
  Pb  Pb49  1  0.83109627  0.16660294  0.83127694  1
  Pb  Pb50  1  0.16661305  0.83281814  0.50153608  1
  Pb  Pb51  1  0.50191121  0.83469883  0.16642912  1
  Pb  Pb52  1  0.50007057  0.16508977  0.50017057  1
  Pb  Pb53  1  0.83098588  0.16452806  0.17011982  1
  I  I54  1  0.16746034  -0.00002186  0.16683358  1
  I  I55  1  0.16606168  0.00155781  0.50189694  1
  I  I56  1  0.16642120  -0.00270525  0.83099785  1
  I  I57  1  0.16589170  0.33314326  0.16116842  1
  I  I58  1  0.16279550  0.33334719  0.50748381  1
  I  I59  1  0.16769735  0.33621105  0.83028484  1
  I  I60  1  0.16799077  0.66699266  0.17269361  1
  I  I61  1  0.16653062  0.66436039  0.50491563  1
  I  I62  1  0.16986457  0.66661163  0.82706210  1
  I  I63  1  0.50101767  0.00231456  0.15997508  1
  I  I64  1  0.49959296  -0.00281118  0.50642398  1
  I  I65  1  0.50031751  -0.00123947  0.83301378  1
  I  I66  1  0.50025067  0.32952042  0.16286179  1
  I  I67  1  0.50192026  0.33366285  0.50060397  1
  I  I68  1  0.49963959  0.33365175  0.83771524  1
  I  I69  1  0.50047664  0.66672122  0.16713923  1
  I  I70  1  0.50666926  0.67149370  0.50620700  1
  I  I71  1  0.50049182  0.66752277  0.82817419  1
  I  I72  1  0.83218041  -0.00325049  0.15931339  1
  I  I73  1  0.83532843  -0.00154292  0.50305665  1
  I  I74  1  0.83319533  -0.00339071  0.83434102  1
  I  I75  1  0.83281382  0.33310339  0.16620585  1
  I  I76  1  0.83459797  0.33121430  0.50298484  1
  I  I77  1  0.83271045  0.33585671  0.83007838  1
  I  I78  1  0.83145544  0.67061288  0.17220738  1
  I  I79  1  0.83058015  0.67017950  0.49983719  1
  I  I80  1  0.82968944  0.66815687  0.83155530  1
  I  I81  1  0.16588624  0.16668867  -0.00009091  1
  I  I82  1  0.16450736  0.17090706  0.33835086  1
  I  I83  1  0.16574915  0.16704333  0.66386745  1
  I  I84  1  0.16817468  0.50606836  -0.00455586  1
  I  I85  1  0.16612894  0.49603909  0.33640093  1
  I  I86  1  0.16693993  0.50025513  0.66829838  1
  I  I87  1  0.17020977  0.82600608  -0.00568338  1
  I  I88  1  0.16801640  0.83321293  0.33334471  1
  I  I89  1  0.16371495  0.83207066  0.66986922  1
  I  I90  1  0.50018204  0.16413003  -0.00208204  1
  I  I91  1  0.49941627  0.16195626  0.33165094  1
  I  I92  1  0.49981598  0.16727929  0.66932917  1
  I  I93  1  0.49745297  0.50732122  -0.00534493  1
  I  I94  1  0.49820914  0.49922648  0.33362774  1
  I  I95  1  0.50212702  0.49483779  0.67068682  1
  I  I96  1  0.50081598  0.83135858  -0.00385848  1
  I  I97  1  0.50347822  0.83757426  0.33607890  1
  I  I98  1  0.50471516  0.83636542  0.66855138  1
  I  I99  1  0.83380864  0.16637343  -0.00013940  1
  I  I100  1  0.83530243  0.16034919  0.33785491  1
  I  I101  1  0.83425255  0.15979261  0.66365769  1
  I  I102  1  0.83467461  0.50539713  -0.00535002  1
  I  I103  1  0.83522170  0.50053790  0.33354209  1
  I  I104  1  0.83099696  0.50633923  0.67036941  1
  I  I105  1  0.83223556  0.82772027  -0.00195367  1
  I  I106  1  0.82810783  0.83967554  0.33480493  1
  I  I107  1  0.83200639  0.83344455  0.66744931  1
  I  I108  1  -0.00030624  0.16594097  0.16514226  1
  I  I109  1  -0.00041106  0.16252721  0.50230897  1
  I  I110  1  -0.00010173  0.16610992  0.83335413  1
  I  I111  1  -0.00015113  0.50012977  0.16434330  1
  I  I112  1  0.00299162  0.50112743  0.50792990  1
  I  I113  1  0.00026029  0.51033967  0.82808924  1
  I  I114  1  -0.00430907  0.83355407  0.16972905  1
  I  I115  1  -0.00287405  0.83485155  0.50183299  1
  I  I116  1  -0.00090399  0.82538394  0.83196271  1
  I  I117  1  0.33678627  0.16466006  0.16192214  1
  I  I118  1  0.33136317  0.16860117  0.50126850  1
  I  I119  1  0.33697512  0.16535379  0.83362997  1
  I  I120  1  0.33345754  0.50107063  0.16551908  1
  I  I121  1  0.32978672  0.49316683  0.50775488  1
  I  I122  1  0.33325339  0.50314559  0.82927196  1
  I  I123  1  0.33337106  0.83443581  0.16807345  1
  I  I124  1  0.33560439  0.83517468  0.50657612  1
  I  I125  1  0.33428636  0.83115802  0.82729031  1
  I  I126  1  0.66365366  0.16459236  0.16158261  1
  I  I127  1  0.66880169  0.16208438  0.50117172  1
  I  I128  1  0.66309037  0.16569034  0.83392255  1
  I  I129  1  0.66670686  0.49926273  0.16711030  1
  I  I130  1  0.66654395  0.49674209  0.50141351  1
  I  I131  1  0.66655330  0.50415681  0.83407563  1
  I  I132  1  0.66959465  0.83508044  0.16167288  1
  I  I133  1  0.66769948  0.84059995  0.50604188  1
  I  I134  1  0.66679427  0.83097357  0.83271973  1
