# generated using pymatgen
data_Cs27Sn14Pb13I81
_symmetry_space_group_name_H-M   'P 1'
_cell_length_a   18.97350076
_cell_length_b   18.98080202
_cell_length_c   18.97497919
_cell_angle_alpha   90.00066507
_cell_angle_beta   90.00021899
_cell_angle_gamma   90.00166245
_symmetry_Int_Tables_number   1
_chemical_formula_structural   Cs27Sn14Pb13I81
_chemical_formula_sum   'Cs27 Sn14 Pb13 I81'
_cell_volume   6833.50216688
_cell_formula_units_Z   1
loop_
 _symmetry_equiv_pos_site_id
 _symmetry_equiv_pos_as_xyz
  1  'x, y, z'
loop_
 _atom_site_type_symbol
 _atom_site_label
 _atom_site_symmetry_multiplicity
 _atom_site_fract_x
 _atom_site_fract_y
 _atom_site_fract_z
 _atom_site_occupancy
  Cs  Cs0  1  0.00067692  -0.00114180  -0.00114297  1
  Cs  Cs1  1  -0.00545965  -0.00291154  0.33566168  1
  Cs  Cs2  1  0.00149161  0.00076940  0.66512624  1
  Cs  Cs3  1  0.00029354  0.33592319  -0.00040087  1
  Cs  Cs4  1  0.00289837  0.33333621  0.33348597  1
  Cs  Cs5  1  -0.00436380  0.33224268  0.66701073  1
  Cs  Cs6  1  0.00133817  0.66505878  -0.00004208  1
  Cs  Cs7  1  0.00024554  0.67013861  0.33215017  1
  Cs  Cs8  1  -0.00138206  0.66770800  0.66629304  1
  Cs  Cs9  1  0.33381071  0.00049829  -0.00201071  1
  Cs  Cs10  1  0.33532306  0.00057094  0.33462909  1
  Cs  Cs11  1  0.33090221  0.00240730  0.66877986  1
  Cs  Cs12  1  0.33282207  0.33444988  0.00074588  1
  Cs  Cs13  1  0.33157369  0.33323719  0.33424369  1
  Cs  Cs14  1  0.33310156  0.33116969  0.66659432  1
  Cs  Cs15  1  0.33174289  0.66427118  -0.00102304  1
  Cs  Cs16  1  0.33544606  0.66654209  0.33841915  1
  Cs  Cs17  1  0.33413171  0.66724349  0.66709972  1
  Cs  Cs18  1  0.66684621  -0.00038704  0.00777651  1
  Cs  Cs19  1  0.67425817  -0.00672054  0.32150386  1
  Cs  Cs20  1  0.66842665  0.00329988  0.66772140  1
  Cs  Cs21  1  0.66789787  0.33340774  0.00094294  1
  Cs  Cs22  1  0.66880016  0.33283093  0.33462311  1
  Cs  Cs23  1  0.67252885  0.33591622  0.66453096  1
  Cs  Cs24  1  0.66698020  0.66645166  -0.00034204  1
  Cs  Cs25  1  0.66631705  0.67149677  0.33981019  1
  Cs  Cs26  1  0.66530161  0.66165495  0.66152997  1
  Sn  Sn27  1  0.49931220  0.49957185  0.83396946  1
  Sn  Sn28  1  0.49961744  0.16625744  0.50031509  1
  Sn  Sn29  1  0.16725164  0.49973236  0.83213774  1
  Sn  Sn30  1  0.50025987  0.83345142  0.83337406  1
  Sn  Sn31  1  0.83302009  0.83329964  0.83321815  1
  Sn  Sn32  1  0.16692240  0.16532304  0.16657127  1
  Sn  Sn33  1  0.16687824  0.49932678  0.50155935  1
  Sn  Sn34  1  0.16681925  0.83332423  0.83411333  1
  Sn  Sn35  1  0.16747749  0.83435027  0.16593425  1
  Sn  Sn36  1  0.83183138  0.50000426  0.16659073  1
  Sn  Sn37  1  0.16722695  0.16703257  0.83347853  1
  Sn  Sn38  1  0.50112510  0.49992165  0.16639275  1
  Sn  Sn39  1  0.49943965  0.16703123  0.83262014  1
  Sn  Sn40  1  0.16746264  0.16756956  0.50020999  1
  Pb  Pb41  1  0.16735510  0.50022048  0.16669223  1
  Pb  Pb42  1  0.83579110  0.83099610  0.16435448  1
  Pb  Pb43  1  0.83314557  0.50187309  0.83451889  1
  Pb  Pb44  1  0.49740991  0.83080205  0.16446448  1
  Pb  Pb45  1  0.83647058  0.16896631  0.16637508  1
  Pb  Pb46  1  0.49811673  0.49789182  0.50052544  1
  Pb  Pb47  1  0.83654717  0.49997892  0.49707414  1
  Pb  Pb48  1  0.16683125  0.83391525  0.50044888  1
  Pb  Pb49  1  0.83291998  0.16657315  0.49998039  1
  Pb  Pb50  1  0.49989993  0.83705370  0.50269669  1
  Pb  Pb51  1  0.49808176  0.16852565  0.16650443  1
  Pb  Pb52  1  0.83287897  0.16441690  0.83359030  1
  Pb  Pb53  1  0.83306548  0.83338697  0.50303876  1
  I  I54  1  0.16715800  0.00044993  0.16198960  1
  I  I55  1  0.17019056  0.00350180  0.50292005  1
  I  I56  1  0.16869946  0.00030703  0.83400451  1
  I  I57  1  0.16660971  0.33121293  0.16422094  1
  I  I58  1  0.17007970  0.33245952  0.50166429  1
  I  I59  1  0.17286470  0.33315200  0.83422244  1
  I  I60  1  0.16578484  0.66854428  0.16178111  1
  I  I61  1  0.16609298  0.66408480  0.50230402  1
  I  I62  1  0.16896238  0.66662780  0.83478875  1
  I  I63  1  0.50040708  -0.00001255  0.16644556  1
  I  I64  1  0.48977305  0.00490136  0.50606075  1
  I  I65  1  0.49557079  0.00031156  0.82792172  1
  I  I66  1  0.49952693  0.33637970  0.15945897  1
  I  I67  1  0.49561705  0.33017863  0.50609524  1
  I  I68  1  0.49151822  0.33340086  0.83435250  1
  I  I69  1  0.49944786  0.66288634  0.16017205  1
  I  I70  1  0.49857587  0.66659998  0.50028502  1
  I  I71  1  0.49578737  0.66631494  0.83918927  1
  I  I72  1  0.83257217  -0.00036369  0.16656013  1
  I  I73  1  0.83708961  0.00007003  0.50004456  1
  I  I74  1  0.83563840  -0.00352224  0.83394851  1
  I  I75  1  0.83233472  0.33672596  0.16424567  1
  I  I76  1  0.83331574  0.33347788  0.50144193  1
  I  I77  1  0.83465929  0.33349582  0.83430896  1
  I  I78  1  0.83383540  0.66353405  0.16427953  1
  I  I79  1  0.83562050  0.66640452  0.49973422  1
  I  I80  1  0.83619588  0.66963386  0.83597645  1
  I  I81  1  0.17004017  0.16678281  -0.00139729  1
  I  I82  1  0.17067651  0.16950067  0.33379519  1
  I  I83  1  0.17039893  0.16663974  0.66785706  1
  I  I84  1  0.16733536  0.49825826  -0.00292104  1
  I  I85  1  0.16631450  0.49620989  0.33517337  1
  I  I86  1  0.17183871  0.49825223  0.66868459  1
  I  I87  1  0.16659225  0.83545156  -0.00208142  1
  I  I88  1  0.16525849  0.83433180  0.33060156  1
  I  I89  1  0.16706508  0.83488461  0.67061952  1
  I  I90  1  0.49514328  0.16505521  -0.00349735  1
  I  I91  1  0.49240134  0.17151929  0.33568694  1
  I  I92  1  0.49052902  0.16727561  0.66848164  1
  I  I93  1  0.49649121  0.49815130  -0.00205096  1
  I  I94  1  0.50011114  0.49733369  0.33108975  1
  I  I95  1  0.49695403  0.50309053  0.67030534  1
  I  I96  1  0.50069119  0.83896785  -0.00433556  1
  I  I97  1  0.49805279  0.83196317  0.33313382  1
  I  I98  1  0.49523781  0.82679382  0.67174657  1
  I  I99  1  0.83397896  0.16692342  -0.00009008  1
  I  I100  1  0.83391432  0.16695026  0.33315635  1
  I  I101  1  0.83826337  0.16619818  0.66696945  1
  I  I102  1  0.83622506  0.50085619  0.00226306  1
  I  I103  1  0.82930237  0.49988615  0.32931441  1
  I  I104  1  0.83197758  0.50173157  0.66661282  1
  I  I105  1  0.83252020  0.83298822  -0.00342710  1
  I  I106  1  0.83601079  0.83267569  0.33277203  1
  I  I107  1  0.83861935  0.83225828  0.67142667  1
  I  I108  1  0.00518628  0.16597739  0.16566121  1
  I  I109  1  0.00398973  0.17018264  0.50130844  1
  I  I110  1  0.00386643  0.16717590  0.83278532  1
  I  I111  1  -0.00094498  0.50010992  0.16640838  1
  I  I112  1  0.00484955  0.49349528  0.50492487  1
  I  I113  1  0.00346064  0.49985358  0.83266890  1
  I  I114  1  0.00379321  0.83399359  0.16033335  1
  I  I115  1  0.00052184  0.83448204  0.50185225  1
  I  I116  1  0.00203627  0.83279166  0.83749934  1
  I  I117  1  0.32960867  0.16665001  0.16522175  1
  I  I118  1  0.33165437  0.17072782  0.50208913  1
  I  I119  1  0.33208850  0.16339052  0.83298079  1
  I  I120  1  0.33530170  0.49952699  0.16355190  1
  I  I121  1  0.32994252  0.49818701  0.49882439  1
  I  I122  1  0.33268186  0.50338762  0.83612881  1
  I  I123  1  0.32947671  0.83467155  0.15971731  1
  I  I124  1  0.33317362  0.82975543  0.50046275  1
  I  I125  1  0.33255551  0.83322811  0.83711710  1
  I  I126  1  0.66645498  0.16637570  0.16669899  1
  I  I127  1  0.66302986  0.16849016  0.50881764  1
  I  I128  1  0.66276516  0.16777279  0.82770249  1
  I  I129  1  0.66539730  0.49889972  0.15800638  1
  I  I130  1  0.66649202  0.49813499  0.50251083  1
  I  I131  1  0.66329254  0.49993344  0.83597422  1
  I  I132  1  0.66651034  0.83425836  0.16480028  1
  I  I133  1  0.66624413  0.83372956  0.50130406  1
  I  I134  1  0.66559187  0.83287024  0.83187724  1
