# generated using pymatgen
data_Cs27Sn13Pb14I81
_symmetry_space_group_name_H-M   'P 1'
_cell_length_a   19.04812071
_cell_length_b   19.04805756
_cell_length_c   19.04788237
_cell_angle_alpha   89.99889480
_cell_angle_beta   89.99814170
_cell_angle_gamma   89.99972261
_symmetry_Int_Tables_number   1
_chemical_formula_structural   Cs27Sn13Pb14I81
_chemical_formula_sum   'Cs27 Sn13 Pb14 I81'
_cell_volume   6911.13743761
_cell_formula_units_Z   1
loop_
 _symmetry_equiv_pos_site_id
 _symmetry_equiv_pos_as_xyz
  1  'x, y, z'
loop_
 _atom_site_type_symbol
 _atom_site_label
 _atom_site_symmetry_multiplicity
 _atom_site_fract_x
 _atom_site_fract_y
 _atom_site_fract_z
 _atom_site_occupancy
  Cs  Cs0  1  -0.00772256  0.00043498  -0.00288076  1
  Cs  Cs1  1  0.00053211  0.00993897  0.33219894  1
  Cs  Cs2  1  -0.00282067  0.00384770  0.66999701  1
  Cs  Cs3  1  -0.01335323  0.33510865  -0.00138996  1
  Cs  Cs4  1  0.00630683  0.31574867  0.33651288  1
  Cs  Cs5  1  0.00226414  0.33141253  0.66580572  1
  Cs  Cs6  1  -0.00696823  0.66474653  0.00301117  1
  Cs  Cs7  1  0.00154715  0.66796874  0.33307885  1
  Cs  Cs8  1  0.00263735  0.66294763  0.66551179  1
  Cs  Cs9  1  0.33273379  -0.00095624  -0.00516378  1
  Cs  Cs10  1  0.33352547  -0.00309577  0.33036319  1
  Cs  Cs11  1  0.33761636  -0.00282890  0.67267268  1
  Cs  Cs12  1  0.33823758  0.33339030  0.00152110  1
  Cs  Cs13  1  0.32912868  0.32707137  0.32817238  1
  Cs  Cs14  1  0.33065443  0.33550726  0.66954118  1
  Cs  Cs15  1  0.33217947  0.66696359  0.00104835  1
  Cs  Cs16  1  0.33059164  0.67018350  0.33370973  1
  Cs  Cs17  1  0.33301402  0.66687798  0.66767010  1
  Cs  Cs18  1  0.67690189  0.00008464  -0.00248710  1
  Cs  Cs19  1  0.66480377  0.00075836  0.33433497  1
  Cs  Cs20  1  0.66169996  0.00090425  0.66766705  1
  Cs  Cs21  1  0.67372626  0.34882866  0.01288038  1
  Cs  Cs22  1  0.66547306  0.33557254  0.32560521  1
  Cs  Cs23  1  0.66704805  0.33025827  0.66674456  1
  Cs  Cs24  1  0.67899413  0.65564722  0.00313314  1
  Cs  Cs25  1  0.66822823  0.66643794  0.33877534  1
  Cs  Cs26  1  0.66557195  0.66652076  0.66008458  1
  Sn  Sn27  1  0.16643424  0.83376244  0.50036679  1
  Sn  Sn28  1  0.16722415  0.83359097  0.83351226  1
  Sn  Sn29  1  0.49935707  0.16703373  0.50051226  1
  Sn  Sn30  1  0.16792022  0.16602545  0.83383708  1
  Sn  Sn31  1  0.83391437  0.83306496  0.50022455  1
  Sn  Sn32  1  0.16689613  0.50065180  0.16696624  1
  Sn  Sn33  1  0.49955482  0.83338346  0.49991596  1
  Sn  Sn34  1  0.83343782  0.50042059  0.49968804  1
  Sn  Sn35  1  0.49950539  0.16617419  0.83327250  1
  Sn  Sn36  1  0.49995638  0.83299470  0.83451575  1
  Sn  Sn37  1  0.49962371  0.49928996  0.49998046  1
  Sn  Sn38  1  0.16748724  0.83283640  0.16613959  1
  Sn  Sn39  1  0.49975776  0.83333115  0.16527975  1
  Pb  Pb40  1  0.16686050  0.50170837  0.49802988  1
  Pb  Pb41  1  0.16725516  0.16547019  0.16282394  1
  Pb  Pb42  1  0.83174473  0.16690383  0.83295545  1
  Pb  Pb43  1  0.83326725  0.50017716  0.82941322  1
  Pb  Pb44  1  0.49976015  0.16351986  0.16525135  1
  Pb  Pb45  1  0.16689283  0.50035605  0.83583251  1
  Pb  Pb46  1  0.83363688  0.83334943  0.16987470  1
  Pb  Pb47  1  0.49994762  0.50040476  0.83131784  1
  Pb  Pb48  1  0.17001383  0.16323709  0.50273510  1
  Pb  Pb49  1  0.83708083  0.50038579  0.17137870  1
  Pb  Pb50  1  0.83291524  0.83288276  0.83025120  1
  Pb  Pb51  1  0.49765127  0.50337966  0.16976391  1
  Pb  Pb52  1  0.83004651  0.16671704  0.50036988  1
  Pb  Pb53  1  0.83284777  0.16639559  0.16689248  1
  I  I54  1  0.17158023  -0.00384508  0.17222658  1
  I  I55  1  0.16399632  -0.00477450  0.49064766  1
  I  I56  1  0.17201200  -0.00191213  0.83377144  1
  I  I57  1  0.16509483  0.33530383  0.16925711  1
  I  I58  1  0.16455990  0.33275423  0.49834923  1
  I  I59  1  0.17292756  0.33018022  0.83342287  1
  I  I60  1  0.17210960  0.66937735  0.16557792  1
  I  I61  1  0.17285592  0.67055157  0.50628112  1
  I  I62  1  0.17270517  0.67064392  0.82892410  1
  I  I63  1  0.49070261  -0.00433345  0.17639810  1
  I  I64  1  0.49994126  -0.00210188  0.50011652  1
  I  I65  1  0.49396055  -0.00156850  0.82468595  1
  I  I66  1  0.49949079  0.33351869  0.16719972  1
  I  I67  1  0.50733845  0.33320070  0.50757228  1
  I  I68  1  0.49272908  0.33004611  0.82425019  1
  I  I69  1  0.49713413  0.67110076  0.16615367  1
  I  I70  1  0.50135752  0.66897537  0.49990730  1
  I  I71  1  0.49288024  0.67047216  0.83071428  1
  I  I72  1  0.83652796  -0.00068004  0.16960217  1
  I  I73  1  0.83368533  -0.00300628  0.49965805  1
  I  I74  1  0.83472256  -0.00038373  0.83105807  1
  I  I75  1  0.83495243  0.33413847  0.16812305  1
  I  I76  1  0.82759093  0.33624971  0.49958389  1
  I  I77  1  0.83642540  0.33321416  0.83096509  1
  I  I78  1  0.83014744  0.66686762  0.16237921  1
  I  I79  1  0.82518556  0.66805013  0.50034375  1
  I  I80  1  0.83397290  0.66693841  0.83731033  1
  I  I81  1  0.17745914  0.15874802  -0.00416697  1
  I  I82  1  0.16481875  0.16782285  0.33305792  1
  I  I83  1  0.16684114  0.16104549  0.66991636  1
  I  I84  1  0.16869680  0.50910642  0.00322864  1
  I  I85  1  0.16748846  0.51020962  0.33076838  1
  I  I86  1  0.16447692  0.50030680  0.66652122  1
  I  I87  1  0.17775847  0.83329451  -0.00024700  1
  I  I88  1  0.17073199  0.82568580  0.33375685  1
  I  I89  1  0.16997923  0.83809211  0.66644412  1
  I  I90  1  0.49215253  0.15896140  -0.00395122  1
  I  I91  1  0.50308191  0.16563422  0.33592034  1
  I  I92  1  0.49669707  0.15938431  0.66615464  1
  I  I93  1  0.49918838  0.49803357  0.00047337  1
  I  I94  1  0.50629863  0.49965644  0.33743519  1
  I  I95  1  0.50306172  0.50765998  0.66304034  1
  I  I96  1  0.48715254  0.84134852  -0.00061208  1
  I  I97  1  0.49711156  0.83262378  0.33499935  1
  I  I98  1  0.49777037  0.83361165  0.66561232  1
  I  I99  1  0.83269983  0.16614607  -0.00044351  1
  I  I100  1  0.83425902  0.16586914  0.33420883  1
  I  I101  1  0.83844498  0.16805034  0.66636088  1
  I  I102  1  0.83347594  0.49704344  0.00092881  1
  I  I103  1  0.82420168  0.50850698  0.33772071  1
  I  I104  1  0.82964918  0.50671554  0.66172943  1
  I  I105  1  0.83271165  0.83491967  0.00002968  1
  I  I106  1  0.83116303  0.82773562  0.33755452  1
  I  I107  1  0.83266516  0.82857135  0.66260711  1
  I  I108  1  0.00083233  0.16458647  0.16678336  1
  I  I109  1  0.00021398  0.16824095  0.50007640  1
  I  I110  1  0.00272694  0.15982787  0.83563774  1
  I  I111  1  0.00384300  0.51226689  0.16525502  1
  I  I112  1  -0.00234570  0.50924552  0.49882950  1
  I  I113  1  0.00032729  0.49920755  0.83128129  1
  I  I114  1  0.00347691  0.82833091  0.16549812  1
  I  I115  1  0.00052612  0.82441911  0.50025043  1
  I  I116  1  0.00326477  0.83896558  0.83418793  1
  I  I117  1  0.33340295  0.17209158  0.17313507  1
  I  I118  1  0.33727246  0.16876407  0.49992098  1
  I  I119  1  0.33407536  0.15995566  0.82740729  1
  I  I120  1  0.33057567  0.50278850  0.16973930  1
  I  I121  1  0.33630260  0.50232241  0.49967963  1
  I  I122  1  0.33339497  0.49980006  0.82801810  1
  I  I123  1  0.33322544  0.82948478  0.17392995  1
  I  I124  1  0.33411053  0.83301486  0.49945362  1
  I  I125  1  0.33358576  0.83757262  0.82699248  1
  I  I126  1  0.66589014  0.16469018  0.16527893  1
  I  I127  1  0.66242944  0.15857864  0.50873829  1
  I  I128  1  0.66249895  0.15697605  0.82457930  1
  I  I129  1  0.66712247  0.49876883  0.16251825  1
  I  I130  1  0.66547367  0.50870029  0.50124102  1
  I  I131  1  0.66644187  0.49970669  0.83919384  1
  I  I132  1  0.66347569  0.83673574  0.16723609  1
  I  I133  1  0.66465583  0.83275815  0.49998802  1
  I  I134  1  0.66303624  0.84071111  0.83240208  1
