# generated using pymatgen
data_Cs27Sn14Pb13I81
_symmetry_space_group_name_H-M   'P 1'
_cell_length_a   18.97726197
_cell_length_b   18.97221966
_cell_length_c   18.98099718
_cell_angle_alpha   90.00125420
_cell_angle_beta   90.00040374
_cell_angle_gamma   90.00308882
_symmetry_Int_Tables_number   1
_chemical_formula_structural   Cs27Sn14Pb13I81
_chemical_formula_sum   'Cs27 Sn14 Pb13 I81'
_cell_volume   6833.93306984
_cell_formula_units_Z   1
loop_
 _symmetry_equiv_pos_site_id
 _symmetry_equiv_pos_as_xyz
  1  'x, y, z'
loop_
 _atom_site_type_symbol
 _atom_site_label
 _atom_site_symmetry_multiplicity
 _atom_site_fract_x
 _atom_site_fract_y
 _atom_site_fract_z
 _atom_site_occupancy
  Cs  Cs0  1  0.00041666  -0.00218553  -0.00554035  1
  Cs  Cs1  1  0.00271560  -0.00002736  0.33320162  1
  Cs  Cs2  1  -0.00103043  0.00076406  0.67323679  1
  Cs  Cs3  1  0.00272032  0.33308545  -0.00294117  1
  Cs  Cs4  1  0.00025045  0.33103388  0.33568841  1
  Cs  Cs5  1  0.00182103  0.33396676  0.66540215  1
  Cs  Cs6  1  -0.00145328  0.66878682  -0.00097455  1
  Cs  Cs7  1  -0.00107264  0.66708038  0.33264604  1
  Cs  Cs8  1  -0.00048986  0.66529644  0.66924001  1
  Cs  Cs9  1  0.33280745  0.00238155  -0.00135886  1
  Cs  Cs10  1  0.32992186  -0.00268993  0.33578325  1
  Cs  Cs11  1  0.33380553  0.00132953  0.66443422  1
  Cs  Cs12  1  0.33625942  0.33192806  0.00129003  1
  Cs  Cs13  1  0.33145625  0.33452626  0.33175349  1
  Cs  Cs14  1  0.33196943  0.33263275  0.66702783  1
  Cs  Cs15  1  0.33380444  0.66519629  0.00166184  1
  Cs  Cs16  1  0.33200465  0.66855248  0.33223354  1
  Cs  Cs17  1  0.33683823  0.66583789  0.66632615  1
  Cs  Cs18  1  0.66652421  0.00657381  -0.00152828  1
  Cs  Cs19  1  0.66820068  -0.00097839  0.33388133  1
  Cs  Cs20  1  0.66726370  0.00225954  0.66707859  1
  Cs  Cs21  1  0.66216764  0.32923143  0.00199423  1
  Cs  Cs22  1  0.66797910  0.33158120  0.33209128  1
  Cs  Cs23  1  0.66690722  0.33670995  0.66502843  1
  Cs  Cs24  1  0.66793411  0.66611220  -0.00123026  1
  Cs  Cs25  1  0.66701055  0.66751442  0.33435989  1
  Cs  Cs26  1  0.66549597  0.66571413  0.66669040  1
  Sn  Sn27  1  0.83331948  0.50037848  0.16688720  1
  Sn  Sn28  1  0.16643608  0.16579697  0.16750703  1
  Sn  Sn29  1  0.16638340  0.83403877  0.16731648  1
  Sn  Sn30  1  0.49945302  0.16791121  0.49951553  1
  Sn  Sn31  1  0.50036604  0.83326005  0.16537510  1
  Sn  Sn32  1  0.83313528  0.83285537  0.16729246  1
  Sn  Sn33  1  0.16747691  0.16560694  0.49910806  1
  Sn  Sn34  1  0.16523596  0.83375067  0.49977349  1
  Sn  Sn35  1  0.50053177  0.49907276  0.50004122  1
  Sn  Sn36  1  0.50089346  0.50093991  0.83284224  1
  Sn  Sn37  1  0.83233556  0.50019686  0.83338409  1
  Sn  Sn38  1  0.83452218  0.83268131  0.49950591  1
  Sn  Sn39  1  0.50008244  0.83274964  0.83451849  1
  Sn  Sn40  1  0.83250230  0.50105224  0.49969743  1
  Pb  Pb41  1  0.16680795  0.16651642  0.83306619  1
  Pb  Pb42  1  0.83309136  0.17039404  0.83338006  1
  Pb  Pb43  1  0.16941157  0.83308740  0.83315864  1
  Pb  Pb44  1  0.83596066  0.16595799  0.16675532  1
  Pb  Pb45  1  0.16392871  0.50045641  0.16669678  1
  Pb  Pb46  1  0.83099173  0.83185824  0.83322894  1
  Pb  Pb47  1  0.16674890  0.50049855  0.49997037  1
  Pb  Pb48  1  0.50026127  0.83300393  0.49979671  1
  Pb  Pb49  1  0.49779514  0.16368879  0.16953109  1
  Pb  Pb50  1  0.83384139  0.16626804  0.49991758  1
  Pb  Pb51  1  0.16745818  0.50023654  0.83342517  1
  Pb  Pb52  1  0.50209881  0.50178249  0.16707087  1
  Pb  Pb53  1  0.49993265  0.16718663  0.83080861  1
  I  I54  1  0.16572939  -0.00164502  0.17232961  1
  I  I55  1  0.16834100  -0.00067817  0.49523223  1
  I  I56  1  0.16839143  -0.00037697  0.83262177  1
  I  I57  1  0.16499815  0.33052292  0.17154927  1
  I  I58  1  0.16746472  0.33066218  0.49602716  1
  I  I59  1  0.16664226  0.33329287  0.83345796  1
  I  I60  1  0.16859662  0.67052059  0.17171105  1
  I  I61  1  0.16638473  0.66995499  0.49466846  1
  I  I62  1  0.16574043  0.66693108  0.83307858  1
  I  I63  1  0.50591856  -0.00459832  0.16218290  1
  I  I64  1  0.49864269  0.00152931  0.49947985  1
  I  I65  1  0.49870500  -0.00273122  0.83610563  1
  I  I66  1  0.49955961  0.33323183  0.16396797  1
  I  I67  1  0.50028495  0.33462469  0.50612800  1
  I  I68  1  0.50488777  0.33688092  0.83066499  1
  I  I69  1  0.49479124  0.67012317  0.16857493  1
  I  I70  1  0.50132208  0.66431844  0.50156821  1
  I  I71  1  0.50325461  0.66582517  0.82978567  1
  I  I72  1  0.83101879  -0.00398988  0.17341855  1
  I  I73  1  0.83260195  -0.00341887  0.49347062  1
  I  I74  1  0.83221979  -0.00032376  0.83293293  1
  I  I75  1  0.83428763  0.33645093  0.16729471  1
  I  I76  1  0.83247668  0.33663649  0.50054464  1
  I  I77  1  0.82668933  0.33903219  0.83224402  1
  I  I78  1  0.83559095  0.66762260  0.16788379  1
  I  I79  1  0.83277804  0.66642306  0.49893312  1
  I  I80  1  0.83086556  0.66360548  0.83264202  1
  I  I81  1  0.16461929  0.16174115  0.00332917  1
  I  I82  1  0.17049102  0.16171540  0.33433441  1
  I  I83  1  0.17038153  0.16285275  0.66280447  1
  I  I84  1  0.16623158  0.49931850  0.00028185  1
  I  I85  1  0.16813775  0.49977113  0.33342538  1
  I  I86  1  0.16185024  0.49960255  0.66634243  1
  I  I87  1  0.16325342  0.83736390  0.00352823  1
  I  I88  1  0.16815984  0.83703999  0.33325475  1
  I  I89  1  0.16317258  0.83744748  0.66312644  1
  I  I90  1  0.49799146  0.16930475  0.00033682  1
  I  I91  1  0.49889776  0.17232065  0.33725889  1
  I  I92  1  0.49345336  0.16479090  0.66281013  1
  I  I93  1  0.50406718  0.50312920  -0.00243890  1
  I  I94  1  0.50404504  0.49802701  0.33633919  1
  I  I95  1  0.50766780  0.50271849  0.66611989  1
  I  I96  1  0.49937910  0.82661232  0.00064666  1
  I  I97  1  0.49977041  0.83330228  0.33112163  1
  I  I98  1  0.49990132  0.83196470  0.66819917  1
  I  I99  1  0.83584121  0.16584997  0.00030293  1
  I  I100  1  0.83038668  0.17274555  0.33344877  1
  I  I101  1  0.83586476  0.16416157  0.66627524  1
  I  I102  1  0.83091374  0.50500781  0.00021356  1
  I  I103  1  0.82971645  0.50474185  0.33420693  1
  I  I104  1  0.82899873  0.50385102  0.66566396  1
  I  I105  1  0.83677454  0.82886549  0.00306573  1
  I  I106  1  0.83185357  0.82518068  0.33321913  1
  I  I107  1  0.83634895  0.82983617  0.66358662  1
  I  I108  1  0.00374899  0.16235575  0.17557070  1
  I  I109  1  0.00309207  0.16651091  0.49520013  1
  I  I110  1  0.00007635  0.16814472  0.83084939  1
  I  I111  1  -0.00441415  0.50557361  0.16782128  1
  I  I112  1  -0.00332584  0.50064557  0.50053973  1
  I  I113  1  -0.00358535  0.49967327  0.83193012  1
  I  I114  1  -0.00024113  0.83260288  0.17244734  1
  I  I115  1  -0.00034513  0.83270520  0.49197824  1
  I  I116  1  -0.00026817  0.83175106  0.83500495  1
  I  I117  1  0.32986341  0.16192437  0.16864885  1
  I  I118  1  0.33278740  0.16559328  0.49705722  1
  I  I119  1  0.33352975  0.16969476  0.83471490  1
  I  I120  1  0.33348061  0.50128475  0.16602587  1
  I  I121  1  0.33639133  0.49981844  0.50595090  1
  I  I122  1  0.33752822  0.50341034  0.82724820  1
  I  I123  1  0.33287591  0.83729806  0.16797049  1
  I  I124  1  0.33130553  0.83404390  0.49701492  1
  I  I125  1  0.33735906  0.82627616  0.83598556  1
  I  I126  1  0.66653718  0.16594477  0.16706893  1
  I  I127  1  0.66425966  0.16722997  0.50210550  1
  I  I128  1  0.66622085  0.16255784  0.83182964  1
  I  I129  1  0.67023472  0.50635942  0.16763501  1
  I  I130  1  0.66718847  0.50067488  0.50123502  1
  I  I131  1  0.66640553  0.50533190  0.83082751  1
  I  I132  1  0.66747342  0.82696327  0.16865271  1
  I  I133  1  0.66902897  0.83200330  0.49677533  1
  I  I134  1  0.66320861  0.83049692  0.83556233  1
