# generated using pymatgen
data_Cs27Sn13Pb14I81
_symmetry_space_group_name_H-M   'P 1'
_cell_length_a   18.97763594
_cell_length_b   18.98388448
_cell_length_c   18.97284683
_cell_angle_alpha   90.00039957
_cell_angle_beta   90.00669070
_cell_angle_gamma   90.00066913
_symmetry_Int_Tables_number   1
_chemical_formula_structural   Cs27Sn13Pb14I81
_chemical_formula_sum   'Cs27 Sn13 Pb14 I81'
_cell_volume   6835.33321895
_cell_formula_units_Z   1
loop_
 _symmetry_equiv_pos_site_id
 _symmetry_equiv_pos_as_xyz
  1  'x, y, z'
loop_
 _atom_site_type_symbol
 _atom_site_label
 _atom_site_symmetry_multiplicity
 _atom_site_fract_x
 _atom_site_fract_y
 _atom_site_fract_z
 _atom_site_occupancy
  Cs  Cs0  1  0.00155592  -0.00032201  -0.00040689  1
  Cs  Cs1  1  0.00039204  0.00077332  0.33083539  1
  Cs  Cs2  1  -0.00039842  0.00064924  0.66872459  1
  Cs  Cs3  1  -0.00074747  0.33744062  -0.00095581  1
  Cs  Cs4  1  0.00194704  0.33259964  0.33412873  1
  Cs  Cs5  1  0.00028367  0.33289685  0.66630014  1
  Cs  Cs6  1  -0.00045187  0.66429731  -0.00117606  1
  Cs  Cs7  1  0.00121795  0.66605359  0.33221752  1
  Cs  Cs8  1  -0.00034185  0.66644203  0.66828075  1
  Cs  Cs9  1  0.33170605  0.00064473  0.00038101  1
  Cs  Cs10  1  0.33245047  -0.00024707  0.33242026  1
  Cs  Cs11  1  0.33392991  -0.00306992  0.66798465  1
  Cs  Cs12  1  0.33538462  0.33698787  0.00012025  1
  Cs  Cs13  1  0.33335935  0.33276682  0.33294697  1
  Cs  Cs14  1  0.33151035  0.33310358  0.66744490  1
  Cs  Cs15  1  0.33380739  0.66134732  0.00134737  1
  Cs  Cs16  1  0.33184807  0.66792282  0.33311856  1
  Cs  Cs17  1  0.33292035  0.67148073  0.66596369  1
  Cs  Cs18  1  0.66655327  0.00083075  0.00085618  1
  Cs  Cs19  1  0.66743334  0.00142533  0.33162952  1
  Cs  Cs20  1  0.66613135  0.00013343  0.66749897  1
  Cs  Cs21  1  0.66486986  0.34081524  -0.00010615  1
  Cs  Cs22  1  0.66572013  0.33159985  0.33584251  1
  Cs  Cs23  1  0.66773733  0.33152728  0.66425313  1
  Cs  Cs24  1  0.66618194  0.65718810  0.00121551  1
  Cs  Cs25  1  0.66725631  0.66564763  0.33420962  1
  Cs  Cs26  1  0.66678227  0.66849407  0.66523873  1
  Sn  Sn27  1  0.83381598  0.16581063  0.83296280  1
  Sn  Sn28  1  0.83356817  0.83391742  0.50049574  1
  Sn  Sn29  1  0.83364898  0.83435263  0.83298394  1
  Sn  Sn30  1  0.50028838  0.49929793  0.50009513  1
  Sn  Sn31  1  0.83278617  0.49972727  0.50015813  1
  Sn  Sn32  1  0.83271486  0.16625103  0.50068744  1
  Sn  Sn33  1  0.16744183  0.16596453  0.16551474  1
  Sn  Sn34  1  0.16596527  0.83436321  0.83443625  1
  Sn  Sn35  1  0.16592626  0.16586685  0.83439796  1
  Sn  Sn36  1  0.49938438  0.16566603  0.16717287  1
  Sn  Sn37  1  0.16751251  0.83432031  0.16551924  1
  Sn  Sn38  1  0.50046620  0.16692755  0.49946673  1
  Sn  Sn39  1  0.49961273  0.83419693  0.16639432  1
  Pb  Pb40  1  0.83341961  0.49979463  0.16980854  1
  Pb  Pb41  1  0.16675481  0.49977470  0.16664706  1
  Pb  Pb42  1  0.83353110  0.83341433  0.16566731  1
  Pb  Pb43  1  0.50006109  0.16660912  0.83353224  1
  Pb  Pb44  1  0.16661995  0.50009326  0.83324575  1
  Pb  Pb45  1  0.49993923  0.50007220  0.82956074  1
  Pb  Pb46  1  0.16699358  0.50003824  0.50011861  1
  Pb  Pb47  1  0.83335856  0.16675270  0.16593549  1
  Pb  Pb48  1  0.49983440  0.49956038  0.16917511  1
  Pb  Pb49  1  0.50220884  0.83399168  0.49791987  1
  Pb  Pb50  1  0.50036341  0.83340329  0.83635615  1
  Pb  Pb51  1  0.83333000  0.49986751  0.83088834  1
  Pb  Pb52  1  0.16691916  0.16650311  0.50021959  1
  Pb  Pb53  1  0.16400703  0.83352633  0.49998672  1
  I  I54  1  0.17096709  0.00027571  0.16328521  1
  I  I55  1  0.16718969  0.00008920  0.49917877  1
  I  I56  1  0.16150577  0.00020128  0.83745664  1
  I  I57  1  0.17043986  0.32939550  0.16358997  1
  I  I58  1  0.16204256  0.33290321  0.49968556  1
  I  I59  1  0.16241983  0.32946140  0.83654292  1
  I  I60  1  0.17021864  0.67041816  0.16339375  1
  I  I61  1  0.16671669  0.66701281  0.49958643  1
  I  I62  1  0.16178190  0.67061331  0.83704517  1
  I  I63  1  0.49620095  0.00112027  0.17330857  1
  I  I64  1  0.50456445  0.00310041  0.49765250  1
  I  I65  1  0.50114525  0.00008248  0.82721543  1
  I  I66  1  0.49603101  0.32980063  0.16872949  1
  I  I67  1  0.50884275  0.33184210  0.49417629  1
  I  I68  1  0.49979162  0.33290397  0.83865437  1
  I  I69  1  0.49602989  0.66948502  0.16729111  1
  I  I70  1  0.50507698  0.66469609  0.49867063  1
  I  I71  1  0.49994378  0.66702433  0.83405078  1
  I  I72  1  0.83194304  0.00007491  0.17365787  1
  I  I73  1  0.82953813  0.00085841  0.50398450  1
  I  I74  1  0.83775674  0.00025186  0.82374216  1
  I  I75  1  0.83380951  0.33283459  0.16551106  1
  I  I76  1  0.82897234  0.33212793  0.50319938  1
  I  I77  1  0.83762517  0.32983052  0.82979146  1
  I  I78  1  0.83315316  0.66704666  0.16706086  1
  I  I79  1  0.82956275  0.66698046  0.50302045  1
  I  I80  1  0.83802824  0.67002687  0.82981263  1
  I  I81  1  0.16631400  0.16177019  0.00001079  1
  I  I82  1  0.16708573  0.16264924  0.33044776  1
  I  I83  1  0.16540520  0.16270448  0.66979330  1
  I  I84  1  0.16651932  0.49963184  -0.00001351  1
  I  I85  1  0.16434768  0.50046038  0.33333951  1
  I  I86  1  0.16783448  0.49965564  0.66669457  1
  I  I87  1  0.16415167  0.83847330  -0.00015485  1
  I  I88  1  0.16908302  0.83718630  0.33005876  1
  I  I89  1  0.16452763  0.83748458  0.67001480  1
  I  I90  1  0.49925971  0.16118511  0.00313253  1
  I  I91  1  0.50051569  0.16690501  0.33363941  1
  I  I92  1  0.50167042  0.17170021  0.66361761  1
  I  I93  1  0.49989764  0.49961495  0.00032415  1
  I  I94  1  0.50631390  0.49810613  0.33686992  1
  I  I95  1  0.50504589  0.49326710  0.66143792  1
  I  I96  1  0.50078259  0.84160622  0.00425703  1
  I  I97  1  0.49506757  0.83471388  0.33010811  1
  I  I98  1  0.49732281  0.83232917  0.66657365  1
  I  I99  1  0.83444915  0.15926291  -0.00341253  1
  I  I100  1  0.83244459  0.16673086  0.33642970  1
  I  I101  1  0.83351015  0.16654547  0.66586784  1
  I  I102  1  0.83354429  0.50040394  -0.00043746  1
  I  I103  1  0.82932259  0.50007256  0.33849205  1
  I  I104  1  0.82856689  0.49979382  0.66281078  1
  I  I105  1  0.83480881  0.84059993  -0.00350840  1
  I  I106  1  0.83268125  0.83323733  0.33604552  1
  I  I107  1  0.83824419  0.83354476  0.66668492  1
  I  I108  1  0.00302958  0.16130741  0.16730821  1
  I  I109  1  -0.00322414  0.16762461  0.50026344  1
  I  I110  1  -0.00029963  0.16272971  0.83222155  1
  I  I111  1  0.00019069  0.50027808  0.17010773  1
  I  I112  1  -0.00369187  0.49885208  0.50046450  1
  I  I113  1  -0.00018184  0.49956220  0.82974260  1
  I  I114  1  0.00312113  0.83857550  0.16709459  1
  I  I115  1  -0.00437820  0.83366635  0.49875704  1
  I  I116  1  -0.00007947  0.83752737  0.83430280  1
  I  I117  1  0.33338273  0.16254760  0.16802851  1
  I  I118  1  0.33644930  0.17240253  0.49868722  1
  I  I119  1  0.33019545  0.16186413  0.83313526  1
  I  I120  1  0.33342351  0.50053740  0.17082290  1
  I  I121  1  0.33696851  0.49371076  0.49859795  1
  I  I122  1  0.33315500  0.49969575  0.83062355  1
  I  I123  1  0.33253313  0.83765500  0.16299294  1
  I  I124  1  0.33343777  0.83212214  0.50251291  1
  I  I125  1  0.33001450  0.83842694  0.83417464  1
  I  I126  1  0.66367572  0.16228390  0.16919767  1
  I  I127  1  0.66740075  0.16756260  0.49953027  1
  I  I128  1  0.66988791  0.16222595  0.83098521  1
  I  I129  1  0.66635131  0.50105408  0.16373499  1
  I  I130  1  0.66745408  0.49864020  0.49952517  1
  I  I131  1  0.66698201  0.50021159  0.83690669  1
  I  I132  1  0.66407179  0.83806152  0.16905041  1
  I  I133  1  0.67038187  0.83336436  0.50419658  1
  I  I134  1  0.67022193  0.83792389  0.82895606  1
