# generated using pymatgen
data_Cs27Sn14Pb13I81
_symmetry_space_group_name_H-M   'P 1'
_cell_length_a   18.97082089
_cell_length_b   18.98237457
_cell_length_c   18.97580125
_cell_angle_alpha   90.00062674
_cell_angle_beta   89.99998086
_cell_angle_gamma   90.00089845
_symmetry_Int_Tables_number   1
_chemical_formula_structural   Cs27Sn14Pb13I81
_chemical_formula_sum   'Cs27 Sn14 Pb13 I81'
_cell_volume   6833.39908882
_cell_formula_units_Z   1
loop_
 _symmetry_equiv_pos_site_id
 _symmetry_equiv_pos_as_xyz
  1  'x, y, z'
loop_
 _atom_site_type_symbol
 _atom_site_label
 _atom_site_symmetry_multiplicity
 _atom_site_fract_x
 _atom_site_fract_y
 _atom_site_fract_z
 _atom_site_occupancy
  Cs  Cs0  1  -0.00100392  -0.00166672  0.00056930  1
  Cs  Cs1  1  0.00026287  -0.00241524  0.33167317  1
  Cs  Cs2  1  0.00061771  0.00007634  0.66536592  1
  Cs  Cs3  1  0.00033896  0.33410772  0.00074677  1
  Cs  Cs4  1  0.00185950  0.33285404  0.33004126  1
  Cs  Cs5  1  0.00081231  0.33154608  0.66771222  1
  Cs  Cs6  1  -0.00125045  0.66641334  0.00034405  1
  Cs  Cs7  1  -0.00113221  0.67020178  0.33092468  1
  Cs  Cs8  1  -0.00005414  0.66908067  0.66838422  1
  Cs  Cs9  1  0.33844932  -0.00109813  0.00008701  1
  Cs  Cs10  1  0.33780312  -0.00177272  0.33230444  1
  Cs  Cs11  1  0.33435141  -0.00424530  0.66780548  1
  Cs  Cs12  1  0.33172023  0.33607999  0.00053952  1
  Cs  Cs13  1  0.33168816  0.33320436  0.33322930  1
  Cs  Cs14  1  0.33012328  0.33486350  0.66607921  1
  Cs  Cs15  1  0.33339311  0.66473556  -0.00059177  1
  Cs  Cs16  1  0.33385883  0.66789938  0.33573135  1
  Cs  Cs17  1  0.33350255  0.66763473  0.66701970  1
  Cs  Cs18  1  0.66062820  -0.00008861  0.00000367  1
  Cs  Cs19  1  0.65779564  0.00091535  0.33517063  1
  Cs  Cs20  1  0.66018678  0.01114685  0.66184718  1
  Cs  Cs21  1  0.66845526  0.33413202  -0.00067523  1
  Cs  Cs22  1  0.66419265  0.33432111  0.34017980  1
  Cs  Cs23  1  0.66729439  0.32846756  0.65870964  1
  Cs  Cs24  1  0.66966076  0.66662152  0.00008928  1
  Cs  Cs25  1  0.66689003  0.66517143  0.34010054  1
  Cs  Cs26  1  0.66551662  0.66458404  0.66075805  1
  Sn  Sn27  1  0.16615674  0.16717038  0.49968519  1
  Sn  Sn28  1  0.16614713  0.83424735  0.16535502  1
  Sn  Sn29  1  0.16639130  0.16628507  0.83375682  1
  Sn  Sn30  1  0.16575130  0.83327489  0.83484091  1
  Sn  Sn31  1  0.50074371  0.49992692  0.83411802  1
  Sn  Sn32  1  0.83355080  0.83323168  0.83358659  1
  Sn  Sn33  1  0.50151356  0.50009268  0.16575964  1
  Sn  Sn34  1  0.16572451  0.49977190  0.50102353  1
  Sn  Sn35  1  0.83296777  0.50045591  0.83375916  1
  Sn  Sn36  1  0.16629217  0.50020324  0.83254886  1
  Sn  Sn37  1  0.83215104  0.49993668  0.16605411  1
  Sn  Sn38  1  0.83375848  0.16634616  0.16643465  1
  Sn  Sn39  1  0.16593249  0.16532906  0.16639233  1
  Sn  Sn40  1  0.83376211  0.83371576  0.16579792  1
  Pb  Pb41  1  0.16612798  0.50048487  0.16638346  1
  Pb  Pb42  1  0.49712107  0.50000732  0.50033719  1
  Pb  Pb43  1  0.49991223  0.16951790  0.16635374  1
  Pb  Pb44  1  0.83508866  0.16624966  0.83521960  1
  Pb  Pb45  1  0.16650130  0.83361611  0.50006217  1
  Pb  Pb46  1  0.50015869  0.83318659  0.50032872  1
  Pb  Pb47  1  0.49717446  0.16976524  0.83365936  1
  Pb  Pb48  1  0.49638554  0.16693971  0.49990323  1
  Pb  Pb49  1  0.83611308  0.16647542  0.49662474  1
  Pb  Pb50  1  0.50106536  0.83091031  0.83336679  1
  Pb  Pb51  1  0.50055812  0.83035072  0.16642717  1
  Pb  Pb52  1  0.83341179  0.83360403  0.50066968  1
  Pb  Pb53  1  0.83630162  0.50004702  0.50035552  1
  I  I54  1  0.15915300  0.00019419  0.16503931  1
  I  I55  1  0.16611491  0.00306603  0.50202566  1
  I  I56  1  0.16117741  -0.00045503  0.83311508  1
  I  I57  1  0.16442004  0.33133814  0.16505862  1
  I  I58  1  0.16669937  0.33340367  0.50278526  1
  I  I59  1  0.16730725  0.33398398  0.83299351  1
  I  I60  1  0.16444400  0.66906423  0.16420154  1
  I  I61  1  0.16773245  0.66406821  0.50300950  1
  I  I62  1  0.16685614  0.66610131  0.83338863  1
  I  I63  1  0.50121462  -0.00003423  0.16884725  1
  I  I64  1  0.49802345  0.00036473  0.49941462  1
  I  I65  1  0.49923653  0.00002312  0.83171477  1
  I  I66  1  0.50149933  0.33737975  0.16206820  1
  I  I67  1  0.50076802  0.33373287  0.49943157  1
  I  I68  1  0.49961995  0.33807013  0.83841705  1
  I  I69  1  0.50080067  0.66257252  0.16173993  1
  I  I70  1  0.49629346  0.66585536  0.49885453  1
  I  I71  1  0.49312244  0.66272747  0.83801566  1
  I  I72  1  0.84190386  -0.00059941  0.16282842  1
  I  I73  1  0.83724954  0.00011274  0.50166220  1
  I  I74  1  0.84122662  -0.00312462  0.83821763  1
  I  I75  1  0.83569880  0.33395312  0.16242350  1
  I  I76  1  0.83316712  0.33339729  0.50010745  1
  I  I77  1  0.83536657  0.33641723  0.83833508  1
  I  I78  1  0.83531708  0.66654852  0.16254096  1
  I  I79  1  0.83629160  0.66651345  0.49464472  1
  I  I80  1  0.83998821  0.66568239  0.84204063  1
  I  I81  1  0.16302597  0.16836086  0.00021449  1
  I  I82  1  0.16229755  0.16890526  0.33235418  1
  I  I83  1  0.16785198  0.16900721  0.66753004  1
  I  I84  1  0.16720477  0.49760308  -0.00290285  1
  I  I85  1  0.16725933  0.49655991  0.33480934  1
  I  I86  1  0.16758807  0.49691241  0.66888138  1
  I  I87  1  0.16300759  0.83480486  -0.00040426  1
  I  I88  1  0.16258878  0.83462312  0.32997255  1
  I  I89  1  0.16310460  0.83452503  0.67031465  1
  I  I90  1  0.49546195  0.16567307  0.00010108  1
  I  I91  1  0.49813653  0.16967537  0.33294335  1
  I  I92  1  0.50050837  0.16905528  0.66680579  1
  I  I93  1  0.49647472  0.49978928  -0.00062312  1
  I  I94  1  0.50329545  0.50007883  0.33047596  1
  I  I95  1  0.50099049  0.50107046  0.67010659  1
  I  I96  1  0.49684863  0.83495967  -0.00001492  1
  I  I97  1  0.49785541  0.82995477  0.33273335  1
  I  I98  1  0.49716276  0.82935214  0.66732534  1
  I  I99  1  0.84115167  0.16879086  0.00346501  1
  I  I100  1  0.84030775  0.16810479  0.32812446  1
  I  I101  1  0.83452327  0.16743621  0.66682845  1
  I  I102  1  0.83590150  0.50049740  -0.00000214  1
  I  I103  1  0.83050997  0.50060507  0.32978670  1
  I  I104  1  0.83163411  0.50550430  0.67054081  1
  I  I105  1  0.83971551  0.83061191  0.00055341  1
  I  I106  1  0.83954511  0.83140751  0.32930382  1
  I  I107  1  0.84082305  0.82491208  0.67104460  1
  I  I108  1  0.00126780  0.16937296  0.16667082  1
  I  I109  1  0.00432018  0.17145874  0.50295022  1
  I  I110  1  0.00395307  0.17257756  0.83195152  1
  I  I111  1  -0.00270780  0.49956232  0.16431469  1
  I  I112  1  0.00414565  0.49582254  0.50366730  1
  I  I113  1  0.00053545  0.50024671  0.83405338  1
  I  I114  1  0.00031095  0.83126117  0.16350187  1
  I  I115  1  0.00037551  0.83212601  0.49895389  1
  I  I116  1  0.00130236  0.82743888  0.83750866  1
  I  I117  1  0.32944754  0.16417722  0.16742045  1
  I  I118  1  0.32801652  0.17249310  0.49678324  1
  I  I119  1  0.32796759  0.16617012  0.83592626  1
  I  I120  1  0.33455312  0.49946926  0.16396749  1
  I  I121  1  0.32913179  0.49596115  0.50271744  1
  I  I122  1  0.33193833  0.49903511  0.83395398  1
  I  I123  1  0.33009651  0.83672368  0.16367787  1
  I  I124  1  0.33245228  0.83235752  0.49904117  1
  I  I125  1  0.32984680  0.83303052  0.83633796  1
  I  I126  1  0.66996976  0.16374184  0.16489036  1
  I  I127  1  0.66674957  0.16625894  0.49921795  1
  I  I128  1  0.66682792  0.16596933  0.83549308  1
  I  I129  1  0.66824258  0.49998454  0.15809819  1
  I  I130  1  0.66679940  0.50047579  0.50161553  1
  I  I131  1  0.66790203  0.50621795  0.84068769  1
  I  I132  1  0.67059393  0.83635827  0.16124725  1
  I  I133  1  0.66702531  0.83149652  0.49867309  1
  I  I134  1  0.67074457  0.82716110  0.84053586  1
