# generated using pymatgen
data_Cs27Sn13Pb14I81
_symmetry_space_group_name_H-M   'P 1'
_cell_length_a   18.99312620
_cell_length_b   18.98126641
_cell_length_c   19.00346064
_cell_angle_alpha   90.00129829
_cell_angle_beta   90.00026222
_cell_angle_gamma   89.99946140
_symmetry_Int_Tables_number   1
_chemical_formula_structural   Cs27Sn13Pb14I81
_chemical_formula_sum   'Cs27 Sn13 Pb14 I81'
_cell_volume   6851.00578455
_cell_formula_units_Z   1
loop_
 _symmetry_equiv_pos_site_id
 _symmetry_equiv_pos_as_xyz
  1  'x, y, z'
loop_
 _atom_site_type_symbol
 _atom_site_label
 _atom_site_symmetry_multiplicity
 _atom_site_fract_x
 _atom_site_fract_y
 _atom_site_fract_z
 _atom_site_occupancy
  Cs  Cs0  1  -0.00848160  0.00388088  -0.00163413  1
  Cs  Cs1  1  -0.00092006  0.00415382  0.33476354  1
  Cs  Cs2  1  -0.00086601  0.00721137  0.66527203  1
  Cs  Cs3  1  -0.00040692  0.32887634  -0.00030103  1
  Cs  Cs4  1  -0.00916519  0.32668615  0.33707628  1
  Cs  Cs5  1  -0.00226147  0.32797657  0.66381256  1
  Cs  Cs6  1  0.00244338  0.66721272  0.00066465  1
  Cs  Cs7  1  0.00010150  0.66730843  0.33298616  1
  Cs  Cs8  1  0.00324267  0.66594586  0.66620208  1
  Cs  Cs9  1  0.33508880  0.00887192  0.00214974  1
  Cs  Cs10  1  0.33307314  -0.00112448  0.33253242  1
  Cs  Cs11  1  0.33631633  -0.00045063  0.66755269  1
  Cs  Cs12  1  0.33472700  0.33276176  0.00118009  1
  Cs  Cs13  1  0.33452563  0.33302253  0.33313388  1
  Cs  Cs14  1  0.33266487  0.33568046  0.66593728  1
  Cs  Cs15  1  0.32963316  0.66431118  0.00267320  1
  Cs  Cs16  1  0.33227817  0.66661785  0.33276306  1
  Cs  Cs17  1  0.33273928  0.66608884  0.66567821  1
  Cs  Cs18  1  0.67374687  0.00616960  -0.00741739  1
  Cs  Cs19  1  0.66596189  -0.00048356  0.33005321  1
  Cs  Cs20  1  0.66387324  -0.00508973  0.67623100  1
  Cs  Cs21  1  0.66397218  0.32874655  0.00230350  1
  Cs  Cs22  1  0.67167518  0.33270104  0.33446617  1
  Cs  Cs23  1  0.66912529  0.33473627  0.66341292  1
  Cs  Cs24  1  0.67057140  0.66781848  0.00082124  1
  Cs  Cs25  1  0.66783791  0.66622182  0.33254676  1
  Cs  Cs26  1  0.66459479  0.66850055  0.66701838  1
  Sn  Sn27  1  0.16578950  0.83254622  0.50006492  1
  Sn  Sn28  1  0.16750694  0.83298108  0.16628963  1
  Sn  Sn29  1  0.16713365  0.83303422  0.83367186  1
  Sn  Sn30  1  0.49964841  0.16732386  0.50001892  1
  Sn  Sn31  1  0.49936040  0.83248357  0.16594333  1
  Sn  Sn32  1  0.50004060  0.50068774  0.83353610  1
  Sn  Sn33  1  0.83368388  0.50064952  0.83337474  1
  Sn  Sn34  1  0.16647814  0.50050787  0.83329113  1
  Sn  Sn35  1  0.49929152  0.49942834  0.49965914  1
  Sn  Sn36  1  0.49933977  0.50121017  0.16689360  1
  Sn  Sn37  1  0.16693296  0.50001836  0.16727717  1
  Sn  Sn38  1  0.83426851  0.83262398  0.50004133  1
  Sn  Sn39  1  0.16698880  0.50045259  0.49943864  1
  Pb  Pb40  1  0.49963847  0.16969238  0.83067949  1
  Pb  Pb41  1  0.16666868  0.16685220  0.16687400  1
  Pb  Pb42  1  0.16877694  0.16671997  0.49991071  1
  Pb  Pb43  1  0.49735398  0.83090170  0.83676533  1
  Pb  Pb44  1  0.83395130  0.83301302  0.16836096  1
  Pb  Pb45  1  0.83381557  0.50010569  0.16428177  1
  Pb  Pb46  1  0.49929921  0.83255820  0.49834702  1
  Pb  Pb47  1  0.83353701  0.50174890  0.50178483  1
  Pb  Pb48  1  0.83320581  0.16667356  0.16683974  1
  Pb  Pb49  1  0.82969358  0.16300467  0.50032959  1
  Pb  Pb50  1  0.83629779  0.83102268  0.83111225  1
  Pb  Pb51  1  0.83328318  0.16999922  0.83287660  1
  Pb  Pb52  1  0.16694557  0.16686798  0.83326998  1
  Pb  Pb53  1  0.49984132  0.16697491  0.16873930  1
  I  I54  1  0.17213010  -0.00402343  0.16805920  1
  I  I55  1  0.16413691  -0.00366064  0.49975835  1
  I  I56  1  0.16695384  -0.00354506  0.83225402  1
  I  I57  1  0.17242634  0.33773172  0.16493552  1
  I  I58  1  0.16928575  0.33713240  0.50111185  1
  I  I59  1  0.16700571  0.33813432  0.83318453  1
  I  I60  1  0.17096326  0.66605066  0.16689836  1
  I  I61  1  0.16914554  0.66586554  0.50054918  1
  I  I62  1  0.16700574  0.66515647  0.83275030  1
  I  I63  1  0.49386031  -0.00316556  0.17169043  1
  I  I64  1  0.49984964  0.00135608  0.49626534  1
  I  I65  1  0.49881923  -0.00035069  0.83217476  1
  I  I66  1  0.49504999  0.33738456  0.16340948  1
  I  I67  1  0.49418300  0.33640330  0.49901304  1
  I  I68  1  0.49618459  0.33871161  0.83951981  1
  I  I69  1  0.49540071  0.66511760  0.16999449  1
  I  I70  1  0.49879746  0.66315312  0.50229577  1
  I  I71  1  0.50143933  0.66242080  0.82558661  1
  I  I72  1  0.83273814  -0.00058581  0.16714506  1
  I  I73  1  0.84149833  -0.00441043  0.49911536  1
  I  I74  1  0.83407412  -0.00035509  0.83294829  1
  I  I75  1  0.83341944  0.33393094  0.16727080  1
  I  I76  1  0.83586692  0.33330824  0.50136598  1
  I  I77  1  0.83685604  0.33818908  0.83139077  1
  I  I78  1  0.83135659  0.66653090  0.16722395  1
  I  I79  1  0.83332258  0.66933614  0.50017251  1
  I  I80  1  0.83068085  0.66325704  0.83291611  1
  I  I81  1  0.16749272  0.16778638  0.00000476  1
  I  I82  1  0.16759807  0.16668287  0.33352148  1
  I  I83  1  0.16760999  0.16700479  0.66651368  1
  I  I84  1  0.16975709  0.50634448  -0.00003165  1
  I  I85  1  0.17569078  0.50731339  0.33360934  1
  I  I86  1  0.17039202  0.50605327  0.66643183  1
  I  I87  1  0.17237544  0.82393749  0.00032045  1
  I  I88  1  0.16710474  0.82678616  0.33343833  1
  I  I89  1  0.16216397  0.82559503  0.66626126  1
  I  I90  1  0.50062555  0.16710413  -0.00006853  1
  I  I91  1  0.49906323  0.17319229  0.33626462  1
  I  I92  1  0.49889257  0.17085641  0.66300021  1
  I  I93  1  0.49675091  0.50532829  0.00028427  1
  I  I94  1  0.49272069  0.50002391  0.33341670  1
  I  I95  1  0.49698710  0.49501986  0.66637443  1
  I  I96  1  0.49462620  0.82657467  0.00446831  1
  I  I97  1  0.49489758  0.82789696  0.33074759  1
  I  I98  1  0.50031361  0.83400039  0.66689083  1
  I  I99  1  0.83260646  0.16563428  -0.00045036  1
  I  I100  1  0.83343172  0.16842829  0.33419533  1
  I  I101  1  0.83367049  0.16699395  0.66633715  1
  I  I102  1  0.83383309  0.50151822  -0.00359173  1
  I  I103  1  0.83282847  0.50017987  0.33350345  1
  I  I104  1  0.83318988  0.50191843  0.66946358  1
  I  I105  1  0.83333662  0.83318658  -0.00034877  1
  I  I106  1  0.83860635  0.83139451  0.33624061  1
  I  I107  1  0.83665395  0.83168066  0.66343467  1
  I  I108  1  0.00023738  0.16742105  0.16769755  1
  I  I109  1  -0.00026790  0.16938797  0.49991327  1
  I  I110  1  0.00008693  0.16866571  0.83252363  1
  I  I111  1  0.00396617  0.50593200  0.16666712  1
  I  I112  1  0.00345505  0.50318070  0.50004439  1
  I  I113  1  0.00177825  0.50496765  0.83323988  1
  I  I114  1  0.00412403  0.82701908  0.16511542  1
  I  I115  1  0.00256523  0.82609039  0.49795402  1
  I  I116  1  0.00433429  0.82562994  0.83884621  1
  I  I117  1  0.33341510  0.16616174  0.16697249  1
  I  I118  1  0.33629070  0.16789205  0.49963018  1
  I  I119  1  0.33348227  0.16826162  0.83303561  1
  I  I120  1  0.33319429  0.50374303  0.16351077  1
  I  I121  1  0.33300262  0.50190938  0.50399860  1
  I  I122  1  0.33278336  0.50319363  0.83240629  1
  I  I123  1  0.33218568  0.82791400  0.17048241  1
  I  I124  1  0.32997141  0.83199108  0.50167942  1
  I  I125  1  0.32946850  0.82659064  0.82541383  1
  I  I126  1  0.66603396  0.16699784  0.16826496  1
  I  I127  1  0.66251809  0.17578054  0.49831717  1
  I  I128  1  0.66639424  0.16658271  0.83290122  1
  I  I129  1  0.66305655  0.50375373  0.16748607  1
  I  I130  1  0.66356761  0.49792969  0.50031477  1
  I  I131  1  0.66568178  0.49878702  0.83200803  1
  I  I132  1  0.66359197  0.82775789  0.17164854  1
  I  I133  1  0.66800746  0.83288602  0.49731405  1
  I  I134  1  0.66654230  0.83162829  0.83183185  1
