# generated using pymatgen
data_Cs27Sn13Pb14I81
_symmetry_space_group_name_H-M   'P 1'
_cell_length_a   19.02831565
_cell_length_b   19.02849883
_cell_length_c   19.04753271
_cell_angle_alpha   90.00074990
_cell_angle_beta   89.99999792
_cell_angle_gamma   89.99084668
_symmetry_Int_Tables_number   1
_chemical_formula_structural   Cs27Sn13Pb14I81
_chemical_formula_sum   'Cs27 Sn13 Pb14 I81'
_cell_volume   6896.73592447
_cell_formula_units_Z   1
loop_
 _symmetry_equiv_pos_site_id
 _symmetry_equiv_pos_as_xyz
  1  'x, y, z'
loop_
 _atom_site_type_symbol
 _atom_site_label
 _atom_site_symmetry_multiplicity
 _atom_site_fract_x
 _atom_site_fract_y
 _atom_site_fract_z
 _atom_site_occupancy
  Cs  Cs0  1  -0.00064358  -0.00486853  -0.00320874  1
  Cs  Cs1  1  -0.00272478  -0.00461228  0.34314804  1
  Cs  Cs2  1  -0.00466382  -0.00155467  0.66400936  1
  Cs  Cs3  1  0.00105825  0.33446492  0.00118236  1
  Cs  Cs4  1  0.00401852  0.33679657  0.33302467  1
  Cs  Cs5  1  0.00161314  0.33470581  0.66629837  1
  Cs  Cs6  1  -0.00200109  0.66844855  -0.00092073  1
  Cs  Cs7  1  -0.00043873  0.66391688  0.33523311  1
  Cs  Cs8  1  0.00025617  0.66474175  0.66799063  1
  Cs  Cs9  1  0.33371253  -0.00191367  0.00007444  1
  Cs  Cs10  1  0.33694098  -0.00408874  0.33012675  1
  Cs  Cs11  1  0.33213612  0.00512326  0.67014842  1
  Cs  Cs12  1  0.33086929  0.33223560  -0.00169823  1
  Cs  Cs13  1  0.32674057  0.33021266  0.33739573  1
  Cs  Cs14  1  0.33267423  0.33231015  0.66634831  1
  Cs  Cs15  1  0.33477526  0.67203640  -0.00092959  1
  Cs  Cs16  1  0.34404658  0.67916688  0.33461688  1
  Cs  Cs17  1  0.33831367  0.66629271  0.66586823  1
  Cs  Cs18  1  0.66772260  0.00122766  -0.00109672  1
  Cs  Cs19  1  0.66712686  -0.00110366  0.33395118  1
  Cs  Cs20  1  0.67170124  0.00158915  0.66758945  1
  Cs  Cs21  1  0.66839925  0.33409972  0.01258951  1
  Cs  Cs22  1  0.66711661  0.33339731  0.31556884  1
  Cs  Cs23  1  0.66424056  0.33325035  0.66769165  1
  Cs  Cs24  1  0.67090273  0.66446883  -0.00126086  1
  Cs  Cs25  1  0.65538266  0.66795345  0.33228044  1
  Cs  Cs26  1  0.66328641  0.66499153  0.66719272  1
  Sn  Sn27  1  0.49956566  0.16645492  0.83265713  1
  Sn  Sn28  1  0.16641398  0.50009249  0.50021988  1
  Sn  Sn29  1  0.83405892  0.83310552  0.16621363  1
  Sn  Sn30  1  0.16681858  0.16738730  0.83333621  1
  Sn  Sn31  1  0.49976052  0.16758835  0.50087016  1
  Sn  Sn32  1  0.83402447  0.49992340  0.83215709  1
  Sn  Sn33  1  0.50124349  0.83460482  0.83294996  1
  Sn  Sn34  1  0.16606992  0.49946950  0.83334729  1
  Sn  Sn35  1  0.16708846  0.50030976  0.16674105  1
  Sn  Sn36  1  0.16727580  0.16703563  0.50034129  1
  Sn  Sn37  1  0.83238745  0.83217650  0.83380438  1
  Sn  Sn38  1  0.16590590  0.16655284  0.16660907  1
  Sn  Sn39  1  0.83318291  0.49936839  0.50081590  1
  Pb  Pb40  1  0.16682992  0.83298830  0.50029957  1
  Pb  Pb41  1  0.83574522  0.50194930  0.16682618  1
  Pb  Pb42  1  0.50011296  0.83685998  0.50342119  1
  Pb  Pb43  1  0.49710621  0.16671517  0.16628439  1
  Pb  Pb44  1  0.83321441  0.82995705  0.50065018  1
  Pb  Pb45  1  0.16632823  0.83314325  0.83302079  1
  Pb  Pb46  1  0.16444573  0.83326575  0.16668879  1
  Pb  Pb47  1  0.49574621  0.49987799  0.16658364  1
  Pb  Pb48  1  0.83298604  0.17014370  0.50003014  1
  Pb  Pb49  1  0.50009101  0.49886533  0.83352732  1
  Pb  Pb50  1  0.50284443  0.83368029  0.16339332  1
  Pb  Pb51  1  0.83720145  0.16382442  0.16672409  1
  Pb  Pb52  1  0.83330419  0.16764155  0.83337328  1
  Pb  Pb53  1  0.49992078  0.49679104  0.50001834  1
  I  I54  1  0.16651092  0.00327087  0.16571805  1
  I  I55  1  0.17117719  0.00386549  0.49975417  1
  I  I56  1  0.16779564  0.00316432  0.83372927  1
  I  I57  1  0.16568716  0.33335633  0.16623913  1
  I  I58  1  0.16662450  0.33329583  0.50008798  1
  I  I59  1  0.16685259  0.33331689  0.83346718  1
  I  I60  1  0.16361980  0.66336176  0.16480193  1
  I  I61  1  0.15942224  0.66267805  0.50084773  1
  I  I62  1  0.16577183  0.66334209  0.83385874  1
  I  I63  1  0.49619334  0.00021621  0.17021373  1
  I  I64  1  0.49011384  0.00443564  0.50027660  1
  I  I65  1  0.49902994  0.00086362  0.82909417  1
  I  I66  1  0.50920809  0.33297026  0.16221692  1
  I  I67  1  0.49652274  0.32959332  0.51162689  1
  I  I68  1  0.49678059  0.32997643  0.82738226  1
  I  I69  1  0.49567792  0.66704844  0.16648483  1
  I  I70  1  0.49895752  0.66650469  0.49926260  1
  I  I71  1  0.50021721  0.66864364  0.83562922  1
  I  I72  1  0.83488669  -0.00365433  0.15630404  1
  I  I73  1  0.83468556  0.00006607  0.49967368  1
  I  I74  1  0.83313240  -0.00223490  0.83882338  1
  I  I75  1  0.82875114  0.33359931  0.16579983  1
  I  I76  1  0.83711389  0.33746237  0.50979956  1
  I  I77  1  0.83594365  0.33665089  0.82748469  1
  I  I78  1  0.83805485  0.66915721  0.16267482  1
  I  I79  1  0.84451564  0.66253190  0.50182713  1
  I  I80  1  0.83423644  0.66611231  0.83397906  1
  I  I81  1  0.17049387  0.17385194  -0.00102782  1
  I  I82  1  0.17015772  0.17530141  0.33404344  1
  I  I83  1  0.17236233  0.17339599  0.66700193  1
  I  I84  1  0.16215603  0.49208741  -0.00101187  1
  I  I85  1  0.15960560  0.49005131  0.33401193  1
  I  I86  1  0.16095561  0.49285132  0.66700550  1
  I  I87  1  0.16967041  0.83385137  -0.00033830  1
  I  I88  1  0.16260965  0.83364434  0.33324035  1
  I  I89  1  0.16324738  0.83380566  0.66695566  1
  I  I90  1  0.49506680  0.16170210  -0.00338107  1
  I  I91  1  0.49514180  0.16943583  0.33602530  1
  I  I92  1  0.48873300  0.16219805  0.66762703  1
  I  I93  1  0.50163193  0.49737307  -0.00033117  1
  I  I94  1  0.50442217  0.49875687  0.33355033  1
  I  I95  1  0.49565459  0.50459573  0.66694232  1
  I  I96  1  0.49910452  0.84188429  -0.00408455  1
  I  I97  1  0.50114234  0.83309280  0.33332724  1
  I  I98  1  0.50804188  0.83305104  0.67076826  1
  I  I99  1  0.83229064  0.17260021  -0.00020188  1
  I  I100  1  0.83109757  0.16507336  0.33346410  1
  I  I101  1  0.83861034  0.15926707  0.66687382  1
  I  I102  1  0.83750791  0.50261182  -0.00289857  1
  I  I103  1  0.83970702  0.49956489  0.33580613  1
  I  I104  1  0.84409247  0.50678204  0.66791256  1
  I  I105  1  0.82985181  0.82583475  -0.00201544  1
  I  I106  1  0.83833771  0.83455182  0.33109762  1
  I  I107  1  0.82928228  0.83223229  0.67022989  1
  I  I108  1  0.00492760  0.17348915  0.16549324  1
  I  I109  1  0.00354731  0.16728324  0.50096215  1
  I  I110  1  0.00330213  0.16704862  0.83245665  1
  I  I111  1  0.00334988  0.49461905  0.16630064  1
  I  I112  1  0.00169068  0.49358780  0.50083956  1
  I  I113  1  0.00110222  0.50063156  0.83294123  1
  I  I114  1  -0.00273972  0.83391451  0.15499463  1
  I  I115  1  -0.00034191  0.84200469  0.50294609  1
  I  I116  1  -0.00284758  0.83231517  0.83826502  1
  I  I117  1  0.32929054  0.17168312  0.16606616  1
  I  I118  1  0.33140686  0.17423165  0.50154809  1
  I  I119  1  0.33194564  0.16594390  0.83290995  1
  I  I120  1  0.32752100  0.49438417  0.16465750  1
  I  I121  1  0.32967666  0.49712593  0.50209359  1
  I  I122  1  0.33000068  0.49957170  0.83249248  1
  I  I123  1  0.33346394  0.83202265  0.16673807  1
  I  I124  1  0.33370487  0.82463109  0.50027752  1
  I  I125  1  0.33556493  0.83427883  0.83214687  1
  I  I126  1  0.66663963  0.16599580  0.16700429  1
  I  I127  1  0.66349649  0.16520629  0.50957545  1
  I  I128  1  0.66377635  0.16432238  0.82574292  1
  I  I129  1  0.66697892  0.50112733  0.16676467  1
  I  I130  1  0.66961370  0.50152745  0.50903802  1
  I  I131  1  0.66973708  0.50253749  0.82662933  1
  I  I132  1  0.67042704  0.83134982  0.16546513  1
  I  I133  1  0.66675917  0.83340487  0.49575503  1
  I  I134  1  0.66731210  0.83365712  0.83812690  1
