# generated using pymatgen
data_Cs27Sn13Pb14I81
_symmetry_space_group_name_H-M   'P 1'
_cell_length_a   18.98983395
_cell_length_b   18.99386943
_cell_length_c   18.99346292
_cell_angle_alpha   89.99958365
_cell_angle_beta   89.99878477
_cell_angle_gamma   90.00015148
_symmetry_Int_Tables_number   1
_chemical_formula_structural   Cs27Sn13Pb14I81
_chemical_formula_sum   'Cs27 Sn13 Pb14 I81'
_cell_volume   6850.76024296
_cell_formula_units_Z   1
loop_
 _symmetry_equiv_pos_site_id
 _symmetry_equiv_pos_as_xyz
  1  'x, y, z'
loop_
 _atom_site_type_symbol
 _atom_site_label
 _atom_site_symmetry_multiplicity
 _atom_site_fract_x
 _atom_site_fract_y
 _atom_site_fract_z
 _atom_site_occupancy
  Cs  Cs0  1  -0.00027126  0.00112762  -0.00235300  1
  Cs  Cs1  1  0.00213685  -0.00223685  0.33305061  1
  Cs  Cs2  1  0.00031463  -0.00135995  0.66929750  1
  Cs  Cs3  1  -0.00848695  0.33212008  -0.00548367  1
  Cs  Cs4  1  0.00022855  0.33517429  0.33122699  1
  Cs  Cs5  1  -0.00600669  0.33268641  0.67733220  1
  Cs  Cs6  1  -0.00020383  0.66581690  -0.00041070  1
  Cs  Cs7  1  0.00217890  0.66833756  0.33294313  1
  Cs  Cs8  1  0.00122852  0.66912700  0.66741971  1
  Cs  Cs9  1  0.33677219  0.00188707  -0.00069085  1
  Cs  Cs10  1  0.33253273  0.00114825  0.33255194  1
  Cs  Cs11  1  0.33195662  0.00103825  0.66715561  1
  Cs  Cs12  1  0.33320160  0.33111918  0.00189269  1
  Cs  Cs13  1  0.33256330  0.33303364  0.33177003  1
  Cs  Cs14  1  0.33691684  0.33587438  0.66835954  1
  Cs  Cs15  1  0.33704055  0.66635656  -0.00365833  1
  Cs  Cs16  1  0.33010771  0.66611394  0.33160172  1
  Cs  Cs17  1  0.33517829  0.66433578  0.67344702  1
  Cs  Cs18  1  0.66290945  -0.00052628  0.00077814  1
  Cs  Cs19  1  0.66614801  -0.00058962  0.33498842  1
  Cs  Cs20  1  0.66819851  0.00164646  0.66200369  1
  Cs  Cs21  1  0.67369352  0.33235753  0.00114832  1
  Cs  Cs22  1  0.67257731  0.33392955  0.33927236  1
  Cs  Cs23  1  0.66848990  0.34042342  0.65865011  1
  Cs  Cs24  1  0.66265332  0.66677468  -0.00220035  1
  Cs  Cs25  1  0.66788226  0.66818533  0.33327743  1
  Cs  Cs26  1  0.66468598  0.66011183  0.66726384  1
  Sn  Sn27  1  0.49945136  0.49854950  0.16722961  1
  Sn  Sn28  1  0.16652646  0.49970217  0.49960577  1
  Sn  Sn29  1  0.50032785  0.16687602  0.83351578  1
  Sn  Sn30  1  0.16626879  0.83344755  0.16681575  1
  Sn  Sn31  1  0.16706774  0.16676525  0.16730645  1
  Sn  Sn32  1  0.16650414  0.16716799  0.49954503  1
  Sn  Sn33  1  0.49964650  0.16815643  0.16647137  1
  Sn  Sn34  1  0.16719069  0.83322857  0.49941227  1
  Sn  Sn35  1  0.83310454  0.83355066  0.83346284  1
  Sn  Sn36  1  0.16742194  0.49978949  0.16693385  1
  Sn  Sn37  1  0.49904171  0.83312825  0.49982622  1
  Sn  Sn38  1  0.83416549  0.83359493  0.16636116  1
  Sn  Sn39  1  0.83354167  0.83334980  0.50003015  1
  Pb  Pb40  1  0.82990906  0.16445796  0.83314880  1
  Pb  Pb41  1  0.16535493  0.83345632  0.83369739  1
  Pb  Pb42  1  0.83678914  0.50248476  0.49970497  1
  Pb  Pb43  1  0.49744634  0.50230860  0.49723167  1
  Pb  Pb44  1  0.83318397  0.50271566  0.83334965  1
  Pb  Pb45  1  0.16677994  0.49986152  0.83412767  1
  Pb  Pb46  1  0.49995232  0.49690344  0.83636474  1
  Pb  Pb47  1  0.49938781  0.83354910  0.16809777  1
  Pb  Pb48  1  0.83371673  0.50267834  0.16681932  1
  Pb  Pb49  1  0.49797142  0.16540259  0.49920850  1
  Pb  Pb50  1  0.50238219  0.83529962  0.83025537  1
  Pb  Pb51  1  0.83356518  0.16416943  0.16694853  1
  Pb  Pb52  1  0.16837205  0.16661116  0.83370059  1
  Pb  Pb53  1  0.83685916  0.16478955  0.49973935  1
  I  I54  1  0.16672466  -0.00021340  0.17283463  1
  I  I55  1  0.16640334  -0.00120680  0.49393630  1
  I  I56  1  0.16628711  -0.00005824  0.83278777  1
  I  I57  1  0.17378595  0.33306777  0.17464508  1
  I  I58  1  0.16939401  0.33321697  0.49136571  1
  I  I59  1  0.16642625  0.33325572  0.83153974  1
  I  I60  1  0.16605916  0.66713879  0.17320952  1
  I  I61  1  0.16519573  0.66797402  0.49291713  1
  I  I62  1  0.16616290  0.66678886  0.83315358  1
  I  I63  1  0.49683606  0.00236612  0.16431333  1
  I  I64  1  0.49818098  -0.00291483  0.49730643  1
  I  I65  1  0.49923059  0.00253832  0.84236816  1
  I  I66  1  0.48909614  0.33265849  0.16237471  1
  I  I67  1  0.49848142  0.33352493  0.50324929  1
  I  I68  1  0.49714791  0.32927736  0.83346796  1
  I  I69  1  0.49701409  0.66489649  0.17006093  1
  I  I70  1  0.49942082  0.67039217  0.49800113  1
  I  I71  1  0.50151544  0.66659933  0.83380185  1
  I  I72  1  0.83731209  -0.00423827  0.16813151  1
  I  I73  1  0.83524757  -0.00439377  0.49925224  1
  I  I74  1  0.83492432  -0.00366567  0.83268609  1
  I  I75  1  0.83586806  0.33335865  0.16467860  1
  I  I76  1  0.83246258  0.33356757  0.50117691  1
  I  I77  1  0.83425967  0.33310158  0.83427983  1
  I  I78  1  0.83735075  0.67107048  0.16823866  1
  I  I79  1  0.83519495  0.67136853  0.49901990  1
  I  I80  1  0.83346245  0.67126756  0.83306047  1
  I  I81  1  0.16880552  0.16509477  0.00390212  1
  I  I82  1  0.17268472  0.16429300  0.33226982  1
  I  I83  1  0.16791677  0.16328232  0.66345474  1
  I  I84  1  0.17056379  0.50190164  0.00444181  1
  I  I85  1  0.17032681  0.50184051  0.33251206  1
  I  I86  1  0.16581760  0.50293845  0.66333846  1
  I  I87  1  0.16202854  0.83347532  0.00383549  1
  I  I88  1  0.16219285  0.83362347  0.33349376  1
  I  I89  1  0.16546243  0.83377131  0.66291118  1
  I  I90  1  0.49302476  0.16756447  0.00205721  1
  I  I91  1  0.49650226  0.16776388  0.32999006  1
  I  I92  1  0.49785573  0.16025784  0.66822996  1
  I  I93  1  0.49191765  0.50310621  0.00434886  1
  I  I94  1  0.49737358  0.49373968  0.32957759  1
  I  I95  1  0.49914717  0.50033414  0.66640214  1
  I  I96  1  0.50094107  0.83143551  0.00014011  1
  I  I97  1  0.50377071  0.83575781  0.33588744  1
  I  I98  1  0.49717292  0.83588579  0.66238828  1
  I  I99  1  0.83839477  0.16263893  0.00015871  1
  I  I100  1  0.82692412  0.16324646  0.33326019  1
  I  I101  1  0.83421370  0.16192922  0.66650117  1
  I  I102  1  0.83630668  0.50374181  0.00038634  1
  I  I103  1  0.83022949  0.50263847  0.33324163  1
  I  I104  1  0.83454357  0.50253777  0.66633427  1
  I  I105  1  0.83911638  0.83368217  0.00098911  1
  I  I106  1  0.83541166  0.83334167  0.33354305  1
  I  I107  1  0.83466331  0.83456332  0.66547235  1
  I  I108  1  0.00375874  0.16814807  0.17185956  1
  I  I109  1  0.00520858  0.16372148  0.49225925  1
  I  I110  1  -0.00031388  0.16625783  0.83328819  1
  I  I111  1  0.00384391  0.49883511  0.17139262  1
  I  I112  1  0.00485990  0.50247215  0.49119114  1
  I  I113  1  0.00000594  0.49903887  0.83524277  1
  I  I114  1  0.00139779  0.83327815  0.17150347  1
  I  I115  1  0.00103682  0.83327145  0.49911387  1
  I  I116  1  -0.00275154  0.83427663  0.82906673  1
  I  I117  1  0.33221994  0.16371483  0.16662332  1
  I  I118  1  0.32975445  0.16149363  0.49801487  1
  I  I119  1  0.33599275  0.16395703  0.83580077  1
  I  I120  1  0.33190290  0.50231277  0.17088909  1
  I  I121  1  0.32944099  0.50365674  0.49739671  1
  I  I122  1  0.33357319  0.50298914  0.83033859  1
  I  I123  1  0.33006363  0.83366071  0.17280520  1
  I  I124  1  0.33147628  0.83444556  0.49329714  1
  I  I125  1  0.33376632  0.83362991  0.83289348  1
  I  I126  1  0.66347997  0.16873198  0.16126239  1
  I  I127  1  0.66660349  0.16255661  0.49985950  1
  I  I128  1  0.66243229  0.16365183  0.84241392  1
  I  I129  1  0.66379814  0.49730675  0.16460463  1
  I  I130  1  0.66660802  0.50230525  0.49952216  1
  I  I131  1  0.66635055  0.50132158  0.83531105  1
  I  I132  1  0.66880980  0.83346963  0.16881986  1
  I  I133  1  0.66716994  0.83538107  0.49866512  1
  I  I134  1  0.67020162  0.83498293  0.83609455  1
