# generated using pymatgen
data_Cs27Sn14Pb13I81
_symmetry_space_group_name_H-M   'P 1'
_cell_length_a   18.95342018
_cell_length_b   18.96540363
_cell_length_c   18.96202006
_cell_angle_alpha   89.99842360
_cell_angle_beta   89.99844532
_cell_angle_gamma   90.00140310
_symmetry_Int_Tables_number   1
_chemical_formula_structural   Cs27Sn14Pb13I81
_chemical_formula_sum   'Cs27 Sn14 Pb13 I81'
_cell_volume   6816.07376384
_cell_formula_units_Z   1
loop_
 _symmetry_equiv_pos_site_id
 _symmetry_equiv_pos_as_xyz
  1  'x, y, z'
loop_
 _atom_site_type_symbol
 _atom_site_label
 _atom_site_symmetry_multiplicity
 _atom_site_fract_x
 _atom_site_fract_y
 _atom_site_fract_z
 _atom_site_occupancy
  Cs  Cs0  1  -0.00022913  -0.00191946  -0.00067368  1
  Cs  Cs1  1  0.00122602  0.00058805  0.33436796  1
  Cs  Cs2  1  -0.00893652  -0.00124741  0.66537522  1
  Cs  Cs3  1  -0.00139855  0.33392547  0.00146323  1
  Cs  Cs4  1  0.00106683  0.33231865  0.33536875  1
  Cs  Cs5  1  0.00212457  0.33387395  0.66062680  1
  Cs  Cs6  1  0.00168548  0.66761271  0.00148478  1
  Cs  Cs7  1  0.00094441  0.66596626  0.33022330  1
  Cs  Cs8  1  0.00166344  0.66670576  0.67030868  1
  Cs  Cs9  1  0.33289468  0.00156678  -0.00075852  1
  Cs  Cs10  1  0.33298888  -0.00416280  0.33263344  1
  Cs  Cs11  1  0.33480896  0.00266475  0.66821816  1
  Cs  Cs12  1  0.33515821  0.33109888  -0.00077359  1
  Cs  Cs13  1  0.33242206  0.33284996  0.33542022  1
  Cs  Cs14  1  0.33351371  0.33277174  0.66635119  1
  Cs  Cs15  1  0.33209488  0.66740625  -0.00037228  1
  Cs  Cs16  1  0.33386928  0.67066478  0.33102605  1
  Cs  Cs17  1  0.33230737  0.66551719  0.66907347  1
  Cs  Cs18  1  0.66758880  0.00645010  -0.00036112  1
  Cs  Cs19  1  0.66700638  -0.00185877  0.33445414  1
  Cs  Cs20  1  0.67059953  -0.00237570  0.66565621  1
  Cs  Cs21  1  0.66613694  0.33329889  0.00019230  1
  Cs  Cs22  1  0.66664357  0.33457026  0.33086492  1
  Cs  Cs23  1  0.66405833  0.33535004  0.66877990  1
  Cs  Cs24  1  0.66646383  0.66279847  0.00062758  1
  Cs  Cs25  1  0.66573471  0.66707666  0.33514742  1
  Cs  Cs26  1  0.66639947  0.66602985  0.66495199  1
  Sn  Sn27  1  0.16626846  0.49978184  0.16652957  1
  Sn  Sn28  1  0.50039944  0.49931351  0.50054536  1
  Sn  Sn29  1  0.83306674  0.49980740  0.83319528  1
  Sn  Sn30  1  0.16649160  0.16669374  0.83361975  1
  Sn  Sn31  1  0.83285282  0.50007195  0.49992857  1
  Sn  Sn32  1  0.49997263  0.16711191  0.50050055  1
  Sn  Sn33  1  0.16590982  0.83342358  0.16724701  1
  Sn  Sn34  1  0.50020948  0.83338229  0.83362491  1
  Sn  Sn35  1  0.50049591  0.50017584  0.83266055  1
  Sn  Sn36  1  0.16681510  0.16671853  0.16595479  1
  Sn  Sn37  1  0.49942400  0.16648380  0.83235392  1
  Sn  Sn38  1  0.16657016  0.83327966  0.50024399  1
  Sn  Sn39  1  0.83358597  0.83272338  0.16648959  1
  Sn  Sn40  1  0.83425072  0.50080528  0.16680013  1
  Pb  Pb41  1  0.16848890  0.16449324  0.50029883  1
  Pb  Pb42  1  0.83557438  0.83073122  0.49784983  1
  Pb  Pb43  1  0.16691089  0.49789631  0.83540522  1
  Pb  Pb44  1  0.16731045  0.50181749  0.49778212  1
  Pb  Pb45  1  0.50037639  0.83346069  0.16423311  1
  Pb  Pb46  1  0.49786653  0.16660007  0.16699701  1
  Pb  Pb47  1  0.83014313  0.16912352  0.49994780  1
  Pb  Pb48  1  0.83086811  0.83086879  0.83582176  1
  Pb  Pb49  1  0.83589286  0.16677317  0.16679996  1
  Pb  Pb50  1  0.50018260  0.50000659  0.16691545  1
  Pb  Pb51  1  0.49847710  0.83298169  0.50207652  1
  Pb  Pb52  1  0.16793278  0.83580199  0.83359943  1
  Pb  Pb53  1  0.83324301  0.16923703  0.83318258  1
  I  I54  1  0.16426568  -0.00052307  0.16648221  1
  I  I55  1  0.16982453  -0.00303010  0.49364099  1
  I  I56  1  0.17432071  0.00358111  0.83933030  1
  I  I57  1  0.16376314  0.33359818  0.16229302  1
  I  I58  1  0.16541376  0.33343640  0.49826255  1
  I  I59  1  0.17230513  0.33014172  0.83854417  1
  I  I60  1  0.16295006  0.66681590  0.17050656  1
  I  I61  1  0.16866668  0.66943902  0.49419977  1
  I  I62  1  0.16856926  0.66655313  0.83460604  1
  I  I63  1  0.50003516  0.00001087  0.16651399  1
  I  I64  1  0.49596453  0.00233905  0.50390692  1
  I  I65  1  0.49374288  0.00125794  0.83123998  1
  I  I66  1  0.49944428  0.33349284  0.16299946  1
  I  I67  1  0.50183456  0.33433499  0.50734938  1
  I  I68  1  0.49981378  0.33367186  0.82983672  1
  I  I69  1  0.49479663  0.66654171  0.16566746  1
  I  I70  1  0.50267094  0.66353151  0.50376286  1
  I  I71  1  0.50367518  0.66517941  0.83048510  1
  I  I72  1  0.83694262  -0.00290918  0.16598636  1
  I  I73  1  0.83277223  -0.00037851  0.49786072  1
  I  I74  1  0.83218667  -0.00016254  0.83604053  1
  I  I75  1  0.83660647  0.33703534  0.16636661  1
  I  I76  1  0.83424426  0.33779861  0.49730465  1
  I  I77  1  0.82783415  0.33765237  0.83712863  1
  I  I78  1  0.84150952  0.66523041  0.16587916  1
  I  I79  1  0.82622069  0.66250970  0.50130695  1
  I  I80  1  0.82872584  0.66253356  0.83197577  1
  I  I81  1  0.17282530  0.16570520  0.00041957  1
  I  I82  1  0.16768658  0.16801820  0.33052667  1
  I  I83  1  0.17081114  0.16647254  0.66924744  1
  I  I84  1  0.16355191  0.50450227  0.00363078  1
  I  I85  1  0.16318087  0.49606872  0.32954455  1
  I  I86  1  0.16405315  0.50047994  0.66667991  1
  I  I87  1  0.16459741  0.83168381  0.00316140  1
  I  I88  1  0.16508126  0.83470359  0.33137115  1
  I  I89  1  0.17041019  0.83343655  0.66477625  1
  I  I90  1  0.49794753  0.16795097  -0.00335366  1
  I  I91  1  0.49893075  0.17260103  0.33641043  1
  I  I92  1  0.49313924  0.16889828  0.66807215  1
  I  I93  1  0.50248891  0.49871160  -0.00312834  1
  I  I94  1  0.50233696  0.49542649  0.33637112  1
  I  I95  1  0.50678825  0.49941944  0.66735106  1
  I  I96  1  0.49744328  0.83238832  -0.00382964  1
  I  I97  1  0.50018584  0.83315278  0.33339776  1
  I  I98  1  0.49695571  0.83268730  0.67001020  1
  I  I99  1  0.82876930  0.16984766  0.00000619  1
  I  I100  1  0.83286334  0.16955541  0.33328994  1
  I  I101  1  0.83980383  0.16693813  0.66669078  1
  I  I102  1  0.83269760  0.50307677  0.00041543  1
  I  I103  1  0.83287355  0.50334366  0.33281037  1
  I  I104  1  0.82746757  0.49857099  0.66675335  1
  I  I105  1  0.84058923  0.82707055  0.00370802  1
  I  I106  1  0.83430592  0.82745008  0.32967732  1
  I  I107  1  0.83505387  0.83222526  0.66675307  1
  I  I108  1  0.00437416  0.16710087  0.16100783  1
  I  I109  1  0.00016647  0.16749972  0.50010017  1
  I  I110  1  0.00280206  0.16766326  0.83930066  1
  I  I111  1  -0.00044455  0.50073604  0.16611861  1
  I  I112  1  -0.00252494  0.50231974  0.50201386  1
  I  I113  1  -0.00255999  0.49862449  0.83195553  1
  I  I114  1  0.00118648  0.83155707  0.16933916  1
  I  I115  1  0.00348871  0.83298658  0.49858944  1
  I  I116  1  -0.00015612  0.83329985  0.83197762  1
  I  I117  1  0.32934099  0.16693461  0.16473940  1
  I  I118  1  0.33652191  0.17382500  0.50183022  1
  I  I119  1  0.33455246  0.16910707  0.83460723  1
  I  I120  1  0.33041806  0.50102737  0.16632964  1
  I  I121  1  0.33638581  0.49731894  0.50405877  1
  I  I122  1  0.33647927  0.50073638  0.83028064  1
  I  I123  1  0.32996216  0.83219650  0.16923704  1
  I  I124  1  0.33064699  0.83131595  0.49233222  1
  I  I125  1  0.33615030  0.82834120  0.83520457  1
  I  I126  1  0.66670308  0.16684185  0.16563412  1
  I  I127  1  0.66197073  0.16666239  0.50694428  1
  I  I128  1  0.66306111  0.16545545  0.82976340  1
  I  I129  1  0.66985735  0.50485321  0.16651041  1
  I  I130  1  0.66627012  0.49693620  0.49861577  1
  I  I131  1  0.66577309  0.49842903  0.83556306  1
  I  I132  1  0.66971353  0.82612117  0.16504882  1
  I  I133  1  0.66673001  0.83498240  0.49861651  1
  I  I134  1  0.66277682  0.83795407  0.83376075  1
