# generated using pymatgen
data_Cs27Sn14Pb13I81
_symmetry_space_group_name_H-M   'P 1'
_cell_length_a   18.98217321
_cell_length_b   18.97811902
_cell_length_c   18.96652027
_cell_angle_alpha   90.00271156
_cell_angle_beta   90.00020524
_cell_angle_gamma   89.99993939
_symmetry_Int_Tables_number   1
_chemical_formula_structural   Cs27Sn14Pb13I81
_chemical_formula_sum   'Cs27 Sn14 Pb13 I81'
_cell_volume   6832.61196316
_cell_formula_units_Z   1
loop_
 _symmetry_equiv_pos_site_id
 _symmetry_equiv_pos_as_xyz
  1  'x, y, z'
loop_
 _atom_site_type_symbol
 _atom_site_label
 _atom_site_symmetry_multiplicity
 _atom_site_fract_x
 _atom_site_fract_y
 _atom_site_fract_z
 _atom_site_occupancy
  Cs  Cs0  1  0.00172464  -0.00024648  0.00260002  1
  Cs  Cs1  1  0.00183296  -0.00198038  0.33338570  1
  Cs  Cs2  1  0.00152962  -0.00061354  0.66198268  1
  Cs  Cs3  1  -0.00052046  0.33064572  -0.00210659  1
  Cs  Cs4  1  -0.00261370  0.33540477  0.33375305  1
  Cs  Cs5  1  0.00245189  0.33598356  0.66859793  1
  Cs  Cs6  1  -0.00643413  0.67071017  0.00040110  1
  Cs  Cs7  1  -0.00000237  0.66686043  0.33377651  1
  Cs  Cs8  1  0.00155398  0.66518259  0.66627542  1
  Cs  Cs9  1  0.32883104  0.00350457  -0.00211445  1
  Cs  Cs10  1  0.33228226  -0.00175496  0.33284815  1
  Cs  Cs11  1  0.33361214  -0.00025034  0.66801600  1
  Cs  Cs12  1  0.33093489  0.32980865  -0.00409117  1
  Cs  Cs13  1  0.33575612  0.33821819  0.33172519  1
  Cs  Cs14  1  0.32929994  0.33138179  0.67669589  1
  Cs  Cs15  1  0.33842410  0.66619302  0.00130679  1
  Cs  Cs16  1  0.33550759  0.66538505  0.33453765  1
  Cs  Cs17  1  0.33074953  0.66720083  0.66519537  1
  Cs  Cs18  1  0.66884818  -0.00248294  -0.00164390  1
  Cs  Cs19  1  0.66631042  0.00187096  0.33561692  1
  Cs  Cs20  1  0.66382723  0.00305843  0.66534348  1
  Cs  Cs21  1  0.66865118  0.33552764  0.00366582  1
  Cs  Cs22  1  0.66719544  0.33319212  0.33209485  1
  Cs  Cs23  1  0.66608576  0.32777523  0.66756057  1
  Cs  Cs24  1  0.66866495  0.66770194  -0.00594598  1
  Cs  Cs25  1  0.66445379  0.66426597  0.33294654  1
  Cs  Cs26  1  0.66736103  0.66792642  0.67171852  1
  Sn  Sn27  1  0.16695196  0.83406625  0.50046943  1
  Sn  Sn28  1  0.83337063  0.49957415  0.16752517  1
  Sn  Sn29  1  0.16706053  0.16680049  0.49923062  1
  Sn  Sn30  1  0.83276999  0.16693685  0.16608592  1
  Sn  Sn31  1  0.50053982  0.16659460  0.16700556  1
  Sn  Sn32  1  0.16641805  0.50017062  0.16643082  1
  Sn  Sn33  1  0.50036695  0.83253584  0.49917081  1
  Sn  Sn34  1  0.83277691  0.83235335  0.49955351  1
  Sn  Sn35  1  0.16656282  0.83286321  0.83307762  1
  Sn  Sn36  1  0.83205562  0.50091337  0.49944124  1
  Sn  Sn37  1  0.50089925  0.50041262  0.50021632  1
  Sn  Sn38  1  0.50016296  0.50002903  0.16720688  1
  Sn  Sn39  1  0.83325258  0.16646295  0.83412551  1
  Sn  Sn40  1  0.50023605  0.83344687  0.16730571  1
  Pb  Pb41  1  0.49807948  0.83337142  0.83279273  1
  Pb  Pb42  1  0.83475207  0.16732965  0.49915589  1
  Pb  Pb43  1  0.83529640  0.83569336  0.83016655  1
  Pb  Pb44  1  0.16642736  0.50289474  0.83690794  1
  Pb  Pb45  1  0.83324205  0.49819426  0.83290902  1
  Pb  Pb46  1  0.50233913  0.16653047  0.83666610  1
  Pb  Pb47  1  0.50008360  0.49999697  0.83276427  1
  Pb  Pb48  1  0.49768606  0.16739076  0.49811868  1
  Pb  Pb49  1  0.16702427  0.50037300  0.49879438  1
  Pb  Pb50  1  0.16636238  0.16864204  0.16856605  1
  Pb  Pb51  1  0.16432876  0.16460991  0.83095722  1
  Pb  Pb52  1  0.16899356  0.83114636  0.16728655  1
  Pb  Pb53  1  0.83095671  0.83332064  0.16874509  1
  I  I54  1  0.16717404  -0.00026587  0.16540273  1
  I  I55  1  0.16548539  -0.00179812  0.50244501  1
  I  I56  1  0.16669900  -0.00314484  0.83210160  1
  I  I57  1  0.17097662  0.33647000  0.17080656  1
  I  I58  1  0.16487217  0.33174275  0.49620304  1
  I  I59  1  0.16634443  0.33320299  0.83130055  1
  I  I60  1  0.16567844  0.66333722  0.16931601  1
  I  I61  1  0.16668856  0.66959050  0.50223491  1
  I  I62  1  0.16645162  0.67025548  0.82341358  1
  I  I63  1  0.50428755  -0.00018480  0.17157108  1
  I  I64  1  0.50201991  -0.00286745  0.49562358  1
  I  I65  1  0.50016129  -0.00004389  0.83318353  1
  I  I66  1  0.50125965  0.33437204  0.17131301  1
  I  I67  1  0.50437662  0.33657117  0.49411419  1
  I  I68  1  0.49819611  0.33317253  0.83095357  1
  I  I69  1  0.49817662  0.66598389  0.17142567  1
  I  I70  1  0.49783668  0.66718851  0.49129123  1
  I  I71  1  0.50036088  0.66680809  0.83914982  1
  I  I72  1  0.82907112  0.00255189  0.16475323  1
  I  I73  1  0.83207388  -0.00235552  0.50015083  1
  I  I74  1  0.83399392  0.00317435  0.84029578  1
  I  I75  1  0.82896404  0.33421108  0.16895287  1
  I  I76  1  0.83061855  0.33635240  0.49817019  1
  I  I77  1  0.83459616  0.33036835  0.83297358  1
  I  I78  1  0.83376980  0.66366245  0.16949270  1
  I  I79  1  0.83574668  0.66628939  0.49399628  1
  I  I80  1  0.83454388  0.66696858  0.83602986  1
  I  I81  1  0.16858041  0.16589871  0.00023456  1
  I  I82  1  0.16388345  0.15830825  0.33608610  1
  I  I83  1  0.16503113  0.16654703  0.66297697  1
  I  I84  1  0.16811111  0.49950080  0.00498971  1
  I  I85  1  0.16698153  0.50182423  0.33073421  1
  I  I86  1  0.16646147  0.49722257  0.66653606  1
  I  I87  1  0.16853528  0.83114672  -0.00170702  1
  I  I88  1  0.16517969  0.83623198  0.33658886  1
  I  I89  1  0.16820603  0.83734948  0.66420348  1
  I  I90  1  0.49883735  0.16769981  0.00525530  1
  I  I91  1  0.50709485  0.16717377  0.32990702  1
  I  I92  1  0.50060389  0.16632836  0.66648301  1
  I  I93  1  0.50074269  0.50119317  0.00425805  1
  I  I94  1  0.50053762  0.50117434  0.33244570  1
  I  I95  1  0.50442318  0.50625651  0.66243332  1
  I  I96  1  0.49819685  0.83173115  0.00327194  1
  I  I97  1  0.49733901  0.83223042  0.33419578  1
  I  I98  1  0.50150384  0.82858526  0.66260261  1
  I  I99  1  0.83006856  0.17272338  0.00213203  1
  I  I100  1  0.83019442  0.16881337  0.33042165  1
  I  I101  1  0.83732301  0.16574401  0.66793397  1
  I  I102  1  0.83231678  0.49794676  0.00360672  1
  I  I103  1  0.83265510  0.49733026  0.33265932  1
  I  I104  1  0.82975091  0.50256053  0.66286060  1
  I  I105  1  0.83384334  0.83115597  0.00017510  1
  I  I106  1  0.83935145  0.83494264  0.33691083  1
  I  I107  1  0.82896503  0.82941034  0.66186023  1
  I  I108  1  -0.00297685  0.17178682  0.16463394  1
  I  I109  1  0.00237895  0.16184075  0.49801189  1
  I  I110  1  -0.00309279  0.16655842  0.84113569  1
  I  I111  1  -0.00156535  0.49524293  0.17164205  1
  I  I112  1  -0.00242608  0.50217056  0.49486397  1
  I  I113  1  -0.00013153  0.49951162  0.83236410  1
  I  I114  1  -0.00010559  0.83284515  0.16748756  1
  I  I115  1  0.00009220  0.83364393  0.50430690  1
  I  I116  1  0.00304250  0.83352364  0.82834272  1
  I  I117  1  0.33599313  0.16759048  0.17046676  1
  I  I118  1  0.33022239  0.16188339  0.49725862  1
  I  I119  1  0.33305940  0.16619234  0.83383619  1
  I  I120  1  0.33498269  0.50102112  0.17170063  1
  I  I121  1  0.33609813  0.50376128  0.49307442  1
  I  I122  1  0.33317411  0.49889505  0.83295724  1
  I  I123  1  0.33701348  0.83300159  0.17218952  1
  I  I124  1  0.33381380  0.83300444  0.49954062  1
  I  I125  1  0.33036666  0.83447372  0.82736791  1
  I  I126  1  0.66687115  0.17174153  0.16435351  1
  I  I127  1  0.66660043  0.16348416  0.50242055  1
  I  I128  1  0.67013541  0.16617369  0.83160359  1
  I  I129  1  0.66660051  0.49777685  0.17140538  1
  I  I130  1  0.66667856  0.50755946  0.49090081  1
  I  I131  1  0.66678347  0.50083782  0.83727333  1
  I  I132  1  0.66294060  0.83007625  0.17207350  1
  I  I133  1  0.66610341  0.82947724  0.49418397  1
  I  I134  1  0.66689168  0.83415958  0.83306583  1
