# generated using pymatgen
data_Cs27Sn13Pb14I81
_symmetry_space_group_name_H-M   'P 1'
_cell_length_a   18.98267581
_cell_length_b   18.97547741
_cell_length_c   18.97402590
_cell_angle_alpha   89.99810118
_cell_angle_beta   89.99903742
_cell_angle_gamma   90.00064446
_symmetry_Int_Tables_number   1
_chemical_formula_structural   Cs27Sn13Pb14I81
_chemical_formula_sum   'Cs27 Sn13 Pb14 I81'
_cell_volume   6834.54536898
_cell_formula_units_Z   1
loop_
 _symmetry_equiv_pos_site_id
 _symmetry_equiv_pos_as_xyz
  1  'x, y, z'
loop_
 _atom_site_type_symbol
 _atom_site_label
 _atom_site_symmetry_multiplicity
 _atom_site_fract_x
 _atom_site_fract_y
 _atom_site_fract_z
 _atom_site_occupancy
  Cs  Cs0  1  0.00272490  0.00137638  -0.00007730  1
  Cs  Cs1  1  -0.00017883  0.00043198  0.33420433  1
  Cs  Cs2  1  0.00073631  -0.00112437  0.66597920  1
  Cs  Cs3  1  -0.00367926  0.33209182  -0.00185719  1
  Cs  Cs4  1  0.00277243  0.33462305  0.33419980  1
  Cs  Cs5  1  -0.00504255  0.33401026  0.66724575  1
  Cs  Cs6  1  -0.00210177  0.66654948  0.00376313  1
  Cs  Cs7  1  0.00038010  0.66212998  0.33295812  1
  Cs  Cs8  1  -0.00089833  0.66904025  0.66417734  1
  Cs  Cs9  1  0.33021294  0.00104517  -0.00071853  1
  Cs  Cs10  1  0.33212794  0.00089378  0.33484774  1
  Cs  Cs11  1  0.33170334  -0.00137527  0.66558040  1
  Cs  Cs12  1  0.33381705  0.33311819  -0.00012887  1
  Cs  Cs13  1  0.33141068  0.33637253  0.33414257  1
  Cs  Cs14  1  0.33577954  0.33524184  0.66657816  1
  Cs  Cs15  1  0.33390076  0.66396781  -0.00288105  1
  Cs  Cs16  1  0.33704518  0.65969505  0.33212071  1
  Cs  Cs17  1  0.33363716  0.66638035  0.66948465  1
  Cs  Cs18  1  0.66704714  -0.00006950  0.00188332  1
  Cs  Cs19  1  0.66726255  -0.00098694  0.33373488  1
  Cs  Cs20  1  0.66704671  -0.00160433  0.66392411  1
  Cs  Cs21  1  0.66748641  0.33265493  -0.00320826  1
  Cs  Cs22  1  0.66527540  0.33401786  0.33695253  1
  Cs  Cs23  1  0.66826698  0.33587669  0.66751198  1
  Cs  Cs24  1  0.66783365  0.66784286  0.00531817  1
  Cs  Cs25  1  0.66093097  0.66353694  0.32389701  1
  Cs  Cs26  1  0.66785784  0.66755952  0.66624101  1
  Sn  Sn27  1  0.83266224  0.83394586  0.83306241  1
  Sn  Sn28  1  0.16661735  0.16587446  0.16734799  1
  Sn  Sn29  1  0.16622270  0.83381516  0.49867124  1
  Sn  Sn30  1  0.16591741  0.16592591  0.49957406  1
  Sn  Sn31  1  0.16638480  0.49982706  0.83318114  1
  Sn  Sn32  1  0.83356138  0.16623342  0.16766303  1
  Sn  Sn33  1  0.16691373  0.83373585  0.16793452  1
  Sn  Sn34  1  0.49943848  0.50004896  0.83343515  1
  Sn  Sn35  1  0.83376129  0.83373790  0.49993525  1
  Sn  Sn36  1  0.49978448  0.16619544  0.16612561  1
  Sn  Sn37  1  0.50096460  0.83375012  0.83334431  1
  Sn  Sn38  1  0.49981733  0.16617868  0.83366062  1
  Sn  Sn39  1  0.83427567  0.16567609  0.49916673  1
  Pb  Pb40  1  0.16844894  0.16848848  0.83276545  1
  Pb  Pb41  1  0.49995215  0.49691753  0.16412431  1
  Pb  Pb42  1  0.50010492  0.50021761  0.50238374  1
  Pb  Pb43  1  0.83337091  0.50058563  0.49976799  1
  Pb  Pb44  1  0.16657662  0.50007388  0.50232359  1
  Pb  Pb45  1  0.49997729  0.16658640  0.49978442  1
  Pb  Pb46  1  0.49712561  0.83562672  0.16434436  1
  Pb  Pb47  1  0.83291569  0.50322379  0.83331285  1
  Pb  Pb48  1  0.83113967  0.16443799  0.83276320  1
  Pb  Pb49  1  0.49990909  0.83326347  0.50145071  1
  Pb  Pb50  1  0.83343030  0.49646603  0.16682385  1
  Pb  Pb51  1  0.83536905  0.83520448  0.16745292  1
  Pb  Pb52  1  0.16659910  0.49949527  0.16436661  1
  Pb  Pb53  1  0.16644501  0.83185657  0.83322795  1
  I  I54  1  0.16702108  0.00132830  0.16831186  1
  I  I55  1  0.16311713  0.00036389  0.49776812  1
  I  I56  1  0.16856501  0.00004661  0.83386577  1
  I  I57  1  0.16734754  0.32931732  0.17005306  1
  I  I58  1  0.16345339  0.32978929  0.49633887  1
  I  I59  1  0.17299036  0.33604053  0.83379691  1
  I  I60  1  0.16576795  0.66965000  0.16923000  1
  I  I61  1  0.16196182  0.67025725  0.49785588  1
  I  I62  1  0.17301173  0.66435931  0.83327703  1
  I  I63  1  0.50148151  0.00380247  0.15966246  1
  I  I64  1  0.49937961  0.00014947  0.50511026  1
  I  I65  1  0.50385522  0.00010670  0.83705851  1
  I  I66  1  0.49737439  0.32853040  0.16126144  1
  I  I67  1  0.49989132  0.33282961  0.50264140  1
  I  I68  1  0.49477551  0.33288672  0.83754865  1
  I  I69  1  0.49869290  0.66685492  0.16555858  1
  I  I70  1  0.49920606  0.66702542  0.50277692  1
  I  I71  1  0.49845215  0.66694826  0.83035039  1
  I  I72  1  0.83114130  0.00356870  0.16666465  1
  I  I73  1  0.83754914  0.00038570  0.50131644  1
  I  I74  1  0.82908780  -0.00328914  0.83186948  1
  I  I75  1  0.83634537  0.32758769  0.17052156  1
  I  I76  1  0.83746762  0.32952867  0.49642437  1
  I  I77  1  0.83230382  0.33305332  0.83343477  1
  I  I78  1  0.83527187  0.66716886  0.16563917  1
  I  I79  1  0.83911404  0.67075148  0.50776980  1
  I  I80  1  0.82938154  0.67115516  0.82730580  1
  I  I81  1  0.16498980  0.16339225  0.00284933  1
  I  I82  1  0.16826233  0.16298724  0.33298704  1
  I  I83  1  0.16357935  0.16279560  0.66359590  1
  I  I84  1  0.17198570  0.50068345  -0.00334671  1
  I  I85  1  0.16621224  0.49982109  0.33334498  1
  I  I86  1  0.17267636  0.50036365  0.67001061  1
  I  I87  1  0.16718017  0.83752174  0.00210095  1
  I  I88  1  0.16076373  0.83883778  0.33404982  1
  I  I89  1  0.16593595  0.83700898  0.66407222  1
  I  I90  1  0.49949598  0.16686576  -0.00009797  1
  I  I91  1  0.49993450  0.16551575  0.33027638  1
  I  I92  1  0.49946663  0.16759733  0.66970085  1
  I  I93  1  0.49514142  0.50216445  -0.00411688  1
  I  I94  1  0.50053348  0.49895783  0.33275672  1
  I  I95  1  0.49553283  0.49600083  0.67142423  1
  I  I96  1  0.50440413  0.83149331  -0.00410646  1
  I  I97  1  0.50264956  0.83576051  0.33291611  1
  I  I98  1  0.49857681  0.83622196  0.67051830  1
  I  I99  1  0.83576599  0.16545024  0.00239278  1
  I  I100  1  0.83173818  0.16059477  0.33365479  1
  I  I101  1  0.83722153  0.16479147  0.66370332  1
  I  I102  1  0.83432843  0.49993158  -0.00032522  1
  I  I103  1  0.83382469  0.50469937  0.33334950  1
  I  I104  1  0.83266023  0.49430832  0.66684396  1
  I  I105  1  0.83079402  0.83409307  -0.00205219  1
  I  I106  1  0.83677975  0.83726483  0.33651170  1
  I  I107  1  0.83533661  0.83901377  0.66609126  1
  I  I108  1  0.00064132  0.16289574  0.17041100  1
  I  I109  1  0.00027685  0.16286623  0.49317059  1
  I  I110  1  -0.00009135  0.16748782  0.83628073  1
  I  I111  1  0.00032781  0.49850798  0.16161738  1
  I  I112  1  0.00016364  0.49907348  0.50505670  1
  I  I113  1  0.00224971  0.50061122  0.83317288  1
  I  I114  1  0.00320162  0.83960524  0.16318749  1
  I  I115  1  0.00016326  0.83832664  0.50444321  1
  I  I116  1  -0.00214107  0.83200477  0.83196199  1
  I  I117  1  0.33260013  0.16289901  0.16523283  1
  I  I118  1  0.33015500  0.16241988  0.49815526  1
  I  I119  1  0.33661641  0.16246822  0.83690028  1
  I  I120  1  0.33326455  0.49815008  0.16683376  1
  I  I121  1  0.33301723  0.49903153  0.49992364  1
  I  I122  1  0.33449108  0.50232747  0.83337924  1
  I  I123  1  0.32930088  0.83999875  0.17016972  1
  I  I124  1  0.32980956  0.83914875  0.49915619  1
  I  I125  1  0.33570899  0.83439394  0.83384049  1
  I  I126  1  0.66673486  0.16736072  0.16528053  1
  I  I127  1  0.66980271  0.16240388  0.49762292  1
  I  I128  1  0.66303540  0.17098869  0.83707123  1
  I  I129  1  0.66650575  0.50081748  0.16360054  1
  I  I130  1  0.66686035  0.49763310  0.50376150  1
  I  I131  1  0.66334762  0.49662279  0.83311467  1
  I  I132  1  0.66663192  0.83477409  0.16753941  1
  I  I133  1  0.67007477  0.83951946  0.50505923  1
  I  I134  1  0.66643240  0.83264410  0.82767136  1
