# generated using pymatgen
data_Cs27Sn14Pb13I81
_symmetry_space_group_name_H-M   'P 1'
_cell_length_a   18.96294701
_cell_length_b   18.95863295
_cell_length_c   18.96123649
_cell_angle_alpha   90.00099931
_cell_angle_beta   89.99931661
_cell_angle_gamma   90.00160458
_symmetry_Int_Tables_number   1
_chemical_formula_structural   Cs27Sn14Pb13I81
_chemical_formula_sum   'Cs27 Sn14 Pb13 I81'
_cell_volume   6816.78355271
_cell_formula_units_Z   1
loop_
 _symmetry_equiv_pos_site_id
 _symmetry_equiv_pos_as_xyz
  1  'x, y, z'
loop_
 _atom_site_type_symbol
 _atom_site_label
 _atom_site_symmetry_multiplicity
 _atom_site_fract_x
 _atom_site_fract_y
 _atom_site_fract_z
 _atom_site_occupancy
  Cs  Cs0  1  -0.00183294  0.00138753  -0.00091921  1
  Cs  Cs1  1  -0.00153936  0.00028978  0.33278490  1
  Cs  Cs2  1  0.00099393  -0.00040734  0.66753391  1
  Cs  Cs3  1  -0.00121975  0.33251073  -0.00369132  1
  Cs  Cs4  1  0.00124512  0.33213291  0.33165333  1
  Cs  Cs5  1  0.00006909  0.34041909  0.67531136  1
  Cs  Cs6  1  -0.00016812  0.66616597  0.00243545  1
  Cs  Cs7  1  -0.00053725  0.66696453  0.33151116  1
  Cs  Cs8  1  0.00426249  0.66045906  0.66738850  1
  Cs  Cs9  1  0.33480081  -0.00167366  -0.00146576  1
  Cs  Cs10  1  0.33311661  0.00253550  0.33289187  1
  Cs  Cs11  1  0.33063442  -0.00355668  0.66852337  1
  Cs  Cs12  1  0.33504897  0.33326476  0.00155725  1
  Cs  Cs13  1  0.33371870  0.33156175  0.33225423  1
  Cs  Cs14  1  0.33441097  0.33293528  0.66775353  1
  Cs  Cs15  1  0.33499831  0.66781205  0.00070344  1
  Cs  Cs16  1  0.33333341  0.66773842  0.33630363  1
  Cs  Cs17  1  0.32604739  0.67331441  0.65959725  1
  Cs  Cs18  1  0.66745603  -0.00082902  -0.00012624  1
  Cs  Cs19  1  0.66836883  0.00083996  0.33339748  1
  Cs  Cs20  1  0.66674434  -0.00018596  0.66509960  1
  Cs  Cs21  1  0.66523659  0.33226195  -0.00012020  1
  Cs  Cs22  1  0.66561772  0.33212945  0.33330560  1
  Cs  Cs23  1  0.66569153  0.33592596  0.66730489  1
  Cs  Cs24  1  0.66592720  0.66826910  0.00120421  1
  Cs  Cs25  1  0.66656822  0.66663044  0.33414250  1
  Cs  Cs26  1  0.66743853  0.66467775  0.66335153  1
  Sn  Sn27  1  0.83331769  0.83311246  0.83308427  1
  Sn  Sn28  1  0.83300557  0.50038831  0.16680835  1
  Sn  Sn29  1  0.83396506  0.16669702  0.50014377  1
  Sn  Sn30  1  0.49958944  0.50018679  0.83374469  1
  Sn  Sn31  1  0.50013036  0.16706117  0.83351997  1
  Sn  Sn32  1  0.16612668  0.16696705  0.49975035  1
  Sn  Sn33  1  0.49983487  0.16662991  0.50018099  1
  Sn  Sn34  1  0.83395491  0.83275679  0.16672633  1
  Sn  Sn35  1  0.50002203  0.49925320  0.16604352  1
  Sn  Sn36  1  0.16730709  0.16653285  0.16703420  1
  Sn  Sn37  1  0.49937995  0.16720372  0.16650449  1
  Sn  Sn38  1  0.16605375  0.83379996  0.16672730  1
  Sn  Sn39  1  0.16701011  0.49974814  0.16669225  1
  Sn  Sn40  1  0.83349037  0.83372904  0.50031171  1
  Pb  Pb41  1  0.83346569  0.49975689  0.49784387  1
  Pb  Pb42  1  0.16404095  0.83563882  0.49763246  1
  Pb  Pb43  1  0.16667766  0.49717336  0.49768090  1
  Pb  Pb44  1  0.83100504  0.50226150  0.83597914  1
  Pb  Pb45  1  0.83334997  0.16667131  0.16779216  1
  Pb  Pb46  1  0.50205216  0.83589433  0.49997551  1
  Pb  Pb47  1  0.50168154  0.83260226  0.83315571  1
  Pb  Pb48  1  0.16897815  0.16666338  0.83363366  1
  Pb  Pb49  1  0.83101930  0.16513508  0.83023879  1
  Pb  Pb50  1  0.49977910  0.49809510  0.49983769  1
  Pb  Pb51  1  0.16992811  0.50013873  0.83594884  1
  Pb  Pb52  1  0.16406104  0.83328080  0.83593208  1
  Pb  Pb53  1  0.50002921  0.83328690  0.16683393  1
  I  I54  1  0.16625031  0.00077890  0.17058338  1
  I  I55  1  0.16958866  0.00385647  0.49314908  1
  I  I56  1  0.16946412  0.00012225  0.83675700  1
  I  I57  1  0.16784957  0.33288821  0.17123695  1
  I  I58  1  0.16535172  0.32864617  0.49289984  1
  I  I59  1  0.16284860  0.33326675  0.83484864  1
  I  I60  1  0.16528896  0.66643509  0.16453059  1
  I  I61  1  0.16542788  0.66689546  0.49874108  1
  I  I62  1  0.16918741  0.66666384  0.83487013  1
  I  I63  1  0.49779954  0.00348407  0.16688850  1
  I  I64  1  0.49851002  0.00482369  0.49828565  1
  I  I65  1  0.50133953  0.00314851  0.83444375  1
  I  I66  1  0.49819140  0.33260469  0.16670175  1
  I  I67  1  0.50331757  0.32906000  0.49836976  1
  I  I68  1  0.50120682  0.33237384  0.83521479  1
  I  I69  1  0.49876066  0.66347661  0.16103221  1
  I  I70  1  0.50262927  0.66666354  0.49964560  1
  I  I71  1  0.50291014  0.66341189  0.84295727  1
  I  I72  1  0.83559905  -0.00267426  0.16612699  1
  I  I73  1  0.83180800  0.00030641  0.49619005  1
  I  I74  1  0.83073332  -0.00288580  0.83994186  1
  I  I75  1  0.83434631  0.33566383  0.16916039  1
  I  I76  1  0.83149754  0.32995459  0.49618750  1
  I  I77  1  0.83392315  0.33352058  0.83352358  1
  I  I78  1  0.83559971  0.66734190  0.16829982  1
  I  I79  1  0.83236280  0.66973541  0.49999052  1
  I  I80  1  0.83037676  0.67023956  0.82990603  1
  I  I81  1  0.17053535  0.16694610  0.00392213  1
  I  I82  1  0.17130893  0.16654651  0.33203558  1
  I  I83  1  0.16757245  0.16474156  0.66356369  1
  I  I84  1  0.16366741  0.49666197  0.00490159  1
  I  I85  1  0.16930403  0.50198246  0.32861175  1
  I  I86  1  0.16718119  0.49885853  0.66675299  1
  I  I87  1  0.16170038  0.83624150  0.00471277  1
  I  I88  1  0.16126765  0.83163146  0.32918998  1
  I  I89  1  0.16619331  0.83555304  0.66631356  1
  I  I90  1  0.49604196  0.17031155  0.00125179  1
  I  I91  1  0.49952946  0.16975602  0.33260483  1
  I  I92  1  0.50189954  0.17017390  0.66632806  1
  I  I93  1  0.50052112  0.49149612  0.00189905  1
  I  I94  1  0.50019331  0.49610343  0.32948997  1
  I  I95  1  0.50320973  0.49439027  0.66950481  1
  I  I96  1  0.50305609  0.83884673  0.00030886  1
  I  I97  1  0.50318261  0.83312958  0.33303336  1
  I  I98  1  0.50284513  0.83366764  0.66660292  1
  I  I99  1  0.83291495  0.16536167  -0.00004371  1
  I  I100  1  0.82874491  0.16183750  0.33580228  1
  I  I101  1  0.83337047  0.16066345  0.66193002  1
  I  I102  1  0.83522430  0.50422207  0.00448020  1
  I  I103  1  0.83054230  0.50486833  0.32907956  1
  I  I104  1  0.83073989  0.50067057  0.66693349  1
  I  I105  1  0.83617174  0.82896613  0.00150494  1
  I  I106  1  0.83661496  0.83407536  0.33246907  1
  I  I107  1  0.82938256  0.84095071  0.66586199  1
  I  I108  1  0.00258261  0.16826576  0.17195088  1
  I  I109  1  0.00006353  0.16119448  0.49131219  1
  I  I110  1  -0.00019925  0.16489205  0.83398139  1
  I  I111  1  0.00015366  0.50098420  0.16926050  1
  I  I112  1  -0.00005657  0.49701840  0.49776166  1
  I  I113  1  -0.00012054  0.50088784  0.83443311  1
  I  I114  1  -0.00080407  0.83083634  0.16705441  1
  I  I115  1  -0.00406147  0.84046186  0.49994724  1
  I  I116  1  -0.00415624  0.83488035  0.83215776  1
  I  I117  1  0.33371419  0.16889018  0.17085260  1
  I  I118  1  0.33365306  0.16882326  0.49712535  1
  I  I119  1  0.33743535  0.16966090  0.83069436  1
  I  I120  1  0.33364721  0.49827770  0.16281428  1
  I  I121  1  0.33335184  0.49894884  0.49769776  1
  I  I122  1  0.33786959  0.49423232  0.84014185  1
  I  I123  1  0.33043748  0.83226819  0.16669817  1
  I  I124  1  0.33277948  0.83397701  0.49858312  1
  I  I125  1  0.33328095  0.83413362  0.83548243  1
  I  I126  1  0.66394219  0.16916740  0.16773472  1
  I  I127  1  0.66630838  0.16236595  0.49863183  1
  I  I128  1  0.66275214  0.16934273  0.83609125  1
  I  I129  1  0.66612257  0.49993651  0.16380444  1
  I  I130  1  0.66665996  0.49774366  0.49624195  1
  I  I131  1  0.66326735  0.49524766  0.84004853  1
  I  I132  1  0.67002644  0.83114302  0.16691048  1
  I  I133  1  0.67065475  0.83891778  0.49586239  1
  I  I134  1  0.66992324  0.83480699  0.83775391  1
