# generated using pymatgen
data_Cs27Sn13Pb14I81
_symmetry_space_group_name_H-M   'P 1'
_cell_length_a   18.99656322
_cell_length_b   18.98369432
_cell_length_c   18.99489180
_cell_angle_alpha   90.00029846
_cell_angle_beta   90.00059876
_cell_angle_gamma   90.00003748
_symmetry_Int_Tables_number   1
_chemical_formula_structural   Cs27Sn13Pb14I81
_chemical_formula_sum   'Cs27 Sn13 Pb14 I81'
_cell_volume   6850.03189246
_cell_formula_units_Z   1
loop_
 _symmetry_equiv_pos_site_id
 _symmetry_equiv_pos_as_xyz
  1  'x, y, z'
loop_
 _atom_site_type_symbol
 _atom_site_label
 _atom_site_symmetry_multiplicity
 _atom_site_fract_x
 _atom_site_fract_y
 _atom_site_fract_z
 _atom_site_occupancy
  Cs  Cs0  1  0.00031402  -0.00111845  0.00383541  1
  Cs  Cs1  1  -0.00189960  0.00048273  0.33053229  1
  Cs  Cs2  1  -0.00274093  -0.00193145  0.66344293  1
  Cs  Cs3  1  -0.00336066  0.34017060  -0.00057250  1
  Cs  Cs4  1  0.00046018  0.33447687  0.33111722  1
  Cs  Cs5  1  -0.00692012  0.33468032  0.66885787  1
  Cs  Cs6  1  -0.00027379  0.66214025  -0.00188192  1
  Cs  Cs7  1  0.00144709  0.66364069  0.33543104  1
  Cs  Cs8  1  0.01058001  0.66835818  0.66512066  1
  Cs  Cs9  1  0.33304552  0.00110053  -0.00001587  1
  Cs  Cs10  1  0.33349840  0.00234790  0.33033867  1
  Cs  Cs11  1  0.33198383  0.00132336  0.66897684  1
  Cs  Cs12  1  0.33338111  0.32918779  -0.00009664  1
  Cs  Cs13  1  0.33250835  0.33348626  0.33523843  1
  Cs  Cs14  1  0.33529035  0.33165088  0.66567251  1
  Cs  Cs15  1  0.33297835  0.66553509  -0.00073151  1
  Cs  Cs16  1  0.34239902  0.65792729  0.34131545  1
  Cs  Cs17  1  0.32476252  0.66550353  0.66179592  1
  Cs  Cs18  1  0.66660800  -0.00138645  0.00009630  1
  Cs  Cs19  1  0.66888282  -0.00279250  0.33303744  1
  Cs  Cs20  1  0.67050461  -0.00011346  0.66657819  1
  Cs  Cs21  1  0.66893699  0.33547359  -0.00262654  1
  Cs  Cs22  1  0.66738297  0.33594872  0.33407673  1
  Cs  Cs23  1  0.66942872  0.33256674  0.66873694  1
  Cs  Cs24  1  0.66670539  0.66857628  0.00172558  1
  Cs  Cs25  1  0.65788171  0.66539807  0.33606941  1
  Cs  Cs26  1  0.66523647  0.66876712  0.66422911  1
  Sn  Sn27  1  0.16635467  0.16625084  0.16629471  1
  Sn  Sn28  1  0.50040754  0.16650330  0.16664484  1
  Sn  Sn29  1  0.83326450  0.16631856  0.16619971  1
  Sn  Sn30  1  0.50023478  0.83337179  0.83323369  1
  Sn  Sn31  1  0.83317996  0.83348954  0.83392036  1
  Sn  Sn32  1  0.16648858  0.16642387  0.83347227  1
  Sn  Sn33  1  0.83416821  0.83375389  0.16584061  1
  Sn  Sn34  1  0.16682086  0.16637437  0.50014927  1
  Sn  Sn35  1  0.49978991  0.50028580  0.83343057  1
  Sn  Sn36  1  0.83332767  0.50025800  0.50016994  1
  Sn  Sn37  1  0.49972156  0.16633773  0.83327851  1
  Sn  Sn38  1  0.16654417  0.83346829  0.16709340  1
  Sn  Sn39  1  0.49983872  0.16614398  0.50015172  1
  Pb  Pb40  1  0.83127535  0.50367091  0.83147024  1
  Pb  Pb41  1  0.16459151  0.49674071  0.50004538  1
  Pb  Pb42  1  0.83315485  0.50129438  0.16825578  1
  Pb  Pb43  1  0.49976494  0.83621533  0.50305294  1
  Pb  Pb44  1  0.16685626  0.83607853  0.49627542  1
  Pb  Pb45  1  0.83344014  0.83092911  0.49921264  1
  Pb  Pb46  1  0.16920485  0.49694076  0.83342377  1
  Pb  Pb47  1  0.83340000  0.16492952  0.83562837  1
  Pb  Pb48  1  0.16691814  0.50041086  0.16665538  1
  Pb  Pb49  1  0.50152098  0.49714249  0.50276939  1
  Pb  Pb50  1  0.49960008  0.83503885  0.16504143  1
  Pb  Pb51  1  0.50000069  0.49712416  0.16418765  1
  Pb  Pb52  1  0.16672183  0.83560220  0.83534955  1
  Pb  Pb53  1  0.83335194  0.16765422  0.49734143  1
  I  I54  1  0.16572567  0.00233212  0.16645045  1
  I  I55  1  0.16953548  0.00449682  0.50279704  1
  I  I56  1  0.17380473  0.00387051  0.83231479  1
  I  I57  1  0.16658296  0.32878590  0.16695548  1
  I  I58  1  0.17207757  0.32843951  0.49626703  1
  I  I59  1  0.17178643  0.32820915  0.83668625  1
  I  I60  1  0.15854145  0.67033170  0.16333909  1
  I  I61  1  0.16521600  0.66661640  0.49924588  1
  I  I62  1  0.16760883  0.66694497  0.83531233  1
  I  I63  1  0.49955086  0.00399397  0.16395575  1
  I  I64  1  0.49774960  0.00469159  0.50127697  1
  I  I65  1  0.49977726  0.00150706  0.83390155  1
  I  I66  1  0.49916483  0.32792864  0.16479969  1
  I  I67  1  0.49610849  0.32896946  0.50108953  1
  I  I68  1  0.49498720  0.33121159  0.83339981  1
  I  I69  1  0.50084007  0.66687712  0.16494709  1
  I  I70  1  0.50199364  0.66645703  0.50006243  1
  I  I71  1  0.50780857  0.66740060  0.83544045  1
  I  I72  1  0.83397180  0.00078459  0.16405690  1
  I  I73  1  0.83308851  -0.00003324  0.50151955  1
  I  I74  1  0.82682797  -0.00264694  0.83402981  1
  I  I75  1  0.83416567  0.33037733  0.16822601  1
  I  I76  1  0.83272531  0.33510032  0.49900486  1
  I  I77  1  0.83302771  0.33327470  0.83417846  1
  I  I78  1  0.83929429  0.67070990  0.16230920  1
  I  I79  1  0.83149313  0.66350604  0.49891636  1
  I  I80  1  0.82749715  0.67125848  0.84120407  1
  I  I81  1  0.17155796  0.16271275  0.00055630  1
  I  I82  1  0.16977834  0.16336148  0.33244497  1
  I  I83  1  0.17583103  0.16790053  0.66699988  1
  I  I84  1  0.16572852  0.49604648  -0.00013992  1
  I  I85  1  0.16632052  0.49744793  0.33345409  1
  I  I86  1  0.16581168  0.49965306  0.66676175  1
  I  I87  1  0.16573506  0.84253390  0.00299523  1
  I  I88  1  0.15800430  0.84160774  0.32839372  1
  I  I89  1  0.16576911  0.83476478  0.66668267  1
  I  I90  1  0.49666545  0.16653323  -0.00055591  1
  I  I91  1  0.49683193  0.16654353  0.33279670  1
  I  I92  1  0.49268965  0.16693165  0.66775034  1
  I  I93  1  0.50142347  0.49673763  -0.00377385  1
  I  I94  1  0.50112447  0.49925147  0.33372663  1
  I  I95  1  0.50201279  0.49637590  0.67026778  1
  I  I96  1  0.50163147  0.83719258  -0.00317034  1
  I  I97  1  0.50164331  0.83496579  0.33322046  1
  I  I98  1  0.50738230  0.83676657  0.67147346  1
  I  I99  1  0.83291274  0.16558552  0.00367020  1
  I  I100  1  0.83307263  0.16123092  0.32935276  1
  I  I101  1  0.83350965  0.16633506  0.66671557  1
  I  I102  1  0.83235327  0.49753356  -0.00015355  1
  I  I103  1  0.83295249  0.49828774  0.33572534  1
  I  I104  1  0.83135662  0.49641188  0.66425410  1
  I  I105  1  0.83202484  0.83857386  0.00064767  1
  I  I106  1  0.83802552  0.83836214  0.32954463  1
  I  I107  1  0.82726452  0.83337258  0.66942606  1
  I  I108  1  0.00048095  0.16229471  0.16784373  1
  I  I109  1  0.00277026  0.16852837  0.50011480  1
  I  I110  1  0.00262464  0.16418629  0.83254242  1
  I  I111  1  -0.00011292  0.49343277  0.16666044  1
  I  I112  1  -0.00286008  0.49789956  0.50006316  1
  I  I113  1  -0.00010595  0.49890170  0.83234400  1
  I  I114  1  -0.00071148  0.84480526  0.16065336  1
  I  I115  1  0.00006463  0.83525399  0.50612288  1
  I  I116  1  -0.00244081  0.83605122  0.83539563  1
  I  I117  1  0.33309895  0.16311670  0.16596981  1
  I  I118  1  0.33365993  0.16693291  0.49624141  1
  I  I119  1  0.33472026  0.16512667  0.83721443  1
  I  I120  1  0.33354804  0.50059159  0.16714680  1
  I  I121  1  0.33347375  0.50128359  0.50047835  1
  I  I122  1  0.33731748  0.50423048  0.83284747  1
  I  I123  1  0.33075420  0.84107927  0.16380391  1
  I  I124  1  0.33332234  0.83019590  0.50030119  1
  I  I125  1  0.33617387  0.83382239  0.83518202  1
  I  I126  1  0.66648037  0.16306628  0.16642332  1
  I  I127  1  0.66389021  0.16875943  0.50127547  1
  I  I128  1  0.66340226  0.16826781  0.83312259  1
  I  I129  1  0.66660275  0.49805981  0.16755464  1
  I  I130  1  0.66889905  0.49702875  0.49914918  1
  I  I131  1  0.66357607  0.49140117  0.83273051  1
  I  I132  1  0.66925563  0.83891725  0.16385491  1
  I  I133  1  0.66662110  0.83579941  0.49608954  1
  I  I134  1  0.66616566  0.83639866  0.83923156  1
