# generated using pymatgen
data_Cs27Sn13Pb14I81
_symmetry_space_group_name_H-M   'P 1'
_cell_length_a   18.97453745
_cell_length_b   18.97980525
_cell_length_c   18.97660651
_cell_angle_alpha   89.99995158
_cell_angle_beta   89.99988693
_cell_angle_gamma   90.00178421
_symmetry_Int_Tables_number   1
_chemical_formula_structural   Cs27Sn13Pb14I81
_chemical_formula_sum   'Cs27 Sn13 Pb14 I81'
_cell_volume   6834.10271356
_cell_formula_units_Z   1
loop_
 _symmetry_equiv_pos_site_id
 _symmetry_equiv_pos_as_xyz
  1  'x, y, z'
loop_
 _atom_site_type_symbol
 _atom_site_label
 _atom_site_symmetry_multiplicity
 _atom_site_fract_x
 _atom_site_fract_y
 _atom_site_fract_z
 _atom_site_occupancy
  Cs  Cs0  1  0.00023607  -0.00104815  0.00113052  1
  Cs  Cs1  1  0.00050562  -0.00207364  0.33099187  1
  Cs  Cs2  1  -0.00063572  0.00047147  0.66769976  1
  Cs  Cs3  1  -0.00065194  0.33145891  0.00066308  1
  Cs  Cs4  1  0.00040263  0.33474575  0.33452707  1
  Cs  Cs5  1  -0.00155098  0.33352934  0.66534095  1
  Cs  Cs6  1  0.00083959  0.67032592  0.00020124  1
  Cs  Cs7  1  0.00031148  0.66591844  0.33403902  1
  Cs  Cs8  1  0.00066487  0.66629747  0.66683367  1
  Cs  Cs9  1  0.32936208  0.00037118  -0.00154351  1
  Cs  Cs10  1  0.33713162  -0.00004274  0.33676309  1
  Cs  Cs11  1  0.33826657  0.00119190  0.66431036  1
  Cs  Cs12  1  0.33599687  0.33432282  -0.00085158  1
  Cs  Cs13  1  0.33312487  0.33109009  0.33511214  1
  Cs  Cs14  1  0.33023093  0.33271617  0.66602062  1
  Cs  Cs15  1  0.33853008  0.66438231  -0.00718347  1
  Cs  Cs16  1  0.33335516  0.66825629  0.33207572  1
  Cs  Cs17  1  0.33396559  0.66577431  0.67534027  1
  Cs  Cs18  1  0.66797490  -0.00434959  0.00722566  1
  Cs  Cs19  1  0.65981268  -0.00054899  0.32839011  1
  Cs  Cs20  1  0.66524777  -0.00074163  0.66606373  1
  Cs  Cs21  1  0.66502732  0.33291977  0.00048664  1
  Cs  Cs22  1  0.66667652  0.33440587  0.33157662  1
  Cs  Cs23  1  0.67059273  0.33389917  0.66694038  1
  Cs  Cs24  1  0.65971059  0.67139770  0.00004494  1
  Cs  Cs25  1  0.66452332  0.66572206  0.33489332  1
  Cs  Cs26  1  0.66700111  0.66749064  0.66466503  1
  Sn  Sn27  1  0.16643025  0.83285227  0.16746047  1
  Sn  Sn28  1  0.16604343  0.50014371  0.16660875  1
  Sn  Sn29  1  0.50016452  0.49973620  0.50011850  1
  Sn  Sn30  1  0.16641329  0.16691059  0.83373552  1
  Sn  Sn31  1  0.83351365  0.16621347  0.49991343  1
  Sn  Sn32  1  0.83286917  0.49997901  0.49994455  1
  Sn  Sn33  1  0.83363395  0.49981076  0.83384026  1
  Sn  Sn34  1  0.50083128  0.16668432  0.83344702  1
  Sn  Sn35  1  0.83390445  0.50011506  0.16620183  1
  Sn  Sn36  1  0.83297659  0.16717531  0.83306620  1
  Sn  Sn37  1  0.16625239  0.16700087  0.16636868  1
  Sn  Sn38  1  0.83410004  0.83369070  0.49977986  1
  Sn  Sn39  1  0.16597985  0.83316126  0.49968840  1
  Pb  Pb40  1  0.16649824  0.83579382  0.83308838  1
  Pb  Pb41  1  0.50299870  0.16891095  0.50184516  1
  Pb  Pb42  1  0.50285048  0.49792045  0.83101960  1
  Pb  Pb43  1  0.83333005  0.83356287  0.83124981  1
  Pb  Pb44  1  0.83498447  0.16833360  0.16663085  1
  Pb  Pb45  1  0.49996571  0.49985551  0.16857582  1
  Pb  Pb46  1  0.50029073  0.83630987  0.83315766  1
  Pb  Pb47  1  0.16465852  0.16463718  0.49992062  1
  Pb  Pb48  1  0.16643583  0.50207942  0.49843808  1
  Pb  Pb49  1  0.49694411  0.16688574  0.16423607  1
  Pb  Pb50  1  0.49646663  0.83321291  0.16677591  1
  Pb  Pb51  1  0.16426272  0.49768389  0.83585152  1
  Pb  Pb52  1  0.49988773  0.83101109  0.50011667  1
  Pb  Pb53  1  0.83499331  0.83048462  0.16915591  1
  I  I54  1  0.16663147  0.00019874  0.16553479  1
  I  I55  1  0.16079192  -0.00309099  0.49526658  1
  I  I56  1  0.16297622  0.00416029  0.83884619  1
  I  I57  1  0.16235844  0.33345188  0.16231955  1
  I  I58  1  0.16595205  0.33330017  0.49885987  1
  I  I59  1  0.16758653  0.32945681  0.83729453  1
  I  I60  1  0.16107610  0.66642109  0.17376278  1
  I  I61  1  0.16054654  0.66987090  0.49373758  1
  I  I62  1  0.16536357  0.66644968  0.83385484  1
  I  I63  1  0.50052219  0.00019317  0.16710014  1
  I  I64  1  0.50056356  0.00019170  0.50153671  1
  I  I65  1  0.50156516  0.00468344  0.83111253  1
  I  I66  1  0.49702738  0.33339836  0.16764333  1
  I  I67  1  0.50533556  0.33657162  0.49972638  1
  I  I68  1  0.49745675  0.33012291  0.83279765  1
  I  I69  1  0.49889427  0.66636130  0.16678355  1
  I  I70  1  0.50714805  0.66332717  0.49953591  1
  I  I71  1  0.50018588  0.66616109  0.83269193  1
  I  I72  1  0.83543125  -0.00015036  0.16638292  1
  I  I73  1  0.83967085  0.00039241  0.50645166  1
  I  I74  1  0.83416379  0.00384379  0.82821444  1
  I  I75  1  0.83960059  0.33648273  0.17143796  1
  I  I76  1  0.82986440  0.33395425  0.50139023  1
  I  I77  1  0.83457056  0.33277528  0.82790942  1
  I  I78  1  0.83972456  0.66223729  0.16648842  1
  I  I79  1  0.83356230  0.66570129  0.49970218  1
  I  I80  1  0.83458338  0.66343187  0.83188715  1
  I  I81  1  0.16430974  0.16495160  -0.00002434  1
  I  I82  1  0.16343004  0.16851833  0.33068361  1
  I  I83  1  0.16714402  0.16511007  0.66934191  1
  I  I84  1  0.16148139  0.50445040  0.00405202  1
  I  I85  1  0.16083683  0.49498366  0.33021303  1
  I  I86  1  0.16625928  0.50021105  0.66679325  1
  I  I87  1  0.16655656  0.83263833  0.00311102  1
  I  I88  1  0.16136119  0.83511497  0.33295146  1
  I  I89  1  0.16225912  0.83419645  0.66364347  1
  I  I90  1  0.50585483  0.16865924  -0.00386429  1
  I  I91  1  0.49960790  0.16698099  0.33350914  1
  I  I92  1  0.49410806  0.16764199  0.66975478  1
  I  I93  1  0.50028484  0.49932276  -0.00034977  1
  I  I94  1  0.50712389  0.49953727  0.33639694  1
  I  I95  1  0.50558568  0.49990555  0.66331822  1
  I  I96  1  0.49914645  0.83189316  0.00000559  1
  I  I97  1  0.50186653  0.83425214  0.33367807  1
  I  I98  1  0.49674673  0.83274325  0.66630344  1
  I  I99  1  0.83270933  0.17233420  -0.00311651  1
  I  I100  1  0.83679039  0.16868953  0.33604508  1
  I  I101  1  0.83621761  0.17156202  0.66702814  1
  I  I102  1  0.83972464  0.49276473  -0.00011151  1
  I  I103  1  0.83398179  0.49957429  0.33417996  1
  I  I104  1  0.82913406  0.49877155  0.66593721  1
  I  I105  1  0.83506570  0.83374014  0.00035978  1
  I  I106  1  0.83634950  0.83405658  0.33742328  1
  I  I107  1  0.83982820  0.82904365  0.66273102  1
  I  I108  1  0.00322014  0.16523613  0.16151935  1
  I  I109  1  -0.00346674  0.17240928  0.50521522  1
  I  I110  1  -0.00076285  0.17017880  0.83317591  1
  I  I111  1  -0.00030168  0.49902539  0.16956745  1
  I  I112  1  -0.00348956  0.49830809  0.50118840  1
  I  I113  1  -0.00382153  0.49415586  0.82712651  1
  I  I114  1  0.00327036  0.83560272  0.16844769  1
  I  I115  1  -0.00088874  0.83114039  0.49669985  1
  I  I116  1  -0.00004260  0.83579994  0.83414473  1
  I  I117  1  0.32830344  0.16920303  0.16275155  1
  I  I118  1  0.33323566  0.16685264  0.50103353  1
  I  I119  1  0.33257579  0.16511891  0.83915424  1
  I  I120  1  0.32984439  0.49989553  0.16936841  1
  I  I121  1  0.33525878  0.50104000  0.49726527  1
  I  I122  1  0.33331705  0.49866202  0.83266804  1
  I  I123  1  0.32782677  0.83211149  0.17431719  1
  I  I124  1  0.33018943  0.83328751  0.49453592  1
  I  I125  1  0.33303606  0.83407784  0.83140976  1
  I  I126  1  0.66689070  0.16865014  0.16636943  1
  I  I127  1  0.67138227  0.16318189  0.50536747  1
  I  I128  1  0.66820957  0.17209228  0.82619988  1
  I  I129  1  0.67016199  0.49827736  0.16618761  1
  I  I130  1  0.66963853  0.50148013  0.49846894  1
  I  I131  1  0.67107867  0.49355076  0.83689832  1
  I  I132  1  0.66690811  0.83260211  0.16741829  1
  I  I133  1  0.67009323  0.83398967  0.50221341  1
  I  I134  1  0.66708272  0.83448603  0.83103167  1
