# generated using pymatgen
data_Cs27Sn14Pb13I81
_symmetry_space_group_name_H-M   'P 1'
_cell_length_a   18.97590436
_cell_length_b   18.97877512
_cell_length_c   18.97376808
_cell_angle_alpha   89.99921313
_cell_angle_beta   89.99993722
_cell_angle_gamma   89.99812314
_symmetry_Int_Tables_number   1
_chemical_formula_structural   Cs27Sn14Pb13I81
_chemical_formula_sum   'Cs27 Sn14 Pb13 I81'
_cell_volume   6833.20185850
_cell_formula_units_Z   1
loop_
 _symmetry_equiv_pos_site_id
 _symmetry_equiv_pos_as_xyz
  1  'x, y, z'
loop_
 _atom_site_type_symbol
 _atom_site_label
 _atom_site_symmetry_multiplicity
 _atom_site_fract_x
 _atom_site_fract_y
 _atom_site_fract_z
 _atom_site_occupancy
  Cs  Cs0  1  -0.00033227  0.00185982  -0.00072488  1
  Cs  Cs1  1  0.00045121  -0.00125243  0.33473221  1
  Cs  Cs2  1  -0.00160206  0.00080548  0.66628857  1
  Cs  Cs3  1  -0.00157340  0.33304361  0.00052062  1
  Cs  Cs4  1  0.00113251  0.33388977  0.33176738  1
  Cs  Cs5  1  -0.00047724  0.33117117  0.66808808  1
  Cs  Cs6  1  0.00123638  0.66517311  -0.00019482  1
  Cs  Cs7  1  -0.00025754  0.66722582  0.33285346  1
  Cs  Cs8  1  -0.00077264  0.66761166  0.66818555  1
  Cs  Cs9  1  0.34022936  -0.00391961  -0.00216345  1
  Cs  Cs10  1  0.33286981  0.00019856  0.33482399  1
  Cs  Cs11  1  0.33522542  0.00255940  0.66772692  1
  Cs  Cs12  1  0.33136964  0.33337102  -0.00175640  1
  Cs  Cs13  1  0.33073204  0.33565499  0.33860466  1
  Cs  Cs14  1  0.34467467  0.33170367  0.66223620  1
  Cs  Cs15  1  0.33168397  0.67166263  -0.00341380  1
  Cs  Cs16  1  0.33253859  0.66550222  0.33168811  1
  Cs  Cs17  1  0.33474491  0.66691043  0.67270539  1
  Cs  Cs18  1  0.66056103  0.00219847  0.00209045  1
  Cs  Cs19  1  0.66733578  -0.00195026  0.32812272  1
  Cs  Cs20  1  0.67207354  -0.00080805  0.66794796  1
  Cs  Cs21  1  0.66766940  0.32961067  -0.00042682  1
  Cs  Cs22  1  0.66554964  0.33360792  0.33164860  1
  Cs  Cs23  1  0.66003463  0.33623701  0.66811514  1
  Cs  Cs24  1  0.66619543  0.66688423  -0.00018265  1
  Cs  Cs25  1  0.66718451  0.66713295  0.33481742  1
  Cs  Cs26  1  0.66759792  0.66229690  0.66393098  1
  Sn  Sn27  1  0.83358607  0.16812425  0.50043987  1
  Sn  Sn28  1  0.49968306  0.49999819  0.16653930  1
  Sn  Sn29  1  0.83384407  0.83395676  0.83495634  1
  Sn  Sn30  1  0.83436232  0.16589663  0.83253227  1
  Sn  Sn31  1  0.83336579  0.50080943  0.16748085  1
  Sn  Sn32  1  0.16648203  0.16626375  0.16571973  1
  Sn  Sn33  1  0.16606866  0.16691163  0.83389249  1
  Sn  Sn34  1  0.16668554  0.50021223  0.16714276  1
  Sn  Sn35  1  0.16583928  0.83356256  0.16723692  1
  Sn  Sn36  1  0.83422501  0.83268473  0.16551599  1
  Sn  Sn37  1  0.16775024  0.83237053  0.49966890  1
  Sn  Sn38  1  0.16563282  0.50099872  0.49995408  1
  Sn  Sn39  1  0.49858751  0.83333094  0.49981348  1
  Sn  Sn40  1  0.83456427  0.49868507  0.49918265  1
  Pb  Pb41  1  0.49979330  0.50187232  0.49820553  1
  Pb  Pb42  1  0.49984391  0.50027964  0.83680842  1
  Pb  Pb43  1  0.50029517  0.16654721  0.83340687  1
  Pb  Pb44  1  0.83355102  0.49963473  0.83339294  1
  Pb  Pb45  1  0.16483189  0.83535228  0.83317684  1
  Pb  Pb46  1  0.49601958  0.16946456  0.16703332  1
  Pb  Pb47  1  0.83488620  0.16656811  0.16664773  1
  Pb  Pb48  1  0.16664027  0.49728393  0.83259814  1
  Pb  Pb49  1  0.50352921  0.83324684  0.83040756  1
  Pb  Pb50  1  0.50378583  0.16380123  0.49958631  1
  Pb  Pb51  1  0.16521576  0.16679558  0.50009176  1
  Pb  Pb52  1  0.83414598  0.83289352  0.49954919  1
  Pb  Pb53  1  0.49978725  0.83146918  0.16819664  1
  I  I54  1  0.15971444  -0.00124552  0.16846299  1
  I  I55  1  0.16763767  -0.00251990  0.49596057  1
  I  I56  1  0.16274448  0.00318619  0.83695269  1
  I  I57  1  0.16570167  0.33446183  0.16693568  1
  I  I58  1  0.16315057  0.33609354  0.49548843  1
  I  I59  1  0.15802326  0.32951063  0.83887128  1
  I  I60  1  0.16540524  0.66650557  0.17205973  1
  I  I61  1  0.16365179  0.66640013  0.49122860  1
  I  I62  1  0.16538367  0.66680350  0.83542295  1
  I  I63  1  0.50134295  -0.00020417  0.16741716  1
  I  I64  1  0.49348719  -0.00385505  0.49852270  1
  I  I65  1  0.49864699  -0.00021026  0.83437060  1
  I  I66  1  0.50382649  0.33745864  0.16813117  1
  I  I67  1  0.49764453  0.33356879  0.49968716  1
  I  I68  1  0.50204147  0.33326980  0.83189913  1
  I  I69  1  0.49695872  0.66372216  0.16905242  1
  I  I70  1  0.50243012  0.66941522  0.49817403  1
  I  I71  1  0.50135966  0.66703692  0.83231026  1
  I  I72  1  0.83821837  -0.00262050  0.16778397  1
  I  I73  1  0.83382304  0.00155062  0.50118389  1
  I  I74  1  0.83795251  0.00047318  0.83101965  1
  I  I75  1  0.83469357  0.33618853  0.16759419  1
  I  I76  1  0.83985841  0.33462657  0.49889956  1
  I  I77  1  0.83768539  0.33036327  0.83303962  1
  I  I78  1  0.83772069  0.66630045  0.16737717  1
  I  I79  1  0.83358621  0.66416220  0.49880570  1
  I  I80  1  0.83295630  0.66920567  0.83387672  1
  I  I81  1  0.15916890  0.16825842  0.00091049  1
  I  I82  1  0.16446825  0.16719043  0.33070427  1
  I  I83  1  0.16211724  0.16541598  0.66881780  1
  I  I84  1  0.16536625  0.50242802  0.00369418  1
  I  I85  1  0.16567215  0.49820147  0.33223118  1
  I  I86  1  0.16006482  0.50459975  0.66285403  1
  I  I87  1  0.16389731  0.82969075  0.00327137  1
  I  I88  1  0.16362778  0.83465924  0.33234027  1
  I  I89  1  0.16772764  0.83000705  0.66360097  1
  I  I90  1  0.50527855  0.16711197  0.00034002  1
  I  I91  1  0.50115658  0.16588132  0.33330991  1
  I  I92  1  0.49452685  0.16775670  0.66639275  1
  I  I93  1  0.50045965  0.50109367  0.00507021  1
  I  I94  1  0.50006447  0.50124660  0.33039859  1
  I  I95  1  0.50061423  0.50047642  0.66622692  1
  I  I96  1  0.49825872  0.83177838  0.00009743  1
  I  I97  1  0.50200526  0.83236772  0.33590106  1
  I  I98  1  0.49416331  0.83214413  0.66264631  1
  I  I99  1  0.83628561  0.16621314  -0.00217682  1
  I  I100  1  0.83543361  0.16693735  0.33544061  1
  I  I101  1  0.84035212  0.16427600  0.66713268  1
  I  I102  1  0.83481639  0.50085752  0.00362306  1
  I  I103  1  0.83460682  0.50040049  0.33260846  1
  I  I104  1  0.83807666  0.50085057  0.66341542  1
  I  I105  1  0.83926514  0.83238473  0.00164493  1
  I  I106  1  0.83425994  0.83274781  0.33069545  1
  I  I107  1  0.83311020  0.83503508  0.66822815  1
  I  I108  1  0.00291312  0.17085314  0.16609557  1
  I  I109  1  -0.00275576  0.16531940  0.50106254  1
  I  I110  1  -0.00091145  0.16307208  0.83350917  1
  I  I111  1  0.00024291  0.50079290  0.17083930  1
  I  I112  1  0.00003718  0.50216019  0.49152208  1
  I  I113  1  -0.00002887  0.50145176  0.83729798  1
  I  I114  1  0.00047293  0.82886450  0.16922945  1
  I  I115  1  0.00262468  0.83268699  0.49810723  1
  I  I116  1  -0.00316174  0.83543005  0.83231089  1
  I  I117  1  0.32766395  0.16466809  0.16112903  1
  I  I118  1  0.33318691  0.16943764  0.50067981  1
  I  I119  1  0.33010965  0.16739506  0.83847573  1
  I  I120  1  0.33143716  0.49888908  0.17126636  1
  I  I121  1  0.33010076  0.50114675  0.49499523  1
  I  I122  1  0.33293065  0.49761812  0.83251056  1
  I  I123  1  0.32984246  0.83261400  0.16908520  1
  I  I124  1  0.33091446  0.82823395  0.49307140  1
  I  I125  1  0.33321165  0.83494878  0.83567489  1
  I  I126  1  0.66678299  0.16653590  0.16644528  1
  I  I127  1  0.67196656  0.17161042  0.50636059  1
  I  I128  1  0.67048187  0.16318272  0.82911215  1
  I  I129  1  0.66852688  0.50543516  0.17097366  1
  I  I130  1  0.66968675  0.49881014  0.49630966  1
  I  I131  1  0.66710433  0.49850324  0.83203231  1
  I  I132  1  0.66975061  0.82934004  0.16589222  1
  I  I133  1  0.66565966  0.83367583  0.50033834  1
  I  I134  1  0.67164260  0.84026965  0.83851712  1
