# generated using pymatgen
data_Cs27Sn14Pb13I81
_symmetry_space_group_name_H-M   'P 1'
_cell_length_a   18.97811457
_cell_length_b   18.97898062
_cell_length_c   18.96820076
_cell_angle_alpha   89.99861087
_cell_angle_beta   90.00209226
_cell_angle_gamma   90.00020235
_symmetry_Int_Tables_number   1
_chemical_formula_structural   Cs27Sn14Pb13I81
_chemical_formula_sum   'Cs27 Sn14 Pb13 I81'
_cell_volume   6832.06648222
_cell_formula_units_Z   1
loop_
 _symmetry_equiv_pos_site_id
 _symmetry_equiv_pos_as_xyz
  1  'x, y, z'
loop_
 _atom_site_type_symbol
 _atom_site_label
 _atom_site_symmetry_multiplicity
 _atom_site_fract_x
 _atom_site_fract_y
 _atom_site_fract_z
 _atom_site_occupancy
  Cs  Cs0  1  -0.00087515  0.00127806  -0.00191120  1
  Cs  Cs1  1  0.00094710  0.00181243  0.33396710  1
  Cs  Cs2  1  -0.00295199  -0.00193912  0.66563913  1
  Cs  Cs3  1  0.00360833  0.33258596  0.00028785  1
  Cs  Cs4  1  -0.00092138  0.33266134  0.33278001  1
  Cs  Cs5  1  0.00135128  0.33422763  0.66483979  1
  Cs  Cs6  1  -0.00075108  0.66696290  0.00019883  1
  Cs  Cs7  1  0.00020122  0.66532992  0.33379402  1
  Cs  Cs8  1  0.00100673  0.66789392  0.66537063  1
  Cs  Cs9  1  0.33093371  -0.00100635  0.00091942  1
  Cs  Cs10  1  0.33434646  -0.00329745  0.33614904  1
  Cs  Cs11  1  0.33830836  -0.00211616  0.66074499  1
  Cs  Cs12  1  0.32957911  0.33321976  -0.00501600  1
  Cs  Cs13  1  0.33041979  0.33098293  0.33122725  1
  Cs  Cs14  1  0.34162491  0.33364624  0.67534494  1
  Cs  Cs15  1  0.33387791  0.66681840  -0.00087596  1
  Cs  Cs16  1  0.33149538  0.67217553  0.33319968  1
  Cs  Cs17  1  0.33337202  0.66738279  0.66801089  1
  Cs  Cs18  1  0.66937605  -0.00226899  -0.00120947  1
  Cs  Cs19  1  0.66517720  0.00121346  0.33121608  1
  Cs  Cs20  1  0.66905032  0.00520151  0.67185166  1
  Cs  Cs21  1  0.66679111  0.33396685  0.00230521  1
  Cs  Cs22  1  0.66855070  0.33370899  0.33386812  1
  Cs  Cs23  1  0.65586653  0.33389631  0.66492212  1
  Cs  Cs24  1  0.66847695  0.66927417  0.00262373  1
  Cs  Cs25  1  0.66611580  0.66488321  0.33209395  1
  Cs  Cs26  1  0.66789809  0.66014570  0.66629867  1
  Sn  Sn27  1  0.83443148  0.83348012  0.16771446  1
  Sn  Sn28  1  0.83412994  0.16608521  0.49924491  1
  Sn  Sn29  1  0.50052137  0.16735769  0.16668091  1
  Sn  Sn30  1  0.16615498  0.16807570  0.50015905  1
  Sn  Sn31  1  0.16558645  0.83273367  0.16581904  1
  Sn  Sn32  1  0.49933593  0.83326997  0.83357652  1
  Sn  Sn33  1  0.16745463  0.83348029  0.83407731  1
  Sn  Sn34  1  0.83273873  0.16664428  0.16717783  1
  Sn  Sn35  1  0.83365233  0.49940837  0.83395341  1
  Sn  Sn36  1  0.49952927  0.49916019  0.16682850  1
  Sn  Sn37  1  0.83311534  0.83406422  0.49888701  1
  Sn  Sn38  1  0.16688745  0.49861474  0.49951224  1
  Sn  Sn39  1  0.83357758  0.49984341  0.16579655  1
  Sn  Sn40  1  0.16685533  0.50076836  0.16739182  1
  Pb  Pb41  1  0.16504384  0.83334667  0.49962852  1
  Pb  Pb42  1  0.16645389  0.16638737  0.16783773  1
  Pb  Pb43  1  0.16504296  0.50166361  0.83356549  1
  Pb  Pb44  1  0.50232975  0.50196087  0.83630365  1
  Pb  Pb45  1  0.83350949  0.16982515  0.83309116  1
  Pb  Pb46  1  0.16649315  0.16362379  0.82957750  1
  Pb  Pb47  1  0.50401557  0.83330266  0.50278914  1
  Pb  Pb48  1  0.49998999  0.16423850  0.83679106  1
  Pb  Pb49  1  0.83358851  0.83172519  0.83336587  1
  Pb  Pb50  1  0.50037460  0.16673088  0.49756646  1
  Pb  Pb51  1  0.50004055  0.83335037  0.16565552  1
  Pb  Pb52  1  0.49627995  0.50015408  0.49700253  1
  Pb  Pb53  1  0.83464625  0.49933185  0.49956908  1
  I  I54  1  0.16398493  -0.00280003  0.16458871  1
  I  I55  1  0.16363867  0.00206051  0.49959411  1
  I  I56  1  0.16784555  -0.00444674  0.84103002  1
  I  I57  1  0.16412989  0.33606217  0.16966309  1
  I  I58  1  0.15852202  0.33364915  0.49160603  1
  I  I59  1  0.16499833  0.33348057  0.83585798  1
  I  I60  1  0.16375262  0.66624481  0.16896517  1
  I  I61  1  0.16404061  0.66464300  0.49801233  1
  I  I62  1  0.16850368  0.66966013  0.83317568  1
  I  I63  1  0.50382615  0.00218408  0.16513485  1
  I  I64  1  0.49381056  -0.00002458  0.49648344  1
  I  I65  1  0.49770079  -0.00355761  0.83553188  1
  I  I66  1  0.50444370  0.33393392  0.16767660  1
  I  I67  1  0.50533833  0.33348611  0.50259837  1
  I  I68  1  0.50174130  0.33354963  0.83153948  1
  I  I69  1  0.50269341  0.66416019  0.16462926  1
  I  I70  1  0.50067055  0.66671005  0.49703237  1
  I  I71  1  0.49658261  0.66952275  0.83663008  1
  I  I72  1  0.83280984  -0.00027132  0.17107003  1
  I  I73  1  0.83993610  0.00040491  0.49260089  1
  I  I74  1  0.83293296  -0.00005748  0.83515946  1
  I  I75  1  0.83258590  0.33363264  0.16685425  1
  I  I76  1  0.83672348  0.33056273  0.49566064  1
  I  I77  1  0.83464721  0.33745593  0.83934919  1
  I  I78  1  0.83358336  0.66661797  0.16635375  1
  I  I79  1  0.83551427  0.66860944  0.49747489  1
  I  I80  1  0.83350294  0.66419568  0.83832416  1
  I  I81  1  0.16649591  0.16848683  0.00013823  1
  I  I82  1  0.16450841  0.16570001  0.33569176  1
  I  I83  1  0.15845103  0.17166150  0.66157200  1
  I  I84  1  0.16750701  0.50254825  0.00362976  1
  I  I85  1  0.16360315  0.50279395  0.33146105  1
  I  I86  1  0.16128108  0.49901447  0.66420300  1
  I  I87  1  0.16430060  0.82746336  0.00184746  1
  I  I88  1  0.16416806  0.83156480  0.33041722  1
  I  I89  1  0.16800480  0.83302559  0.66860886  1
  I  I90  1  0.50666623  0.17088501  0.00474207  1
  I  I91  1  0.50234843  0.16900262  0.32952630  1
  I  I92  1  0.50052333  0.16530655  0.66669335  1
  I  I93  1  0.49541260  0.49656914  0.00444701  1
  I  I94  1  0.50801657  0.49813840  0.32868506  1
  I  I95  1  0.50182766  0.50129179  0.66695629  1
  I  I96  1  0.50096047  0.83286535  -0.00196373  1
  I  I97  1  0.49718389  0.83363562  0.33304663  1
  I  I98  1  0.49265908  0.83274121  0.67048401  1
  I  I99  1  0.82907047  0.16313181  0.00368356  1
  I  I100  1  0.83355067  0.16760071  0.33204412  1
  I  I101  1  0.83868712  0.16107193  0.66323627  1
  I  I102  1  0.83508640  0.50190385  0.00305414  1
  I  I103  1  0.83209584  0.50062851  0.32979659  1
  I  I104  1  0.83689827  0.50349157  0.66823620  1
  I  I105  1  0.83385903  0.83478904  0.00328348  1
  I  I106  1  0.83932070  0.83145519  0.33132492  1
  I  I107  1  0.83422855  0.83604668  0.66426436  1
  I  I108  1  -0.00304419  0.16836972  0.16918856  1
  I  I109  1  -0.00110439  0.16621945  0.49280376  1
  I  I110  1  -0.00012690  0.16384058  0.83897806  1
  I  I111  1  -0.00033886  0.50132091  0.16675738  1
  I  I112  1  0.00251140  0.49997820  0.49375036  1
  I  I113  1  -0.00265984  0.50361002  0.84001275  1
  I  I114  1  -0.00049745  0.83003244  0.16461979  1
  I  I115  1  -0.00286548  0.83416509  0.50029553  1
  I  I116  1  0.00214712  0.83099837  0.83481642  1
  I  I117  1  0.33526691  0.16918987  0.16806546  1
  I  I118  1  0.33047537  0.16968674  0.49772636  1
  I  I119  1  0.33322355  0.16977191  0.83448175  1
  I  I120  1  0.33238702  0.50076166  0.17219907  1
  I  I121  1  0.32812906  0.49557400  0.49528627  1
  I  I122  1  0.33335805  0.50023153  0.83335187  1
  I  I123  1  0.33059587  0.83038860  0.16449706  1
  I  I124  1  0.33318918  0.83395824  0.49774567  1
  I  I125  1  0.33211624  0.83197842  0.84053508  1
  I  I126  1  0.66855272  0.16917991  0.17210133  1
  I  I127  1  0.67019277  0.16189840  0.49773843  1
  I  I128  1  0.66688886  0.16329033  0.82895652  1
  I  I129  1  0.66796701  0.50052443  0.16150729  1
  I  I130  1  0.66671084  0.50052621  0.50085544  1
  I  I131  1  0.67015119  0.50382166  0.83782212  1
  I  I132  1  0.66976213  0.83096989  0.16796061  1
  I  I133  1  0.67196882  0.83834788  0.49351365  1
  I  I134  1  0.66521306  0.83161607  0.83452298  1
