# generated using pymatgen
data_Cs27Sn14Pb13I81
_symmetry_space_group_name_H-M   'P 1'
_cell_length_a   18.96667579
_cell_length_b   18.98126551
_cell_length_c   18.98149494
_cell_angle_alpha   89.99931623
_cell_angle_beta   89.99955257
_cell_angle_gamma   89.99845681
_symmetry_Int_Tables_number   1
_chemical_formula_structural   Cs27Sn14Pb13I81
_chemical_formula_sum   'Cs27 Sn14 Pb13 I81'
_cell_volume   6833.55663376
_cell_formula_units_Z   1
loop_
 _symmetry_equiv_pos_site_id
 _symmetry_equiv_pos_as_xyz
  1  'x, y, z'
loop_
 _atom_site_type_symbol
 _atom_site_label
 _atom_site_symmetry_multiplicity
 _atom_site_fract_x
 _atom_site_fract_y
 _atom_site_fract_z
 _atom_site_occupancy
  Cs  Cs0  1  -0.00216895  -0.00100722  -0.00095663  1
  Cs  Cs1  1  -0.00064739  0.00078868  0.33340939  1
  Cs  Cs2  1  -0.00102434  -0.00394571  0.66607441  1
  Cs  Cs3  1  -0.00190211  0.33219295  0.00254182  1
  Cs  Cs4  1  0.00104074  0.33436583  0.33308823  1
  Cs  Cs5  1  0.00328905  0.33418597  0.66356006  1
  Cs  Cs6  1  0.00087279  0.66928170  0.00059327  1
  Cs  Cs7  1  -0.00009874  0.66408383  0.33370817  1
  Cs  Cs8  1  -0.00161662  0.66877486  0.66542409  1
  Cs  Cs9  1  0.33296663  -0.00187528  -0.00142423  1
  Cs  Cs10  1  0.33539717  0.00013855  0.33202608  1
  Cs  Cs11  1  0.33416817  0.00318770  0.67000297  1
  Cs  Cs12  1  0.33258062  0.33169548  -0.00039733  1
  Cs  Cs13  1  0.33115331  0.33238377  0.33479281  1
  Cs  Cs14  1  0.33216583  0.33109302  0.66591984  1
  Cs  Cs15  1  0.33566303  0.67168652  0.00335523  1
  Cs  Cs16  1  0.33893828  0.66838070  0.32864481  1
  Cs  Cs17  1  0.33220621  0.66349833  0.66781920  1
  Cs  Cs18  1  0.66779904  0.00565504  -0.00148689  1
  Cs  Cs19  1  0.66660638  -0.00327273  0.33666664  1
  Cs  Cs20  1  0.66563606  -0.00524153  0.66462533  1
  Cs  Cs21  1  0.66868256  0.33288976  -0.00249698  1
  Cs  Cs22  1  0.66770724  0.33312421  0.33352613  1
  Cs  Cs23  1  0.66437222  0.33740152  0.66887091  1
  Cs  Cs24  1  0.66370951  0.66086145  0.00045479  1
  Cs  Cs25  1  0.66320904  0.67046044  0.33251306  1
  Cs  Cs26  1  0.66763956  0.66787700  0.66893286  1
  Sn  Sn27  1  0.49917082  0.16713600  0.16609745  1
  Sn  Sn28  1  0.16673780  0.16732885  0.83361772  1
  Sn  Sn29  1  0.49988603  0.83401729  0.83334427  1
  Sn  Sn30  1  0.49924958  0.16588958  0.83423875  1
  Sn  Sn31  1  0.16721115  0.16703805  0.16650446  1
  Sn  Sn32  1  0.83404518  0.49915176  0.49905562  1
  Sn  Sn33  1  0.16581968  0.16623642  0.49992144  1
  Sn  Sn34  1  0.83423208  0.50092372  0.16764307  1
  Sn  Sn35  1  0.16638197  0.50032993  0.49961668  1
  Sn  Sn36  1  0.16609674  0.49942075  0.16654536  1
  Sn  Sn37  1  0.83367670  0.83230263  0.16646288  1
  Sn  Sn38  1  0.16712786  0.83325671  0.49964574  1
  Sn  Sn39  1  0.83406490  0.16755512  0.50030738  1
  Sn  Sn40  1  0.16650128  0.49934652  0.83381011  1
  Pb  Pb41  1  0.50267286  0.83628918  0.16465910  1
  Pb  Pb42  1  0.83358888  0.16743029  0.16859008  1
  Pb  Pb43  1  0.16540455  0.83354131  0.16860222  1
  Pb  Pb44  1  0.16785618  0.83350562  0.83138920  1
  Pb  Pb45  1  0.50018147  0.50005278  0.49980803  1
  Pb  Pb46  1  0.49998506  0.49727081  0.16677242  1
  Pb  Pb47  1  0.83068097  0.83322793  0.83609217  1
  Pb  Pb48  1  0.83633061  0.49978005  0.83325632  1
  Pb  Pb49  1  0.49706619  0.49917468  0.83346994  1
  Pb  Pb50  1  0.49998875  0.16683404  0.50034315  1
  Pb  Pb51  1  0.83370482  0.16681174  0.82996726  1
  Pb  Pb52  1  0.83519610  0.83269253  0.49842209  1
  Pb  Pb53  1  0.49703050  0.83330082  0.50232744  1
  I  I54  1  0.16846392  0.00330072  0.16691099  1
  I  I55  1  0.16275128  0.00171446  0.50041331  1
  I  I56  1  0.16905666  0.00338173  0.83302422  1
  I  I57  1  0.16503376  0.33311927  0.16999877  1
  I  I58  1  0.16325892  0.33314153  0.50022375  1
  I  I59  1  0.17219127  0.33230620  0.82907054  1
  I  I60  1  0.16388591  0.66353565  0.16676330  1
  I  I61  1  0.16241531  0.66507679  0.50168813  1
  I  I62  1  0.16776523  0.66376760  0.83233360  1
  I  I63  1  0.49431525  0.00398704  0.16560794  1
  I  I64  1  0.50083864  0.00029766  0.49746349  1
  I  I65  1  0.49287678  0.00194564  0.83690697  1
  I  I66  1  0.49985592  0.32944727  0.15980699  1
  I  I67  1  0.49679452  0.33310469  0.50281770  1
  I  I68  1  0.49788512  0.32976808  0.83655767  1
  I  I69  1  0.49760389  0.66672621  0.16487030  1
  I  I70  1  0.49929634  0.66678907  0.50262173  1
  I  I71  1  0.49885041  0.66888231  0.83166997  1
  I  I72  1  0.83301182  -0.00115437  0.16865392  1
  I  I73  1  0.83812693  0.00232790  0.49823127  1
  I  I74  1  0.83862634  0.00020946  0.83404567  1
  I  I75  1  0.83508408  0.33613112  0.16915338  1
  I  I76  1  0.84182000  0.33393401  0.49399010  1
  I  I77  1  0.82715269  0.33320732  0.83835724  1
  I  I78  1  0.83960840  0.66477398  0.17217167  1
  I  I79  1  0.83925186  0.66336070  0.49820849  1
  I  I80  1  0.83312866  0.66646319  0.82822436  1
  I  I81  1  0.17179691  0.17364676  0.00021309  1
  I  I82  1  0.16693183  0.16931649  0.33338227  1
  I  I83  1  0.16759493  0.16969665  0.66646210  1
  I  I84  1  0.16311286  0.49239726  0.00089883  1
  I  I85  1  0.16212994  0.49599990  0.33338419  1
  I  I86  1  0.16456417  0.49717683  0.66581442  1
  I  I87  1  0.16647988  0.83280783  0.00008041  1
  I  I88  1  0.16509159  0.83452824  0.33650127  1
  I  I89  1  0.16646922  0.83345299  0.66342379  1
  I  I90  1  0.49195696  0.16304270  -0.00034826  1
  I  I91  1  0.49597164  0.16812668  0.33080761  1
  I  I92  1  0.49560812  0.16317665  0.66972515  1
  I  I93  1  0.50100077  0.50195956  0.00009149  1
  I  I94  1  0.49474682  0.49806525  0.33309246  1
  I  I95  1  0.49985825  0.49776037  0.66684252  1
  I  I96  1  0.49728414  0.83558502  -0.00293323  1
  I  I97  1  0.50051182  0.83442747  0.33300871  1
  I  I98  1  0.50000655  0.84206320  0.67001905  1
  I  I99  1  0.83507427  0.16624010  0.00008472  1
  I  I100  1  0.83801845  0.16762309  0.33629358  1
  I  I101  1  0.83830672  0.17240496  0.66204579  1
  I  I102  1  0.83719553  0.50383694  0.00328590  1
  I  I103  1  0.84247538  0.49893076  0.33343357  1
  I  I104  1  0.83739631  0.49532551  0.66321981  1
  I  I105  1  0.83633305  0.82818420  0.00404166  1
  I  I106  1  0.83384052  0.83292498  0.33068752  1
  I  I107  1  0.83271559  0.83343421  0.66642070  1
  I  I108  1  0.00328867  0.16764013  0.16443085  1
  I  I109  1  0.00219591  0.16782402  0.49925797  1
  I  I110  1  0.00381711  0.17125467  0.83662593  1
  I  I111  1  0.00129869  0.49720627  0.16780022  1
  I  I112  1  0.00158575  0.49823925  0.49935971  1
  I  I113  1  0.00458681  0.49311385  0.83254737  1
  I  I114  1  -0.00242011  0.83447822  0.16742686  1
  I  I115  1  0.00322451  0.83441713  0.50140659  1
  I  I116  1  0.00017438  0.83393454  0.83257249  1
  I  I117  1  0.33120639  0.17149730  0.16862331  1
  I  I118  1  0.32956061  0.16836373  0.50016676  1
  I  I119  1  0.33178398  0.16685379  0.83158982  1
  I  I120  1  0.32959223  0.49791476  0.16802270  1
  I  I121  1  0.32877652  0.49772570  0.49991674  1
  I  I122  1  0.32868933  0.49811442  0.83168279  1
  I  I123  1  0.33342069  0.83079167  0.16750759  1
  I  I124  1  0.32879162  0.83400624  0.49831856  1
  I  I125  1  0.33566636  0.83585456  0.83324844  1
  I  I126  1  0.66456897  0.16616538  0.16299835  1
  I  I127  1  0.66969191  0.17131138  0.49834313  1
  I  I128  1  0.66365960  0.16235457  0.83775435  1
  I  I129  1  0.67000116  0.50281772  0.17219471  1
  I  I130  1  0.67063203  0.49423065  0.49510667  1
  I  I131  1  0.66663053  0.50014620  0.83257201  1
  I  I132  1  0.67031934  0.82760000  0.16833921  1
  I  I133  1  0.66686561  0.83432824  0.49990382  1
  I  I134  1  0.66273529  0.84162591  0.83222006  1
