# generated using pymatgen
data_Cs27Sn13Pb14I81
_symmetry_space_group_name_H-M   'P 1'
_cell_length_a   18.97701428
_cell_length_b   18.99969688
_cell_length_c   18.99854553
_cell_angle_alpha   89.99979443
_cell_angle_beta   89.99986071
_cell_angle_gamma   89.99970546
_symmetry_Int_Tables_number   1
_chemical_formula_structural   Cs27Sn13Pb14I81
_chemical_formula_sum   'Cs27 Sn13 Pb14 I81'
_cell_volume   6850.06843909
_cell_formula_units_Z   1
loop_
 _symmetry_equiv_pos_site_id
 _symmetry_equiv_pos_as_xyz
  1  'x, y, z'
loop_
 _atom_site_type_symbol
 _atom_site_label
 _atom_site_symmetry_multiplicity
 _atom_site_fract_x
 _atom_site_fract_y
 _atom_site_fract_z
 _atom_site_occupancy
  Cs  Cs0  1  -0.00119650  0.00020203  -0.00034736  1
  Cs  Cs1  1  -0.00009967  0.00169320  0.33119050  1
  Cs  Cs2  1  -0.00107567  -0.00032068  0.66772861  1
  Cs  Cs3  1  -0.00105655  0.33440529  -0.00347508  1
  Cs  Cs4  1  0.00064132  0.33308779  0.33172874  1
  Cs  Cs5  1  0.00194507  0.33196240  0.67151372  1
  Cs  Cs6  1  0.00130714  0.66551082  -0.00195932  1
  Cs  Cs7  1  -0.00074616  0.66524605  0.33495684  1
  Cs  Cs8  1  0.00153057  0.66743631  0.66693156  1
  Cs  Cs9  1  0.34097796  -0.00277612  0.00936736  1
  Cs  Cs10  1  0.33398656  0.00506285  0.32729563  1
  Cs  Cs11  1  0.33551421  -0.00088993  0.66484455  1
  Cs  Cs12  1  0.33973473  0.33331193  0.00090522  1
  Cs  Cs13  1  0.33739238  0.32325285  0.33597308  1
  Cs  Cs14  1  0.33740519  0.33234166  0.66339698  1
  Cs  Cs15  1  0.33698694  0.67001502  0.00218911  1
  Cs  Cs16  1  0.33183143  0.66996822  0.33195427  1
  Cs  Cs17  1  0.33053407  0.66729274  0.66718300  1
  Cs  Cs18  1  0.66640884  -0.00041297  -0.00083436  1
  Cs  Cs19  1  0.67101515  -0.00009026  0.33341464  1
  Cs  Cs20  1  0.66861977  -0.00098640  0.66753073  1
  Cs  Cs21  1  0.66362089  0.33479812  0.00231069  1
  Cs  Cs22  1  0.66177356  0.34321794  0.33343299  1
  Cs  Cs23  1  0.65847170  0.33276529  0.66496567  1
  Cs  Cs24  1  0.65978992  0.66655508  0.00213947  1
  Cs  Cs25  1  0.66885115  0.65655156  0.33670254  1
  Cs  Cs26  1  0.66347518  0.66723933  0.66187533  1
  Sn  Sn27  1  0.83338346  0.50032832  0.83302222  1
  Sn  Sn28  1  0.16734553  0.83334151  0.50040138  1
  Sn  Sn29  1  0.16649512  0.49980259  0.16646361  1
  Sn  Sn30  1  0.16614223  0.83398518  0.83307082  1
  Sn  Sn31  1  0.16618245  0.50016991  0.50004331  1
  Sn  Sn32  1  0.16626527  0.49999179  0.83347096  1
  Sn  Sn33  1  0.83374050  0.16721363  0.50019267  1
  Sn  Sn34  1  0.49887706  0.83367931  0.49981913  1
  Sn  Sn35  1  0.16678766  0.16601199  0.83365768  1
  Sn  Sn36  1  0.83392860  0.83318312  0.16572294  1
  Sn  Sn37  1  0.83381925  0.16656495  0.16632691  1
  Sn  Sn38  1  0.83392672  0.16685681  0.83335110  1
  Sn  Sn39  1  0.83404974  0.83278325  0.83418568  1
  Pb  Pb40  1  0.16455066  0.83194993  0.16650176  1
  Pb  Pb41  1  0.16493951  0.16607320  0.50197520  1
  Pb  Pb42  1  0.83497481  0.50010576  0.16424156  1
  Pb  Pb43  1  0.16450217  0.16894905  0.16346051  1
  Pb  Pb44  1  0.50373430  0.16655229  0.16663054  1
  Pb  Pb45  1  0.50373017  0.83316558  0.17006153  1
  Pb  Pb46  1  0.83433388  0.83447008  0.50018402  1
  Pb  Pb47  1  0.83590417  0.49729035  0.50302623  1
  Pb  Pb48  1  0.49633104  0.50238913  0.50020060  1
  Pb  Pb49  1  0.49609168  0.50018283  0.16676331  1
  Pb  Pb50  1  0.49933509  0.50027033  0.83320034  1
  Pb  Pb51  1  0.49993889  0.16628969  0.83337698  1
  Pb  Pb52  1  0.49987797  0.83339621  0.83169428  1
  Pb  Pb53  1  0.50311560  0.16386544  0.50011724  1
  I  I54  1  0.16725259  0.00018223  0.16761033  1
  I  I55  1  0.16815652  -0.00309026  0.50584002  1
  I  I56  1  0.15794352  -0.00078797  0.82606756  1
  I  I57  1  0.16271055  0.33669382  0.16746477  1
  I  I58  1  0.16235741  0.33578881  0.50167239  1
  I  I59  1  0.15852910  0.33382251  0.83303307  1
  I  I60  1  0.16269191  0.66416258  0.16233975  1
  I  I61  1  0.16916178  0.66705502  0.50546741  1
  I  I62  1  0.15996097  0.66674278  0.83149968  1
  I  I63  1  0.49577037  -0.00033588  0.16697803  1
  I  I64  1  0.49193155  -0.00348262  0.50167199  1
  I  I65  1  0.50062493  -0.00015316  0.83140079  1
  I  I66  1  0.50235859  0.33339642  0.16732734  1
  I  I67  1  0.50003720  0.33333263  0.49965048  1
  I  I68  1  0.50038656  0.33331593  0.83232378  1
  I  I69  1  0.50371037  0.66689585  0.16618317  1
  I  I70  1  0.50202195  0.66999854  0.50127377  1
  I  I71  1  0.50161510  0.66679041  0.83256269  1
  I  I72  1  0.83447831  0.00014831  0.16197995  1
  I  I73  1  0.83507123  0.00226666  0.50472062  1
  I  I74  1  0.83900573  0.00006865  0.83338426  1
  I  I75  1  0.83595695  0.33076896  0.16513318  1
  I  I76  1  0.83619125  0.32963386  0.49918811  1
  I  I77  1  0.84107625  0.33282117  0.83346178  1
  I  I78  1  0.83515066  0.66915491  0.16268513  1
  I  I79  1  0.83052447  0.66642382  0.49900489  1
  I  I80  1  0.84092010  0.66731662  0.83786431  1
  I  I81  1  0.15906008  0.16581741  -0.00461645  1
  I  I82  1  0.16394665  0.16779436  0.33316678  1
  I  I83  1  0.15875505  0.17062697  0.67002901  1
  I  I84  1  0.16078176  0.49990078  -0.00178614  1
  I  I85  1  0.16560482  0.50709654  0.33394151  1
  I  I86  1  0.16220474  0.50179236  0.66775692  1
  I  I87  1  0.16274131  0.83209410  -0.00337115  1
  I  I88  1  0.16778582  0.82744769  0.33605746  1
  I  I89  1  0.16413567  0.82858374  0.66771643  1
  I  I90  1  0.50023242  0.16599624  -0.00001922  1
  I  I91  1  0.49961134  0.16561720  0.33346275  1
  I  I92  1  0.50342095  0.16701103  0.66662889  1
  I  I93  1  0.49905800  0.50035413  -0.00007866  1
  I  I94  1  0.50240398  0.50151175  0.33358450  1
  I  I95  1  0.50013950  0.49986725  0.66656869  1
  I  I96  1  0.49775712  0.83343994  0.00039662  1
  I  I97  1  0.49236876  0.83403230  0.33735604  1
  I  I98  1  0.50094380  0.83302727  0.66397126  1
  I  I99  1  0.83806804  0.16535294  -0.00129174  1
  I  I100  1  0.83392958  0.15843849  0.33292049  1
  I  I101  1  0.83762192  0.16503521  0.66838140  1
  I  I102  1  0.84094932  0.49593918  -0.00367054  1
  I  I103  1  0.83519815  0.49998929  0.33341498  1
  I  I104  1  0.84022503  0.50229903  0.67095322  1
  I  I105  1  0.83957714  0.83838567  -0.00179134  1
  I  I106  1  0.83358126  0.83991113  0.33137538  1
  I  I107  1  0.83450397  0.83469782  0.66978744  1
  I  I108  1  -0.00361528  0.16224153  0.16821592  1
  I  I109  1  -0.00306094  0.16334163  0.49956979  1
  I  I110  1  -0.00106046  0.16697337  0.83279293  1
  I  I111  1  0.00283600  0.50039409  0.16781165  1
  I  I112  1  0.00367474  0.50860545  0.49910278  1
  I  I113  1  0.00086510  0.49975404  0.83318073  1
  I  I114  1  -0.00333668  0.83749513  0.16707015  1
  I  I115  1  0.00305421  0.82988615  0.50239352  1
  I  I116  1  0.00005535  0.83324829  0.83056126  1
  I  I117  1  0.33302383  0.16825075  0.16561887  1
  I  I118  1  0.33310880  0.16967375  0.50241425  1
  I  I119  1  0.32959009  0.16872827  0.83108269  1
  I  I120  1  0.32798996  0.50224053  0.16138719  1
  I  I121  1  0.32818510  0.49987961  0.50511055  1
  I  I122  1  0.32856914  0.50022656  0.83292527  1
  I  I123  1  0.33325850  0.83102336  0.16359097  1
  I  I124  1  0.33112229  0.82821132  0.50763791  1
  I  I125  1  0.32949848  0.83161072  0.83053136  1
  I  I126  1  0.67219348  0.16235476  0.16206218  1
  I  I127  1  0.67131960  0.16369344  0.50437738  1
  I  I128  1  0.67117887  0.16599367  0.83349425  1
  I  I129  1  0.66694609  0.49947756  0.16548191  1
  I  I130  1  0.66683636  0.50064415  0.50088496  1
  I  I131  1  0.67008119  0.49892472  0.83429109  1
  I  I132  1  0.67164898  0.83814908  0.15990612  1
  I  I133  1  0.66544638  0.83788973  0.50048095  1
  I  I134  1  0.67044598  0.83479554  0.83531192  1
