# generated using pymatgen
data_Cs27Sn14Pb13I81
_symmetry_space_group_name_H-M   'P 1'
_cell_length_a   18.98304715
_cell_length_b   18.97490861
_cell_length_c   18.96917195
_cell_angle_alpha   89.99947728
_cell_angle_beta   89.99995287
_cell_angle_gamma   90.00024935
_symmetry_Int_Tables_number   1
_chemical_formula_structural   Cs27Sn14Pb13I81
_chemical_formula_sum   'Cs27 Sn14 Pb13 I81'
_cell_volume   6832.72579807
_cell_formula_units_Z   1
loop_
 _symmetry_equiv_pos_site_id
 _symmetry_equiv_pos_as_xyz
  1  'x, y, z'
loop_
 _atom_site_type_symbol
 _atom_site_label
 _atom_site_symmetry_multiplicity
 _atom_site_fract_x
 _atom_site_fract_y
 _atom_site_fract_z
 _atom_site_occupancy
  Cs  Cs0  1  -0.00090274  0.00143220  -0.00066438  1
  Cs  Cs1  1  -0.00037271  -0.00104506  0.33308937  1
  Cs  Cs2  1  -0.00208714  0.00038865  0.66883650  1
  Cs  Cs3  1  -0.00069124  0.33110258  0.00211557  1
  Cs  Cs4  1  -0.00048059  0.33405953  0.33105653  1
  Cs  Cs5  1  -0.00144489  0.33386136  0.66360635  1
  Cs  Cs6  1  0.00189725  0.66853125  0.00047345  1
  Cs  Cs7  1  0.00009374  0.66613616  0.33253995  1
  Cs  Cs8  1  0.00436546  0.66487395  0.66584449  1
  Cs  Cs9  1  0.33417582  0.00199965  -0.00065889  1
  Cs  Cs10  1  0.33509363  -0.00618375  0.34332203  1
  Cs  Cs11  1  0.33288527  -0.00032642  0.65901516  1
  Cs  Cs12  1  0.33416463  0.33340016  0.00147573  1
  Cs  Cs13  1  0.33226565  0.33068168  0.33173543  1
  Cs  Cs14  1  0.33388424  0.33965554  0.65961657  1
  Cs  Cs15  1  0.32925327  0.66535020  -0.00289878  1
  Cs  Cs16  1  0.33519250  0.67936757  0.33797868  1
  Cs  Cs17  1  0.32532949  0.65935288  0.66360849  1
  Cs  Cs18  1  0.66734851  0.00133305  -0.00225722  1
  Cs  Cs19  1  0.66572826  -0.00312967  0.33383334  1
  Cs  Cs20  1  0.66893820  0.00088464  0.67006955  1
  Cs  Cs21  1  0.66615467  0.33179119  0.00048975  1
  Cs  Cs22  1  0.66766956  0.33400718  0.33150684  1
  Cs  Cs23  1  0.66672988  0.33575058  0.66663853  1
  Cs  Cs24  1  0.66665998  0.66720563  0.00028032  1
  Cs  Cs25  1  0.66525133  0.66936903  0.33456045  1
  Cs  Cs26  1  0.66695837  0.66394148  0.66678626  1
  Sn  Sn27  1  0.50027637  0.83365765  0.83346343  1
  Sn  Sn28  1  0.83301470  0.16594933  0.49975903  1
  Sn  Sn29  1  0.83309558  0.49940236  0.16547123  1
  Sn  Sn30  1  0.49984501  0.16695476  0.16616561  1
  Sn  Sn31  1  0.83310712  0.16713298  0.16691983  1
  Sn  Sn32  1  0.83337918  0.49989472  0.83445969  1
  Sn  Sn33  1  0.49945004  0.16623382  0.83365105  1
  Sn  Sn34  1  0.49980442  0.49959615  0.16644351  1
  Sn  Sn35  1  0.83326931  0.16690071  0.83330273  1
  Sn  Sn36  1  0.83259096  0.83306466  0.83258724  1
  Sn  Sn37  1  0.16701922  0.49936924  0.16658113  1
  Sn  Sn38  1  0.16708425  0.16662628  0.16587463  1
  Sn  Sn39  1  0.83320690  0.83406868  0.50116560  1
  Sn  Sn40  1  0.16730949  0.16683875  0.83361591  1
  Pb  Pb41  1  0.16654445  0.49957857  0.49605249  1
  Pb  Pb42  1  0.83324412  0.50004418  0.49959205  1
  Pb  Pb43  1  0.16404030  0.16680101  0.49965192  1
  Pb  Pb44  1  0.50275800  0.16690903  0.50015104  1
  Pb  Pb45  1  0.16687194  0.83432850  0.16638247  1
  Pb  Pb46  1  0.83331574  0.83340216  0.16607862  1
  Pb  Pb47  1  0.50018141  0.49981891  0.49628610  1
  Pb  Pb48  1  0.16687540  0.83598892  0.83340981  1
  Pb  Pb49  1  0.50004557  0.83396136  0.16398872  1
  Pb  Pb50  1  0.16400796  0.49693221  0.83540147  1
  Pb  Pb51  1  0.50169170  0.49964033  0.83504528  1
  Pb  Pb52  1  0.16325126  0.83355132  0.50041224  1
  Pb  Pb53  1  0.50272803  0.83336413  0.50419386  1
  I  I54  1  0.16380598  0.00457853  0.16224680  1
  I  I55  1  0.16787580  0.00039188  0.49632800  1
  I  I56  1  0.16008303  0.00427776  0.84107740  1
  I  I57  1  0.16505694  0.33208343  0.16245933  1
  I  I58  1  0.16288440  0.33297458  0.50319972  1
  I  I59  1  0.16627192  0.32883900  0.83633343  1
  I  I60  1  0.16397173  0.66343811  0.16700452  1
  I  I61  1  0.16405880  0.66656013  0.49869234  1
  I  I62  1  0.16576687  0.66626281  0.83498273  1
  I  I63  1  0.50196398  0.00387345  0.16432991  1
  I  I64  1  0.49868211  0.00008313  0.49326730  1
  I  I65  1  0.50664316  0.00183658  0.84014765  1
  I  I66  1  0.50139773  0.33189097  0.16081620  1
  I  I67  1  0.50367136  0.33305636  0.50588133  1
  I  I68  1  0.50237328  0.32985213  0.83627099  1
  I  I69  1  0.50220201  0.66374788  0.16566470  1
  I  I70  1  0.50418196  0.66687420  0.49835107  1
  I  I71  1  0.50831147  0.66887008  0.83579202  1
  I  I72  1  0.83362548  0.00373801  0.16450505  1
  I  I73  1  0.83342486  0.00108456  0.50304457  1
  I  I74  1  0.83323519  0.00160853  0.83313359  1
  I  I75  1  0.83349148  0.33219805  0.16431658  1
  I  I76  1  0.83381589  0.33034438  0.50227607  1
  I  I77  1  0.83316790  0.33179100  0.83398294  1
  I  I78  1  0.83379461  0.66331839  0.16405684  1
  I  I79  1  0.83274876  0.66946669  0.50318994  1
  I  I80  1  0.82775288  0.66685539  0.83376519  1
  I  I81  1  0.16145697  0.16937300  0.00061981  1
  I  I82  1  0.16548865  0.17175669  0.32949310  1
  I  I83  1  0.16509524  0.16404694  0.66981891  1
  I  I84  1  0.16783275  0.49792841  0.00367535  1
  I  I85  1  0.16078184  0.49104056  0.32772231  1
  I  I86  1  0.16470131  0.49954217  0.66689725  1
  I  I87  1  0.16205302  0.83130658  -0.00027682  1
  I  I88  1  0.16526269  0.83443153  0.33338064  1
  I  I89  1  0.16829243  0.83547964  0.66711896  1
  I  I90  1  0.50488398  0.16661421  0.00010089  1
  I  I91  1  0.50037868  0.17212997  0.32974242  1
  I  I92  1  0.50094643  0.16130595  0.67035664  1
  I  I93  1  0.49971582  0.49775724  0.00349212  1
  I  I94  1  0.50503489  0.49225966  0.32752880  1
  I  I95  1  0.50312569  0.49944895  0.66704966  1
  I  I96  1  0.50942610  0.83599518  -0.00359026  1
  I  I97  1  0.50062650  0.83252455  0.33356675  1
  I  I98  1  0.50372784  0.84247547  0.67187136  1
  I  I99  1  0.83350265  0.16683812  -0.00035889  1
  I  I100  1  0.83386051  0.16727000  0.33194161  1
  I  I101  1  0.83370743  0.16613287  0.66840172  1
  I  I102  1  0.83306377  0.49667846  0.00079194  1
  I  I103  1  0.83397525  0.49630277  0.32950988  1
  I  I104  1  0.83232079  0.49669152  0.66973824  1
  I  I105  1  0.83027631  0.83598268  -0.00345471  1
  I  I106  1  0.83468649  0.83706524  0.33553597  1
  I  I107  1  0.82946085  0.83824350  0.66822690  1
  I  I108  1  -0.00104206  0.17192147  0.16402641  1
  I  I109  1  -0.00440278  0.16313087  0.50039873  1
  I  I110  1  -0.00173291  0.16639132  0.83613316  1
  I  I111  1  -0.00102977  0.49348349  0.16327659  1
  I  I112  1  -0.00054543  0.50040482  0.49845642  1
  I  I113  1  -0.00442036  0.50100195  0.83841495  1
  I  I114  1  -0.00030990  0.83332944  0.16569651  1
  I  I115  1  -0.00481983  0.83820320  0.50639651  1
  I  I116  1  -0.00363159  0.83439760  0.82989588  1
  I  I117  1  0.33359006  0.17424522  0.15726693  1
  I  I118  1  0.33340338  0.16673873  0.49981968  1
  I  I119  1  0.33401104  0.16056086  0.84345717  1
  I  I120  1  0.33343434  0.49112738  0.16654782  1
  I  I121  1  0.33324990  0.49994730  0.50239681  1
  I  I122  1  0.33320104  0.50168715  0.83491046  1
  I  I123  1  0.33351379  0.83222064  0.16446239  1
  I  I124  1  0.33357132  0.83287030  0.49920378  1
  I  I125  1  0.33653623  0.83854022  0.83778321  1
  I  I126  1  0.66736856  0.17229734  0.16390805  1
  I  I127  1  0.67108288  0.16324453  0.49969701  1
  I  I128  1  0.66794382  0.16544576  0.83603869  1
  I  I129  1  0.66762724  0.49324912  0.16293079  1
  I  I130  1  0.66728378  0.49962854  0.49755271  1
  I  I131  1  0.67023042  0.49590402  0.83880201  1
  I  I132  1  0.66692139  0.83245551  0.16920811  1
  I  I133  1  0.67057382  0.83823001  0.50007569  1
  I  I134  1  0.66837838  0.83902335  0.83111997  1
