# generated using pymatgen
data_Cs27Sn13Pb14I81
_symmetry_space_group_name_H-M   'P 1'
_cell_length_a   18.97291830
_cell_length_b   18.97765590
_cell_length_c   18.98040232
_cell_angle_alpha   90.00168908
_cell_angle_beta   89.99934672
_cell_angle_gamma   90.00431772
_symmetry_Int_Tables_number   1
_chemical_formula_structural   Cs27Sn13Pb14I81
_chemical_formula_sum   'Cs27 Sn13 Pb14 I81'
_cell_volume   6834.11238643
_cell_formula_units_Z   1
loop_
 _symmetry_equiv_pos_site_id
 _symmetry_equiv_pos_as_xyz
  1  'x, y, z'
loop_
 _atom_site_type_symbol
 _atom_site_label
 _atom_site_symmetry_multiplicity
 _atom_site_fract_x
 _atom_site_fract_y
 _atom_site_fract_z
 _atom_site_occupancy
  Cs  Cs0  1  0.00090337  0.00047317  0.00024769  1
  Cs  Cs1  1  0.00220571  0.00030576  0.33748359  1
  Cs  Cs2  1  -0.00008892  -0.00460208  0.65792430  1
  Cs  Cs3  1  -0.00020306  0.33276955  0.00137621  1
  Cs  Cs4  1  -0.00192891  0.33295057  0.32996380  1
  Cs  Cs5  1  0.00533621  0.33424474  0.66756605  1
  Cs  Cs6  1  -0.00216249  0.66781390  0.00147587  1
  Cs  Cs7  1  0.00040581  0.66651118  0.33198829  1
  Cs  Cs8  1  0.00028241  0.67025314  0.66282467  1
  Cs  Cs9  1  0.33351554  0.00011878  -0.00034068  1
  Cs  Cs10  1  0.33223579  0.00083625  0.33541926  1
  Cs  Cs11  1  0.33481580  -0.00045067  0.66683579  1
  Cs  Cs12  1  0.33000031  0.33161617  -0.00474627  1
  Cs  Cs13  1  0.33399343  0.33167633  0.34273838  1
  Cs  Cs14  1  0.32769440  0.34217364  0.66267306  1
  Cs  Cs15  1  0.33632630  0.66762612  0.00017938  1
  Cs  Cs16  1  0.33536461  0.66665778  0.33311731  1
  Cs  Cs17  1  0.33135967  0.66193680  0.66605077  1
  Cs  Cs18  1  0.66546705  0.00058124  -0.00127858  1
  Cs  Cs19  1  0.66526299  0.00270480  0.33405631  1
  Cs  Cs20  1  0.66690860  -0.00050063  0.66713507  1
  Cs  Cs21  1  0.66844115  0.33197229  -0.00068812  1
  Cs  Cs22  1  0.66692937  0.33219651  0.33571915  1
  Cs  Cs23  1  0.66480074  0.33142723  0.66563449  1
  Cs  Cs24  1  0.66633834  0.66655071  0.00146811  1
  Cs  Cs25  1  0.66456755  0.66449184  0.32772510  1
  Cs  Cs26  1  0.66814761  0.66890132  0.66945429  1
  Sn  Sn27  1  0.83375871  0.49988022  0.16630911  1
  Sn  Sn28  1  0.16600036  0.83250678  0.16558176  1
  Sn  Sn29  1  0.83248358  0.16638662  0.16579759  1
  Sn  Sn30  1  0.50039927  0.16701810  0.16573962  1
  Sn  Sn31  1  0.83305896  0.50000690  0.50019028  1
  Sn  Sn32  1  0.83302081  0.16709397  0.83387226  1
  Sn  Sn33  1  0.16658566  0.50061256  0.16620951  1
  Sn  Sn34  1  0.83390338  0.83389302  0.16650006  1
  Sn  Sn35  1  0.50037006  0.83311186  0.50109626  1
  Sn  Sn36  1  0.49912302  0.83381640  0.83263553  1
  Sn  Sn37  1  0.50030993  0.16633521  0.83404147  1
  Sn  Sn38  1  0.16732210  0.83357066  0.83417951  1
  Sn  Sn39  1  0.83318040  0.49916842  0.83321116  1
  Pb  Pb40  1  0.16399587  0.50035838  0.49688118  1
  Pb  Pb41  1  0.49957616  0.49653778  0.16639766  1
  Pb  Pb42  1  0.83103562  0.83121912  0.49656290  1
  Pb  Pb43  1  0.50194773  0.49956389  0.83355859  1
  Pb  Pb44  1  0.16373334  0.50275074  0.83571795  1
  Pb  Pb45  1  0.16628494  0.16425449  0.83318944  1
  Pb  Pb46  1  0.83339157  0.16880183  0.50046052  1
  Pb  Pb47  1  0.50246759  0.50261330  0.50005019  1
  Pb  Pb48  1  0.83328191  0.83391139  0.83494925  1
  Pb  Pb49  1  0.50020420  0.16508327  0.50110928  1
  Pb  Pb50  1  0.16658510  0.16673539  0.50039130  1
  Pb  Pb51  1  0.49966857  0.83514659  0.16601391  1
  Pb  Pb52  1  0.16903349  0.83310921  0.49949207  1
  Pb  Pb53  1  0.16660700  0.16664200  0.16668712  1
  I  I54  1  0.16341912  -0.00318515  0.16324254  1
  I  I55  1  0.16500361  -0.00075781  0.49681788  1
  I  I56  1  0.16627656  -0.00378563  0.84139327  1
  I  I57  1  0.16132193  0.33603752  0.16722154  1
  I  I58  1  0.16792299  0.33399451  0.49855765  1
  I  I59  1  0.16901540  0.33359698  0.83423631  1
  I  I60  1  0.15758212  0.66743544  0.16340903  1
  I  I61  1  0.16671530  0.66678528  0.50160365  1
  I  I62  1  0.17181013  0.67053734  0.83594871  1
  I  I63  1  0.50510155  0.00284612  0.16551553  1
  I  I64  1  0.50107627  -0.00290096  0.50038190  1
  I  I65  1  0.50299035  -0.00011558  0.83404656  1
  I  I66  1  0.50523004  0.32868560  0.16071129  1
  I  I67  1  0.50028111  0.33338322  0.49894371  1
  I  I68  1  0.50398524  0.32982773  0.83921038  1
  I  I69  1  0.50317452  0.66677664  0.16691214  1
  I  I70  1  0.50028064  0.67053585  0.50466112  1
  I  I71  1  0.49821530  0.66977600  0.82993177  1
  I  I72  1  0.83291083  0.00045266  0.16098499  1
  I  I73  1  0.83295501  -0.00028172  0.49977369  1
  I  I74  1  0.83169239  0.00267300  0.83990567  1
  I  I75  1  0.83379908  0.33368412  0.16646640  1
  I  I76  1  0.83258924  0.33672045  0.49399977  1
  I  I77  1  0.82743945  0.33291985  0.83880026  1
  I  I78  1  0.83734375  0.66626607  0.16651622  1
  I  I79  1  0.83248277  0.66337138  0.50112113  1
  I  I80  1  0.83332077  0.66455910  0.83532505  1
  I  I81  1  0.16699795  0.16780332  0.00012633  1
  I  I82  1  0.16716156  0.16417389  0.33260044  1
  I  I83  1  0.16569433  0.16433742  0.66735060  1
  I  I84  1  0.15974371  0.50147295  0.00354558  1
  I  I85  1  0.16072269  0.50656998  0.32882660  1
  I  I86  1  0.16519282  0.50068195  0.66684714  1
  I  I87  1  0.16848724  0.83021590  0.00093033  1
  I  I88  1  0.16350869  0.83007774  0.32970875  1
  I  I89  1  0.16781577  0.83518773  0.66955825  1
  I  I90  1  0.50545151  0.15993057  -0.00061140  1
  I  I91  1  0.50438555  0.16533561  0.33059614  1
  I  I92  1  0.50661162  0.16256092  0.67063093  1
  I  I93  1  0.50304239  0.50619072  0.00009499  1
  I  I94  1  0.50266220  0.50109458  0.33299830  1
  I  I95  1  0.50260206  0.49650318  0.66687338  1
  I  I96  1  0.49918888  0.83591469  -0.00263661  1
  I  I97  1  0.50153972  0.83439929  0.33454436  1
  I  I98  1  0.49634294  0.83910995  0.66867432  1
  I  I99  1  0.82906434  0.17113556  0.00089588  1
  I  I100  1  0.82962982  0.16729284  0.32975700  1
  I  I101  1  0.82840065  0.17028479  0.67043731  1
  I  I102  1  0.83657820  0.49917816  0.00108573  1
  I  I103  1  0.83691378  0.50082631  0.33148084  1
  I  I104  1  0.83022311  0.49586710  0.66760729  1
  I  I105  1  0.83233377  0.82890252  0.00314835  1
  I  I106  1  0.83730481  0.83401664  0.32831332  1
  I  I107  1  0.83569730  0.83256739  0.66672205  1
  I  I108  1  -0.00358739  0.16755221  0.16226149  1
  I  I109  1  -0.00064437  0.16470972  0.49906659  1
  I  I110  1  -0.00366607  0.17058651  0.83971315  1
  I  I111  1  -0.00207548  0.49942601  0.16673142  1
  I  I112  1  -0.00403491  0.50147758  0.50194701  1
  I  I113  1  -0.00448094  0.49474785  0.83276107  1
  I  I114  1  -0.00043890  0.83358676  0.16104685  1
  I  I115  1  -0.00021723  0.83274634  0.50264984  1
  I  I116  1  0.00193667  0.83230240  0.83744146  1
  I  I117  1  0.33626686  0.16465363  0.16221446  1
  I  I118  1  0.33392572  0.16603330  0.49685821  1
  I  I119  1  0.33664251  0.16215967  0.83949938  1
  I  I120  1  0.33030462  0.50622933  0.16619360  1
  I  I121  1  0.33314350  0.49952892  0.49823869  1
  I  I122  1  0.33288474  0.49780372  0.83485687  1
  I  I123  1  0.33070028  0.82984531  0.16610112  1
  I  I124  1  0.33678526  0.83446035  0.49854287  1
  I  I125  1  0.33415088  0.83906360  0.83617083  1
  I  I126  1  0.66825489  0.16576739  0.16320800  1
  I  I127  1  0.66682820  0.16666863  0.49806660  1
  I  I128  1  0.66699643  0.16434599  0.83812874  1
  I  I129  1  0.67037887  0.50372634  0.16665939  1
  I  I130  1  0.67055330  0.49995232  0.49522693  1
  I  I131  1  0.67063968  0.50210775  0.83772076  1
  I  I132  1  0.66932029  0.83015561  0.16651946  1
  I  I133  1  0.66364024  0.83333275  0.50607870  1
  I  I134  1  0.66431081  0.83419582  0.83152335  1
