# generated using pymatgen
data_Cs27Sn13Pb14I81
_symmetry_space_group_name_H-M   'P 1'
_cell_length_a   18.99832969
_cell_length_b   18.98231788
_cell_length_c   18.99288363
_cell_angle_alpha   90.00000108
_cell_angle_beta   89.99915618
_cell_angle_gamma   90.00041013
_symmetry_Int_Tables_number   1
_chemical_formula_structural   Cs27Sn13Pb14I81
_chemical_formula_sum   'Cs27 Sn13 Pb14 I81'
_cell_volume   6849.44794035
_cell_formula_units_Z   1
loop_
 _symmetry_equiv_pos_site_id
 _symmetry_equiv_pos_as_xyz
  1  'x, y, z'
loop_
 _atom_site_type_symbol
 _atom_site_label
 _atom_site_symmetry_multiplicity
 _atom_site_fract_x
 _atom_site_fract_y
 _atom_site_fract_z
 _atom_site_occupancy
  Cs  Cs0  1  0.00201868  0.00022486  0.00273376  1
  Cs  Cs1  1  -0.00220795  -0.00052470  0.33749270  1
  Cs  Cs2  1  0.00258051  0.00748094  0.65642431  1
  Cs  Cs3  1  -0.00159297  0.33370233  0.00092137  1
  Cs  Cs4  1  0.00008061  0.33623420  0.33029552  1
  Cs  Cs5  1  -0.00228785  0.33002731  0.66803725  1
  Cs  Cs6  1  0.00116937  0.66554165  -0.00044685  1
  Cs  Cs7  1  -0.00127533  0.66581488  0.33467572  1
  Cs  Cs8  1  0.00139379  0.66496621  0.66612112  1
  Cs  Cs9  1  0.33345009  -0.00121693  -0.00079010  1
  Cs  Cs10  1  0.33104905  0.00040407  0.33434404  1
  Cs  Cs11  1  0.32893974  0.00347464  0.66626415  1
  Cs  Cs12  1  0.33373427  0.33069638  0.00452519  1
  Cs  Cs13  1  0.34444767  0.33795416  0.33089716  1
  Cs  Cs14  1  0.33325098  0.32734459  0.66439387  1
  Cs  Cs15  1  0.33155229  0.66782764  -0.00144455  1
  Cs  Cs16  1  0.33356394  0.66318497  0.33382568  1
  Cs  Cs17  1  0.33392638  0.66789664  0.66841181  1
  Cs  Cs18  1  0.66348261  -0.00349843  0.00147564  1
  Cs  Cs19  1  0.67211293  0.00004301  0.33352189  1
  Cs  Cs20  1  0.66783102  0.00630154  0.66494239  1
  Cs  Cs21  1  0.66976826  0.32803899  -0.00070173  1
  Cs  Cs22  1  0.65832992  0.33415149  0.33415301  1
  Cs  Cs23  1  0.66976488  0.32677348  0.66537782  1
  Cs  Cs24  1  0.66781654  0.67057240  -0.00485687  1
  Cs  Cs25  1  0.66817899  0.66710645  0.33524785  1
  Cs  Cs26  1  0.66334235  0.66562005  0.67136782  1
  Sn  Sn27  1  0.49894796  0.83281153  0.16715769  1
  Sn  Sn28  1  0.16599892  0.83285005  0.83353434  1
  Sn  Sn29  1  0.16632761  0.50011427  0.50108627  1
  Sn  Sn30  1  0.83367688  0.50050270  0.49955858  1
  Sn  Sn31  1  0.16774486  0.50040558  0.83245339  1
  Sn  Sn32  1  0.49962197  0.83288195  0.83278789  1
  Sn  Sn33  1  0.83414724  0.16755089  0.16651920  1
  Sn  Sn34  1  0.49988195  0.83318274  0.50029320  1
  Sn  Sn35  1  0.83443629  0.83382557  0.83265981  1
  Sn  Sn36  1  0.16713827  0.83380208  0.16640047  1
  Sn  Sn37  1  0.49887008  0.49999141  0.83351226  1
  Sn  Sn38  1  0.16603543  0.16595124  0.16687897  1
  Sn  Sn39  1  0.83314683  0.49963546  0.16708517  1
  Pb  Pb40  1  0.83396956  0.83312769  0.16544000  1
  Pb  Pb41  1  0.16553922  0.50046274  0.16621195  1
  Pb  Pb42  1  0.50006737  0.50162002  0.50270725  1
  Pb  Pb43  1  0.16827725  0.83143144  0.50001441  1
  Pb  Pb44  1  0.83131063  0.83098600  0.50308970  1
  Pb  Pb45  1  0.83357213  0.50116545  0.83314767  1
  Pb  Pb46  1  0.49997318  0.16379368  0.16659789  1
  Pb  Pb47  1  0.83344474  0.16989027  0.49690478  1
  Pb  Pb48  1  0.50300644  0.50282659  0.16363831  1
  Pb  Pb49  1  0.49982465  0.16330190  0.49988849  1
  Pb  Pb50  1  0.49982170  0.16642219  0.83346426  1
  Pb  Pb51  1  0.16660731  0.16680955  0.83545013  1
  Pb  Pb52  1  0.16681532  0.17051921  0.49621774  1
  Pb  Pb53  1  0.83371804  0.16306093  0.83590974  1
  I  I54  1  0.16541531  -0.00158654  0.16014531  1
  I  I55  1  0.16867547  0.00005355  0.50265888  1
  I  I56  1  0.16910836  -0.00364907  0.83679953  1
  I  I57  1  0.16212497  0.33152482  0.16616087  1
  I  I58  1  0.16215648  0.33828202  0.50724147  1
  I  I59  1  0.17097081  0.33697344  0.83079547  1
  I  I60  1  0.16912347  0.66952253  0.16458905  1
  I  I61  1  0.16325951  0.66367548  0.49859726  1
  I  I62  1  0.16774590  0.66770567  0.83654237  1
  I  I63  1  0.50149043  -0.00450264  0.16215362  1
  I  I64  1  0.49977133  -0.00512594  0.50330561  1
  I  I65  1  0.49967219  -0.00449775  0.83475566  1
  I  I66  1  0.49754623  0.33362849  0.16551538  1
  I  I67  1  0.50022688  0.33377397  0.50090826  1
  I  I68  1  0.49546648  0.33667996  0.83325566  1
  I  I69  1  0.49455234  0.67072350  0.16734551  1
  I  I70  1  0.50011870  0.66960034  0.49841573  1
  I  I71  1  0.49981150  0.66837426  0.83385520  1
  I  I72  1  0.83345222  0.00172665  0.16251754  1
  I  I73  1  0.83114768  -0.00006629  0.49987097  1
  I  I74  1  0.83043122  -0.00509240  0.83642193  1
  I  I75  1  0.84065161  0.33370163  0.16866589  1
  I  I76  1  0.83668919  0.33782173  0.50177177  1
  I  I77  1  0.83232223  0.33331725  0.83204766  1
  I  I78  1  0.83345693  0.66438826  0.16878851  1
  I  I79  1  0.83730436  0.66346885  0.49154212  1
  I  I80  1  0.83200508  0.66922768  0.83738409  1
  I  I81  1  0.16292751  0.16679183  0.00334049  1
  I  I82  1  0.16120557  0.15835917  0.32865687  1
  I  I83  1  0.16717184  0.16347694  0.66632081  1
  I  I84  1  0.16855929  0.50229192  -0.00274865  1
  I  I85  1  0.16284885  0.50056954  0.33504777  1
  I  I86  1  0.16444486  0.50804291  0.66782126  1
  I  I87  1  0.17091969  0.83120152  -0.00049545  1
  I  I88  1  0.17129143  0.83544082  0.33039689  1
  I  I89  1  0.16818626  0.82957523  0.66985859  1
  I  I90  1  0.50085195  0.16498151  0.00027378  1
  I  I91  1  0.49948316  0.16669311  0.33295522  1
  I  I92  1  0.50105590  0.16509461  0.66673107  1
  I  I93  1  0.49440234  0.50726910  -0.00378707  1
  I  I94  1  0.49800722  0.50197186  0.33324483  1
  I  I95  1  0.50102926  0.50913688  0.67021115  1
  I  I96  1  0.50008876  0.83023893  -0.00077468  1
  I  I97  1  0.49543168  0.83388646  0.33263218  1
  I  I98  1  0.50066648  0.82730220  0.66822002  1
  I  I99  1  0.83697973  0.17518763  0.00364338  1
  I  I100  1  0.83816754  0.16403647  0.32917356  1
  I  I101  1  0.83194347  0.16699909  0.66641868  1
  I  I102  1  0.83380449  0.49794277  0.00221388  1
  I  I103  1  0.84009428  0.49813580  0.33309583  1
  I  I104  1  0.83412575  0.50510744  0.66465906  1
  I  I105  1  0.82855544  0.83040922  -0.00240525  1
  I  I106  1  0.83170816  0.83477048  0.33346939  1
  I  I107  1  0.83347589  0.82874257  0.67105346  1
  I  I108  1  0.00025931  0.16394078  0.16487367  1
  I  I109  1  0.00015435  0.16218913  0.50154449  1
  I  I110  1  0.00012770  0.16730226  0.83374204  1
  I  I111  1  -0.00235382  0.50187347  0.16524446  1
  I  I112  1  0.00024444  0.50237724  0.50168472  1
  I  I113  1  0.00273078  0.50597827  0.83336358  1
  I  I114  1  0.00282233  0.83345832  0.16044803  1
  I  I115  1  0.00003169  0.83349153  0.49974269  1
  I  I116  1  0.00153080  0.82698315  0.84170104  1
  I  I117  1  0.33042567  0.16422770  0.16556267  1
  I  I118  1  0.33302356  0.16957328  0.49770738  1
  I  I119  1  0.33314352  0.16310887  0.83659735  1
  I  I120  1  0.33353423  0.49687846  0.16990669  1
  I  I121  1  0.33086579  0.50204154  0.50135801  1
  I  I122  1  0.33238548  0.51025710  0.82860107  1
  I  I123  1  0.33268427  0.83829525  0.16123061  1
  I  I124  1  0.33610794  0.82968578  0.50346054  1
  I  I125  1  0.33320982  0.82840883  0.83548437  1
  I  I126  1  0.66948074  0.16973654  0.16635707  1
  I  I127  1  0.66685505  0.16863141  0.49784405  1
  I  I128  1  0.66683507  0.16734598  0.83612597  1
  I  I129  1  0.67060724  0.49545369  0.17186236  1
  I  I130  1  0.66900883  0.50248089  0.49622338  1
  I  I131  1  0.66458291  0.50726403  0.83474334  1
  I  I132  1  0.66446254  0.83247939  0.16410920  1
  I  I133  1  0.66340329  0.83019693  0.49805143  1
  I  I134  1  0.66537012  0.82796878  0.83533185  1
