# generated using pymatgen
data_Cs27Sn14Pb13I81
_symmetry_space_group_name_H-M   'P 1'
_cell_length_a   18.96271238
_cell_length_b   18.97958813
_cell_length_c   18.98328749
_cell_angle_alpha   89.99802817
_cell_angle_beta   90.00037213
_cell_angle_gamma   89.99844678
_symmetry_Int_Tables_number   1
_chemical_formula_structural   Cs27Sn14Pb13I81
_chemical_formula_sum   'Cs27 Sn14 Pb13 I81'
_cell_volume   6832.17003162
_cell_formula_units_Z   1
loop_
 _symmetry_equiv_pos_site_id
 _symmetry_equiv_pos_as_xyz
  1  'x, y, z'
loop_
 _atom_site_type_symbol
 _atom_site_label
 _atom_site_symmetry_multiplicity
 _atom_site_fract_x
 _atom_site_fract_y
 _atom_site_fract_z
 _atom_site_occupancy
  Cs  Cs0  1  -0.00006609  0.00127337  0.00322005  1
  Cs  Cs1  1  -0.00096953  0.00308467  0.33306511  1
  Cs  Cs2  1  0.00128350  0.00058362  0.66521704  1
  Cs  Cs3  1  -0.00000124  0.33078217  0.00050561  1
  Cs  Cs4  1  -0.00624010  0.32812722  0.33427316  1
  Cs  Cs5  1  -0.00148437  0.33344405  0.66588395  1
  Cs  Cs6  1  -0.00213914  0.66802879  -0.00267206  1
  Cs  Cs7  1  0.00262807  0.66772355  0.33651020  1
  Cs  Cs8  1  0.00104008  0.66626559  0.66729587  1
  Cs  Cs9  1  0.33330415  0.00426283  -0.00347030  1
  Cs  Cs10  1  0.33276371  0.00130969  0.33511715  1
  Cs  Cs11  1  0.33494238  0.00141566  0.66606163  1
  Cs  Cs12  1  0.33369850  0.33308476  -0.00080052  1
  Cs  Cs13  1  0.33305587  0.33347069  0.33337841  1
  Cs  Cs14  1  0.33321470  0.33411388  0.66695991  1
  Cs  Cs15  1  0.33165137  0.66267323  0.00332368  1
  Cs  Cs16  1  0.33419607  0.66577677  0.33423228  1
  Cs  Cs17  1  0.33039473  0.66396592  0.66388465  1
  Cs  Cs18  1  0.66541586  -0.00918128  -0.00502355  1
  Cs  Cs19  1  0.66853445  -0.00116822  0.33208373  1
  Cs  Cs20  1  0.66083696  -0.00079869  0.66987735  1
  Cs  Cs21  1  0.66370067  0.33767762  0.00143763  1
  Cs  Cs22  1  0.67200720  0.33379796  0.33282204  1
  Cs  Cs23  1  0.66776727  0.33223046  0.66527198  1
  Cs  Cs24  1  0.67602888  0.67238457  0.00906505  1
  Cs  Cs25  1  0.66325654  0.66732720  0.32232865  1
  Cs  Cs26  1  0.67051643  0.66868924  0.66888697  1
  Sn  Sn27  1  0.16688522  0.49940696  0.49965963  1
  Sn  Sn28  1  0.16712936  0.83274862  0.16681552  1
  Sn  Sn29  1  0.16711160  0.83339103  0.83332631  1
  Sn  Sn30  1  0.49989366  0.16650951  0.16762547  1
  Sn  Sn31  1  0.16572044  0.16688570  0.83229421  1
  Sn  Sn32  1  0.83373979  0.83311316  0.50010970  1
  Sn  Sn33  1  0.49954852  0.49925083  0.50094465  1
  Sn  Sn34  1  0.16720132  0.49986615  0.83336275  1
  Sn  Sn35  1  0.16661253  0.50032801  0.16697257  1
  Sn  Sn36  1  0.16727442  0.16701345  0.50081870  1
  Sn  Sn37  1  0.49964692  0.50057528  0.83265775  1
  Sn  Sn38  1  0.16606525  0.83351264  0.50005727  1
  Sn  Sn39  1  0.83392184  0.16695554  0.83326235  1
  Sn  Sn40  1  0.49923636  0.16776177  0.49879383  1
  Pb  Pb41  1  0.16772130  0.16686722  0.16680642  1
  Pb  Pb42  1  0.49731393  0.82916636  0.83327306  1
  Pb  Pb43  1  0.83656750  0.83360583  0.16935965  1
  Pb  Pb44  1  0.82965639  0.16639887  0.16341913  1
  Pb  Pb45  1  0.83346506  0.49819296  0.83318741  1
  Pb  Pb46  1  0.83601183  0.83552883  0.83121578  1
  Pb  Pb47  1  0.49801182  0.49847760  0.16700258  1
  Pb  Pb48  1  0.49963122  0.83268684  0.50010336  1
  Pb  Pb49  1  0.49689863  0.83601621  0.16660721  1
  Pb  Pb50  1  0.83703907  0.49976324  0.16675440  1
  Pb  Pb51  1  0.49963086  0.16845126  0.83274954  1
  Pb  Pb52  1  0.83273159  0.16475396  0.50167021  1
  Pb  Pb53  1  0.83273301  0.50241813  0.50002276  1
  I  I54  1  0.16848369  -0.00238600  0.16688571  1
  I  I55  1  0.16687585  0.00038489  0.50232072  1
  I  I56  1  0.16221964  0.00050464  0.83096866  1
  I  I57  1  0.16985151  0.33585672  0.16558599  1
  I  I58  1  0.17149742  0.33331021  0.50271690  1
  I  I59  1  0.16692012  0.33345874  0.83142556  1
  I  I60  1  0.16762838  0.66643173  0.16696818  1
  I  I61  1  0.16640712  0.66630324  0.50178548  1
  I  I62  1  0.17156235  0.66620360  0.83087058  1
  I  I63  1  0.49687129  0.00384075  0.17323112  1
  I  I64  1  0.49577790  0.00286132  0.49689414  1
  I  I65  1  0.49965307  0.00000612  0.83337583  1
  I  I66  1  0.49489992  0.33080944  0.16716361  1
  I  I67  1  0.49097674  0.33325148  0.50051137  1
  I  I68  1  0.49268684  0.33609709  0.83263705  1
  I  I69  1  0.50071294  0.66648209  0.16726157  1
  I  I70  1  0.49474383  0.66318209  0.50471063  1
  I  I71  1  0.49291951  0.66143487  0.82530675  1
  I  I72  1  0.83654753  0.00003629  0.16714881  1
  I  I73  1  0.84059696  -0.00272223  0.50091182  1
  I  I74  1  0.83808774  0.00331404  0.83221739  1
  I  I75  1  0.83683616  0.33286421  0.16784070  1
  I  I76  1  0.83635221  0.33318029  0.50094869  1
  I  I77  1  0.84091038  0.33042422  0.83115250  1
  I  I78  1  0.82895851  0.66689029  0.16579568  1
  I  I79  1  0.84118908  0.66992117  0.50207722  1
  I  I80  1  0.83351671  0.66695066  0.83241500  1
  I  I81  1  0.16567263  0.16645546  -0.00278504  1
  I  I82  1  0.16937902  0.16617024  0.33644368  1
  I  I83  1  0.16854746  0.16598825  0.66615033  1
  I  I84  1  0.17066562  0.50196777  -0.00104852  1
  I  I85  1  0.17106207  0.50380908  0.33462475  1
  I  I86  1  0.17012083  0.50185350  0.66637270  1
  I  I87  1  0.16900290  0.83096057  -0.00061128  1
  I  I88  1  0.16338700  0.83077545  0.33439170  1
  I  I89  1  0.16297512  0.83156461  0.66617200  1
  I  I90  1  0.49788057  0.16858709  0.00130465  1
  I  I91  1  0.49223618  0.17156748  0.33552431  1
  I  I92  1  0.49808679  0.16799804  0.66381052  1
  I  I93  1  0.49278691  0.49568757  -0.00241671  1
  I  I94  1  0.49441209  0.49851486  0.33650218  1
  I  I95  1  0.48979496  0.49314183  0.66581727  1
  I  I96  1  0.49810033  0.83598809  -0.00016965  1
  I  I97  1  0.49769926  0.82925677  0.33355288  1
  I  I98  1  0.49854371  0.83989840  0.66661284  1
  I  I99  1  0.84210274  0.16690209  -0.00410677  1
  I  I100  1  0.83607655  0.16538205  0.33347856  1
  I  I101  1  0.83533342  0.16621520  0.66928948  1
  I  I102  1  0.83220622  0.49954241  -0.00020250  1
  I  I103  1  0.83304192  0.49913475  0.33362489  1
  I  I104  1  0.83773013  0.50036488  0.66656470  1
  I  I105  1  0.83365225  0.83424993  -0.00010175  1
  I  I106  1  0.84015446  0.83496259  0.33700512  1
  I  I107  1  0.84083176  0.83319947  0.66370404  1
  I  I108  1  0.00012471  0.16675552  0.16854737  1
  I  I109  1  0.00340139  0.16914333  0.50200249  1
  I  I110  1  0.00321246  0.16861483  0.82786633  1
  I  I111  1  0.00573111  0.50269007  0.16619131  1
  I  I112  1  0.00398279  0.49778128  0.50114764  1
  I  I113  1  0.00423477  0.50229305  0.83213149  1
  I  I114  1  0.00488893  0.83065007  0.16368440  1
  I  I115  1  0.00350050  0.83341728  0.50008271  1
  I  I116  1  0.00485799  0.82771485  0.83472294  1
  I  I117  1  0.33530211  0.16653470  0.16634768  1
  I  I118  1  0.33171628  0.16475397  0.50235702  1
  I  I119  1  0.32995336  0.16453182  0.83252343  1
  I  I120  1  0.32959404  0.50368398  0.16643831  1
  I  I121  1  0.33138199  0.50116734  0.50100600  1
  I  I122  1  0.33095898  0.49739639  0.83219824  1
  I  I123  1  0.32868153  0.82850393  0.17080163  1
  I  I124  1  0.32931358  0.83359596  0.50028130  1
  I  I125  1  0.32841304  0.84063715  0.82906557  1
  I  I126  1  0.66198179  0.16937951  0.17404601  1
  I  I127  1  0.66338184  0.16985917  0.49838529  1
  I  I128  1  0.66835927  0.16902663  0.83259767  1
  I  I129  1  0.66622833  0.49846358  0.16622467  1
  I  I130  1  0.66290223  0.49528077  0.50602437  1
  I  I131  1  0.66342525  0.49463073  0.82662114  1
  I  I132  1  0.66673133  0.83399733  0.16815775  1
  I  I133  1  0.66900589  0.83509849  0.50141715  1
  I  I134  1  0.66683184  0.83537668  0.83089021  1
