# generated using pymatgen
data_Cs27Sn13Pb14I81
_symmetry_space_group_name_H-M   'P 1'
_cell_length_a   18.96906553
_cell_length_b   18.98256456
_cell_length_c   18.97827305
_cell_angle_alpha   90.00046169
_cell_angle_beta   89.99887191
_cell_angle_gamma   89.99910077
_symmetry_Int_Tables_number   1
_chemical_formula_structural   Cs27Sn13Pb14I81
_chemical_formula_sum   'Cs27 Sn13 Pb14 I81'
_cell_volume   6833.72523541
_cell_formula_units_Z   1
loop_
 _symmetry_equiv_pos_site_id
 _symmetry_equiv_pos_as_xyz
  1  'x, y, z'
loop_
 _atom_site_type_symbol
 _atom_site_label
 _atom_site_symmetry_multiplicity
 _atom_site_fract_x
 _atom_site_fract_y
 _atom_site_fract_z
 _atom_site_occupancy
  Cs  Cs0  1  -0.00760123  -0.00139039  -0.00043966  1
  Cs  Cs1  1  0.00077381  0.00121088  0.33196941  1
  Cs  Cs2  1  -0.00039309  -0.00308788  0.66817234  1
  Cs  Cs3  1  -0.00364437  0.33142544  0.00149101  1
  Cs  Cs4  1  0.00444649  0.32973733  0.33478865  1
  Cs  Cs5  1  0.00111975  0.33372206  0.66408546  1
  Cs  Cs6  1  -0.00084482  0.66980294  -0.00142235  1
  Cs  Cs7  1  0.00008001  0.66791484  0.33365858  1
  Cs  Cs8  1  0.00106424  0.66989564  0.66751798  1
  Cs  Cs9  1  0.33388790  -0.00089737  -0.00069150  1
  Cs  Cs10  1  0.33398990  -0.00000744  0.33128769  1
  Cs  Cs11  1  0.33581314  0.00022673  0.67010656  1
  Cs  Cs12  1  0.33402927  0.33359423  -0.00095124  1
  Cs  Cs13  1  0.32833345  0.33434961  0.33341756  1
  Cs  Cs14  1  0.33123879  0.33462521  0.66772382  1
  Cs  Cs15  1  0.33116524  0.66690635  0.00064873  1
  Cs  Cs16  1  0.33394847  0.66706636  0.33312629  1
  Cs  Cs17  1  0.33423951  0.66599166  0.66519867  1
  Cs  Cs18  1  0.66706111  0.00062659  0.00051817  1
  Cs  Cs19  1  0.66523729  -0.00167152  0.33506766  1
  Cs  Cs20  1  0.66428886  0.00241559  0.66463757  1
  Cs  Cs21  1  0.67177066  0.34065251  -0.00093207  1
  Cs  Cs22  1  0.66695595  0.33504343  0.33206542  1
  Cs  Cs23  1  0.66783938  0.33151506  0.66929631  1
  Cs  Cs24  1  0.67262177  0.65770589  0.00199772  1
  Cs  Cs25  1  0.66555928  0.66544008  0.33335223  1
  Cs  Cs26  1  0.66389791  0.66191447  0.66414406  1
  Sn  Sn27  1  0.83391250  0.83327734  0.49989496  1
  Sn  Sn28  1  0.50016771  0.16679769  0.49981340  1
  Sn  Sn29  1  0.16692202  0.16709143  0.83360287  1
  Sn  Sn30  1  0.16680861  0.50063955  0.16576780  1
  Sn  Sn31  1  0.16725360  0.83295924  0.16720720  1
  Sn  Sn32  1  0.49982463  0.16628041  0.16622562  1
  Sn  Sn33  1  0.16680898  0.49911385  0.83422340  1
  Sn  Sn34  1  0.49951745  0.83380461  0.16519562  1
  Sn  Sn35  1  0.83276790  0.16663500  0.49995414  1
  Sn  Sn36  1  0.16644261  0.83379116  0.49927552  1
  Sn  Sn37  1  0.49940351  0.16608099  0.83406739  1
  Sn  Sn38  1  0.83357001  0.49996542  0.49992543  1
  Sn  Sn39  1  0.50023786  0.83347221  0.83477886  1
  Pb  Pb40  1  0.83282267  0.83337030  0.16862233  1
  Pb  Pb41  1  0.16813081  0.83364057  0.83389545  1
  Pb  Pb42  1  0.83012172  0.16659230  0.16926439  1
  Pb  Pb43  1  0.83691466  0.49998694  0.16913705  1
  Pb  Pb44  1  0.83669814  0.50009820  0.83109339  1
  Pb  Pb45  1  0.16501887  0.50235057  0.50002100  1
  Pb  Pb46  1  0.82927835  0.83327972  0.83077004  1
  Pb  Pb47  1  0.49785959  0.50024411  0.16669055  1
  Pb  Pb48  1  0.83285042  0.16650049  0.83134729  1
  Pb  Pb49  1  0.49804689  0.49985446  0.83344112  1
  Pb  Pb50  1  0.49990343  0.83480875  0.49973722  1
  Pb  Pb51  1  0.50205662  0.49651019  0.49993387  1
  Pb  Pb52  1  0.16693974  0.16419028  0.50208681  1
  Pb  Pb53  1  0.16839590  0.16588824  0.16410268  1
  I  I54  1  0.16959319  -0.00306641  0.17079075  1
  I  I55  1  0.16201629  -0.00353451  0.49563202  1
  I  I56  1  0.17041376  0.00230210  0.83098262  1
  I  I57  1  0.16810069  0.33528757  0.16543842  1
  I  I58  1  0.16561265  0.33311466  0.49812611  1
  I  I59  1  0.17301726  0.33294504  0.83628846  1
  I  I60  1  0.17243981  0.66775119  0.16596836  1
  I  I61  1  0.16239409  0.67025248  0.50120347  1
  I  I62  1  0.16798613  0.66486443  0.83322987  1
  I  I63  1  0.49393629  -0.00031629  0.16710608  1
  I  I64  1  0.50483043  0.00287437  0.50067483  1
  I  I65  1  0.49360924  0.00118880  0.83259230  1
  I  I66  1  0.49899459  0.33009723  0.16722733  1
  I  I67  1  0.50385215  0.32806237  0.50067650  1
  I  I68  1  0.49763772  0.32975010  0.83235525  1
  I  I69  1  0.49749019  0.67020563  0.16324166  1
  I  I70  1  0.50106749  0.66687344  0.50067081  1
  I  I71  1  0.49804174  0.66968165  0.83635072  1
  I  I72  1  0.83888858  -0.00004139  0.16976097  1
  I  I73  1  0.83223890  0.00007491  0.50020420  1
  I  I74  1  0.83945464  -0.00007790  0.82996043  1
  I  I75  1  0.83316103  0.33329509  0.17003617  1
  I  I76  1  0.82801995  0.33261216  0.50064271  1
  I  I77  1  0.82946555  0.33325894  0.82975064  1
  I  I78  1  0.82824543  0.66673258  0.17062590  1
  I  I79  1  0.83933089  0.66742546  0.50014020  1
  I  I80  1  0.83336775  0.66673672  0.82956452  1
  I  I81  1  0.17352221  0.16647374  -0.00366323  1
  I  I82  1  0.16748287  0.16924289  0.33328252  1
  I  I83  1  0.17207962  0.17080715  0.66977022  1
  I  I84  1  0.16916025  0.50249704  0.00016573  1
  I  I85  1  0.16554871  0.50236260  0.33090979  1
  I  I86  1  0.16545647  0.49721353  0.66900084  1
  I  I87  1  0.17085673  0.83166196  0.00275079  1
  I  I88  1  0.16882911  0.82821383  0.33269134  1
  I  I89  1  0.16409903  0.83349936  0.66471045  1
  I  I90  1  0.49259826  0.16090724  -0.00043022  1
  I  I91  1  0.50501784  0.16188821  0.33323731  1
  I  I92  1  0.50062061  0.16213670  0.66708523  1
  I  I93  1  0.50185316  0.49600876  0.00007533  1
  I  I94  1  0.49762644  0.50045701  0.33333597  1
  I  I95  1  0.49700048  0.50212111  0.66665041  1
  I  I96  1  0.49147749  0.84305012  0.00075769  1
  I  I97  1  0.49871848  0.83787204  0.33082309  1
  I  I98  1  0.49950217  0.83828360  0.66856956  1
  I  I99  1  0.83357047  0.16676388  0.00000662  1
  I  I100  1  0.82967060  0.16614537  0.33782091  1
  I  I101  1  0.82760458  0.16617730  0.66287440  1
  I  I102  1  0.83144555  0.49955732  0.00009990  1
  I  I103  1  0.83433447  0.50011683  0.33723493  1
  I  I104  1  0.83481358  0.49982564  0.66290416  1
  I  I105  1  0.83670914  0.83362347  0.00001721  1
  I  I106  1  0.83269876  0.83401677  0.33723722  1
  I  I107  1  0.83981514  0.83424738  0.66229919  1
  I  I108  1  0.00024280  0.16681031  0.16692749  1
  I  I109  1  -0.00241927  0.16792022  0.50233067  1
  I  I110  1  0.00284829  0.17066253  0.83099136  1
  I  I111  1  0.00480860  0.50657571  0.16234776  1
  I  I112  1  -0.00292982  0.49486456  0.49999099  1
  I  I113  1  0.00473195  0.49459816  0.83703212  1
  I  I114  1  0.00318926  0.82903535  0.16934602  1
  I  I115  1  0.00022989  0.83518275  0.49536510  1
  I  I116  1  0.00007505  0.83376109  0.83422361  1
  I  I117  1  0.33670605  0.16511696  0.17232088  1
  I  I118  1  0.33613727  0.16348217  0.49922582  1
  I  I119  1  0.33458711  0.16658047  0.82981343  1
  I  I120  1  0.32982438  0.50158946  0.16495407  1
  I  I121  1  0.33286649  0.50040605  0.50021881  1
  I  I122  1  0.32995608  0.49842993  0.83480293  1
  I  I123  1  0.33319172  0.83337968  0.17004882  1
  I  I124  1  0.33109996  0.83485627  0.49920257  1
  I  I125  1  0.33606009  0.83573323  0.83107608  1
  I  I126  1  0.66160366  0.15991832  0.16275063  1
  I  I127  1  0.66623468  0.16393790  0.50182564  1
  I  I128  1  0.66290178  0.16147502  0.83315395  1
  I  I129  1  0.66680992  0.50023497  0.16792681  1
  I  I130  1  0.67024478  0.50656658  0.49997281  1
  I  I131  1  0.66680833  0.49976387  0.83179439  1
  I  I132  1  0.66298264  0.83914110  0.16519611  1
  I  I133  1  0.66900421  0.83279128  0.50076040  1
  I  I134  1  0.66133156  0.84171253  0.83703158  1
