# generated using pymatgen
data_Cs27Sn13Pb14I81
_symmetry_space_group_name_H-M   'P 1'
_cell_length_a   18.97447334
_cell_length_b   18.98301039
_cell_length_c   18.97342755
_cell_angle_alpha   89.99992396
_cell_angle_beta   89.99824848
_cell_angle_gamma   89.99836600
_symmetry_Int_Tables_number   1
_chemical_formula_structural   Cs27Sn13Pb14I81
_chemical_formula_sum   'Cs27 Sn13 Pb14 I81'
_cell_volume   6834.08866036
_cell_formula_units_Z   1
loop_
 _symmetry_equiv_pos_site_id
 _symmetry_equiv_pos_as_xyz
  1  'x, y, z'
loop_
 _atom_site_type_symbol
 _atom_site_label
 _atom_site_symmetry_multiplicity
 _atom_site_fract_x
 _atom_site_fract_y
 _atom_site_fract_z
 _atom_site_occupancy
  Cs  Cs0  1  0.00080464  -0.00040089  -0.00509342  1
  Cs  Cs1  1  -0.00014511  0.00404617  0.33650324  1
  Cs  Cs2  1  -0.00153967  -0.00188710  0.66679847  1
  Cs  Cs3  1  -0.00192829  0.33603498  0.00233121  1
  Cs  Cs4  1  -0.00103472  0.33253032  0.33215581  1
  Cs  Cs5  1  -0.00026792  0.33293555  0.66535469  1
  Cs  Cs6  1  0.00887330  0.66529171  -0.00020710  1
  Cs  Cs7  1  0.00127344  0.66337027  0.33562623  1
  Cs  Cs8  1  -0.00346367  0.66946902  0.66552521  1
  Cs  Cs9  1  0.33153697  -0.00172753  0.00039692  1
  Cs  Cs10  1  0.33369331  -0.00047526  0.33266950  1
  Cs  Cs11  1  0.33389027  0.00376728  0.66733913  1
  Cs  Cs12  1  0.33314223  0.33400708  -0.00853976  1
  Cs  Cs13  1  0.33471379  0.33123915  0.33589196  1
  Cs  Cs14  1  0.34058215  0.33357795  0.67233782  1
  Cs  Cs15  1  0.32592349  0.66741370  0.00244262  1
  Cs  Cs16  1  0.33340168  0.66927799  0.33157835  1
  Cs  Cs17  1  0.33574301  0.66263292  0.66641252  1
  Cs  Cs18  1  0.66676633  -0.00144647  0.00359503  1
  Cs  Cs19  1  0.66630081  -0.00077718  0.33116171  1
  Cs  Cs20  1  0.66797297  -0.00165704  0.66749956  1
  Cs  Cs21  1  0.66953035  0.33350998  0.00168570  1
  Cs  Cs22  1  0.66656496  0.33320331  0.33185617  1
  Cs  Cs23  1  0.66250951  0.33425818  0.66712373  1
  Cs  Cs24  1  0.66557315  0.66876271  0.00176016  1
  Cs  Cs25  1  0.66507658  0.66854055  0.33258794  1
  Cs  Cs26  1  0.66842076  0.66709402  0.66751880  1
  Sn  Sn27  1  0.49978862  0.83329620  0.83259589  1
  Sn  Sn28  1  0.16637679  0.49922731  0.50004496  1
  Sn  Sn29  1  0.49876870  0.16789067  0.16674272  1
  Sn  Sn30  1  0.83325223  0.49946700  0.83276958  1
  Sn  Sn31  1  0.83320395  0.16741217  0.83225482  1
  Sn  Sn32  1  0.16781185  0.83359837  0.50003804  1
  Sn  Sn33  1  0.49927566  0.83354626  0.50102102  1
  Sn  Sn34  1  0.83444156  0.83306697  0.16680367  1
  Sn  Sn35  1  0.83351044  0.16757587  0.50085873  1
  Sn  Sn36  1  0.49970926  0.49894755  0.16670291  1
  Sn  Sn37  1  0.16633939  0.16723886  0.49963948  1
  Sn  Sn38  1  0.83359766  0.49887385  0.50060061  1
  Sn  Sn39  1  0.16771513  0.16687174  0.16707342  1
  Pb  Pb40  1  0.16390961  0.83571797  0.16907589  1
  Pb  Pb41  1  0.50267013  0.16484585  0.83616857  1
  Pb  Pb42  1  0.50231955  0.50215122  0.83591662  1
  Pb  Pb43  1  0.50053492  0.83349398  0.16669107  1
  Pb  Pb44  1  0.83210848  0.83293102  0.83557173  1
  Pb  Pb45  1  0.16942528  0.83334597  0.83028716  1
  Pb  Pb46  1  0.83349962  0.83335825  0.49868789  1
  Pb  Pb47  1  0.16401215  0.49988843  0.83031423  1
  Pb  Pb48  1  0.16426991  0.16681605  0.83271848  1
  Pb  Pb49  1  0.83223612  0.50210675  0.16703316  1
  Pb  Pb50  1  0.83385145  0.16542567  0.16692745  1
  Pb  Pb51  1  0.50026306  0.16474489  0.49863708  1
  Pb  Pb52  1  0.16913628  0.49727497  0.16905097  1
  Pb  Pb53  1  0.50033501  0.50199840  0.49861475  1
  I  I54  1  0.17256742  0.00345797  0.17325916  1
  I  I55  1  0.16584168  0.00083654  0.49554652  1
  I  I56  1  0.16326856  0.00010199  0.83184099  1
  I  I57  1  0.16537230  0.32949534  0.17367439  1
  I  I58  1  0.15962713  0.33263399  0.49447067  1
  I  I59  1  0.16968494  0.33327963  0.83200237  1
  I  I60  1  0.16752864  0.66656267  0.16813193  1
  I  I61  1  0.16543910  0.66645585  0.50074742  1
  I  I62  1  0.16385865  0.66665424  0.83323090  1
  I  I63  1  0.49887264  0.00228473  0.16748763  1
  I  I64  1  0.49767588  -0.00320338  0.49979997  1
  I  I65  1  0.50337596  -0.00283214  0.83092507  1
  I  I66  1  0.49936815  0.33249581  0.16911381  1
  I  I67  1  0.49828943  0.33327958  0.49900623  1
  I  I68  1  0.49961307  0.33333716  0.83320832  1
  I  I69  1  0.50496408  0.66512205  0.16787364  1
  I  I70  1  0.49761697  0.66995513  0.49956484  1
  I  I71  1  0.50420228  0.66974531  0.83063313  1
  I  I72  1  0.82953054  -0.00192711  0.16794367  1
  I  I73  1  0.83626117  0.00262833  0.50184053  1
  I  I74  1  0.83236701  0.00250714  0.83020491  1
  I  I75  1  0.83332768  0.33331750  0.16640179  1
  I  I76  1  0.84058367  0.33303731  0.50198978  1
  I  I77  1  0.83267423  0.33312825  0.83004571  1
  I  I78  1  0.82794475  0.66938210  0.16823973  1
  I  I79  1  0.83591067  0.66416132  0.50218641  1
  I  I80  1  0.83085052  0.66394323  0.82860220  1
  I  I81  1  0.16911714  0.16514793  0.00276576  1
  I  I82  1  0.16395327  0.16580688  0.33493512  1
  I  I83  1  0.16340407  0.16537322  0.66269027  1
  I  I84  1  0.16577775  0.49971782  0.00016292  1
  I  I85  1  0.15947818  0.50236425  0.33726044  1
  I  I86  1  0.16668443  0.49761304  0.66177588  1
  I  I87  1  0.16695314  0.83483251  0.00018672  1
  I  I88  1  0.17297895  0.83170109  0.33724900  1
  I  I89  1  0.16490825  0.83681390  0.66179917  1
  I  I90  1  0.49644697  0.16705793  0.00410416  1
  I  I91  1  0.50203733  0.16647157  0.33062780  1
  I  I92  1  0.49815125  0.16616749  0.66673383  1
  I  I93  1  0.50350344  0.49814223  0.00358347  1
  I  I94  1  0.50307332  0.49926136  0.33087988  1
  I  I95  1  0.49854227  0.50061375  0.66662636  1
  I  I96  1  0.50622627  0.83410044  -0.00165511  1
  I  I97  1  0.49808053  0.83333040  0.33566071  1
  I  I98  1  0.49831338  0.83328426  0.66550146  1
  I  I99  1  0.83207188  0.16852847  -0.00207658  1
  I  I100  1  0.83473692  0.16896895  0.33621227  1
  I  I101  1  0.83867057  0.16839428  0.66517704  1
  I  I102  1  0.82915636  0.49646573  -0.00237599  1
  I  I103  1  0.83610896  0.49687229  0.33663043  1
  I  I104  1  0.83647414  0.49740882  0.66534438  1
  I  I105  1  0.82787920  0.83552062  0.00287210  1
  I  I106  1  0.82950012  0.83456143  0.33137464  1
  I  I107  1  0.83382936  0.83370031  0.66650423  1
  I  I108  1  0.00229291  0.16347408  0.16951743  1
  I  I109  1  0.00010386  0.16476365  0.49726445  1
  I  I110  1  -0.00389158  0.16839572  0.83453765  1
  I  I111  1  0.00026395  0.50029544  0.16515837  1
  I  I112  1  -0.00046301  0.50215829  0.50236337  1
  I  I113  1  -0.00421995  0.49726264  0.83404272  1
  I  I114  1  -0.00337769  0.83439239  0.16770694  1
  I  I115  1  0.00242774  0.83377569  0.49633286  1
  I  I116  1  -0.00000524  0.83375452  0.83393030  1
  I  I117  1  0.33315696  0.16818623  0.17447635  1
  I  I118  1  0.33045271  0.16751844  0.49621015  1
  I  I119  1  0.33353895  0.16503593  0.83151861  1
  I  I120  1  0.33685299  0.50171332  0.16907686  1
  I  I121  1  0.33064189  0.49866005  0.49633653  1
  I  I122  1  0.33348948  0.50142762  0.83283865  1
  I  I123  1  0.33286566  0.83228401  0.16557190  1
  I  I124  1  0.33285780  0.83353052  0.50195237  1
  I  I125  1  0.33730941  0.83383519  0.83453235  1
  I  I126  1  0.66483433  0.16702806  0.16678341  1
  I  I127  1  0.66972483  0.16914493  0.50117961  1
  I  I128  1  0.67052830  0.16930807  0.82832938  1
  I  I129  1  0.66438610  0.49500380  0.16928756  1
  I  I130  1  0.66980664  0.49726604  0.50172756  1
  I  I131  1  0.67020981  0.49676795  0.82617020  1
  I  I132  1  0.66822984  0.83616776  0.16969859  1
  I  I133  1  0.66466967  0.83332554  0.50051456  1
  I  I134  1  0.66436204  0.83375901  0.82726612  1
