# generated using pymatgen
data_Cs27Sn14Pb13I81
_symmetry_space_group_name_H-M   'P 1'
_cell_length_a   18.96113033
_cell_length_b   18.95546687
_cell_length_c   18.96639095
_cell_angle_alpha   90.00208074
_cell_angle_beta   90.00105529
_cell_angle_gamma   89.99888757
_symmetry_Int_Tables_number   1
_chemical_formula_structural   Cs27Sn14Pb13I81
_chemical_formula_sum   'Cs27 Sn14 Pb13 I81'
_cell_volume   6816.84480347
_cell_formula_units_Z   1
loop_
 _symmetry_equiv_pos_site_id
 _symmetry_equiv_pos_as_xyz
  1  'x, y, z'
loop_
 _atom_site_type_symbol
 _atom_site_label
 _atom_site_symmetry_multiplicity
 _atom_site_fract_x
 _atom_site_fract_y
 _atom_site_fract_z
 _atom_site_occupancy
  Cs  Cs0  1  0.00193056  -0.00071997  -0.00058305  1
  Cs  Cs1  1  -0.00157896  -0.00164618  0.33450029  1
  Cs  Cs2  1  0.00290353  0.00188208  0.66595004  1
  Cs  Cs3  1  -0.00178883  0.33386566  -0.00025347  1
  Cs  Cs4  1  0.00136788  0.33308623  0.33278514  1
  Cs  Cs5  1  -0.00077327  0.33117938  0.66695204  1
  Cs  Cs6  1  0.00147175  0.66563583  0.00244300  1
  Cs  Cs7  1  0.00242479  0.67052096  0.32995534  1
  Cs  Cs8  1  -0.00275421  0.66667963  0.66748829  1
  Cs  Cs9  1  0.33415619  -0.00769554  0.00052147  1
  Cs  Cs10  1  0.33711509  0.00098945  0.32882966  1
  Cs  Cs11  1  0.32757808  -0.00104009  0.66978575  1
  Cs  Cs12  1  0.33718423  0.33320424  0.00074639  1
  Cs  Cs13  1  0.33129374  0.33525945  0.33514350  1
  Cs  Cs14  1  0.33221948  0.33275282  0.66381094  1
  Cs  Cs15  1  0.32969959  0.67159728  -0.00001781  1
  Cs  Cs16  1  0.32906159  0.66510575  0.33760429  1
  Cs  Cs17  1  0.33803162  0.66835674  0.66412857  1
  Cs  Cs18  1  0.66364873  0.00217463  0.00263079  1
  Cs  Cs19  1  0.66533250  -0.00296120  0.33208351  1
  Cs  Cs20  1  0.66781229  0.00062430  0.66584428  1
  Cs  Cs21  1  0.66740676  0.33310309  -0.00057012  1
  Cs  Cs22  1  0.66654259  0.33160871  0.33189510  1
  Cs  Cs23  1  0.66786282  0.33385131  0.66815017  1
  Cs  Cs24  1  0.66840085  0.66215670  -0.00294605  1
  Cs  Cs25  1  0.66682025  0.67262085  0.33791974  1
  Cs  Cs26  1  0.66490932  0.66703154  0.66555102  1
  Sn  Sn27  1  0.50076673  0.16698945  0.50114298  1
  Sn  Sn28  1  0.50057614  0.16739229  0.83237325  1
  Sn  Sn29  1  0.83338664  0.49940725  0.49963020  1
  Sn  Sn30  1  0.83445698  0.16738749  0.16659444  1
  Sn  Sn31  1  0.16701689  0.49953905  0.83299944  1
  Sn  Sn32  1  0.83234360  0.49928110  0.16712057  1
  Sn  Sn33  1  0.49987598  0.49901849  0.83407016  1
  Sn  Sn34  1  0.83326492  0.49986930  0.83327271  1
  Sn  Sn35  1  0.83307912  0.83376221  0.83366373  1
  Sn  Sn36  1  0.83277240  0.16645655  0.83346204  1
  Sn  Sn37  1  0.83253710  0.16748383  0.49992357  1
  Sn  Sn38  1  0.50085621  0.49993733  0.16627360  1
  Sn  Sn39  1  0.16594042  0.16699173  0.16621901  1
  Sn  Sn40  1  0.16651561  0.83343225  0.50013446  1
  Pb  Pb41  1  0.16642956  0.83607059  0.16878140  1
  Pb  Pb42  1  0.50035580  0.82882582  0.16656918  1
  Pb  Pb43  1  0.16379773  0.50159182  0.50234877  1
  Pb  Pb44  1  0.50239339  0.83337983  0.83341015  1
  Pb  Pb45  1  0.83441833  0.83382534  0.50201956  1
  Pb  Pb46  1  0.16425433  0.83056539  0.83178573  1
  Pb  Pb47  1  0.16653122  0.49840719  0.16474169  1
  Pb  Pb48  1  0.83303118  0.83321372  0.16404228  1
  Pb  Pb49  1  0.50057180  0.16820359  0.16622698  1
  Pb  Pb50  1  0.49759938  0.83679493  0.50033945  1
  Pb  Pb51  1  0.50225352  0.49817602  0.50013209  1
  Pb  Pb52  1  0.16712916  0.16832266  0.83526369  1
  Pb  Pb53  1  0.16651576  0.16538585  0.49804074  1
  I  I54  1  0.16053402  0.00421362  0.16556185  1
  I  I55  1  0.16371454  -0.00207596  0.50076206  1
  I  I56  1  0.16593397  0.00005837  0.83368244  1
  I  I57  1  0.16339488  0.33058077  0.16780529  1
  I  I58  1  0.16752315  0.33328693  0.49961950  1
  I  I59  1  0.16103395  0.33633974  0.83305949  1
  I  I60  1  0.16660936  0.66642340  0.16633501  1
  I  I61  1  0.16433299  0.66911085  0.50073413  1
  I  I62  1  0.16576499  0.66247477  0.83414375  1
  I  I63  1  0.49937109  0.00038448  0.16658438  1
  I  I64  1  0.50759583  0.00504480  0.50459667  1
  I  I65  1  0.50470054  0.00364731  0.82974249  1
  I  I66  1  0.50238008  0.33618780  0.16403525  1
  I  I67  1  0.50116836  0.32999705  0.50174121  1
  I  I68  1  0.50543313  0.33373308  0.83356267  1
  I  I69  1  0.50632184  0.66074298  0.15972222  1
  I  I70  1  0.50074556  0.66639309  0.49976185  1
  I  I71  1  0.50140720  0.66288873  0.83738548  1
  I  I72  1  0.83713168  0.00370392  0.16696023  1
  I  I73  1  0.83163681  0.00364848  0.50040642  1
  I  I74  1  0.82961127  0.00181726  0.83253017  1
  I  I75  1  0.83362776  0.33335547  0.16280343  1
  I  I76  1  0.83118551  0.33264179  0.50411325  1
  I  I77  1  0.83282506  0.33365681  0.83337518  1
  I  I78  1  0.82982607  0.66282127  0.16614985  1
  I  I79  1  0.83521009  0.66382913  0.50105818  1
  I  I80  1  0.83364394  0.66448400  0.83295461  1
  I  I81  1  0.16102203  0.16878637  0.00289232  1
  I  I82  1  0.16251325  0.16707803  0.33028210  1
  I  I83  1  0.16463209  0.16618389  0.66678014  1
  I  I84  1  0.16126967  0.49910907  -0.00320363  1
  I  I85  1  0.16709422  0.50062843  0.33333285  1
  I  I86  1  0.16592288  0.49888280  0.67041507  1
  I  I87  1  0.16606709  0.83314877  -0.00016553  1
  I  I88  1  0.16378160  0.83207925  0.33634603  1
  I  I89  1  0.16494425  0.83562778  0.66433287  1
  I  I90  1  0.50389377  0.16977488  -0.00292151  1
  I  I91  1  0.50260106  0.16782632  0.33528484  1
  I  I92  1  0.50767265  0.17213557  0.66786525  1
  I  I93  1  0.50558055  0.49356666  -0.00157317  1
  I  I94  1  0.50440550  0.49726524  0.33090164  1
  I  I95  1  0.50134415  0.49845869  0.66990366  1
  I  I96  1  0.49907183  0.83955761  -0.00027370  1
  I  I97  1  0.50082349  0.83490189  0.33355146  1
  I  I98  1  0.50028902  0.82831881  0.66690209  1
  I  I99  1  0.83346443  0.16952090  -0.00072804  1
  I  I100  1  0.83382388  0.17342086  0.33345124  1
  I  I101  1  0.82952428  0.16943059  0.66728497  1
  I  I102  1  0.83282904  0.49787066  -0.00092240  1
  I  I103  1  0.82933859  0.49256560  0.33272014  1
  I  I104  1  0.83394096  0.49786075  0.66795216  1
  I  I105  1  0.83423093  0.83235506  -0.00403992  1
  I  I106  1  0.83520475  0.83271525  0.33348411  1
  I  I107  1  0.83451833  0.83188821  0.66993802  1
  I  I108  1  -0.00276717  0.17219039  0.16669486  1
  I  I109  1  -0.00355292  0.16893167  0.50283490  1
  I  I110  1  -0.00348997  0.16828551  0.83096161  1
  I  I111  1  -0.00348943  0.49788878  0.16506214  1
  I  I112  1  -0.00461742  0.49359191  0.50071159  1
  I  I113  1  -0.00228159  0.49989352  0.83330077  1
  I  I114  1  -0.00034029  0.82931334  0.16610579  1
  I  I115  1  0.00190651  0.83497088  0.50184049  1
  I  I116  1  -0.00379954  0.83399433  0.83225900  1
  I  I117  1  0.33189411  0.16889789  0.16767960  1
  I  I118  1  0.33602693  0.16510037  0.50313239  1
  I  I119  1  0.33646257  0.17235543  0.83005529  1
  I  I120  1  0.33595301  0.49703214  0.16144919  1
  I  I121  1  0.33347206  0.49952979  0.50000960  1
  I  I122  1  0.33475286  0.49468066  0.83807774  1
  I  I123  1  0.33324141  0.83573244  0.16608438  1
  I  I124  1  0.33007171  0.83307049  0.50095005  1
  I  I125  1  0.33325122  0.83341320  0.83235395  1
  I  I126  1  0.66998043  0.16919353  0.16615456  1
  I  I127  1  0.66841633  0.17021025  0.49966520  1
  I  I128  1  0.66819715  0.17080230  0.83431075  1
  I  I129  1  0.66839586  0.49342902  0.16068404  1
  I  I130  1  0.67064995  0.49897346  0.50447304  1
  I  I131  1  0.66793922  0.49938714  0.83446850  1
  I  I132  1  0.66704924  0.83932688  0.16798759  1
  I  I133  1  0.66677166  0.83164202  0.50110790  1
  I  I134  1  0.67048928  0.82888003  0.83167425  1
