# generated using pymatgen
data_Cs27Sn13Pb14I81
_symmetry_space_group_name_H-M   'P 1'
_cell_length_a   19.00041344
_cell_length_b   18.98978336
_cell_length_c   18.98432446
_cell_angle_alpha   90.00218599
_cell_angle_beta   90.00018858
_cell_angle_gamma   89.99883437
_symmetry_Int_Tables_number   1
_chemical_formula_structural   Cs27Sn13Pb14I81
_chemical_formula_sum   'Cs27 Sn13 Pb14 I81'
_cell_volume   6849.80500957
_cell_formula_units_Z   1
loop_
 _symmetry_equiv_pos_site_id
 _symmetry_equiv_pos_as_xyz
  1  'x, y, z'
loop_
 _atom_site_type_symbol
 _atom_site_label
 _atom_site_symmetry_multiplicity
 _atom_site_fract_x
 _atom_site_fract_y
 _atom_site_fract_z
 _atom_site_occupancy
  Cs  Cs0  1  -0.00183053  0.00207556  0.00367567  1
  Cs  Cs1  1  0.00853764  0.00836011  0.32568266  1
  Cs  Cs2  1  0.00070743  -0.00311998  0.66653083  1
  Cs  Cs3  1  0.00135300  0.33625210  -0.00058235  1
  Cs  Cs4  1  -0.00189743  0.32775910  0.33426274  1
  Cs  Cs5  1  -0.00166062  0.33613523  0.66675307  1
  Cs  Cs6  1  -0.00133594  0.66270962  -0.00240517  1
  Cs  Cs7  1  0.00312045  0.66702439  0.33391537  1
  Cs  Cs8  1  -0.00053221  0.66658027  0.66817163  1
  Cs  Cs9  1  0.33515100  0.00236109  0.00094463  1
  Cs  Cs10  1  0.31980395  -0.00007566  0.33185210  1
  Cs  Cs11  1  0.33544516  0.00028694  0.66515800  1
  Cs  Cs12  1  0.33446954  0.33404614  -0.00094730  1
  Cs  Cs13  1  0.33659683  0.33362898  0.33517068  1
  Cs  Cs14  1  0.33610205  0.32984048  0.66686976  1
  Cs  Cs15  1  0.33530655  0.66442401  0.00051940  1
  Cs  Cs16  1  0.33485889  0.66683604  0.33047945  1
  Cs  Cs17  1  0.33060485  0.66889745  0.66871362  1
  Cs  Cs18  1  0.66759838  0.00002194  0.00003827  1
  Cs  Cs19  1  0.67224298  -0.00018379  0.32768376  1
  Cs  Cs20  1  0.66424480  -0.00289480  0.66920652  1
  Cs  Cs21  1  0.66528352  0.33266691  -0.00064856  1
  Cs  Cs22  1  0.66565636  0.33489573  0.34421574  1
  Cs  Cs23  1  0.66516690  0.33090501  0.65980314  1
  Cs  Cs24  1  0.66652509  0.66695354  0.00132672  1
  Cs  Cs25  1  0.66185401  0.66442350  0.33285967  1
  Cs  Cs26  1  0.66791003  0.66927245  0.66612012  1
  Sn  Sn27  1  0.50006963  0.83229258  0.83297104  1
  Sn  Sn28  1  0.16564738  0.16561197  0.83325540  1
  Sn  Sn29  1  0.50036191  0.16666918  0.16698416  1
  Sn  Sn30  1  0.83312333  0.83357094  0.50000291  1
  Sn  Sn31  1  0.16582874  0.50004023  0.16810567  1
  Sn  Sn32  1  0.83341122  0.83343570  0.83299508  1
  Sn  Sn33  1  0.83174559  0.49971805  0.83370654  1
  Sn  Sn34  1  0.50067728  0.83376414  0.50025619  1
  Sn  Sn35  1  0.83407319  0.16675472  0.83317658  1
  Sn  Sn36  1  0.83363500  0.50001198  0.16652070  1
  Sn  Sn37  1  0.16654179  0.83454347  0.83365775  1
  Sn  Sn38  1  0.16658428  0.50006734  0.49894413  1
  Sn  Sn39  1  0.50149706  0.50064022  0.83305050  1
  Pb  Pb40  1  0.16652466  0.16934946  0.50295026  1
  Pb  Pb41  1  0.16631963  0.83190355  0.50192297  1
  Pb  Pb42  1  0.83337367  0.16304173  0.50264417  1
  Pb  Pb43  1  0.49780690  0.50238135  0.50299701  1
  Pb  Pb44  1  0.83345475  0.83104445  0.16684481  1
  Pb  Pb45  1  0.50050099  0.16623334  0.83394384  1
  Pb  Pb46  1  0.50004847  0.16268253  0.49680719  1
  Pb  Pb47  1  0.49999428  0.83546386  0.16682060  1
  Pb  Pb48  1  0.16823459  0.16957787  0.16400142  1
  Pb  Pb49  1  0.83150675  0.16982722  0.16445738  1
  Pb  Pb50  1  0.50064124  0.49844786  0.16484478  1
  Pb  Pb51  1  0.83480926  0.50220870  0.50021425  1
  Pb  Pb52  1  0.16662866  0.49997272  0.83336949  1
  Pb  Pb53  1  0.16644136  0.83077077  0.16339937  1
  I  I54  1  0.16820724  0.00030938  0.16784517  1
  I  I55  1  0.16742214  -0.00015221  0.49970604  1
  I  I56  1  0.16449596  -0.00082476  0.83235945  1
  I  I57  1  0.16271535  0.33718188  0.16591787  1
  I  I58  1  0.16610283  0.33726253  0.49919646  1
  I  I59  1  0.16413297  0.33154555  0.83398401  1
  I  I60  1  0.16463270  0.66281028  0.16711213  1
  I  I61  1  0.16642492  0.66410475  0.50004324  1
  I  I62  1  0.16500485  0.66888171  0.83294079  1
  I  I63  1  0.50067975  0.00281377  0.16137916  1
  I  I64  1  0.50319844  -0.00477674  0.51142331  1
  I  I65  1  0.50161004  -0.00318718  0.83136490  1
  I  I66  1  0.49868298  0.33120042  0.16001021  1
  I  I67  1  0.49823955  0.33330397  0.50148347  1
  I  I68  1  0.50084892  0.33555647  0.83698996  1
  I  I69  1  0.49938945  0.66659651  0.16678878  1
  I  I70  1  0.50397540  0.67000301  0.50223578  1
  I  I71  1  0.50147558  0.66742161  0.83171074  1
  I  I72  1  0.83132361  0.00025890  0.16550043  1
  I  I73  1  0.82878204  -0.00490895  0.50780532  1
  I  I74  1  0.83332163  -0.00093130  0.82840679  1
  I  I75  1  0.83791009  0.33749647  0.15903640  1
  I  I76  1  0.83483422  0.33339524  0.50097080  1
  I  I77  1  0.83491033  0.33412807  0.83964858  1
  I  I78  1  0.83583812  0.66320559  0.15816888  1
  I  I79  1  0.83062241  0.66971949  0.50847574  1
  I  I80  1  0.83371811  0.66681988  0.83355458  1
  I  I81  1  0.16334249  0.16499578  -0.00382196  1
  I  I82  1  0.16838262  0.16500098  0.33311085  1
  I  I83  1  0.16490416  0.16568950  0.67115498  1
  I  I84  1  0.16558324  0.50008832  0.00149929  1
  I  I85  1  0.16119041  0.50174929  0.33259262  1
  I  I86  1  0.16680378  0.50105571  0.66541194  1
  I  I87  1  0.16661755  0.83429256  -0.00517417  1
  I  I88  1  0.16768673  0.83326191  0.33339006  1
  I  I89  1  0.16653201  0.83251109  0.67048478  1
  I  I90  1  0.49921426  0.16596907  0.00119521  1
  I  I91  1  0.50036024  0.16967061  0.32951853  1
  I  I92  1  0.49918114  0.16935169  0.66664111  1
  I  I93  1  0.49829842  0.50599614  -0.00342760  1
  I  I94  1  0.50141378  0.50030601  0.33353371  1
  I  I95  1  0.50404206  0.49992720  0.67113798  1
  I  I96  1  0.50083831  0.83036694  -0.00368607  1
  I  I97  1  0.50629536  0.83360870  0.33655896  1
  I  I98  1  0.50086315  0.82950637  0.66893444  1
  I  I99  1  0.83633420  0.16111339  -0.00409637  1
  I  I100  1  0.83154266  0.16655747  0.33319635  1
  I  I101  1  0.83573496  0.17377266  0.67146194  1
  I  I102  1  0.83658010  0.50254156  -0.00212859  1
  I  I103  1  0.83621825  0.50258497  0.33081941  1
  I  I104  1  0.83251225  0.49891884  0.67028784  1
  I  I105  1  0.83232203  0.83461429  -0.00393685  1
  I  I106  1  0.82564318  0.82877895  0.33646294  1
  I  I107  1  0.83268569  0.83070544  0.66931920  1
  I  I108  1  -0.00007952  0.16567846  0.16689110  1
  I  I109  1  -0.00004940  0.16426868  0.49775723  1
  I  I110  1  -0.00056764  0.16449755  0.83405310  1
  I  I111  1  -0.00039225  0.50102687  0.16115476  1
  I  I112  1  0.00242065  0.50399986  0.50320745  1
  I  I113  1  -0.00250952  0.50252663  0.83407181  1
  I  I114  1  -0.00001180  0.83523882  0.16690404  1
  I  I115  1  -0.00261966  0.82928207  0.50794854  1
  I  I116  1  -0.00096453  0.83193351  0.82911689  1
  I  I117  1  0.33556233  0.16815028  0.16178493  1
  I  I118  1  0.33330735  0.16529293  0.50363698  1
  I  I119  1  0.33139805  0.16524418  0.83559666  1
  I  I120  1  0.33113173  0.49873824  0.16712856  1
  I  I121  1  0.33025007  0.50281061  0.49617820  1
  I  I122  1  0.33521324  0.50323959  0.83357603  1
  I  I123  1  0.33324180  0.83082865  0.16581526  1
  I  I124  1  0.33571352  0.83131250  0.50625794  1
  I  I125  1  0.33386687  0.83183023  0.82962915  1
  I  I126  1  0.66427936  0.16721452  0.16107101  1
  I  I127  1  0.66668651  0.17169302  0.50225605  1
  I  I128  1  0.66939127  0.16480258  0.83621926  1
  I  I129  1  0.66941915  0.49971694  0.16112768  1
  I  I130  1  0.66657687  0.49914480  0.49748687  1
  I  I131  1  0.66785056  0.50322669  0.83998557  1
  I  I132  1  0.66669962  0.83150345  0.16186811  1
  I  I133  1  0.66679842  0.83194677  0.51099292  1
  I  I134  1  0.66700005  0.83257348  0.82957003  1
