# generated using pymatgen
data_Cs27Sn13Pb14I81
_symmetry_space_group_name_H-M   'P 1'
_cell_length_a   18.97393592
_cell_length_b   18.98559326
_cell_length_c   18.97580763
_cell_angle_alpha   90.00181532
_cell_angle_beta   90.00160500
_cell_angle_gamma   90.00048217
_symmetry_Int_Tables_number   1
_chemical_formula_structural   Cs27Sn13Pb14I81
_chemical_formula_sum   'Cs27 Sn13 Pb14 I81'
_cell_volume   6835.68231259
_cell_formula_units_Z   1
loop_
 _symmetry_equiv_pos_site_id
 _symmetry_equiv_pos_as_xyz
  1  'x, y, z'
loop_
 _atom_site_type_symbol
 _atom_site_label
 _atom_site_symmetry_multiplicity
 _atom_site_fract_x
 _atom_site_fract_y
 _atom_site_fract_z
 _atom_site_occupancy
  Cs  Cs0  1  -0.00105190  -0.00070615  0.00177249  1
  Cs  Cs1  1  -0.00191620  -0.00300755  0.32878793  1
  Cs  Cs2  1  0.00225566  0.00063420  0.66761712  1
  Cs  Cs3  1  -0.00117879  0.33479814  -0.00081482  1
  Cs  Cs4  1  0.00164910  0.33543383  0.33381176  1
  Cs  Cs5  1  -0.00396088  0.33616117  0.66725414  1
  Cs  Cs6  1  0.00050098  0.66591414  0.00030102  1
  Cs  Cs7  1  -0.00154325  0.66673565  0.33223596  1
  Cs  Cs8  1  -0.00087080  0.66386494  0.66698090  1
  Cs  Cs9  1  0.33164008  -0.00134463  -0.00335692  1
  Cs  Cs10  1  0.33576909  -0.00041531  0.33505882  1
  Cs  Cs11  1  0.33288659  -0.00005529  0.66762619  1
  Cs  Cs12  1  0.33328088  0.33437281  -0.00011268  1
  Cs  Cs13  1  0.33281742  0.33431309  0.33374935  1
  Cs  Cs14  1  0.33161747  0.33382830  0.66659154  1
  Cs  Cs15  1  0.33446099  0.66655549  -0.00028300  1
  Cs  Cs16  1  0.33401603  0.66539379  0.33130907  1
  Cs  Cs17  1  0.33246126  0.66590050  0.66816221  1
  Cs  Cs18  1  0.67156789  0.00302393  0.00220599  1
  Cs  Cs19  1  0.66833915  0.00141009  0.33543485  1
  Cs  Cs20  1  0.66602432  -0.00003674  0.66234869  1
  Cs  Cs21  1  0.66759301  0.33032133  0.00348207  1
  Cs  Cs22  1  0.66594614  0.32625678  0.33115011  1
  Cs  Cs23  1  0.67445744  0.33322692  0.66536858  1
  Cs  Cs24  1  0.66111087  0.66706586  0.00086377  1
  Cs  Cs25  1  0.66732987  0.67254100  0.33408931  1
  Cs  Cs26  1  0.66784260  0.66725396  0.66480350  1
  Sn  Sn27  1  0.49939180  0.49984383  0.50085036  1
  Sn  Sn28  1  0.49931025  0.16683314  0.83308889  1
  Sn  Sn29  1  0.83372803  0.50020056  0.16676202  1
  Sn  Sn30  1  0.83345064  0.83315691  0.83319857  1
  Sn  Sn31  1  0.16595678  0.49933380  0.16727879  1
  Sn  Sn32  1  0.16679154  0.83306572  0.50076461  1
  Sn  Sn33  1  0.16730496  0.50015201  0.49934111  1
  Sn  Sn34  1  0.49988245  0.49945321  0.83211106  1
  Sn  Sn35  1  0.50026508  0.83375550  0.83316304  1
  Sn  Sn36  1  0.16718790  0.16631666  0.83332492  1
  Sn  Sn37  1  0.16705594  0.16747807  0.16647645  1
  Sn  Sn38  1  0.16681594  0.16666773  0.50005132  1
  Sn  Sn39  1  0.16647051  0.83380445  0.83253142  1
  Pb  Pb40  1  0.83594806  0.83332227  0.50218261  1
  Pb  Pb41  1  0.16696083  0.83322388  0.16664003  1
  Pb  Pb42  1  0.49731808  0.16647907  0.16457028  1
  Pb  Pb43  1  0.83601322  0.16868411  0.16666421  1
  Pb  Pb44  1  0.83620331  0.16656091  0.49996649  1
  Pb  Pb45  1  0.83337299  0.83115451  0.16458383  1
  Pb  Pb46  1  0.49991605  0.83381260  0.16470513  1
  Pb  Pb47  1  0.16777397  0.49987359  0.83339718  1
  Pb  Pb48  1  0.49976665  0.49999888  0.16734454  1
  Pb  Pb49  1  0.49775497  0.83141012  0.50203323  1
  Pb  Pb50  1  0.82985426  0.50209155  0.83540059  1
  Pb  Pb51  1  0.83294000  0.50003051  0.49766478  1
  Pb  Pb52  1  0.83359663  0.16451897  0.83319482  1
  Pb  Pb53  1  0.49795813  0.16889679  0.50237056  1
  I  I54  1  0.16795617  0.00295594  0.16738837  1
  I  I55  1  0.16541470  0.00019306  0.50229893  1
  I  I56  1  0.17082366  -0.00011680  0.83109155  1
  I  I57  1  0.16352272  0.33378962  0.16856840  1
  I  I58  1  0.17082968  0.33366302  0.49920632  1
  I  I59  1  0.17171039  0.33067203  0.83215048  1
  I  I60  1  0.16375473  0.66358555  0.16899002  1
  I  I61  1  0.17011888  0.66613644  0.50094022  1
  I  I62  1  0.16797436  0.66930569  0.83106157  1
  I  I63  1  0.49707336  0.00026959  0.16493724  1
  I  I64  1  0.49796336  0.00008676  0.50158228  1
  I  I65  1  0.49670656  -0.00015897  0.83541337  1
  I  I66  1  0.50141077  0.33351010  0.16202293  1
  I  I67  1  0.49269261  0.33692612  0.50560529  1
  I  I68  1  0.49221996  0.33322292  0.83095831  1
  I  I69  1  0.49663903  0.66628223  0.16226179  1
  I  I70  1  0.49300457  0.66330582  0.50587739  1
  I  I71  1  0.49885669  0.66681532  0.83062193  1
  I  I72  1  0.83525063  0.00002859  0.16464343  1
  I  I73  1  0.83400174  -0.00019423  0.50038444  1
  I  I74  1  0.83117522  -0.00344442  0.83410911  1
  I  I75  1  0.83556711  0.33668243  0.16459656  1
  I  I76  1  0.83604675  0.33365171  0.50190073  1
  I  I77  1  0.83390143  0.33347435  0.83436690  1
  I  I78  1  0.84205269  0.66325546  0.16594328  1
  I  I79  1  0.83691398  0.66654955  0.50047130  1
  I  I80  1  0.83672035  0.66985775  0.83416897  1
  I  I81  1  0.17048181  0.16674563  -0.00087699  1
  I  I82  1  0.16494427  0.16853487  0.33373169  1
  I  I83  1  0.17105458  0.16520135  0.66720113  1
  I  I84  1  0.16524668  0.49746085  0.00221736  1
  I  I85  1  0.16863434  0.49728552  0.33405076  1
  I  I86  1  0.16955223  0.49861875  0.66410169  1
  I  I87  1  0.16752697  0.83589549  -0.00361007  1
  I  I88  1  0.16656453  0.83500046  0.33645404  1
  I  I89  1  0.16724448  0.83578004  0.66790696  1
  I  I90  1  0.49361988  0.16945229  -0.00448401  1
  I  I91  1  0.49834350  0.17028898  0.33376227  1
  I  I92  1  0.49255412  0.16386050  0.67082058  1
  I  I93  1  0.49893886  0.50146860  -0.00301048  1
  I  I94  1  0.49636342  0.50018989  0.33643746  1
  I  I95  1  0.49209030  0.50111692  0.66740207  1
  I  I96  1  0.49481575  0.82849548  -0.00539327  1
  I  I97  1  0.49738424  0.82932404  0.33416454  1
  I  I98  1  0.50035592  0.83488783  0.67098719  1
  I  I99  1  0.83590024  0.16683932  -0.00022315  1
  I  I100  1  0.83386013  0.16679987  0.33314387  1
  I  I101  1  0.83656752  0.16842206  0.66701200  1
  I  I102  1  0.84123712  0.50082958  0.00280422  1
  I  I103  1  0.83603206  0.50040604  0.33002440  1
  I  I104  1  0.83594196  0.50086104  0.66673601  1
  I  I105  1  0.83683595  0.83312545  -0.00397509  1
  I  I106  1  0.83587096  0.83197613  0.33342861  1
  I  I107  1  0.83149633  0.83167382  0.67061948  1
  I  I108  1  0.00481948  0.16801384  0.16331948  1
  I  I109  1  0.00583692  0.17048954  0.50449796  1
  I  I110  1  0.00395063  0.16218667  0.83328794  1
  I  I111  1  0.00241707  0.49660137  0.17104298  1
  I  I112  1  0.00369887  0.49953395  0.49832479  1
  I  I113  1  -0.00002405  0.50057069  0.83160047  1
  I  I114  1  0.00055575  0.83452120  0.16298807  1
  I  I115  1  0.00489089  0.83065270  0.50623518  1
  I  I116  1  0.00175153  0.83787650  0.83008983  1
  I  I117  1  0.32864683  0.17469516  0.16792990  1
  I  I118  1  0.32897240  0.16513716  0.49877600  1
  I  I119  1  0.33191011  0.16203107  0.83377872  1
  I  I120  1  0.33010232  0.49630505  0.16765819  1
  I  I121  1  0.33138809  0.50008238  0.49862760  1
  I  I122  1  0.33577287  0.50419329  0.83469703  1
  I  I123  1  0.33273716  0.82940236  0.16297462  1
  I  I124  1  0.32910912  0.83515753  0.50641826  1
  I  I125  1  0.33265650  0.83437123  0.82995826  1
  I  I126  1  0.66667035  0.16924292  0.16339709  1
  I  I127  1  0.66610069  0.16923870  0.50221528  1
  I  I128  1  0.66338738  0.16675128  0.83389702  1
  I  I129  1  0.66891573  0.50239374  0.16322465  1
  I  I130  1  0.66343579  0.50100952  0.50493328  1
  I  I131  1  0.66169076  0.49973724  0.82919405  1
  I  I132  1  0.66678919  0.82870629  0.16363138  1
  I  I133  1  0.66637713  0.82964020  0.50203995  1
  I  I134  1  0.66564621  0.83105240  0.83616892  1
