# generated using pymatgen
data_Cs27Sn13Pb14I81
_symmetry_space_group_name_H-M   'P 1'
_cell_length_a   18.98615405
_cell_length_b   18.97299875
_cell_length_c   18.97319370
_cell_angle_alpha   90.00218647
_cell_angle_beta   89.99938245
_cell_angle_gamma   90.00210590
_symmetry_Int_Tables_number   1
_chemical_formula_structural   Cs27Sn13Pb14I81
_chemical_formula_sum   'Cs27 Sn13 Pb14 I81'
_cell_volume   6834.60497583
_cell_formula_units_Z   1
loop_
 _symmetry_equiv_pos_site_id
 _symmetry_equiv_pos_as_xyz
  1  'x, y, z'
loop_
 _atom_site_type_symbol
 _atom_site_label
 _atom_site_symmetry_multiplicity
 _atom_site_fract_x
 _atom_site_fract_y
 _atom_site_fract_z
 _atom_site_occupancy
  Cs  Cs0  1  -0.00169866  0.00032146  -0.00387594  1
  Cs  Cs1  1  -0.00060119  -0.00046635  0.33490469  1
  Cs  Cs2  1  -0.00087734  0.00000691  0.66849302  1
  Cs  Cs3  1  0.00416652  0.33962737  0.00391190  1
  Cs  Cs4  1  0.00284707  0.33174715  0.33246979  1
  Cs  Cs5  1  -0.00062702  0.32935026  0.66553665  1
  Cs  Cs6  1  0.00105545  0.65903104  0.00356607  1
  Cs  Cs7  1  0.00047148  0.66704326  0.33365132  1
  Cs  Cs8  1  0.00032301  0.66952140  0.66418787  1
  Cs  Cs9  1  0.33263406  0.00201503  0.00064400  1
  Cs  Cs10  1  0.33565903  0.00424231  0.32938160  1
  Cs  Cs11  1  0.33209065  -0.00176572  0.66876784  1
  Cs  Cs12  1  0.32494336  0.33568352  0.00188568  1
  Cs  Cs13  1  0.33405914  0.32846771  0.33047876  1
  Cs  Cs14  1  0.33352995  0.33251191  0.66809422  1
  Cs  Cs15  1  0.33133995  0.66448913  -0.00257001  1
  Cs  Cs16  1  0.33417313  0.66731161  0.33573901  1
  Cs  Cs17  1  0.33488205  0.66791797  0.66471065  1
  Cs  Cs18  1  0.66691148  -0.00032346  0.00067678  1
  Cs  Cs19  1  0.66463273  0.00154031  0.32899041  1
  Cs  Cs20  1  0.66792029  -0.00000994  0.66788266  1
  Cs  Cs21  1  0.66930511  0.33436328  -0.00527256  1
  Cs  Cs22  1  0.66385106  0.33060067  0.33586292  1
  Cs  Cs23  1  0.66695402  0.33239677  0.66858022  1
  Cs  Cs24  1  0.66863891  0.66514400  0.00243878  1
  Cs  Cs25  1  0.66601307  0.66780124  0.33263289  1
  Cs  Cs26  1  0.66531337  0.66663998  0.66577481  1
  Sn  Sn27  1  0.16662164  0.83345169  0.16731458  1
  Sn  Sn28  1  0.83248899  0.16598109  0.83461146  1
  Sn  Sn29  1  0.83311339  0.50069080  0.50008029  1
  Sn  Sn30  1  0.83280068  0.83275895  0.50039883  1
  Sn  Sn31  1  0.83238449  0.83337133  0.83293376  1
  Sn  Sn32  1  0.50027087  0.83313539  0.50031984  1
  Sn  Sn33  1  0.16696088  0.83310612  0.49869804  1
  Sn  Sn34  1  0.50050970  0.16589901  0.83332170  1
  Sn  Sn35  1  0.49996411  0.50058848  0.49892681  1
  Sn  Sn36  1  0.16697704  0.50060974  0.50001178  1
  Sn  Sn37  1  0.50109806  0.83398859  0.83281244  1
  Sn  Sn38  1  0.50042057  0.50025619  0.16728838  1
  Sn  Sn39  1  0.83320671  0.16657477  0.16572479  1
  Pb  Pb40  1  0.83141616  0.49767033  0.16975808  1
  Pb  Pb41  1  0.16696480  0.16600244  0.49999769  1
  Pb  Pb42  1  0.16640333  0.83319914  0.83303060  1
  Pb  Pb43  1  0.83348823  0.50045507  0.83097063  1
  Pb  Pb44  1  0.83501938  0.83447234  0.16652698  1
  Pb  Pb45  1  0.16619298  0.16661507  0.83336406  1
  Pb  Pb46  1  0.49996838  0.16627060  0.50220038  1
  Pb  Pb47  1  0.16400894  0.16401494  0.16668878  1
  Pb  Pb48  1  0.49830971  0.83194192  0.16617224  1
  Pb  Pb49  1  0.50182207  0.16927985  0.16346740  1
  Pb  Pb50  1  0.16891978  0.50218350  0.16952199  1
  Pb  Pb51  1  0.50001824  0.50045515  0.83286724  1
  Pb  Pb52  1  0.83318323  0.16606551  0.50046296  1
  Pb  Pb53  1  0.16648285  0.50030101  0.82998849  1
  I  I54  1  0.16895061  -0.00374363  0.17492219  1
  I  I55  1  0.16569958  -0.00439301  0.49764618  1
  I  I56  1  0.16688740  -0.00038130  0.82985479  1
  I  I57  1  0.16688750  0.33360365  0.16743138  1
  I  I58  1  0.16594761  0.33678377  0.50133096  1
  I  I59  1  0.16765093  0.33333539  0.83176941  1
  I  I60  1  0.16473611  0.66986852  0.16820766  1
  I  I61  1  0.16642275  0.66770519  0.49689965  1
  I  I62  1  0.16728756  0.66721993  0.83663588  1
  I  I63  1  0.49908395  0.00003156  0.16950367  1
  I  I64  1  0.50052947  -0.00382166  0.50212996  1
  I  I65  1  0.50384710  -0.00141506  0.82745054  1
  I  I66  1  0.50027609  0.33687643  0.17472094  1
  I  I67  1  0.50002165  0.33663611  0.49782561  1
  I  I68  1  0.50549009  0.33077928  0.83219249  1
  I  I69  1  0.50033937  0.66409880  0.16762571  1
  I  I70  1  0.49987946  0.66741686  0.50254595  1
  I  I71  1  0.50373211  0.67008639  0.83102680  1
  I  I72  1  0.83327483  0.00243351  0.16758267  1
  I  I73  1  0.83396609  -0.00367297  0.50129535  1
  I  I74  1  0.82983185  -0.00092015  0.83047647  1
  I  I75  1  0.83256463  0.32999044  0.16072014  1
  I  I76  1  0.83357505  0.33615044  0.49991413  1
  I  I77  1  0.82825819  0.33032419  0.83418605  1
  I  I78  1  0.83409183  0.66654454  0.16394613  1
  I  I79  1  0.83354173  0.66794289  0.50503994  1
  I  I80  1  0.82852430  0.67032264  0.83003118  1
  I  I81  1  0.16929744  0.16399581  0.00008114  1
  I  I82  1  0.16406268  0.16787953  0.33328271  1
  I  I83  1  0.16394756  0.16618728  0.66666936  1
  I  I84  1  0.16878080  0.50132931  0.00063195  1
  I  I85  1  0.16364822  0.50326542  0.33757146  1
  I  I86  1  0.17025273  0.50771705  0.66141271  1
  I  I87  1  0.16730872  0.83538419  0.00234423  1
  I  I88  1  0.16564942  0.82909339  0.33572099  1
  I  I89  1  0.16682030  0.82884447  0.66312135  1
  I  I90  1  0.50275118  0.16017954  -0.00420260  1
  I  I91  1  0.50161903  0.16489141  0.33307108  1
  I  I92  1  0.50760720  0.16737057  0.67002062  1
  I  I93  1  0.50053658  0.50028877  0.00220994  1
  I  I94  1  0.50052288  0.50600975  0.33578572  1
  I  I95  1  0.49955499  0.50136995  0.66301593  1
  I  I96  1  0.50307573  0.83524350  -0.00319574  1
  I  I97  1  0.50242640  0.83001346  0.33657233  1
  I  I98  1  0.49855062  0.83123896  0.66553509  1
  I  I99  1  0.82860571  0.15958060  -0.00156626  1
  I  I100  1  0.83479134  0.16702610  0.33143834  1
  I  I101  1  0.82955145  0.16576269  0.66966878  1
  I  I102  1  0.83109976  0.50229168  0.00018988  1
  I  I103  1  0.83528759  0.50554534  0.33785999  1
  I  I104  1  0.83022404  0.49952809  0.66246956  1
  I  I105  1  0.82980419  0.83711844  -0.00308867  1
  I  I106  1  0.83154068  0.83119591  0.33670997  1
  I  I107  1  0.83476797  0.83539532  0.66580915  1
  I  I108  1  -0.00373840  0.16742421  0.16049478  1
  I  I109  1  -0.00021314  0.16724923  0.50244269  1
  I  I110  1  -0.00393645  0.16103405  0.83448479  1
  I  I111  1  0.00009730  0.49908398  0.16701338  1
  I  I112  1  -0.00015709  0.50650770  0.50220925  1
  I  I113  1  -0.00028841  0.49977888  0.83286499  1
  I  I114  1  0.00272117  0.83423319  0.17206336  1
  I  I115  1  -0.00055043  0.82812840  0.50030203  1
  I  I116  1  -0.00336611  0.83882542  0.82853332  1
  I  I117  1  0.33347479  0.16754522  0.16579117  1
  I  I118  1  0.33357575  0.16690938  0.50234314  1
  I  I119  1  0.33660991  0.16189802  0.83049893  1
  I  I120  1  0.33659040  0.49992129  0.17142479  1
  I  I121  1  0.33392903  0.50741639  0.49728432  1
  I  I122  1  0.33369720  0.49962744  0.83213116  1
  I  I123  1  0.33060186  0.83187308  0.17167595  1
  I  I124  1  0.33399327  0.82707061  0.50145046  1
  I  I125  1  0.33648023  0.83673962  0.82957537  1
  I  I126  1  0.66953206  0.16459413  0.16621665  1
  I  I127  1  0.66673280  0.16848091  0.49797573  1
  I  I128  1  0.66735389  0.16225818  0.83604350  1
  I  I129  1  0.66377212  0.50200323  0.17306084  1
  I  I130  1  0.66621072  0.50591407  0.49689263  1
  I  I131  1  0.66663297  0.49918835  0.83066832  1
  I  I132  1  0.66663556  0.83345992  0.16927954  1
  I  I133  1  0.66659574  0.82701398  0.50536632  1
  I  I134  1  0.66670430  0.83772407  0.82485749  1
