# generated using pymatgen
data_Cs27Sn14Pb13I81
_symmetry_space_group_name_H-M   'P 1'
_cell_length_a   18.97435689
_cell_length_b   18.98334879
_cell_length_c   18.96951139
_cell_angle_alpha   90.00111079
_cell_angle_beta   90.00060882
_cell_angle_gamma   90.00296749
_symmetry_Int_Tables_number   1
_chemical_formula_structural   Cs27Sn14Pb13I81
_chemical_formula_sum   'Cs27 Sn14 Pb13 I81'
_cell_volume   6832.75795270
_cell_formula_units_Z   1
loop_
 _symmetry_equiv_pos_site_id
 _symmetry_equiv_pos_as_xyz
  1  'x, y, z'
loop_
 _atom_site_type_symbol
 _atom_site_label
 _atom_site_symmetry_multiplicity
 _atom_site_fract_x
 _atom_site_fract_y
 _atom_site_fract_z
 _atom_site_occupancy
  Cs  Cs0  1  -0.00112373  0.00022761  0.00481304  1
  Cs  Cs1  1  0.00056386  -0.00225140  0.33477285  1
  Cs  Cs2  1  0.00236402  -0.00047712  0.66109935  1
  Cs  Cs3  1  0.00454523  0.33439261  -0.00430676  1
  Cs  Cs4  1  -0.00268520  0.33285652  0.33363306  1
  Cs  Cs5  1  -0.00090676  0.33438434  0.66914071  1
  Cs  Cs6  1  -0.00206488  0.66554176  -0.00205062  1
  Cs  Cs7  1  0.00070897  0.66859250  0.33371764  1
  Cs  Cs8  1  0.00010878  0.66591405  0.66663295  1
  Cs  Cs9  1  0.33347730  0.00482623  -0.00425252  1
  Cs  Cs10  1  0.33075742  -0.00379229  0.33232691  1
  Cs  Cs11  1  0.33306078  -0.00155193  0.67023968  1
  Cs  Cs12  1  0.32658825  0.33242455  -0.00125660  1
  Cs  Cs13  1  0.33636835  0.33602320  0.33237074  1
  Cs  Cs14  1  0.33645743  0.33028745  0.66826351  1
  Cs  Cs15  1  0.33451041  0.66328365  0.00182852  1
  Cs  Cs16  1  0.33393178  0.66677012  0.33456775  1
  Cs  Cs17  1  0.33296319  0.67026681  0.66224661  1
  Cs  Cs18  1  0.66660420  -0.00123695  -0.00124540  1
  Cs  Cs19  1  0.66832746  0.00304425  0.33211101  1
  Cs  Cs20  1  0.66458962  0.00386524  0.67031507  1
  Cs  Cs21  1  0.66805623  0.33500082  0.00354140  1
  Cs  Cs22  1  0.66675889  0.33375011  0.33240851  1
  Cs  Cs23  1  0.66549904  0.33020982  0.66388965  1
  Cs  Cs24  1  0.66799257  0.66655410  -0.00234582  1
  Cs  Cs25  1  0.66491674  0.66423113  0.33225844  1
  Cs  Cs26  1  0.66718904  0.66649987  0.67098767  1
  Sn  Sn27  1  0.50034577  0.16677564  0.16690807  1
  Sn  Sn28  1  0.83301027  0.49948104  0.16726304  1
  Sn  Sn29  1  0.50008499  0.83345301  0.16708171  1
  Sn  Sn30  1  0.16662806  0.83312370  0.50068537  1
  Sn  Sn31  1  0.50069828  0.83355498  0.49953460  1
  Sn  Sn32  1  0.50071364  0.49986649  0.16552234  1
  Sn  Sn33  1  0.16713707  0.16706138  0.49957985  1
  Sn  Sn34  1  0.50004535  0.49994523  0.83413696  1
  Sn  Sn35  1  0.83392875  0.50094820  0.49931484  1
  Sn  Sn36  1  0.83342620  0.16660055  0.83439857  1
  Sn  Sn37  1  0.16596697  0.49962099  0.49976296  1
  Sn  Sn38  1  0.83289180  0.16754124  0.16565205  1
  Sn  Sn39  1  0.83266174  0.83249831  0.49992248  1
  Sn  Sn40  1  0.16631883  0.83299036  0.83337912  1
  Pb  Pb41  1  0.49757958  0.16373872  0.49762037  1
  Pb  Pb42  1  0.83463847  0.16697667  0.49926534  1
  Pb  Pb43  1  0.16609629  0.50008163  0.16877640  1
  Pb  Pb44  1  0.83545919  0.83550706  0.83067223  1
  Pb  Pb45  1  0.16433091  0.16460742  0.83102622  1
  Pb  Pb46  1  0.16897155  0.50199062  0.83043995  1
  Pb  Pb47  1  0.50177385  0.16908127  0.83608846  1
  Pb  Pb48  1  0.83179997  0.49840610  0.83318150  1
  Pb  Pb49  1  0.49837563  0.83176728  0.83368687  1
  Pb  Pb50  1  0.50050808  0.50163607  0.49963864  1
  Pb  Pb51  1  0.16910520  0.83321543  0.16656608  1
  Pb  Pb52  1  0.83120513  0.83304974  0.16854011  1
  Pb  Pb53  1  0.16610621  0.16680948  0.16873776  1
  I  I54  1  0.16629747  -0.00003807  0.17071279  1
  I  I55  1  0.16616768  -0.00143206  0.50285048  1
  I  I56  1  0.16857802  -0.00305359  0.82537672  1
  I  I57  1  0.17221126  0.33344935  0.17005338  1
  I  I58  1  0.16066747  0.33416293  0.49739585  1
  I  I59  1  0.16734009  0.33335145  0.83109350  1
  I  I60  1  0.16738131  0.66666693  0.16958222  1
  I  I61  1  0.16642467  0.66743695  0.50325850  1
  I  I62  1  0.16652025  0.66959755  0.82589642  1
  I  I63  1  0.50336935  -0.00001679  0.17347726  1
  I  I64  1  0.50089716  -0.00448296  0.49533431  1
  I  I65  1  0.49943517  0.00013552  0.83335297  1
  I  I66  1  0.50448655  0.33390855  0.16342547  1
  I  I67  1  0.49895471  0.33327685  0.50008200  1
  I  I68  1  0.49970349  0.33680737  0.83592925  1
  I  I69  1  0.50272959  0.66611270  0.16778372  1
  I  I70  1  0.49487440  0.66960819  0.49458079  1
  I  I71  1  0.50078118  0.66407116  0.83869070  1
  I  I72  1  0.82938650  0.00252716  0.16494722  1
  I  I73  1  0.83522780  -0.00240849  0.49968788  1
  I  I74  1  0.83254390  0.00317297  0.83866121  1
  I  I75  1  0.82457795  0.33386468  0.17076930  1
  I  I76  1  0.83803702  0.33608761  0.49915017  1
  I  I77  1  0.83281440  0.33065026  0.83176598  1
  I  I78  1  0.82914620  0.66374213  0.17017241  1
  I  I79  1  0.83822417  0.66624194  0.49460452  1
  I  I80  1  0.83346241  0.66665536  0.83520461  1
  I  I81  1  0.16859190  0.16388775  -0.00008531  1
  I  I82  1  0.16439162  0.16209578  0.33688105  1
  I  I83  1  0.16415757  0.16781558  0.66287936  1
  I  I84  1  0.16497215  0.50216929  -0.00022676  1
  I  I85  1  0.16828434  0.50439676  0.33724271  1
  I  I86  1  0.16158009  0.49916808  0.66220110  1
  I  I87  1  0.16903656  0.83419828  -0.00265237  1
  I  I88  1  0.16550779  0.83347961  0.33705553  1
  I  I89  1  0.16920922  0.83348848  0.66375850  1
  I  I90  1  0.50084062  0.16016803  0.00428568  1
  I  I91  1  0.50711687  0.17250536  0.32973143  1
  I  I92  1  0.50122967  0.16739317  0.66666794  1
  I  I93  1  0.50620271  0.50349574  0.00228148  1
  I  I94  1  0.50063142  0.49869310  0.33050480  1
  I  I95  1  0.49933820  0.50330586  0.66811534  1
  I  I96  1  0.49813579  0.83455561  0.00317343  1
  I  I97  1  0.49715742  0.83072859  0.33376148  1
  I  I98  1  0.50007796  0.83003594  0.66374385  1
  I  I99  1  0.82937300  0.17156801  0.00176764  1
  I  I100  1  0.83011471  0.16801531  0.33058250  1
  I  I101  1  0.83652799  0.16610561  0.66795178  1
  I  I102  1  0.82963161  0.49790701  0.00303670  1
  I  I103  1  0.83081245  0.49748063  0.33329954  1
  I  I104  1  0.83577678  0.50236898  0.66355253  1
  I  I105  1  0.83424479  0.83124340  0.00006507  1
  I  I106  1  0.83906260  0.83462836  0.33689941  1
  I  I107  1  0.82924078  0.82867679  0.66213240  1
  I  I108  1  -0.00360187  0.17169963  0.16445053  1
  I  I109  1  0.00251121  0.16114240  0.49791974  1
  I  I110  1  -0.00328537  0.16824363  0.84043123  1
  I  I111  1  -0.00360397  0.49478473  0.16991046  1
  I  I112  1  -0.00068628  0.50491382  0.49469143  1
  I  I113  1  0.00000704  0.49983304  0.83548994  1
  I  I114  1  -0.00025174  0.83413908  0.16823037  1
  I  I115  1  0.00046427  0.83321389  0.50422294  1
  I  I116  1  0.00325178  0.83275832  0.82587743  1
  I  I117  1  0.33638456  0.16695183  0.16996845  1
  I  I118  1  0.32967719  0.16788311  0.49868209  1
  I  I119  1  0.33330241  0.16664539  0.83356829  1
  I  I120  1  0.33666420  0.49980940  0.16499655  1
  I  I121  1  0.33121872  0.50202859  0.49998976  1
  I  I122  1  0.33671164  0.49992559  0.83966804  1
  I  I123  1  0.33750736  0.83221376  0.17373411  1
  I  I124  1  0.33284986  0.83268049  0.49932516  1
  I  I125  1  0.33071135  0.83313343  0.82525217  1
  I  I126  1  0.66684996  0.16738579  0.16492276  1
  I  I127  1  0.66654474  0.16620883  0.50218273  1
  I  I128  1  0.66957608  0.16545360  0.83140217  1
  I  I129  1  0.66647533  0.49910262  0.17020447  1
  I  I130  1  0.66947402  0.50434799  0.49875175  1
  I  I131  1  0.66394296  0.50154961  0.83253877  1
  I  I132  1  0.66306766  0.83303460  0.17274841  1
  I  I133  1  0.66668789  0.82775566  0.49419984  1
  I  I134  1  0.66669552  0.83352474  0.83110477  1
