# generated using pymatgen
data_Cs27Sn14Pb13I81
_symmetry_space_group_name_H-M   'P 1'
_cell_length_a   18.98008685
_cell_length_b   18.96843123
_cell_length_c   18.97818787
_cell_angle_alpha   90.00072820
_cell_angle_beta   89.99912903
_cell_angle_gamma   89.99942263
_symmetry_Int_Tables_number   1
_chemical_formula_structural   Cs27Sn14Pb13I81
_chemical_formula_sum   'Cs27 Sn14 Pb13 I81'
_cell_volume   6832.57411196
_cell_formula_units_Z   1
loop_
 _symmetry_equiv_pos_site_id
 _symmetry_equiv_pos_as_xyz
  1  'x, y, z'
loop_
 _atom_site_type_symbol
 _atom_site_label
 _atom_site_symmetry_multiplicity
 _atom_site_fract_x
 _atom_site_fract_y
 _atom_site_fract_z
 _atom_site_occupancy
  Cs  Cs0  1  0.00162798  0.00028748  -0.00157448  1
  Cs  Cs1  1  -0.00097154  -0.00543807  0.33115288  1
  Cs  Cs2  1  0.00130260  0.00511452  0.67066726  1
  Cs  Cs3  1  -0.00036002  0.33137841  -0.00243658  1
  Cs  Cs4  1  0.00342062  0.33289441  0.34152624  1
  Cs  Cs5  1  -0.00656840  0.32691502  0.65943217  1
  Cs  Cs6  1  -0.00003558  0.66746929  0.00266493  1
  Cs  Cs7  1  0.00094220  0.66805295  0.33268926  1
  Cs  Cs8  1  -0.00082903  0.66476205  0.66228044  1
  Cs  Cs9  1  0.32923602  0.00372445  -0.00384269  1
  Cs  Cs10  1  0.33509448  0.00792223  0.33440265  1
  Cs  Cs11  1  0.33542705  -0.00126105  0.67019337  1
  Cs  Cs12  1  0.33588229  0.33489329  0.00051673  1
  Cs  Cs13  1  0.33229943  0.32811629  0.33517057  1
  Cs  Cs14  1  0.33151821  0.33544338  0.66555883  1
  Cs  Cs15  1  0.33340519  0.66529515  -0.00086852  1
  Cs  Cs16  1  0.33137902  0.66540730  0.33270640  1
  Cs  Cs17  1  0.33566318  0.66773363  0.66911003  1
  Cs  Cs18  1  0.66826658  -0.00141202  0.00226700  1
  Cs  Cs19  1  0.66540374  0.00029171  0.33444532  1
  Cs  Cs20  1  0.66312451  -0.00030585  0.66205753  1
  Cs  Cs21  1  0.66500018  0.33511801  -0.00156286  1
  Cs  Cs22  1  0.66474864  0.33021353  0.33360672  1
  Cs  Cs23  1  0.67392674  0.33246129  0.66990796  1
  Cs  Cs24  1  0.66693984  0.66584840  0.00179399  1
  Cs  Cs25  1  0.66720009  0.66757108  0.33000000  1
  Cs  Cs26  1  0.66475110  0.66695009  0.66705916  1
  Sn  Sn27  1  0.16725225  0.83280581  0.16733749  1
  Sn  Sn28  1  0.49922832  0.83311125  0.16649795  1
  Sn  Sn29  1  0.50012248  0.16747978  0.83363288  1
  Sn  Sn30  1  0.49964524  0.50066891  0.16705044  1
  Sn  Sn31  1  0.49936980  0.49910157  0.83333162  1
  Sn  Sn32  1  0.16648144  0.83312761  0.49935834  1
  Sn  Sn33  1  0.83333513  0.83318192  0.16664064  1
  Sn  Sn34  1  0.50025014  0.50022401  0.49970865  1
  Sn  Sn35  1  0.16634869  0.50014052  0.83363487  1
  Sn  Sn36  1  0.83369332  0.16699766  0.16666895  1
  Sn  Sn37  1  0.83377934  0.49942378  0.16666140  1
  Sn  Sn38  1  0.83408923  0.83296728  0.50005652  1
  Sn  Sn39  1  0.16674352  0.50050333  0.16589640  1
  Sn  Sn40  1  0.83330615  0.83292247  0.83316028  1
  Pb  Pb41  1  0.50022450  0.16987147  0.50308580  1
  Pb  Pb42  1  0.16452659  0.83110152  0.83350739  1
  Pb  Pb43  1  0.83326897  0.16355040  0.49725776  1
  Pb  Pb44  1  0.83123088  0.16406948  0.83545176  1
  Pb  Pb45  1  0.16406826  0.16705208  0.16663358  1
  Pb  Pb46  1  0.16677303  0.16287042  0.50001257  1
  Pb  Pb47  1  0.49954750  0.83165699  0.49729900  1
  Pb  Pb48  1  0.83108991  0.50217943  0.49714338  1
  Pb  Pb49  1  0.50168565  0.16698717  0.16511520  1
  Pb  Pb50  1  0.50167928  0.83265608  0.83587591  1
  Pb  Pb51  1  0.83368755  0.50157829  0.83497998  1
  Pb  Pb52  1  0.16843350  0.50184299  0.49991114  1
  Pb  Pb53  1  0.16867740  0.17028141  0.83354155  1
  I  I54  1  0.16628067  -0.00357879  0.17089210  1
  I  I55  1  0.16302707  -0.00545009  0.49218690  1
  I  I56  1  0.16759306  -0.00024803  0.83325690  1
  I  I57  1  0.16801190  0.33721911  0.16198699  1
  I  I58  1  0.16845681  0.33372762  0.49937327  1
  I  I59  1  0.16845031  0.33844805  0.84198294  1
  I  I60  1  0.16316379  0.66677730  0.16654571  1
  I  I61  1  0.16209251  0.66975011  0.49667641  1
  I  I62  1  0.17473889  0.66342528  0.83635096  1
  I  I63  1  0.50190626  -0.00285706  0.16515722  1
  I  I64  1  0.50031532  -0.00023879  0.50023681  1
  I  I65  1  0.50365628  0.00149728  0.83629401  1
  I  I66  1  0.50069568  0.33712723  0.16765972  1
  I  I67  1  0.49868153  0.33792691  0.49158106  1
  I  I68  1  0.49693856  0.33575976  0.83709608  1
  I  I69  1  0.50463654  0.66569071  0.16441524  1
  I  I70  1  0.50057991  0.66383165  0.50445958  1
  I  I71  1  0.49753603  0.66330800  0.83297893  1
  I  I72  1  0.83231077  -0.00225534  0.16680034  1
  I  I73  1  0.83533086  -0.00478732  0.49704637  1
  I  I74  1  0.83211160  -0.00402262  0.83711486  1
  I  I75  1  0.83090125  0.33453666  0.16434338  1
  I  I76  1  0.83204343  0.33350659  0.49879590  1
  I  I77  1  0.83423488  0.33348895  0.83629170  1
  I  I78  1  0.83236038  0.66750220  0.16651191  1
  I  I79  1  0.83656329  0.67033108  0.49658146  1
  I  I80  1  0.83042185  0.66960818  0.83759503  1
  I  I81  1  0.16576342  0.16061694  0.00011551  1
  I  I82  1  0.16794876  0.17196444  0.33304381  1
  I  I83  1  0.16660835  0.16641889  0.66691837  1
  I  I84  1  0.17159767  0.50614331  0.00176723  1
  I  I85  1  0.16657240  0.50291025  0.32986983  1
  I  I86  1  0.17400095  0.50333477  0.66906580  1
  I  I87  1  0.16537956  0.83117630  0.00337609  1
  I  I88  1  0.16066751  0.82668239  0.33125805  1
  I  I89  1  0.16160636  0.83115405  0.66428706  1
  I  I90  1  0.50159444  0.17283858  -0.00242952  1
  I  I91  1  0.50140512  0.16663188  0.33327563  1
  I  I92  1  0.50091562  0.16974452  0.67087845  1
  I  I93  1  0.49987440  0.50001218  0.00100050  1
  I  I94  1  0.50115335  0.50658888  0.33140919  1
  I  I95  1  0.49454753  0.49686400  0.66772792  1
  I  I96  1  0.50138783  0.82750846  0.00407863  1
  I  I97  1  0.50547372  0.82763428  0.32913981  1
  I  I98  1  0.50162780  0.83231775  0.66670399  1
  I  I99  1  0.83227814  0.16358985  0.00338880  1
  I  I100  1  0.83100140  0.16537734  0.32918481  1
  I  I101  1  0.83227856  0.16526227  0.66669955  1
  I  I102  1  0.82871595  0.50405539  0.00381200  1
  I  I103  1  0.83395250  0.50331730  0.32844107  1
  I  I104  1  0.83215186  0.50334955  0.66649491  1
  I  I105  1  0.83240413  0.83304248  0.00232096  1
  I  I106  1  0.83401998  0.83307402  0.33140769  1
  I  I107  1  0.83697427  0.83165839  0.66627454  1
  I  I108  1  -0.00392131  0.16438580  0.16528557  1
  I  I109  1  -0.00022438  0.17175425  0.50104127  1
  I  I110  1  -0.00026985  0.16650287  0.83419997  1
  I  I111  1  0.00021020  0.50470022  0.16098794  1
  I  I112  1  -0.00009395  0.49956458  0.50052771  1
  I  I113  1  0.00251996  0.50501375  0.84024622  1
  I  I114  1  -0.00070077  0.83065997  0.16754145  1
  I  I115  1  -0.00059576  0.83149371  0.49307285  1
  I  I116  1  -0.00324153  0.83135367  0.83965722  1
  I  I117  1  0.33332293  0.16517381  0.16551054  1
  I  I118  1  0.33375267  0.16405799  0.49810189  1
  I  I119  1  0.33677980  0.16586142  0.83611129  1
  I  I120  1  0.33382767  0.50786254  0.16508310  1
  I  I121  1  0.33625553  0.50363555  0.49598561  1
  I  I122  1  0.33448184  0.49785412  0.83903957  1
  I  I123  1  0.33289839  0.82485376  0.17082446  1
  I  I124  1  0.33070345  0.83053133  0.49506267  1
  I  I125  1  0.33337683  0.83554542  0.83299700  1
  I  I126  1  0.66959909  0.16470573  0.16522545  1
  I  I127  1  0.66669122  0.16338456  0.49909535  1
  I  I128  1  0.66368610  0.17535557  0.83500993  1
  I  I129  1  0.66625855  0.50400209  0.16617653  1
  I  I130  1  0.66328811  0.50318868  0.50068173  1
  I  I131  1  0.66372531  0.49810410  0.83515742  1
  I  I132  1  0.66760934  0.83036778  0.16610240  1
  I  I133  1  0.66920980  0.83196080  0.49800725  1
  I  I134  1  0.66957653  0.83103230  0.83516939  1
