# generated using pymatgen
data_Cs27Sn14Pb13I81
_symmetry_space_group_name_H-M   'P 1'
_cell_length_a   18.97762442
_cell_length_b   18.97814358
_cell_length_c   18.97012663
_cell_angle_alpha   89.99881724
_cell_angle_beta   89.99940996
_cell_angle_gamma   89.99974295
_symmetry_Int_Tables_number   1
_chemical_formula_structural   Cs27Sn14Pb13I81
_chemical_formula_sum   'Cs27 Sn14 Pb13 I81'
_cell_volume   6832.28234090
_cell_formula_units_Z   1
loop_
 _symmetry_equiv_pos_site_id
 _symmetry_equiv_pos_as_xyz
  1  'x, y, z'
loop_
 _atom_site_type_symbol
 _atom_site_label
 _atom_site_symmetry_multiplicity
 _atom_site_fract_x
 _atom_site_fract_y
 _atom_site_fract_z
 _atom_site_occupancy
  Cs  Cs0  1  0.00266943  -0.00050373  0.00177142  1
  Cs  Cs1  1  -0.00434223  -0.00019844  0.33358398  1
  Cs  Cs2  1  0.00145229  -0.00023058  0.66589169  1
  Cs  Cs3  1  0.00449394  0.33402917  -0.00284037  1
  Cs  Cs4  1  -0.00138882  0.33062926  0.32889407  1
  Cs  Cs5  1  -0.00387375  0.33159327  0.66996082  1
  Cs  Cs6  1  -0.00192096  0.66693138  -0.00133939  1
  Cs  Cs7  1  0.00334687  0.66804743  0.33423742  1
  Cs  Cs8  1  -0.00049168  0.66785768  0.66714935  1
  Cs  Cs9  1  0.33377114  0.00058946  0.00270622  1
  Cs  Cs10  1  0.33406654  0.00082728  0.33852938  1
  Cs  Cs11  1  0.33465999  0.00079004  0.66560874  1
  Cs  Cs12  1  0.32927188  0.33041343  0.00543143  1
  Cs  Cs13  1  0.33401069  0.34159494  0.32657055  1
  Cs  Cs14  1  0.33613780  0.33044977  0.66666320  1
  Cs  Cs15  1  0.33530510  0.66965735  0.00029380  1
  Cs  Cs16  1  0.32877210  0.65565145  0.33664563  1
  Cs  Cs17  1  0.33267316  0.66816770  0.66408199  1
  Cs  Cs18  1  0.66375869  -0.00489067  0.00663040  1
  Cs  Cs19  1  0.66894312  0.00228341  0.32872721  1
  Cs  Cs20  1  0.66475484  0.00083521  0.66608516  1
  Cs  Cs21  1  0.66649973  0.33498285  -0.00371238  1
  Cs  Cs22  1  0.66510603  0.33049533  0.33248826  1
  Cs  Cs23  1  0.66720357  0.33318433  0.66581800  1
  Cs  Cs24  1  0.66753703  0.67045644  -0.00099291  1
  Cs  Cs25  1  0.66581772  0.66613022  0.33134886  1
  Cs  Cs26  1  0.66735665  0.66617790  0.66822083  1
  Sn  Sn27  1  0.49899926  0.16615089  0.50063242  1
  Sn  Sn28  1  0.83317564  0.50000957  0.16655865  1
  Sn  Sn29  1  0.83338084  0.50072283  0.49984986  1
  Sn  Sn30  1  0.83400348  0.83394531  0.83258460  1
  Sn  Sn31  1  0.50107561  0.83360148  0.50006589  1
  Sn  Sn32  1  0.16758814  0.16731733  0.50014592  1
  Sn  Sn33  1  0.83212388  0.83259899  0.50091247  1
  Sn  Sn34  1  0.16612331  0.83283760  0.83406273  1
  Sn  Sn35  1  0.50087109  0.16713801  0.83297880  1
  Sn  Sn36  1  0.16693188  0.83336534  0.16618499  1
  Sn  Sn37  1  0.49959349  0.49928028  0.83297439  1
  Sn  Sn38  1  0.16716827  0.50085135  0.83273012  1
  Sn  Sn39  1  0.83320890  0.50013410  0.83310083  1
  Sn  Sn40  1  0.83232755  0.16583285  0.83325414  1
  Pb  Pb41  1  0.83335075  0.16931222  0.16269318  1
  Pb  Pb42  1  0.16441801  0.50205244  0.16389405  1
  Pb  Pb43  1  0.16386149  0.49715471  0.50252192  1
  Pb  Pb44  1  0.49991411  0.83363013  0.83197969  1
  Pb  Pb45  1  0.16663771  0.16414349  0.17003540  1
  Pb  Pb46  1  0.83268446  0.16638526  0.50160011  1
  Pb  Pb47  1  0.50001885  0.16661686  0.16658949  1
  Pb  Pb48  1  0.16713457  0.16623026  0.83223511  1
  Pb  Pb49  1  0.49691755  0.83295643  0.17087968  1
  Pb  Pb50  1  0.16636918  0.83446836  0.50053352  1
  Pb  Pb51  1  0.83471627  0.83144723  0.16681087  1
  Pb  Pb52  1  0.50212889  0.49966693  0.50193248  1
  Pb  Pb53  1  0.50251559  0.50018646  0.16326299  1
  I  I54  1  0.16449780  -0.00349595  0.15739963  1
  I  I55  1  0.16570935  0.00215466  0.50334878  1
  I  I56  1  0.16234038  -0.00283897  0.83465691  1
  I  I57  1  0.16567858  0.33365373  0.16600281  1
  I  I58  1  0.17167474  0.32980450  0.50362795  1
  I  I59  1  0.16235795  0.33567822  0.83024781  1
  I  I60  1  0.16554880  0.66972776  0.16680550  1
  I  I61  1  0.16920700  0.66645947  0.49815251  1
  I  I62  1  0.16237312  0.66688478  0.83583908  1
  I  I63  1  0.50093917  -0.00035000  0.16103514  1
  I  I64  1  0.50084139  0.00044306  0.50722883  1
  I  I65  1  0.50300062  0.00259167  0.82980214  1
  I  I66  1  0.49978085  0.33351428  0.17147010  1
  I  I67  1  0.49836817  0.33058480  0.50384868  1
  I  I68  1  0.50475309  0.33320307  0.82698909  1
  I  I69  1  0.50045347  0.66665877  0.16567323  1
  I  I70  1  0.50232628  0.66895952  0.50234659  1
  I  I71  1  0.50303952  0.66434718  0.83186664  1
  I  I72  1  0.83485017  -0.00019901  0.16720466  1
  I  I73  1  0.83395515  -0.00273493  0.50553670  1
  I  I74  1  0.83481704  -0.00104286  0.82639644  1
  I  I75  1  0.83403237  0.33740482  0.16866331  1
  I  I76  1  0.83420437  0.33576484  0.50279003  1
  I  I77  1  0.83349059  0.33457007  0.83248078  1
  I  I78  1  0.83429045  0.66371012  0.16080859  1
  I  I79  1  0.82895635  0.66730775  0.50597487  1
  I  I80  1  0.83388221  0.66610195  0.83276755  1
  I  I81  1  0.16609679  0.16867284  -0.00017634  1
  I  I82  1  0.17129577  0.16438571  0.33802028  1
  I  I83  1  0.16742999  0.16375587  0.66465013  1
  I  I84  1  0.16347937  0.49929892  -0.00445009  1
  I  I85  1  0.16503875  0.50093132  0.33345391  1
  I  I86  1  0.16340448  0.50737523  0.67067675  1
  I  I87  1  0.15990789  0.82978610  -0.00237357  1
  I  I88  1  0.16578070  0.83699580  0.33181790  1
  I  I89  1  0.16423720  0.83047572  0.66952102  1
  I  I90  1  0.50452075  0.17126389  -0.00388074  1
  I  I91  1  0.49685735  0.16163365  0.33710548  1
  I  I92  1  0.50027623  0.16684389  0.66712115  1
  I  I93  1  0.50215763  0.49451992  -0.00530409  1
  I  I94  1  0.50158326  0.49995888  0.33352423  1
  I  I95  1  0.50359975  0.49876700  0.67024109  1
  I  I96  1  0.50240877  0.83342706  -0.00011315  1
  I  I97  1  0.50678859  0.84089107  0.33876116  1
  I  I98  1  0.49961624  0.83477661  0.66415376  1
  I  I99  1  0.82860484  0.16585616  -0.00576680  1
  I  I100  1  0.83392960  0.16711786  0.33335825  1
  I  I101  1  0.83270980  0.17153479  0.66986797  1
  I  I102  1  0.83343165  0.49962890  -0.00241555  1
  I  I103  1  0.83351176  0.50561300  0.33424966  1
  I  I104  1  0.83330918  0.50075804  0.66840760  1
  I  I105  1  0.83524701  0.83203656  -0.00342689  1
  I  I106  1  0.83216495  0.82940802  0.33653868  1
  I  I107  1  0.83589431  0.82842875  0.66775499  1
  I  I108  1  -0.00010661  0.16690612  0.16800030  1
  I  I109  1  0.00122908  0.16601594  0.50289735  1
  I  I110  1  -0.00248425  0.16974145  0.83068758  1
  I  I111  1  -0.00341488  0.50072982  0.16402773  1
  I  I112  1  -0.00418046  0.50553889  0.50370752  1
  I  I113  1  -0.00155941  0.50001103  0.83336838  1
  I  I114  1  0.00245747  0.83196604  0.16643250  1
  I  I115  1  -0.00284993  0.83124150  0.50166368  1
  I  I116  1  -0.00122730  0.83018488  0.83093105  1
  I  I117  1  0.33321243  0.16654893  0.16101495  1
  I  I118  1  0.33477328  0.15845978  0.50826536  1
  I  I119  1  0.33611125  0.16984797  0.82990636  1
  I  I120  1  0.33308031  0.50075634  0.16623697  1
  I  I121  1  0.33333357  0.50300900  0.50213527  1
  I  I122  1  0.33328906  0.50028793  0.83179521  1
  I  I123  1  0.32940928  0.83397282  0.15764718  1
  I  I124  1  0.33538524  0.83752600  0.50132654  1
  I  I125  1  0.33078245  0.82993284  0.83464629  1
  I  I126  1  0.66692377  0.16562606  0.17166544  1
  I  I127  1  0.66406282  0.16594804  0.50383737  1
  I  I128  1  0.66685900  0.17145925  0.82650632  1
  I  I129  1  0.67062987  0.50141115  0.16449644  1
  I  I130  1  0.67035669  0.49937277  0.50419947  1
  I  I131  1  0.66818158  0.49904801  0.83307665  1
  I  I132  1  0.66671890  0.83227313  0.16416315  1
  I  I133  1  0.66793311  0.83489178  0.50720219  1
  I  I134  1  0.66961249  0.83029909  0.83042397  1
