# generated using pymatgen
data_Cs27Sn13Pb14I81
_symmetry_space_group_name_H-M   'P 1'
_cell_length_a   18.97702849
_cell_length_b   18.97208252
_cell_length_c   18.98093153
_cell_angle_alpha   89.99908916
_cell_angle_beta   90.00227237
_cell_angle_gamma   89.99872703
_symmetry_Int_Tables_number   1
_chemical_formula_structural   Cs27Sn13Pb14I81
_chemical_formula_sum   'Cs27 Sn13 Pb14 I81'
_cell_volume   6833.77595906
_cell_formula_units_Z   1
loop_
 _symmetry_equiv_pos_site_id
 _symmetry_equiv_pos_as_xyz
  1  'x, y, z'
loop_
 _atom_site_type_symbol
 _atom_site_label
 _atom_site_symmetry_multiplicity
 _atom_site_fract_x
 _atom_site_fract_y
 _atom_site_fract_z
 _atom_site_occupancy
  Cs  Cs0  1  -0.00452783  0.00204470  0.00011848  1
  Cs  Cs1  1  0.00214929  0.00113068  0.33431228  1
  Cs  Cs2  1  -0.00487916  -0.00048349  0.66612921  1
  Cs  Cs3  1  0.00329548  0.33616721  -0.00099597  1
  Cs  Cs4  1  -0.00145578  0.33204126  0.33274752  1
  Cs  Cs5  1  0.00581747  0.33059086  0.66779883  1
  Cs  Cs6  1  0.00324680  0.66138524  0.00305862  1
  Cs  Cs7  1  0.00032160  0.66579005  0.33307819  1
  Cs  Cs8  1  -0.00331806  0.67056264  0.66403335  1
  Cs  Cs9  1  0.33598819  -0.00100547  -0.00005922  1
  Cs  Cs10  1  0.33129970  0.00001449  0.33281579  1
  Cs  Cs11  1  0.33472513  -0.00128810  0.66793261  1
  Cs  Cs12  1  0.33197700  0.33369525  -0.00397590  1
  Cs  Cs13  1  0.33470736  0.32895062  0.33903266  1
  Cs  Cs14  1  0.33083131  0.33199145  0.66501986  1
  Cs  Cs15  1  0.33370691  0.66713882  -0.00114074  1
  Cs  Cs16  1  0.33213618  0.67037491  0.33193349  1
  Cs  Cs17  1  0.33481138  0.66735259  0.66891091  1
  Cs  Cs18  1  0.66753186  0.00025326  0.00090399  1
  Cs  Cs19  1  0.66602272  0.00241233  0.32867373  1
  Cs  Cs20  1  0.67003188  -0.00098331  0.67132182  1
  Cs  Cs21  1  0.66575615  0.33428930  0.00013436  1
  Cs  Cs22  1  0.66737193  0.33441632  0.33615869  1
  Cs  Cs23  1  0.66385524  0.33522049  0.66455867  1
  Cs  Cs24  1  0.66524484  0.66724924  -0.00039013  1
  Cs  Cs25  1  0.66734343  0.66301058  0.33347836  1
  Cs  Cs26  1  0.66756259  0.66620661  0.66678710  1
  Sn  Sn27  1  0.16662434  0.83352563  0.83359113  1
  Sn  Sn28  1  0.83300639  0.83332604  0.16682022  1
  Sn  Sn29  1  0.83286060  0.49989185  0.83328278  1
  Sn  Sn30  1  0.83424482  0.16629552  0.16745125  1
  Sn  Sn31  1  0.16613252  0.16659164  0.16686464  1
  Sn  Sn32  1  0.83370367  0.16661336  0.49942975  1
  Sn  Sn33  1  0.50042249  0.83351396  0.49982561  1
  Sn  Sn34  1  0.16570409  0.16707891  0.49914200  1
  Sn  Sn35  1  0.50077379  0.50068125  0.83402814  1
  Sn  Sn36  1  0.49942089  0.83255030  0.83334637  1
  Sn  Sn37  1  0.49966830  0.50045183  0.16637203  1
  Sn  Sn38  1  0.50084158  0.83243254  0.16691094  1
  Sn  Sn39  1  0.16659977  0.50027246  0.49961617  1
  Pb  Pb40  1  0.50009239  0.16695741  0.16656133  1
  Pb  Pb41  1  0.16810198  0.83403178  0.50174441  1
  Pb  Pb42  1  0.83555136  0.49772998  0.50219565  1
  Pb  Pb43  1  0.49823567  0.50209126  0.50014807  1
  Pb  Pb44  1  0.83151466  0.49952696  0.16534722  1
  Pb  Pb45  1  0.50015561  0.16401096  0.50013472  1
  Pb  Pb46  1  0.16668809  0.83522125  0.16485556  1
  Pb  Pb47  1  0.16659803  0.16396815  0.83318734  1
  Pb  Pb48  1  0.50009429  0.16690557  0.83328909  1
  Pb  Pb49  1  0.16971484  0.49743989  0.16885709  1
  Pb  Pb50  1  0.16722145  0.50211544  0.83138079  1
  Pb  Pb51  1  0.83298798  0.83136809  0.83584638  1
  Pb  Pb52  1  0.83091627  0.83538261  0.49727957  1
  Pb  Pb53  1  0.83328880  0.16940009  0.83372010  1
  I  I54  1  0.16766355  0.00311783  0.17302417  1
  I  I55  1  0.16464331  0.00316667  0.49698578  1
  I  I56  1  0.17430953  -0.00371933  0.83199307  1
  I  I57  1  0.16122610  0.32955128  0.16690120  1
  I  I58  1  0.16493677  0.33206384  0.49777996  1
  I  I59  1  0.16746419  0.33339423  0.83416732  1
  I  I60  1  0.16425949  0.66664394  0.16772832  1
  I  I61  1  0.17014408  0.66488830  0.50311775  1
  I  I62  1  0.16958298  0.66971847  0.83213205  1
  I  I63  1  0.50091187  -0.00315858  0.16551774  1
  I  I64  1  0.49745597  -0.00402481  0.49959020  1
  I  I65  1  0.49569483  -0.00388996  0.83426904  1
  I  I66  1  0.49967389  0.33622465  0.16104596  1
  I  I67  1  0.50060079  0.33335262  0.49992337  1
  I  I68  1  0.50376517  0.33723880  0.83877291  1
  I  I69  1  0.50512820  0.66817403  0.16564827  1
  I  I70  1  0.49715739  0.67001593  0.49995792  1
  I  I71  1  0.49952511  0.66744517  0.83450350  1
  I  I72  1  0.83041166  0.00024374  0.16865718  1
  I  I73  1  0.84025487  0.00336675  0.49981690  1
  I  I74  1  0.83293837  -0.00012490  0.83202250  1
  I  I75  1  0.83539596  0.33025550  0.16915828  1
  I  I76  1  0.83326458  0.32970052  0.49286181  1
  I  I77  1  0.82685401  0.33704584  0.83511548  1
  I  I78  1  0.82975165  0.66904565  0.16375360  1
  I  I79  1  0.83496834  0.66671942  0.49954893  1
  I  I80  1  0.83135093  0.66381114  0.83475228  1
  I  I81  1  0.16274375  0.16470572  0.00284926  1
  I  I82  1  0.16321732  0.16918704  0.33373198  1
  I  I83  1  0.16323329  0.16965403  0.66337626  1
  I  I84  1  0.16552043  0.49884756  0.00003394  1
  I  I85  1  0.16802289  0.49963883  0.33649340  1
  I  I86  1  0.16891468  0.49275660  0.66382877  1
  I  I87  1  0.17314767  0.83378184  -0.00279499  1
  I  I88  1  0.16890862  0.83245822  0.33325755  1
  I  I89  1  0.17328035  0.83402557  0.66958797  1
  I  I90  1  0.49964769  0.16276744  0.00026858  1
  I  I91  1  0.49938987  0.16640694  0.33324638  1
  I  I92  1  0.49963870  0.16627426  0.66646751  1
  I  I93  1  0.50304250  0.50763539  -0.00046058  1
  I  I94  1  0.49848861  0.50451939  0.33084982  1
  I  I95  1  0.50257891  0.50468111  0.66954900  1
  I  I96  1  0.49955797  0.82955592  0.00013722  1
  I  I97  1  0.50351825  0.83007951  0.33195895  1
  I  I98  1  0.49434830  0.83058562  0.66785618  1
  I  I99  1  0.83655425  0.16307960  0.00349945  1
  I  I100  1  0.83751634  0.16283737  0.33245834  1
  I  I101  1  0.83817321  0.16756313  0.66387135  1
  I  I102  1  0.83175863  0.49896351  -0.00259620  1
  I  I103  1  0.83207512  0.50138497  0.33329751  1
  I  I104  1  0.82573506  0.50025306  0.66989070  1
  I  I105  1  0.82750351  0.84049383  0.00349799  1
  I  I106  1  0.82852921  0.83408261  0.32929653  1
  I  I107  1  0.83243379  0.83467540  0.66675217  1
  I  I108  1  -0.00076990  0.16061029  0.17074496  1
  I  I109  1  0.00063636  0.16996483  0.49555177  1
  I  I110  1  -0.00003078  0.16642465  0.83364461  1
  I  I111  1  0.00012457  0.50266225  0.16480572  1
  I  I112  1  0.00335353  0.49956494  0.50195710  1
  I  I113  1  -0.00184063  0.50095837  0.83232689  1
  I  I114  1  -0.00248800  0.83643996  0.16407171  1
  I  I115  1  -0.00014366  0.83167082  0.50140626  1
  I  I116  1  0.00189366  0.83231743  0.83384611  1
  I  I117  1  0.33076492  0.16621784  0.17162062  1
  I  I118  1  0.33018776  0.16931565  0.49580561  1
  I  I119  1  0.33314163  0.16998102  0.83350413  1
  I  I120  1  0.33741863  0.50625527  0.15973365  1
  I  I121  1  0.33059298  0.49247212  0.50181919  1
  I  I122  1  0.33648093  0.50313609  0.83635068  1
  I  I123  1  0.33651982  0.83148789  0.16729928  1
  I  I124  1  0.33629279  0.83489902  0.49605399  1
  I  I125  1  0.33548566  0.82849367  0.83498429  1
  I  I126  1  0.66963894  0.16483208  0.17079867  1
  I  I127  1  0.66961305  0.16505981  0.49480697  1
  I  I128  1  0.66688464  0.16222700  0.83312075  1
  I  I129  1  0.66338465  0.50015096  0.16541480  1
  I  I130  1  0.66655726  0.49864367  0.49924014  1
  I  I131  1  0.66494365  0.50534977  0.83639943  1
  I  I132  1  0.66548052  0.83672208  0.16455504  1
  I  I133  1  0.66292624  0.83374791  0.50561548  1
  I  I134  1  0.66342001  0.83133022  0.83196671  1
