# generated using pymatgen
data_Cs27Sn14Pb13I81
_symmetry_space_group_name_H-M   'P 1'
_cell_length_a   18.98800286
_cell_length_b   18.96460697
_cell_length_c   18.97411310
_cell_angle_alpha   90.00068908
_cell_angle_beta   90.00036558
_cell_angle_gamma   89.99944871
_symmetry_Int_Tables_number   1
_chemical_formula_structural   Cs27Sn14Pb13I81
_chemical_formula_sum   'Cs27 Sn14 Pb13 I81'
_cell_volume   6832.57834018
_cell_formula_units_Z   1
loop_
 _symmetry_equiv_pos_site_id
 _symmetry_equiv_pos_as_xyz
  1  'x, y, z'
loop_
 _atom_site_type_symbol
 _atom_site_label
 _atom_site_symmetry_multiplicity
 _atom_site_fract_x
 _atom_site_fract_y
 _atom_site_fract_z
 _atom_site_occupancy
  Cs  Cs0  1  0.00020930  -0.00186230  0.00428452  1
  Cs  Cs1  1  -0.00289782  0.00113371  0.32102195  1
  Cs  Cs2  1  -0.00065496  -0.00004143  0.66834957  1
  Cs  Cs3  1  0.00244246  0.33388031  -0.00124000  1
  Cs  Cs4  1  0.00023052  0.33467016  0.33534460  1
  Cs  Cs5  1  0.00112951  0.33229811  0.66554608  1
  Cs  Cs6  1  -0.00090785  0.66775221  0.00071064  1
  Cs  Cs7  1  -0.00115315  0.66469310  0.33556310  1
  Cs  Cs8  1  -0.00123795  0.66906582  0.66481274  1
  Cs  Cs9  1  0.33241826  0.00001443  0.00270074  1
  Cs  Cs10  1  0.34286493  -0.00754033  0.32649351  1
  Cs  Cs11  1  0.33411501  -0.00314088  0.66691269  1
  Cs  Cs12  1  0.33216827  0.33347033  -0.00076022  1
  Cs  Cs13  1  0.33234722  0.33525845  0.33284572  1
  Cs  Cs14  1  0.33068303  0.33360234  0.66744958  1
  Cs  Cs15  1  0.33259936  0.66640442  -0.00091118  1
  Cs  Cs16  1  0.33528364  0.66698245  0.33645919  1
  Cs  Cs17  1  0.33186348  0.66944808  0.66417298  1
  Cs  Cs18  1  0.66722373  -0.00204707  0.00150931  1
  Cs  Cs19  1  0.66090142  0.00601863  0.32747671  1
  Cs  Cs20  1  0.66696117  0.00136935  0.66637259  1
  Cs  Cs21  1  0.66450976  0.33609752  -0.00515915  1
  Cs  Cs22  1  0.66676331  0.32967656  0.33573986  1
  Cs  Cs23  1  0.66695563  0.33188757  0.66852908  1
  Cs  Cs24  1  0.66760070  0.66580379  -0.00211044  1
  Cs  Cs25  1  0.66727598  0.66700574  0.33271655  1
  Cs  Cs26  1  0.66930622  0.66584814  0.66910105  1
  Sn  Sn27  1  0.16667524  0.49939283  0.50030087  1
  Sn  Sn28  1  0.83310877  0.50037780  0.49941473  1
  Sn  Sn29  1  0.49954038  0.16556831  0.83294406  1
  Sn  Sn30  1  0.16663190  0.16729104  0.83225876  1
  Sn  Sn31  1  0.83379395  0.16564216  0.83315898  1
  Sn  Sn32  1  0.16665664  0.49979763  0.16699493  1
  Sn  Sn33  1  0.83264035  0.83447687  0.83228041  1
  Sn  Sn34  1  0.50071603  0.83417059  0.83281530  1
  Sn  Sn35  1  0.83313510  0.49969587  0.16764740  1
  Sn  Sn36  1  0.16684270  0.16626110  0.50009811  1
  Sn  Sn37  1  0.50023765  0.49975220  0.49960818  1
  Sn  Sn38  1  0.50020442  0.49981862  0.16765722  1
  Sn  Sn39  1  0.83344010  0.83378259  0.50012057  1
  Sn  Sn40  1  0.16640632  0.49976228  0.83280351  1
  Pb  Pb41  1  0.83308115  0.83112844  0.16691116  1
  Pb  Pb42  1  0.49716198  0.16867652  0.50205112  1
  Pb  Pb43  1  0.16687425  0.16852325  0.16718709  1
  Pb  Pb44  1  0.49761586  0.50022731  0.83284533  1
  Pb  Pb45  1  0.83563623  0.50013761  0.83283223  1
  Pb  Pb46  1  0.83320217  0.16995156  0.16361710  1
  Pb  Pb47  1  0.16419783  0.83445192  0.49978606  1
  Pb  Pb48  1  0.50023405  0.83048284  0.16391733  1
  Pb  Pb49  1  0.16676420  0.83037701  0.16715343  1
  Pb  Pb50  1  0.83535384  0.16637055  0.50147064  1
  Pb  Pb51  1  0.16624939  0.83417145  0.83318530  1
  Pb  Pb52  1  0.49995402  0.16945659  0.16401171  1
  Pb  Pb53  1  0.50280845  0.83127129  0.50206580  1
  I  I54  1  0.16568790  0.00034059  0.16534151  1
  I  I55  1  0.16438820  0.00346671  0.51112377  1
  I  I56  1  0.16689706  0.00360869  0.82724221  1
  I  I57  1  0.16640806  0.33760866  0.16529113  1
  I  I58  1  0.16426226  0.33569495  0.50180363  1
  I  I59  1  0.16655993  0.33355134  0.83333299  1
  I  I60  1  0.16601078  0.66099943  0.16506036  1
  I  I61  1  0.16819094  0.66293757  0.50063206  1
  I  I62  1  0.16708835  0.66374368  0.83361527  1
  I  I63  1  0.49991670  -0.00001406  0.16792199  1
  I  I64  1  0.49922155  0.00006382  0.50013752  1
  I  I65  1  0.49846614  0.00055846  0.83194366  1
  I  I66  1  0.49901273  0.33792692  0.16732451  1
  I  I67  1  0.50483112  0.33745208  0.49906398  1
  I  I68  1  0.50240634  0.33122346  0.83410872  1
  I  I69  1  0.49908228  0.66203738  0.16756780  1
  I  I70  1  0.49410819  0.66255403  0.49903758  1
  I  I71  1  0.50455914  0.66853835  0.83418073  1
  I  I72  1  0.83380095  0.00009045  0.16895445  1
  I  I73  1  0.83643458  -0.00256447  0.50631617  1
  I  I74  1  0.83451830  -0.00020778  0.82689517  1
  I  I75  1  0.83485668  0.33822179  0.17187463  1
  I  I76  1  0.83286001  0.33669482  0.49772715  1
  I  I77  1  0.83114993  0.33117418  0.83424999  1
  I  I78  1  0.83457047  0.66248688  0.16433124  1
  I  I79  1  0.83543255  0.66472799  0.50314209  1
  I  I80  1  0.82962742  0.66872454  0.83323574  1
  I  I81  1  0.16672643  0.17183078  -0.00348686  1
  I  I82  1  0.16388859  0.17393832  0.33666520  1
  I  I83  1  0.16611333  0.17737966  0.66804137  1
  I  I84  1  0.16677922  0.49644556  -0.00035163  1
  I  I85  1  0.16605685  0.49644887  0.33415647  1
  I  I86  1  0.16674780  0.49591951  0.66612003  1
  I  I87  1  0.16434755  0.83112092  -0.00032037  1
  I  I88  1  0.16422705  0.83362598  0.33371221  1
  I  I89  1  0.16805416  0.82582465  0.66674810  1
  I  I90  1  0.49720892  0.16618594  -0.00462861  1
  I  I91  1  0.49883239  0.16598205  0.33355544  1
  I  I92  1  0.50195383  0.16721591  0.67050287  1
  I  I93  1  0.49987238  0.49984241  0.00190486  1
  I  I94  1  0.49516317  0.50054967  0.33375120  1
  I  I95  1  0.50053208  0.50003092  0.66417133  1
  I  I96  1  0.50632251  0.83451998  -0.00422735  1
  I  I97  1  0.50032142  0.83376199  0.33346728  1
  I  I98  1  0.50129202  0.83348518  0.67016240  1
  I  I99  1  0.83674855  0.16228114  -0.00496319  1
  I  I100  1  0.83601660  0.16425722  0.33341480  1
  I  I101  1  0.83219566  0.16934064  0.67010013  1
  I  I102  1  0.83367293  0.49924857  0.00186284  1
  I  I103  1  0.83799969  0.50578671  0.33450988  1
  I  I104  1  0.83312137  0.50097269  0.66400887  1
  I  I105  1  0.83031670  0.83532087  -0.00328424  1
  I  I106  1  0.83683976  0.82756128  0.33639261  1
  I  I107  1  0.83041997  0.82860888  0.66757563  1
  I  I108  1  0.00002523  0.16891713  0.16368196  1
  I  I109  1  0.00316077  0.17556841  0.50855840  1
  I  I110  1  0.00055565  0.16852330  0.82947868  1
  I  I111  1  0.00028255  0.50004977  0.16846633  1
  I  I112  1  0.00020195  0.50037429  0.49810106  1
  I  I113  1  0.00348470  0.49650769  0.83377432  1
  I  I114  1  -0.00037964  0.83127629  0.16303191  1
  I  I115  1  -0.00363149  0.82398394  0.50940181  1
  I  I116  1  -0.00305848  0.83428861  0.82985420  1
  I  I117  1  0.33332795  0.17040713  0.16311483  1
  I  I118  1  0.32927043  0.17572818  0.50787474  1
  I  I119  1  0.33264143  0.16887548  0.83001598  1
  I  I120  1  0.33284901  0.49949963  0.16805231  1
  I  I121  1  0.33253536  0.49552757  0.49831181  1
  I  I122  1  0.32980343  0.49648461  0.83381002  1
  I  I123  1  0.33367625  0.83097850  0.16412321  1
  I  I124  1  0.33354461  0.83072341  0.50241111  1
  I  I125  1  0.33567688  0.83413993  0.83443742  1
  I  I126  1  0.66665650  0.17091128  0.16544381  1
  I  I127  1  0.66665633  0.16950871  0.50315397  1
  I  I128  1  0.66681228  0.16376300  0.83422729  1
  I  I129  1  0.66679941  0.50057501  0.17194113  1
  I  I130  1  0.66724668  0.50468833  0.49411340  1
  I  I131  1  0.66671446  0.49753520  0.83407495  1
  I  I132  1  0.66673407  0.82837009  0.16647035  1
  I  I133  1  0.67062432  0.82560849  0.50399293  1
  I  I134  1  0.66750576  0.83929387  0.82999567  1
