# generated using pymatgen
data_Cs27Sn13Pb14I81
_symmetry_space_group_name_H-M   'P 1'
_cell_length_a   18.97316712
_cell_length_b   18.97388904
_cell_length_c   18.98572181
_cell_angle_alpha   89.99917995
_cell_angle_beta   89.99919287
_cell_angle_gamma   90.00025431
_symmetry_Int_Tables_number   1
_chemical_formula_structural   Cs27Sn13Pb14I81
_chemical_formula_sum   'Cs27 Sn13 Pb14 I81'
_cell_volume   6834.76050882
_cell_formula_units_Z   1
loop_
 _symmetry_equiv_pos_site_id
 _symmetry_equiv_pos_as_xyz
  1  'x, y, z'
loop_
 _atom_site_type_symbol
 _atom_site_label
 _atom_site_symmetry_multiplicity
 _atom_site_fract_x
 _atom_site_fract_y
 _atom_site_fract_z
 _atom_site_occupancy
  Cs  Cs0  1  -0.00189484  -0.00011299  0.00102012  1
  Cs  Cs1  1  0.00161803  -0.00190051  0.33264905  1
  Cs  Cs2  1  -0.00097999  0.00092454  0.66743883  1
  Cs  Cs3  1  0.00134079  0.33260084  0.00212361  1
  Cs  Cs4  1  -0.00207975  0.33908495  0.33628933  1
  Cs  Cs5  1  0.00078862  0.33393841  0.66469562  1
  Cs  Cs6  1  0.00118185  0.66749391  0.00447490  1
  Cs  Cs7  1  0.00356088  0.66202913  0.32711197  1
  Cs  Cs8  1  -0.00204336  0.66479853  0.66644292  1
  Cs  Cs9  1  0.33252052  0.00024469  -0.00116617  1
  Cs  Cs10  1  0.33287326  -0.00036815  0.33823883  1
  Cs  Cs11  1  0.33375450  -0.00029261  0.66402745  1
  Cs  Cs12  1  0.33297382  0.33429681  0.00021344  1
  Cs  Cs13  1  0.33536242  0.33008713  0.33175676  1
  Cs  Cs14  1  0.33256194  0.33322217  0.66758054  1
  Cs  Cs15  1  0.33631184  0.66495344  -0.00118045  1
  Cs  Cs16  1  0.33098550  0.67010129  0.33366502  1
  Cs  Cs17  1  0.33315853  0.66739623  0.66713634  1
  Cs  Cs18  1  0.66908513  0.00397613  0.00010949  1
  Cs  Cs19  1  0.66586330  0.00201618  0.33414665  1
  Cs  Cs20  1  0.66832948  -0.00024715  0.66632418  1
  Cs  Cs21  1  0.66675154  0.32674119  -0.00011603  1
  Cs  Cs22  1  0.66749758  0.33531175  0.33092625  1
  Cs  Cs23  1  0.66692708  0.33352224  0.66772360  1
  Cs  Cs24  1  0.66367123  0.66769931  -0.00225845  1
  Cs  Cs25  1  0.66735172  0.66344630  0.33159220  1
  Cs  Cs26  1  0.66683616  0.66763858  0.66793852  1
  Sn  Sn27  1  0.16674833  0.16586093  0.83333321  1
  Sn  Sn28  1  0.16652719  0.16645174  0.16680972  1
  Sn  Sn29  1  0.83265591  0.50065130  0.83349165  1
  Sn  Sn30  1  0.50018787  0.83315441  0.16600233  1
  Sn  Sn31  1  0.50109842  0.50055224  0.83327209  1
  Sn  Sn32  1  0.83356695  0.83341957  0.50010606  1
  Sn  Sn33  1  0.50017650  0.83307742  0.83395000  1
  Sn  Sn34  1  0.16569420  0.16654090  0.50002444  1
  Sn  Sn35  1  0.83330060  0.83256676  0.83275259  1
  Sn  Sn36  1  0.49974190  0.50022655  0.50034034  1
  Sn  Sn37  1  0.16652845  0.83394291  0.83310745  1
  Sn  Sn38  1  0.49997766  0.50079222  0.16624331  1
  Sn  Sn39  1  0.83395178  0.16590478  0.50023362  1
  Pb  Pb40  1  0.16657297  0.50053239  0.83333537  1
  Pb  Pb41  1  0.49831528  0.16605511  0.16653895  1
  Pb  Pb42  1  0.83603977  0.16658390  0.16991396  1
  Pb  Pb43  1  0.16919256  0.83515529  0.16431305  1
  Pb  Pb44  1  0.83566406  0.16665880  0.83182096  1
  Pb  Pb45  1  0.83101682  0.83328965  0.16641101  1
  Pb  Pb46  1  0.16400878  0.83483970  0.50214408  1
  Pb  Pb47  1  0.16909854  0.49791032  0.50002462  1
  Pb  Pb48  1  0.49781044  0.16628640  0.83320716  1
  Pb  Pb49  1  0.50213492  0.83146542  0.50024752  1
  Pb  Pb50  1  0.83081640  0.50015439  0.16322290  1
  Pb  Pb51  1  0.83163331  0.50040063  0.50181673  1
  Pb  Pb52  1  0.50050193  0.16884220  0.50016269  1
  Pb  Pb53  1  0.16926514  0.49802959  0.16664547  1
  I  I54  1  0.16998860  0.00321175  0.16845726  1
  I  I55  1  0.16721484  0.00341686  0.49871221  1
  I  I56  1  0.16745316  -0.00036873  0.83311182  1
  I  I57  1  0.16936722  0.32966860  0.16308225  1
  I  I58  1  0.16063312  0.32906372  0.50373422  1
  I  I59  1  0.16734036  0.33049994  0.83278759  1
  I  I60  1  0.16576750  0.66696436  0.16510085  1
  I  I61  1  0.16626874  0.66690321  0.50214824  1
  I  I62  1  0.16768843  0.66998185  0.83312901  1
  I  I63  1  0.49904542  -0.00324933  0.16060333  1
  I  I64  1  0.49853475  -0.00020563  0.49977947  1
  I  I65  1  0.50243481  -0.00370287  0.83807968  1
  I  I66  1  0.49802516  0.33639170  0.16580095  1
  I  I67  1  0.50065766  0.33694356  0.50067633  1
  I  I68  1  0.50317437  0.33668167  0.83416299  1
  I  I69  1  0.49988387  0.66634030  0.16444101  1
  I  I70  1  0.50264338  0.66355337  0.50118636  1
  I  I71  1  0.49850675  0.66692271  0.83395496  1
  I  I72  1  0.82939130  -0.00003194  0.16195375  1
  I  I73  1  0.83570783  -0.00019427  0.50678115  1
  I  I74  1  0.83050303  -0.00311958  0.83113601  1
  I  I75  1  0.83057544  0.33334848  0.16610499  1
  I  I76  1  0.83686021  0.33096532  0.50164220  1
  I  I77  1  0.82872588  0.33579595  0.83177267  1
  I  I78  1  0.83698237  0.66672770  0.17247692  1
  I  I79  1  0.82937644  0.66936828  0.50467389  1
  I  I80  1  0.83353998  0.66802164  0.82669838  1
  I  I81  1  0.16953894  0.16321481  -0.00087188  1
  I  I82  1  0.16425908  0.16851851  0.33397958  1
  I  I83  1  0.16354635  0.16330495  0.66680842  1
  I  I84  1  0.16824300  0.49587622  -0.00033782  1
  I  I85  1  0.16805819  0.49805127  0.33334908  1
  I  I86  1  0.17061008  0.49640979  0.66697931  1
  I  I87  1  0.16233486  0.83917500  -0.00414476  1
  I  I88  1  0.16796278  0.83577059  0.33334486  1
  I  I89  1  0.17248857  0.83883063  0.67060990  1
  I  I90  1  0.49754186  0.17098552  -0.00022884  1
  I  I91  1  0.49692774  0.16682123  0.33340287  1
  I  I92  1  0.49612320  0.16782406  0.66673195  1
  I  I93  1  0.50252693  0.50471452  -0.00101947  1
  I  I94  1  0.49861167  0.50242895  0.33283750  1
  I  I95  1  0.50333759  0.50273929  0.66827511  1
  I  I96  1  0.50021914  0.82549672  -0.00175971  1
  I  I97  1  0.50131036  0.82939328  0.33106051  1
  I  I98  1  0.49829799  0.82936007  0.67001500  1
  I  I99  1  0.83450256  0.16689768  -0.00015339  1
  I  I100  1  0.83727072  0.16121684  0.33794814  1
  I  I101  1  0.83908901  0.16584813  0.66406300  1
  I  I102  1  0.82918464  0.50599735  -0.00490668  1
  I  I103  1  0.83095411  0.49881207  0.33338449  1
  I  I104  1  0.82675902  0.50117867  0.66981146  1
  I  I105  1  0.83510311  0.82928188  -0.00385899  1
  I  I106  1  0.83033127  0.83930584  0.33624171  1
  I  I107  1  0.83088867  0.83418397  0.66829737  1
  I  I108  1  0.00407137  0.16533156  0.16176611  1
  I  I109  1  0.00039845  0.16299909  0.50134056  1
  I  I110  1  0.00368034  0.16315196  0.83485502  1
  I  I111  1  -0.00007002  0.49835411  0.16585418  1
  I  I112  1  -0.00032016  0.49994632  0.50290057  1
  I  I113  1  -0.00285063  0.50246429  0.83071945  1
  I  I114  1  0.00019495  0.83554806  0.16554639  1
  I  I115  1  -0.00396938  0.83507770  0.50665729  1
  I  I116  1  -0.00052884  0.83403799  0.82783142  1
  I  I117  1  0.33024384  0.16760893  0.16861384  1
  I  I118  1  0.33029631  0.16900232  0.50011922  1
  I  I119  1  0.32950194  0.16371329  0.83042422  1
  I  I120  1  0.33768929  0.50305142  0.16228932  1
  I  I121  1  0.33749911  0.49908195  0.50387787  1
  I  I122  1  0.33678276  0.50215208  0.83395966  1
  I  I123  1  0.33716108  0.82916788  0.16141361  1
  I  I124  1  0.33344197  0.83435536  0.50088798  1
  I  I125  1  0.33406076  0.83336468  0.83786675  1
  I  I126  1  0.66668146  0.16750485  0.16821068  1
  I  I127  1  0.66973686  0.16371550  0.50167388  1
  I  I128  1  0.66694747  0.16532893  0.83128797  1
  I  I129  1  0.66241111  0.50286918  0.16969329  1
  I  I130  1  0.66352139  0.49747155  0.49877950  1
  I  I131  1  0.66546065  0.50777118  0.83261741  1
  I  I132  1  0.66282384  0.82963806  0.16087256  1
  I  I133  1  0.66982432  0.84003754  0.50664999  1
  I  I134  1  0.66646319  0.82776986  0.83286826  1
