# generated using pymatgen
data_Cs27Sn13Pb14I81
_symmetry_space_group_name_H-M   'P 1'
_cell_length_a   18.97699737
_cell_length_b   18.97818455
_cell_length_c   18.97818438
_cell_angle_alpha   89.99957000
_cell_angle_beta   90.00022012
_cell_angle_gamma   89.99977988
_symmetry_Int_Tables_number   1
_chemical_formula_structural   Cs27Sn13Pb14I81
_chemical_formula_sum   'Cs27 Sn13 Pb14 I81'
_cell_volume   6834.97333303
_cell_formula_units_Z   1
loop_
 _symmetry_equiv_pos_site_id
 _symmetry_equiv_pos_as_xyz
  1  'x, y, z'
loop_
 _atom_site_type_symbol
 _atom_site_label
 _atom_site_symmetry_multiplicity
 _atom_site_fract_x
 _atom_site_fract_y
 _atom_site_fract_z
 _atom_site_occupancy
  Cs  Cs0  1  0.00769250  -0.00453379  -0.00247646  1
  Cs  Cs1  1  0.00000011  0.00293946  0.33627292  1
  Cs  Cs2  1  0.00198706  -0.00361531  0.66722322  1
  Cs  Cs3  1  -0.00069850  0.33297333  0.00257222  1
  Cs  Cs4  1  -0.00198703  0.33388984  0.32971809  1
  Cs  Cs5  1  -0.00000007  0.33288779  0.66622111  1
  Cs  Cs6  1  -0.00000003  0.67263501  0.00596831  1
  Cs  Cs7  1  -0.00769247  0.66419030  0.32879956  1
  Cs  Cs8  1  0.00069852  0.66923890  0.66630672  1
  Cs  Cs9  1  0.32853560  -0.00188167  0.00152380  1
  Cs  Cs10  1  0.33160642  -0.00102427  0.33476373  1
  Cs  Cs11  1  0.33157867  -0.00038705  0.66485479  1
  Cs  Cs12  1  0.33432682  0.33371693  -0.00112798  1
  Cs  Cs13  1  0.33239311  0.33246370  0.33383906  1
  Cs  Cs14  1  0.33468105  0.33591845  0.66649950  1
  Cs  Cs15  1  0.33486164  0.66694215  0.00218015  1
  Cs  Cs16  1  0.33404017  0.66755619  0.33695306  1
  Cs  Cs17  1  0.33422175  0.66478217  0.66498894  1
  Cs  Cs18  1  0.66595980  0.00361984  0.00088941  1
  Cs  Cs19  1  0.66839366  0.00143060  0.33230909  1
  Cs  Cs20  1  0.66760665  0.00050558  0.66579691  1
  Cs  Cs21  1  0.66577823  0.33165556  -0.00188447  1
  Cs  Cs22  1  0.66842126  0.33152141  0.33294634  1
  Cs  Cs23  1  0.66531898  0.33316642  0.66925163  1
  Cs  Cs24  1  0.66513836  0.66884678  0.00027563  1
  Cs  Cs25  1  0.67146453  0.66819046  0.33145138  1
  Cs  Cs26  1  0.66567306  0.66553878  0.66705027  1
  Sn  Sn27  1  0.83282497  0.16733241  0.83419401  1
  Sn  Sn28  1  0.50024245  0.16625060  0.83399716  1
  Sn  Sn29  1  0.16717504  0.50086075  0.50066576  1
  Sn  Sn30  1  0.49975754  0.50066385  0.49958391  1
  Sn  Sn31  1  0.50029851  0.16756151  0.16581873  1
  Sn  Sn32  1  0.49970145  0.83248540  0.50089479  1
  Sn  Sn33  1  0.16746903  0.83183920  0.49991649  1
  Sn  Sn34  1  0.49998017  0.49923884  0.16696044  1
  Sn  Sn35  1  0.50000002  0.50002869  0.83336202  1
  Sn  Sn36  1  0.16638042  0.50002628  0.83304524  1
  Sn  Sn37  1  0.83253101  0.16658314  0.16517256  1
  Sn  Sn38  1  0.83361958  0.49971193  0.83335961  1
  Sn  Sn39  1  0.50001981  0.83362708  0.83257217  1
  Pb  Pb40  1  0.83320594  0.49990764  0.50233540  1
  Pb  Pb41  1  0.16897059  0.50002972  0.16696934  1
  Pb  Pb42  1  0.16691332  0.83294803  0.17032247  1
  Pb  Pb43  1  0.16679408  0.16900205  0.83324095  1
  Pb  Pb44  1  0.83049812  0.49828871  0.16362981  1
  Pb  Pb45  1  0.16675911  0.16749488  0.50022402  1
  Pb  Pb46  1  0.50000003  0.83373911  0.16707241  1
  Pb  Pb47  1  0.83293714  0.83310111  0.50018834  1
  Pb  Pb48  1  0.83102940  0.83363604  0.83336308  1
  Pb  Pb49  1  0.16950191  0.83029645  0.83162206  1
  Pb  Pb50  1  0.50000002  0.16675268  0.50008604  1
  Pb  Pb51  1  0.83308666  0.83698914  0.16628132  1
  Pb  Pb52  1  0.83324089  0.16689063  0.50082821  1
  Pb  Pb53  1  0.16706285  0.16685503  0.16643440  1
  I  I54  1  0.16884354  -0.00000526  0.16807344  1
  I  I55  1  0.17202156  -0.00324796  0.49902661  1
  I  I56  1  0.16639492  -0.00039740  0.83155703  1
  I  I57  1  0.16608350  0.33359015  0.17027006  1
  I  I58  1  0.17249006  0.33758281  0.50398419  1
  I  I59  1  0.17238457  0.33727804  0.82686381  1
  I  I60  1  0.16891898  0.66623659  0.16254579  1
  I  I61  1  0.17393759  0.66546227  0.50572434  1
  I  I62  1  0.16676166  0.66218789  0.83121639  1
  I  I63  1  0.50450589  0.00339799  0.16355881  1
  I  I64  1  0.49573576  -0.00301331  0.50337797  1
  I  I65  1  0.50559900  0.00069235  0.83288600  1
  I  I66  1  0.50267619  0.33364715  0.16360096  1
  I  I67  1  0.49590149  0.33677183  0.50275809  1
  I  I68  1  0.50038322  0.33446132  0.83321891  1
  I  I69  1  0.49821355  0.66367356  0.16323843  1
  I  I70  1  0.49589139  0.66553878  0.50402690  1
  I  I71  1  0.50011796  0.66504029  0.83289671  1
  I  I72  1  0.82350100  0.00518672  0.16064411  1
  I  I73  1  0.83321378  -0.00001098  0.50103377  1
  I  I74  1  0.82734009  0.00361274  0.83681426  1
  I  I75  1  0.83089369  0.33026239  0.16534718  1
  I  I76  1  0.83338825  0.33359088  0.49886819  1
  I  I77  1  0.82768331  0.33355705  0.83546700  1
  I  I78  1  0.83279374  0.66637208  0.16667805  1
  I  I79  1  0.83209259  0.66632926  0.50174959  1
  I  I80  1  0.83115466  0.66350147  0.83063156  1
  I  I81  1  0.16790730  0.16841630  -0.00033736  1
  I  I82  1  0.16678615  0.16770028  0.33332235  1
  I  I83  1  0.16661178  0.16553485  0.66692419  1
  I  I84  1  0.16884518  0.49729841  -0.00316515  1
  I  I85  1  0.17266029  0.50348086  0.33694606  1
  I  I86  1  0.17231662  0.50213353  0.66689037  1
  I  I87  1  0.16720639  0.83334459  -0.00029464  1
  I  I88  1  0.17649898  0.82731101  0.33852004  1
  I  I89  1  0.16910602  0.83201401  0.66359571  1
  I  I90  1  0.50410850  0.17069314  -0.00112788  1
  I  I91  1  0.50426419  0.17004457  0.33032000  1
  I  I92  1  0.50409871  0.16942503  0.67010516  1
  I  I93  1  0.49988220  0.49956392  -0.00162640  1
  I  I94  1  0.49440099  0.49955271  0.33402568  1
  I  I95  1  0.49961661  0.49988503  0.66779463  1
  I  I96  1  0.50178631  0.82990487  -0.00299308  1
  I  I97  1  0.49549400  0.83022541  0.33673134  1
  I  I98  1  0.49732404  0.83026792  0.66698053  1
  I  I99  1  0.82606254  0.17239099  -0.00120439  1
  I  I100  1  0.82797851  0.16569332  0.33008536  1
  I  I101  1  0.82750979  0.17065104  0.67091618  1
  I  I102  1  0.83323842  0.49788328  -0.00447882  1
  I  I103  1  0.83360482  0.49822361  0.33293593  1
  I  I104  1  0.82761571  0.49353030  0.67061137  1
  I  I105  1  0.83108098  0.82921221  -0.00043009  1
  I  I106  1  0.83115642  0.83474030  0.33332808  1
  I  I107  1  0.83391668  0.83693670  0.66692344  1
  I  I108  1  -0.00341431  0.16650524  0.16262046  1
  I  I109  1  0.00000001  0.16596017  0.49929368  1
  I  I110  1  -0.00334619  0.17200715  0.83727811  1
  I  I111  1  -0.00038925  0.49788635  0.16757544  1
  I  I112  1  0.00334617  0.50394490  0.50534016  1
  I  I113  1  -0.00000002  0.49345672  0.82679005  1
  I  I114  1  -0.00000002  0.83429823  0.16763165  1
  I  I115  1  0.00341432  0.82928703  0.49983833  1
  I  I116  1  0.00038924  0.83424181  0.83121993  1
  I  I117  1  0.33729411  0.17044548  0.16239244  1
  I  I118  1  0.33378961  0.16663243  0.49959667  1
  I  I119  1  0.33706895  0.16783733  0.83698082  1
  I  I120  1  0.33767445  0.49388759  0.16180310  1
  I  I121  1  0.33485165  0.50323896  0.50509055  1
  I  I122  1  0.33519459  0.49940575  0.83229879  1
  I  I123  1  0.33393977  0.83643970  0.16339751  1
  I  I124  1  0.33479568  0.82901018  0.50417842  1
  I  I125  1  0.33781865  0.83489931  0.83221240  1
  I  I126  1  0.66520434  0.17084493  0.16234353  1
  I  I127  1  0.66621040  0.16626319  0.49996550  1
  I  I128  1  0.66514836  0.17175705  0.83657255  1
  I  I129  1  0.66218135  0.49887938  0.16823269  1
  I  I130  1  0.66293104  0.50364744  0.50117100  1
  I  I131  1  0.66480541  0.49896527  0.83273889  1
  I  I132  1  0.66606023  0.83006398  0.16977305  1
  I  I133  1  0.66270592  0.82905916  0.50377882  1
  I  I134  1  0.66232555  0.82846997  0.82722099  1
