# generated using pymatgen
data_Cs27Sn14Pb13I81
_symmetry_space_group_name_H-M   'P 1'
_cell_length_a   18.97176290
_cell_length_b   18.97751268
_cell_length_c   18.97808915
_cell_angle_alpha   89.99910227
_cell_angle_beta   89.99958993
_cell_angle_gamma   89.99868891
_symmetry_Int_Tables_number   1
_chemical_formula_structural   Cs27Sn14Pb13I81
_chemical_formula_sum   'Cs27 Sn14 Pb13 I81'
_cell_volume   6832.81182986
_cell_formula_units_Z   1
loop_
 _symmetry_equiv_pos_site_id
 _symmetry_equiv_pos_as_xyz
  1  'x, y, z'
loop_
 _atom_site_type_symbol
 _atom_site_label
 _atom_site_symmetry_multiplicity
 _atom_site_fract_x
 _atom_site_fract_y
 _atom_site_fract_z
 _atom_site_occupancy
  Cs  Cs0  1  0.00024496  -0.00117961  -0.00307894  1
  Cs  Cs1  1  -0.00227410  0.00159546  0.33223138  1
  Cs  Cs2  1  0.00051121  0.00220030  0.67010234  1
  Cs  Cs3  1  -0.00083557  0.33223675  -0.00022683  1
  Cs  Cs4  1  0.00038354  0.33569438  0.33306708  1
  Cs  Cs5  1  0.00081968  0.33132268  0.66686932  1
  Cs  Cs6  1  -0.00198811  0.67089501  -0.00043018  1
  Cs  Cs7  1  0.00209010  0.66380782  0.33504937  1
  Cs  Cs8  1  0.00116395  0.67035811  0.66580869  1
  Cs  Cs9  1  0.33371997  -0.00013432  0.00717465  1
  Cs  Cs10  1  0.34330983  -0.00684198  0.32579847  1
  Cs  Cs11  1  0.33306483  -0.00156554  0.66467794  1
  Cs  Cs12  1  0.33206114  0.33146652  -0.00267703  1
  Cs  Cs13  1  0.32853268  0.33263199  0.32894585  1
  Cs  Cs14  1  0.33036181  0.33410626  0.67062670  1
  Cs  Cs15  1  0.33444198  0.66879534  0.00129382  1
  Cs  Cs16  1  0.32619993  0.67293809  0.33614428  1
  Cs  Cs17  1  0.33231735  0.66805124  0.66317996  1
  Cs  Cs18  1  0.66766291  -0.00154448  -0.00050415  1
  Cs  Cs19  1  0.66066116  0.00039607  0.33656153  1
  Cs  Cs20  1  0.66580952  0.00119870  0.66433588  1
  Cs  Cs21  1  0.66746850  0.33656682  -0.00100861  1
  Cs  Cs22  1  0.66816440  0.33339092  0.33509063  1
  Cs  Cs23  1  0.66601858  0.33400774  0.66620665  1
  Cs  Cs24  1  0.66829772  0.66321853  -0.00025513  1
  Cs  Cs25  1  0.66821894  0.66608727  0.33286182  1
  Cs  Cs26  1  0.66672280  0.66381262  0.66743903  1
  Sn  Sn27  1  0.83302092  0.16748649  0.83393527  1
  Sn  Sn28  1  0.50008296  0.49949369  0.49840231  1
  Sn  Sn29  1  0.16525426  0.49984330  0.83350280  1
  Sn  Sn30  1  0.83461125  0.49925634  0.83306241  1
  Sn  Sn31  1  0.50029154  0.83435073  0.83319656  1
  Sn  Sn32  1  0.16671081  0.16736475  0.83248030  1
  Sn  Sn33  1  0.83294171  0.83334821  0.16791191  1
  Sn  Sn34  1  0.50014291  0.16544275  0.83323537  1
  Sn  Sn35  1  0.83328864  0.83279202  0.49944705  1
  Sn  Sn36  1  0.83273893  0.49992288  0.16677264  1
  Sn  Sn37  1  0.16727623  0.16620490  0.49984879  1
  Sn  Sn38  1  0.83282003  0.50069700  0.50018158  1
  Sn  Sn39  1  0.50033734  0.49986496  0.16835763  1
  Sn  Sn40  1  0.83300797  0.16672045  0.16603857  1
  Pb  Pb41  1  0.50231015  0.83086043  0.50180370  1
  Pb  Pb42  1  0.16633014  0.50008063  0.16389377  1
  Pb  Pb43  1  0.16449503  0.16657904  0.16635078  1
  Pb  Pb44  1  0.83190315  0.83334947  0.83307272  1
  Pb  Pb45  1  0.16635498  0.49847967  0.50209255  1
  Pb  Pb46  1  0.16398688  0.83678214  0.49999527  1
  Pb  Pb47  1  0.16953482  0.83378667  0.83334966  1
  Pb  Pb48  1  0.49995952  0.49964491  0.83332170  1
  Pb  Pb49  1  0.50270273  0.16919341  0.16443506  1
  Pb  Pb50  1  0.50268337  0.83052862  0.16484784  1
  Pb  Pb51  1  0.83443945  0.16699724  0.50008849  1
  Pb  Pb52  1  0.49713163  0.16926644  0.50188511  1
  Pb  Pb53  1  0.16372641  0.83330640  0.16673773  1
  I  I54  1  0.16406528  0.00025294  0.16339477  1
  I  I55  1  0.16291387  0.00430666  0.51050120  1
  I  I56  1  0.16180333  0.00375596  0.82978008  1
  I  I57  1  0.16403068  0.33337560  0.16789832  1
  I  I58  1  0.16313969  0.33079106  0.50431777  1
  I  I59  1  0.16744870  0.33253162  0.82997276  1
  I  I60  1  0.16490911  0.66629633  0.16392472  1
  I  I61  1  0.16821273  0.66659746  0.50206864  1
  I  I62  1  0.16240743  0.66376810  0.83401816  1
  I  I63  1  0.50120107  0.00000268  0.16627920  1
  I  I64  1  0.50104245  0.00005538  0.50086399  1
  I  I65  1  0.50200086  0.00138316  0.83286511  1
  I  I66  1  0.50735276  0.33694969  0.16692085  1
  I  I67  1  0.50959073  0.33707009  0.49991996  1
  I  I68  1  0.50040993  0.33106172  0.83351846  1
  I  I69  1  0.50761995  0.66282252  0.16506736  1
  I  I70  1  0.50201276  0.66276558  0.50086223  1
  I  I71  1  0.50209250  0.66786677  0.83373914  1
  I  I72  1  0.83623267  0.00028718  0.16498512  1
  I  I73  1  0.83640386  -0.00199959  0.49768039  1
  I  I74  1  0.83571673  0.00296467  0.83620369  1
  I  I75  1  0.83016974  0.33423197  0.16493473  1
  I  I76  1  0.83114152  0.33637598  0.49879104  1
  I  I77  1  0.83185938  0.33358128  0.83591879  1
  I  I78  1  0.82923837  0.66538939  0.16542985  1
  I  I79  1  0.83000397  0.66498964  0.49834731  1
  I  I80  1  0.83471687  0.66358348  0.83561030  1
  I  I81  1  0.16778902  0.17124226  -0.00372386  1
  I  I82  1  0.16128132  0.16867898  0.33574295  1
  I  I83  1  0.16297065  0.17136189  0.66903391  1
  I  I84  1  0.16364050  0.49242159  -0.00426854  1
  I  I85  1  0.16423932  0.49746402  0.33344958  1
  I  I86  1  0.16341023  0.49672142  0.67018271  1
  I  I87  1  0.16403489  0.83430443  -0.00034583  1
  I  I88  1  0.16914930  0.83444479  0.33360388  1
  I  I89  1  0.16344280  0.83086551  0.66679964  1
  I  I90  1  0.49543176  0.16622795  -0.00400402  1
  I  I91  1  0.49972642  0.16601457  0.33317786  1
  I  I92  1  0.50677159  0.16680107  0.67047665  1
  I  I93  1  0.50471248  0.50021560  0.00171784  1
  I  I94  1  0.51103814  0.49914765  0.33329786  1
  I  I95  1  0.50453714  0.49994511  0.66495824  1
  I  I96  1  0.50265834  0.83465630  -0.00293912  1
  I  I97  1  0.49923889  0.83465717  0.33324619  1
  I  I98  1  0.50346069  0.83438232  0.66960086  1
  I  I99  1  0.83498952  0.16991692  -0.00128268  1
  I  I100  1  0.83684040  0.16947608  0.33093598  1
  I  I101  1  0.83235784  0.16971990  0.66986403  1
  I  I102  1  0.83220867  0.49945791  -0.00010219  1
  I  I103  1  0.82846305  0.49995558  0.33312855  1
  I  I104  1  0.83191630  0.49977763  0.66700715  1
  I  I105  1  0.83123218  0.83058032  0.00216105  1
  I  I106  1  0.83362813  0.83003942  0.33290470  1
  I  I107  1  0.83138932  0.82933110  0.66446374  1
  I  I108  1  -0.00428600  0.16976656  0.16104484  1
  I  I109  1  0.00194435  0.16846534  0.50710823  1
  I  I110  1  -0.00088061  0.17182418  0.83340023  1
  I  I111  1  -0.00411385  0.49947771  0.16910506  1
  I  I112  1  -0.00352213  0.50213104  0.49759341  1
  I  I113  1  -0.00198328  0.49227648  0.83339552  1
  I  I114  1  -0.00525944  0.82980667  0.16740194  1
  I  I115  1  -0.00423385  0.82487116  0.49766245  1
  I  I116  1  -0.00024635  0.83491870  0.83394906  1
  I  I117  1  0.33369170  0.16898963  0.16513608  1
  I  I118  1  0.32967946  0.17071455  0.50876556  1
  I  I119  1  0.33287298  0.16931521  0.82776006  1
  I  I120  1  0.33623603  0.49922626  0.16827061  1
  I  I121  1  0.33578279  0.49712636  0.49909927  1
  I  I122  1  0.33142236  0.49632731  0.83318417  1
  I  I123  1  0.33409330  0.83200379  0.16461846  1
  I  I124  1  0.33358267  0.83118417  0.50261948  1
  I  I125  1  0.33730153  0.83432403  0.83293913  1
  I  I126  1  0.67104485  0.16567243  0.16145590  1
  I  I127  1  0.66668500  0.16520756  0.50150236  1
  I  I128  1  0.66780543  0.16812276  0.83803808  1
  I  I129  1  0.66893471  0.49987431  0.16348780  1
  I  I130  1  0.66859226  0.50259313  0.50277352  1
  I  I131  1  0.66968741  0.49728612  0.83366256  1
  I  I132  1  0.67085061  0.83509475  0.16917840  1
  I  I133  1  0.67041638  0.83312231  0.49680986  1
  I  I134  1  0.66437244  0.83625640  0.83360479  1
