# generated using pymatgen
data_Cs27Sn14Pb13I81
_symmetry_space_group_name_H-M   'P 1'
_cell_length_a   18.96840877
_cell_length_b   18.96840880
_cell_length_c   18.99143340
_cell_angle_alpha   90.00069812
_cell_angle_beta   89.99930175
_cell_angle_gamma   90.00213106
_symmetry_Int_Tables_number   1
_chemical_formula_structural   Cs27Sn14Pb13I81
_chemical_formula_sum   'Cs27 Sn14 Pb13 I81'
_cell_volume   6833.12783050
_cell_formula_units_Z   1
loop_
 _symmetry_equiv_pos_site_id
 _symmetry_equiv_pos_as_xyz
  1  'x, y, z'
loop_
 _atom_site_type_symbol
 _atom_site_label
 _atom_site_symmetry_multiplicity
 _atom_site_fract_x
 _atom_site_fract_y
 _atom_site_fract_z
 _atom_site_occupancy
  Cs  Cs0  1  0.00124886  0.00153142  0.00096258  1
  Cs  Cs1  1  0.00180557  -0.00187283  0.33141366  1
  Cs  Cs2  1  -0.00031507  -0.00283329  0.66847468  1
  Cs  Cs3  1  0.00162060  0.32511762  0.00056330  1
  Cs  Cs4  1  -0.00019239  0.33466322  0.33098565  1
  Cs  Cs5  1  0.00296858  0.33421169  0.67018491  1
  Cs  Cs6  1  -0.00356324  0.67022985  0.00286394  1
  Cs  Cs7  1  -0.00070394  0.66737061  0.33361104  1
  Cs  Cs8  1  -0.00051419  0.66718085  0.66566167  1
  Cs  Cs9  1  0.33334198  0.00198418  0.00004699  1
  Cs  Cs10  1  0.33400448  -0.00014369  0.33591086  1
  Cs  Cs11  1  0.33689073  -0.00172226  0.66236581  1
  Cs  Cs12  1  0.33513923  0.33152743  -0.00340605  1
  Cs  Cs13  1  0.33265356  0.33401308  0.33322794  1
  Cs  Cs14  1  0.32878082  0.33788582  0.66907949  1
  Cs  Cs15  1  0.34154922  0.66504606  0.00056321  1
  Cs  Cs16  1  0.33200328  0.66685895  0.33098557  1
  Cs  Cs17  1  0.33245508  0.66369804  0.67018497  1
  Cs  Cs18  1  0.66500379  0.00166291  -0.00139859  1
  Cs  Cs19  1  0.66293784  0.00372888  0.33873466  1
  Cs  Cs20  1  0.66290894  0.00375789  0.66279066  1
  Cs  Cs21  1  0.66468258  0.33332471  0.00004699  1
  Cs  Cs22  1  0.66681051  0.33266254  0.33591100  1
  Cs  Cs23  1  0.66838861  0.32977567  0.66236580  1
  Cs  Cs24  1  0.66513526  0.66541788  0.00096270  1
  Cs  Cs25  1  0.66853954  0.66486119  0.33141354  1
  Cs  Cs26  1  0.66949976  0.66698192  0.66847454  1
  Sn  Sn27  1  0.16638967  0.83297783  0.83364063  1
  Sn  Sn28  1  0.50065739  0.50089099  0.49994966  1
  Sn  Sn29  1  0.83393738  0.83272929  0.83345081  1
  Sn  Sn30  1  0.50002489  0.16664179  0.16625485  1
  Sn  Sn31  1  0.83275929  0.50079586  0.50007306  1
  Sn  Sn32  1  0.16587083  0.83390734  0.50007301  1
  Sn  Sn33  1  0.16625776  0.83229808  0.16634522  1
  Sn  Sn34  1  0.16589609  0.50077058  0.16606298  1
  Sn  Sn35  1  0.50002225  0.16664439  0.83373219  1
  Sn  Sn36  1  0.83436857  0.50040889  0.16634522  1
  Sn  Sn37  1  0.83368879  0.50027699  0.83364057  1
  Sn  Sn38  1  0.83363475  0.83303190  0.16683445  1
  Sn  Sn39  1  0.83391868  0.83274794  0.49977621  1
  Sn  Sn40  1  0.16577567  0.16600925  0.49994964  1
  Pb  Pb41  1  0.16849802  0.16384246  0.83098066  1
  Pb  Pb42  1  0.49755944  0.16910720  0.50019842  1
  Pb  Pb43  1  0.50042794  0.49831290  0.16815254  1
  Pb  Pb44  1  0.16562927  0.50103744  0.49843009  1
  Pb  Pb45  1  0.16835376  0.16623873  0.16815253  1
  Pb  Pb46  1  0.50012080  0.83055664  0.49994509  1
  Pb  Pb47  1  0.50061409  0.83481594  0.83329972  1
  Pb  Pb48  1  0.50042857  0.83525442  0.16682100  1
  Pb  Pb49  1  0.16405129  0.50261543  0.83678336  1
  Pb  Pb50  1  0.83610998  0.16654580  0.49994504  1
  Pb  Pb51  1  0.83185077  0.16605265  0.83329973  1
  Pb  Pb52  1  0.50282422  0.49816868  0.83098066  1
  Pb  Pb53  1  0.83141224  0.16623812  0.16682101  1
  I  I54  1  0.16279443  -0.00366843  0.16558266  1
  I  I55  1  0.16296301  -0.00236786  0.49752213  1
  I  I56  1  0.15934173  -0.00428695  0.83858597  1
  I  I57  1  0.16289906  0.33591597  0.17078512  1
  I  I58  1  0.16848471  0.33212949  0.49684087  1
  I  I59  1  0.16621053  0.33350426  0.83230377  1
  I  I60  1  0.16298140  0.66786429  0.17075266  1
  I  I61  1  0.16540636  0.67007832  0.50118336  1
  I  I62  1  0.16617547  0.67071002  0.82534044  1
  I  I63  1  0.49974853  0.00308452  0.16410770  1
  I  I64  1  0.50219022  0.00004636  0.50006347  1
  I  I65  1  0.50176710  0.00275445  0.83633567  1
  I  I66  1  0.49943333  0.33061146  0.16409621  1
  I  I67  1  0.50577218  0.33660157  0.49906365  1
  I  I68  1  0.50074473  0.33045356  0.83745857  1
  I  I69  1  0.49903030  0.66651620  0.16828459  1
  I  I70  1  0.50022265  0.66292075  0.49875570  1
  I  I71  1  0.49788393  0.66644133  0.83183596  1
  I  I72  1  0.83766837  -0.00395008  0.16639051  1
  I  I73  1  0.83490115  -0.00373526  0.49994684  1
  I  I74  1  0.83627405  -0.00404523  0.83349414  1
  I  I75  1  0.83671291  0.33689004  0.16726765  1
  I  I76  1  0.83013320  0.33671339  0.49944737  1
  I  I77  1  0.83050066  0.33643912  0.83298529  1
  I  I78  1  0.83655705  0.66684600  0.16750438  1
  I  I79  1  0.83510705  0.66707193  0.49981834  1
  I  I80  1  0.83618144  0.66746561  0.83247318  1
  I  I81  1  0.16713004  0.16638105  -0.00009215  1
  I  I82  1  0.16991824  0.16101903  0.33578137  1
  I  I83  1  0.16905352  0.16318968  0.66323864  1
  I  I84  1  0.16292133  0.50374529  0.00458061  1
  I  I85  1  0.16235584  0.50431085  0.33066335  1
  I  I86  1  0.16765151  0.49901517  0.66690755  1
  I  I87  1  0.16003829  0.82966910  0.00063119  1
  I  I88  1  0.16135693  0.83371989  0.33325315  1
  I  I89  1  0.16082325  0.83897230  0.66615282  1
  I  I90  1  0.49989245  0.16677416  0.00017618  1
  I  I91  1  0.49902172  0.16764493  0.33173606  1
  I  I92  1  0.49987445  0.16679238  0.66852774  1
  I  I93  1  0.50028560  0.49953656  -0.00009215  1
  I  I94  1  0.50564758  0.49674865  0.33578140  1
  I  I95  1  0.50347697  0.49761295  0.66323864  1
  I  I96  1  0.49981504  0.83219459  0.00008613  1
  I  I97  1  0.49933599  0.83759603  0.33341823  1
  I  I98  1  0.49936634  0.83733399  0.66654330  1
  I  I99  1  0.83447230  0.16685141  0.00008610  1
  I  I100  1  0.82907038  0.16733121  0.33341827  1
  I  I101  1  0.82933262  0.16730045  0.66654331  1
  I  I102  1  0.83699756  0.50662844  0.00063118  1
  I  I103  1  0.83294682  0.50530954  0.33325313  1
  I  I104  1  0.82769449  0.50584341  0.66615284  1
  I  I105  1  0.83915248  0.82751426  0.00025361  1
  I  I106  1  0.83960565  0.82706091  0.33344826  1
  I  I107  1  0.83951931  0.82714744  0.66630888  1
  I  I108  1  0.00015041  0.16763650  0.16828482  1
  I  I109  1  0.00374596  0.16644426  0.49875528  1
  I  I110  1  0.00022534  0.16878223  0.83183591  1
  I  I111  1  -0.00119764  0.50368543  0.17075254  1
  I  I112  1  -0.00341163  0.50126022  0.50118341  1
  I  I113  1  -0.00404334  0.50049104  0.82534053  1
  I  I114  1  -0.00017928  0.83010934  0.16750435  1
  I  I115  1  -0.00040526  0.83155953  0.49981836  1
  I  I116  1  -0.00079886  0.83048566  0.83247321  1
  I  I117  1  0.33605516  0.16723309  0.16409621  1
  I  I118  1  0.33006514  0.16089439  0.49906377  1
  I  I119  1  0.33621310  0.16592298  0.83745861  1
  I  I120  1  0.33075070  0.50376770  0.17078508  1
  I  I121  1  0.33453720  0.49818212  0.49684084  1
  I  I122  1  0.33316240  0.50045568  0.83230384  1
  I  I123  1  0.32977663  0.82995387  0.16726797  1
  I  I124  1  0.32995322  0.83653342  0.49944724  1
  I  I125  1  0.33022758  0.83616569  0.83298513  1
  I  I126  1  0.66358214  0.16691796  0.16410752  1
  I  I127  1  0.66662030  0.16447638  0.50006356  1
  I  I128  1  0.66391226  0.16489891  0.83633576  1
  I  I129  1  0.67033509  0.50387194  0.16558279  1
  I  I130  1  0.66903448  0.50370345  0.49752191  1
  I  I131  1  0.67095367  0.50732558  0.83858605  1
  I  I132  1  0.67061674  0.82899839  0.16639023  1
  I  I133  1  0.67040194  0.83176562  0.49994709  1
  I  I134  1  0.67071194  0.83039232  0.83349426  1
