# generated using pymatgen
data_Cs27Sn13Pb14I81
_symmetry_space_group_name_H-M   'P 1'
_cell_length_a   18.97328644
_cell_length_b   18.98253720
_cell_length_c   18.97341343
_cell_angle_alpha   90.00214908
_cell_angle_beta   90.00282136
_cell_angle_gamma   89.99991095
_symmetry_Int_Tables_number   1
_chemical_formula_structural   Cs27Sn13Pb14I81
_chemical_formula_sum   'Cs27 Sn13 Pb14 I81'
_cell_volume   6833.48573403
_cell_formula_units_Z   1
loop_
 _symmetry_equiv_pos_site_id
 _symmetry_equiv_pos_as_xyz
  1  'x, y, z'
loop_
 _atom_site_type_symbol
 _atom_site_label
 _atom_site_symmetry_multiplicity
 _atom_site_fract_x
 _atom_site_fract_y
 _atom_site_fract_z
 _atom_site_occupancy
  Cs  Cs0  1  0.00080559  -0.00149606  -0.00233587  1
  Cs  Cs1  1  0.00455874  0.00281879  0.33605551  1
  Cs  Cs2  1  0.00048042  0.00076175  0.66662634  1
  Cs  Cs3  1  0.00205724  0.33581180  0.00237738  1
  Cs  Cs4  1  -0.00123292  0.33475804  0.33347261  1
  Cs  Cs5  1  -0.00142472  0.33216802  0.66551000  1
  Cs  Cs6  1  0.00168372  0.66641280  0.00179659  1
  Cs  Cs7  1  -0.00050054  0.66145624  0.33312705  1
  Cs  Cs8  1  -0.00299432  0.66600557  0.66739113  1
  Cs  Cs9  1  0.33374687  0.00052903  -0.00031880  1
  Cs  Cs10  1  0.33068834  -0.00413220  0.33449281  1
  Cs  Cs11  1  0.33026447  -0.00097845  0.66660158  1
  Cs  Cs12  1  0.33406163  0.33539344  -0.00318437  1
  Cs  Cs13  1  0.33232625  0.33460332  0.33446132  1
  Cs  Cs14  1  0.33799239  0.33518426  0.66982622  1
  Cs  Cs15  1  0.32935347  0.66399181  -0.00208440  1
  Cs  Cs16  1  0.33904784  0.66916016  0.33514183  1
  Cs  Cs17  1  0.33800759  0.66542846  0.66645422  1
  Cs  Cs18  1  0.66383510  -0.00126400  0.00678289  1
  Cs  Cs19  1  0.66380658  0.00083993  0.32604448  1
  Cs  Cs20  1  0.67027375  0.00273034  0.66871613  1
  Cs  Cs21  1  0.66311698  0.32864438  0.00229153  1
  Cs  Cs22  1  0.66822849  0.33214813  0.33278863  1
  Cs  Cs23  1  0.66617259  0.33327195  0.66593500  1
  Cs  Cs24  1  0.67090842  0.67403218  0.00391245  1
  Cs  Cs25  1  0.66126268  0.66813368  0.33247807  1
  Cs  Cs26  1  0.66839163  0.66487093  0.66518528  1
  Sn  Sn27  1  0.16643589  0.16630197  0.16571084  1
  Sn  Sn28  1  0.49948089  0.83357468  0.83290539  1
  Sn  Sn29  1  0.83334531  0.83368156  0.49954099  1
  Sn  Sn30  1  0.83228134  0.16634844  0.50051473  1
  Sn  Sn31  1  0.50068602  0.16621734  0.50026466  1
  Sn  Sn32  1  0.16741645  0.83383202  0.83367476  1
  Sn  Sn33  1  0.83334869  0.49885246  0.83327771  1
  Sn  Sn34  1  0.83401439  0.50003353  0.50076680  1
  Sn  Sn35  1  0.83406534  0.16761701  0.83316164  1
  Sn  Sn36  1  0.50008430  0.49971931  0.16624250  1
  Sn  Sn37  1  0.16635365  0.83385366  0.16627201  1
  Sn  Sn38  1  0.16660782  0.50006831  0.50061021  1
  Sn  Sn39  1  0.16588816  0.16633539  0.83405401  1
  Pb  Pb40  1  0.83572620  0.16660086  0.16632664  1
  Pb  Pb41  1  0.50095924  0.49830147  0.49888802  1
  Pb  Pb42  1  0.16496311  0.83092034  0.50063393  1
  Pb  Pb43  1  0.50258813  0.83595169  0.50203902  1
  Pb  Pb44  1  0.16821392  0.50012345  0.16876522  1
  Pb  Pb45  1  0.16634211  0.16835280  0.50077770  1
  Pb  Pb46  1  0.49683506  0.16806244  0.16895018  1
  Pb  Pb47  1  0.83633233  0.83351328  0.16991074  1
  Pb  Pb48  1  0.83114689  0.49986768  0.16663374  1
  Pb  Pb49  1  0.16489350  0.49992499  0.83128096  1
  Pb  Pb50  1  0.50355746  0.50226344  0.83549701  1
  Pb  Pb51  1  0.49721721  0.83172014  0.16437188  1
  Pb  Pb52  1  0.83388880  0.83384718  0.83216342  1
  Pb  Pb53  1  0.50013236  0.16496576  0.83190950  1
  I  I54  1  0.16645419  0.00019579  0.16419870  1
  I  I55  1  0.16551650  0.00001128  0.49904614  1
  I  I56  1  0.16421034  0.00046989  0.83609122  1
  I  I57  1  0.16768658  0.33080486  0.16387564  1
  I  I58  1  0.16113166  0.33585979  0.49873689  1
  I  I59  1  0.16392646  0.33044392  0.83608680  1
  I  I60  1  0.16749769  0.66923911  0.16280945  1
  I  I61  1  0.16055461  0.66337362  0.49921241  1
  I  I62  1  0.16801404  0.66934559  0.83653088  1
  I  I63  1  0.50116297  -0.00004324  0.16716582  1
  I  I64  1  0.50384461  0.00362430  0.49999521  1
  I  I65  1  0.50041974  -0.00276595  0.83224062  1
  I  I66  1  0.49835602  0.33560034  0.16716548  1
  I  I67  1  0.50425684  0.33057148  0.50045824  1
  I  I68  1  0.49754591  0.33325661  0.83320255  1
  I  I69  1  0.49869960  0.66421152  0.16920168  1
  I  I70  1  0.50041048  0.66681766  0.49900846  1
  I  I71  1  0.49390053  0.66986643  0.83276617  1
  I  I72  1  0.83002823  0.00007476  0.16649356  1
  I  I73  1  0.83043104  0.00134990  0.50530869  1
  I  I74  1  0.83567161  0.00289963  0.82723358  1
  I  I75  1  0.83613079  0.33322758  0.17095996  1
  I  I76  1  0.83375707  0.33316519  0.50420734  1
  I  I77  1  0.83889903  0.33229873  0.82434843  1
  I  I78  1  0.83556441  0.66666646  0.16553137  1
  I  I79  1  0.83911695  0.66556352  0.50466626  1
  I  I80  1  0.83271936  0.66469450  0.82794893  1
  I  I81  1  0.16141084  0.16335015  -0.00122532  1
  I  I82  1  0.16721642  0.16390250  0.33161367  1
  I  I83  1  0.16469458  0.16252937  0.66961657  1
  I  I84  1  0.16573954  0.50017788  -0.00022239  1
  I  I85  1  0.16004983  0.49844516  0.33651240  1
  I  I86  1  0.16448021  0.49927644  0.66348666  1
  I  I87  1  0.16967564  0.83666956  -0.00096448  1
  I  I88  1  0.16395955  0.83730823  0.33119241  1
  I  I89  1  0.16816853  0.83802852  0.66974977  1
  I  I90  1  0.50273197  0.16664394  -0.00003081  1
  I  I91  1  0.50620728  0.16769234  0.33677091  1
  I  I92  1  0.49988139  0.16797221  0.66394252  1
  I  I93  1  0.49827608  0.49889345  0.00269866  1
  I  I94  1  0.49999200  0.49992896  0.33123886  1
  I  I95  1  0.49820633  0.50015063  0.66684309  1
  I  I96  1  0.50126025  0.83417443  -0.00340419  1
  I  I97  1  0.49961367  0.83272477  0.33333046  1
  I  I98  1  0.49199853  0.83245582  0.66964981  1
  I  I99  1  0.83586991  0.17162437  -0.00362773  1
  I  I100  1  0.83144518  0.16817480  0.33674916  1
  I  I101  1  0.83593755  0.16729153  0.66632852  1
  I  I102  1  0.83257760  0.49566176  -0.00316850  1
  I  I103  1  0.83692336  0.49872710  0.33689322  1
  I  I104  1  0.83705333  0.49943826  0.66549442  1
  I  I105  1  0.83115335  0.83254210  -0.00012106  1
  I  I106  1  0.83426114  0.83244413  0.33803079  1
  I  I107  1  0.83596481  0.83309416  0.66410604  1
  I  I108  1  0.00374119  0.16432348  0.16836826  1
  I  I109  1  -0.00296548  0.16585965  0.50106109  1
  I  I110  1  0.00005447  0.16405372  0.83022502  1
  I  I111  1  0.00008841  0.50034364  0.16690897  1
  I  I112  1  -0.00170457  0.49776267  0.50184071  1
  I  I113  1  -0.00314660  0.50091089  0.83085636  1
  I  I114  1  0.00410390  0.83547712  0.15866860  1
  I  I115  1  -0.00298223  0.83814692  0.50259118  1
  I  I116  1  0.00281645  0.83470465  0.83562384  1
  I  I117  1  0.32908493  0.16370914  0.16274586  1
  I  I118  1  0.33486632  0.16982426  0.49945078  1
  I  I119  1  0.33034314  0.16418589  0.83469318  1
  I  I120  1  0.33559773  0.49969367  0.16971383  1
  I  I121  1  0.33150431  0.49755946  0.49757219  1
  I  I122  1  0.33338116  0.49817151  0.83161934  1
  I  I123  1  0.32944400  0.83709345  0.16719916  1
  I  I124  1  0.33325306  0.83298566  0.49835835  1
  I  I125  1  0.33156742  0.83871508  0.83621009  1
  I  I126  1  0.66649263  0.16808195  0.16519623  1
  I  I127  1  0.66889136  0.16936632  0.50608261  1
  I  I128  1  0.66977275  0.16927717  0.82871668  1
  I  I129  1  0.66373225  0.50014031  0.16884233  1
  I  I130  1  0.67031485  0.50107918  0.50285664  1
  I  I131  1  0.67120240  0.49531912  0.82513435  1
  I  I132  1  0.66644093  0.83160182  0.16541452  1
  I  I133  1  0.67052624  0.82731970  0.50362051  1
  I  I134  1  0.66520000  0.83201225  0.82976562  1
