# generated using pymatgen
data_Cs27Sn14Pb13I81
_symmetry_space_group_name_H-M   'P 1'
_cell_length_a   18.96713762
_cell_length_b   18.98067132
_cell_length_c   18.98117721
_cell_angle_alpha   90.00034035
_cell_angle_beta   90.00016454
_cell_angle_gamma   90.00207843
_symmetry_Int_Tables_number   1
_chemical_formula_structural   Cs27Sn14Pb13I81
_chemical_formula_sum   'Cs27 Sn14 Pb13 I81'
_cell_volume   6833.39471625
_cell_formula_units_Z   1
loop_
 _symmetry_equiv_pos_site_id
 _symmetry_equiv_pos_as_xyz
  1  'x, y, z'
loop_
 _atom_site_type_symbol
 _atom_site_label
 _atom_site_symmetry_multiplicity
 _atom_site_fract_x
 _atom_site_fract_y
 _atom_site_fract_z
 _atom_site_occupancy
  Cs  Cs0  1  -0.00353341  -0.00232786  0.00216170  1
  Cs  Cs1  1  0.00246145  0.00061396  0.33104876  1
  Cs  Cs2  1  -0.00422776  -0.00437864  0.66813710  1
  Cs  Cs3  1  -0.00250547  0.33617553  0.00156564  1
  Cs  Cs4  1  -0.00032465  0.33231791  0.33432583  1
  Cs  Cs5  1  0.00018274  0.33358456  0.66253990  1
  Cs  Cs6  1  0.00091862  0.66567219  -0.00060465  1
  Cs  Cs7  1  -0.00011894  0.66767083  0.33136350  1
  Cs  Cs8  1  -0.00010192  0.67059356  0.66905215  1
  Cs  Cs9  1  0.33488893  0.00116987  -0.00002493  1
  Cs  Cs10  1  0.33148359  0.00034804  0.33372420  1
  Cs  Cs11  1  0.33278629  0.00403544  0.66674974  1
  Cs  Cs12  1  0.33328565  0.33346828  -0.00061058  1
  Cs  Cs13  1  0.33204184  0.33236961  0.33339991  1
  Cs  Cs14  1  0.33318485  0.32960881  0.66770424  1
  Cs  Cs15  1  0.33273383  0.66310111  0.00025197  1
  Cs  Cs16  1  0.33920681  0.66685395  0.33140586  1
  Cs  Cs17  1  0.33146816  0.66748073  0.66894709  1
  Cs  Cs18  1  0.66679863  0.00142264  -0.00028938  1
  Cs  Cs19  1  0.66820971  -0.00325412  0.33311673  1
  Cs  Cs20  1  0.67231179  -0.00331183  0.66815510  1
  Cs  Cs21  1  0.66824104  0.33289963  -0.00198001  1
  Cs  Cs22  1  0.67108607  0.33546368  0.33693072  1
  Cs  Cs23  1  0.66737097  0.33567484  0.66807321  1
  Cs  Cs24  1  0.66585817  0.66462373  0.00170599  1
  Cs  Cs25  1  0.66007667  0.66697974  0.33883565  1
  Cs  Cs26  1  0.66782685  0.66561948  0.65982580  1
  Sn  Sn27  1  0.16743745  0.16609126  0.16620093  1
  Sn  Sn28  1  0.16707032  0.83346248  0.49927124  1
  Sn  Sn29  1  0.49976151  0.16654635  0.50010845  1
  Sn  Sn30  1  0.83322171  0.50122988  0.16642581  1
  Sn  Sn31  1  0.16651580  0.16656153  0.83368395  1
  Sn  Sn32  1  0.16711313  0.50035624  0.49984533  1
  Sn  Sn33  1  0.16646792  0.83379906  0.16707189  1
  Sn  Sn34  1  0.16719774  0.16623144  0.50015163  1
  Sn  Sn35  1  0.50058725  0.50003584  0.83344101  1
  Sn  Sn36  1  0.49972848  0.83345394  0.83338236  1
  Sn  Sn37  1  0.83353330  0.83196240  0.16657706  1
  Sn  Sn38  1  0.49946357  0.16689355  0.16687255  1
  Sn  Sn39  1  0.83280249  0.49998135  0.83384044  1
  Sn  Sn40  1  0.49945719  0.16645485  0.83318911  1
  Pb  Pb41  1  0.16523184  0.49991190  0.16852256  1
  Pb  Pb42  1  0.50226955  0.49711979  0.16498628  1
  Pb  Pb43  1  0.16827224  0.83573855  0.83405698  1
  Pb  Pb44  1  0.83350544  0.16638997  0.50009676  1
  Pb  Pb45  1  0.83344033  0.16664009  0.16665316  1
  Pb  Pb46  1  0.16660837  0.49766244  0.83150462  1
  Pb  Pb47  1  0.83584283  0.83332125  0.49712558  1
  Pb  Pb48  1  0.49945163  0.83529618  0.16506838  1
  Pb  Pb49  1  0.83558557  0.50017385  0.50000020  1
  Pb  Pb50  1  0.83074036  0.83063756  0.83566895  1
  Pb  Pb51  1  0.49749131  0.49770931  0.50246155  1
  Pb  Pb52  1  0.83326943  0.16864175  0.83329900  1
  Pb  Pb53  1  0.49738703  0.83592045  0.50234157  1
  I  I54  1  0.16447342  0.00081792  0.17095360  1
  I  I55  1  0.17094085  0.00108784  0.49839261  1
  I  I56  1  0.17306240  0.00389926  0.82950335  1
  I  I57  1  0.16907503  0.33005926  0.16732545  1
  I  I58  1  0.16948788  0.33157690  0.50061975  1
  I  I59  1  0.17228708  0.32947907  0.83389302  1
  I  I60  1  0.16381728  0.66945465  0.17092421  1
  I  I61  1  0.16420335  0.66739051  0.49618080  1
  I  I62  1  0.16854329  0.66666964  0.83205245  1
  I  I63  1  0.50030833  0.00357035  0.16358600  1
  I  I64  1  0.49321370  0.00406851  0.50160952  1
  I  I65  1  0.49384711  0.00180213  0.83383316  1
  I  I66  1  0.49383712  0.32900810  0.16420616  1
  I  I67  1  0.49344688  0.32954264  0.50145991  1
  I  I68  1  0.50022754  0.33207028  0.83329664  1
  I  I69  1  0.49749687  0.66658969  0.16343528  1
  I  I70  1  0.49810652  0.66673835  0.50206308  1
  I  I71  1  0.50393902  0.66616681  0.83457337  1
  I  I72  1  0.83547772  -0.00241561  0.16759810  1
  I  I73  1  0.83461618  -0.00023164  0.49888645  1
  I  I74  1  0.83256739  -0.00031210  0.83438573  1
  I  I75  1  0.83311714  0.33577140  0.16234910  1
  I  I76  1  0.83685053  0.33346477  0.49705481  1
  I  I77  1  0.82825439  0.33644386  0.84041565  1
  I  I78  1  0.84114389  0.66694417  0.16124301  1
  I  I79  1  0.83574392  0.66670697  0.50262282  1
  I  I80  1  0.82970444  0.66284864  0.83514155  1
  I  I81  1  0.17316897  0.16271206  0.00054722  1
  I  I82  1  0.17195240  0.16616667  0.33334895  1
  I  I83  1  0.17310059  0.16796688  0.66624771  1
  I  I84  1  0.16762208  0.49946076  -0.00012557  1
  I  I85  1  0.16382468  0.49392196  0.33630823  1
  I  I86  1  0.16550941  0.49922344  0.66364945  1
  I  I87  1  0.16391416  0.83853481  0.00307941  1
  I  I88  1  0.16236186  0.83919578  0.33287194  1
  I  I89  1  0.16974129  0.83454339  0.66433160  1
  I  I90  1  0.49384969  0.16676367  -0.00076801  1
  I  I91  1  0.49271903  0.16629084  0.33324529  1
  I  I92  1  0.49226520  0.16785372  0.66745057  1
  I  I93  1  0.49965512  0.49681268  -0.00336159  1
  I  I94  1  0.50148461  0.49854532  0.33349981  1
  I  I95  1  0.50636698  0.49732311  0.67058878  1
  I  I96  1  0.49792939  0.83687563  -0.00282871  1
  I  I97  1  0.50265881  0.83494036  0.33334832  1
  I  I98  1  0.49793594  0.83542558  0.67022685  1
  I  I99  1  0.83395756  0.16580257  0.00007984  1
  I  I100  1  0.83237915  0.17014077  0.33310387  1
  I  I101  1  0.83448975  0.16942063  0.66682570  1
  I  I102  1  0.83073860  0.50224391  -0.00002661  1
  I  I103  1  0.83640773  0.50198245  0.33046130  1
  I  I104  1  0.82931520  0.49715065  0.66951479  1
  I  I105  1  0.84139842  0.83270223  0.00330853  1
  I  I106  1  0.83332821  0.82773909  0.32909222  1
  I  I107  1  0.83432157  0.83262488  0.66685092  1
  I  I108  1  0.00350609  0.16600997  0.16762058  1
  I  I109  1  0.00446046  0.16751381  0.49919194  1
  I  I110  1  0.00325411  0.16830814  0.83291713  1
  I  I111  1  -0.00275252  0.49875240  0.16018902  1
  I  I112  1  0.00367747  0.49503228  0.50214302  1
  I  I113  1  -0.00230603  0.49754661  0.83598253  1
  I  I114  1  0.00126968  0.83648652  0.16997439  1
  I  I115  1  0.00439949  0.83747353  0.50113750  1
  I  I116  1  0.00009491  0.83350250  0.83094665  1
  I  I117  1  0.33220409  0.16147524  0.16629709  1
  I  I118  1  0.33206887  0.16692894  0.50079929  1
  I  I119  1  0.33413799  0.16917422  0.83312293  1
  I  I120  1  0.33341381  0.50228984  0.16555020  1
  I  I121  1  0.32953754  0.50054926  0.50077260  1
  I  I122  1  0.33607263  0.49978710  0.83117760  1
  I  I123  1  0.33016376  0.83697252  0.16998744  1
  I  I124  1  0.32928958  0.83203167  0.49233892  1
  I  I125  1  0.33621347  0.82931269  0.83536907  1
  I  I126  1  0.66364240  0.16688888  0.16452101  1
  I  I127  1  0.66312350  0.16799284  0.50053178  1
  I  I128  1  0.66285910  0.16532529  0.83418139  1
  I  I129  1  0.67026577  0.50430730  0.16518604  1
  I  I130  1  0.66636195  0.49751445  0.49868410  1
  I  I131  1  0.66583985  0.49619261  0.83782015  1
  I  I132  1  0.66882554  0.83200419  0.16255315  1
  I  I133  1  0.66627572  0.83487691  0.49972126  1
  I  I134  1  0.66285075  0.84147515  0.83544822  1
