# generated using pymatgen
data_Cs27Sn14Pb13I81
_symmetry_space_group_name_H-M   'P 1'
_cell_length_a   18.98042729
_cell_length_b   18.97121844
_cell_length_c   18.97503666
_cell_angle_alpha   90.00033386
_cell_angle_beta   89.99913872
_cell_angle_gamma   90.00051759
_symmetry_Int_Tables_number   1
_chemical_formula_structural   Cs27Sn14Pb13I81
_chemical_formula_sum   'Cs27 Sn14 Pb13 I81'
_cell_volume   6832.56596616
_cell_formula_units_Z   1
loop_
 _symmetry_equiv_pos_site_id
 _symmetry_equiv_pos_as_xyz
  1  'x, y, z'
loop_
 _atom_site_type_symbol
 _atom_site_label
 _atom_site_symmetry_multiplicity
 _atom_site_fract_x
 _atom_site_fract_y
 _atom_site_fract_z
 _atom_site_occupancy
  Cs  Cs0  1  -0.00113202  -0.00194216  0.00040495  1
  Cs  Cs1  1  -0.00018992  -0.00045057  0.33831352  1
  Cs  Cs2  1  0.00063128  -0.00046748  0.66445712  1
  Cs  Cs3  1  0.00254016  0.33315819  0.00125772  1
  Cs  Cs4  1  -0.00230449  0.34243746  0.33314057  1
  Cs  Cs5  1  -0.00382646  0.33243496  0.66541920  1
  Cs  Cs6  1  -0.00314394  0.66816621  0.00001987  1
  Cs  Cs7  1  0.00039551  0.66065348  0.32867401  1
  Cs  Cs8  1  0.00377770  0.66961634  0.67047267  1
  Cs  Cs9  1  0.33400777  0.00509254  0.00117787  1
  Cs  Cs10  1  0.33362317  -0.00147201  0.33290467  1
  Cs  Cs11  1  0.33178719  -0.00031815  0.66590916  1
  Cs  Cs12  1  0.33473135  0.32631291  0.00098684  1
  Cs  Cs13  1  0.32955492  0.33484918  0.32965802  1
  Cs  Cs14  1  0.33292763  0.33365073  0.66900746  1
  Cs  Cs15  1  0.33532236  0.66706017  -0.00146486  1
  Cs  Cs16  1  0.33482607  0.66747463  0.33533410  1
  Cs  Cs17  1  0.33445584  0.66669825  0.66623013  1
  Cs  Cs18  1  0.66763777  0.00003886  0.00152687  1
  Cs  Cs19  1  0.66682059  0.00182300  0.33554672  1
  Cs  Cs20  1  0.66877760  0.00067198  0.66371833  1
  Cs  Cs21  1  0.66351134  0.33249886  -0.00165939  1
  Cs  Cs22  1  0.67218913  0.33188528  0.33738845  1
  Cs  Cs23  1  0.67045737  0.33243597  0.66564325  1
  Cs  Cs24  1  0.66735801  0.66717109  -0.00083533  1
  Cs  Cs25  1  0.66289949  0.66390861  0.33116707  1
  Cs  Cs26  1  0.65999528  0.66657836  0.66959532  1
  Sn  Sn27  1  0.16727089  0.83355065  0.16637292  1
  Sn  Sn28  1  0.83372848  0.16649509  0.16584654  1
  Sn  Sn29  1  0.49961700  0.50045252  0.83430256  1
  Sn  Sn30  1  0.16776896  0.83297886  0.83383313  1
  Sn  Sn31  1  0.83403824  0.83238414  0.49990768  1
  Sn  Sn32  1  0.16706494  0.50045950  0.83350464  1
  Sn  Sn33  1  0.49902318  0.83339957  0.83421559  1
  Sn  Sn34  1  0.16560989  0.83366366  0.49971984  1
  Sn  Sn35  1  0.49923838  0.83291998  0.16569917  1
  Sn  Sn36  1  0.49844522  0.16690720  0.50013119  1
  Sn  Sn37  1  0.49992411  0.50040467  0.16582131  1
  Sn  Sn38  1  0.83331923  0.49925782  0.83343962  1
  Sn  Sn39  1  0.83351552  0.16697234  0.83451506  1
  Sn  Sn40  1  0.16768296  0.16658188  0.49991442  1
  Pb  Pb41  1  0.49981431  0.49710619  0.50014234  1
  Pb  Pb42  1  0.83292368  0.83454964  0.16894805  1
  Pb  Pb43  1  0.50143057  0.16656919  0.16882772  1
  Pb  Pb44  1  0.16446791  0.16619959  0.83168831  1
  Pb  Pb45  1  0.83332157  0.50377333  0.50269155  1
  Pb  Pb46  1  0.83304925  0.83315705  0.83195225  1
  Pb  Pb47  1  0.50183326  0.16630883  0.83157465  1
  Pb  Pb48  1  0.16673502  0.50058544  0.50223785  1
  Pb  Pb49  1  0.49937180  0.83449432  0.50000951  1
  Pb  Pb50  1  0.83425687  0.16559111  0.50006360  1
  Pb  Pb51  1  0.83082156  0.49789878  0.16405267  1
  Pb  Pb52  1  0.16423759  0.16438681  0.16938128  1
  Pb  Pb53  1  0.16909786  0.50248263  0.16358802  1
  I  I54  1  0.17327728  -0.00402251  0.16125460  1
  I  I55  1  0.16626837  -0.00160337  0.50309100  1
  I  I56  1  0.16976059  -0.00351888  0.83371934  1
  I  I57  1  0.16738333  0.33344502  0.16733282  1
  I  I58  1  0.17048749  0.33068882  0.50268246  1
  I  I59  1  0.16900597  0.33592584  0.83064789  1
  I  I60  1  0.16633409  0.67084859  0.17290659  1
  I  I61  1  0.16256556  0.67044788  0.49937240  1
  I  I62  1  0.16513145  0.66791009  0.83061388  1
  I  I63  1  0.49749173  -0.00315591  0.16340047  1
  I  I64  1  0.50018344  0.00219863  0.50051288  1
  I  I65  1  0.49647107  -0.00315815  0.83594239  1
  I  I66  1  0.50227889  0.33584843  0.16195618  1
  I  I67  1  0.49622843  0.32930696  0.50073848  1
  I  I68  1  0.49770254  0.33630158  0.83640523  1
  I  I69  1  0.49756114  0.66783457  0.16342176  1
  I  I70  1  0.50081861  0.66662143  0.50042709  1
  I  I71  1  0.50233226  0.66693141  0.83533411  1
  I  I72  1  0.83074541  0.00231088  0.16020227  1
  I  I73  1  0.83450100  -0.00222926  0.50343297  1
  I  I74  1  0.83298953  0.00196002  0.83386937  1
  I  I75  1  0.83151403  0.33002312  0.16764022  1
  I  I76  1  0.83297291  0.33350831  0.49880625  1
  I  I77  1  0.83245777  0.33377679  0.83558329  1
  I  I78  1  0.83477797  0.66656578  0.16704831  1
  I  I79  1  0.83976686  0.67132441  0.50056855  1
  I  I80  1  0.83299833  0.66422483  0.83018258  1
  I  I81  1  0.16637094  0.16588903  0.00003649  1
  I  I82  1  0.16891892  0.15957411  0.33724767  1
  I  I83  1  0.16768598  0.16003838  0.66389759  1
  I  I84  1  0.16322861  0.50509936  -0.00449432  1
  I  I85  1  0.16806318  0.50002262  0.33290175  1
  I  I86  1  0.16973325  0.50604158  0.67066425  1
  I  I87  1  0.17054402  0.82845656  -0.00080343  1
  I  I88  1  0.16712886  0.83995497  0.33361080  1
  I  I89  1  0.16617933  0.83323203  0.66716406  1
  I  I90  1  0.50095747  0.16629145  -0.00002424  1
  I  I91  1  0.49993419  0.16438258  0.33640608  1
  I  I92  1  0.49949799  0.16488915  0.66393612  1
  I  I93  1  0.50096228  0.50453687  -0.00148198  1
  I  I94  1  0.50018467  0.50501283  0.33036350  1
  I  I95  1  0.50014913  0.50462196  0.67046762  1
  I  I96  1  0.49368218  0.83027488  -0.00057593  1
  I  I97  1  0.49791147  0.83070670  0.33071950  1
  I  I98  1  0.49812671  0.82971980  0.66946749  1
  I  I99  1  0.83175375  0.16849017  -0.00097747  1
  I  I100  1  0.83130202  0.16231219  0.33172511  1
  I  I101  1  0.83269142  0.16981657  0.66884684  1
  I  I102  1  0.83543030  0.50065374  -0.00413433  1
  I  I103  1  0.83150870  0.49757190  0.33300463  1
  I  I104  1  0.83035964  0.49211424  0.67102126  1
  I  I105  1  0.83572264  0.83325472  -0.00007618  1
  I  I106  1  0.83655942  0.83912221  0.33661004  1
  I  I107  1  0.83724774  0.83658145  0.66425831  1
  I  I108  1  -0.00332143  0.16412125  0.16356046  1
  I  I109  1  0.00257469  0.16152498  0.50166382  1
  I  I110  1  -0.00338273  0.16970297  0.83343989  1
  I  I111  1  0.00008298  0.50013814  0.16611369  1
  I  I112  1  0.00001296  0.49435301  0.50145393  1
  I  I113  1  0.00030087  0.50097218  0.83042195  1
  I  I114  1  0.00279993  0.83647402  0.16404373  1
  I  I115  1  0.00191049  0.84110459  0.50227185  1
  I  I116  1  0.00278328  0.83074601  0.83429238  1
  I  I117  1  0.33318536  0.16803621  0.16699453  1
  I  I118  1  0.33253287  0.15915669  0.50118674  1
  I  I119  1  0.33320299  0.16900520  0.83250395  1
  I  I120  1  0.33693984  0.50003256  0.16148191  1
  I  I121  1  0.33336417  0.50354886  0.50319913  1
  I  I122  1  0.33389323  0.50602298  0.83513078  1
  I  I123  1  0.33360659  0.83040201  0.16863758  1
  I  I124  1  0.33036552  0.83612804  0.50080743  1
  I  I125  1  0.33301368  0.82585833  0.83054665  1
  I  I126  1  0.66911621  0.16415282  0.16566463  1
  I  I127  1  0.66544000  0.16416933  0.50021045  1
  I  I128  1  0.66969723  0.16951494  0.83281924  1
  I  I129  1  0.66305078  0.50740200  0.16121969  1
  I  I130  1  0.66655863  0.49910140  0.50266324  1
  I  I131  1  0.66580439  0.50074827  0.83642497  1
  I  I132  1  0.66347942  0.83118934  0.16295510  1
  I  I133  1  0.66801790  0.83734222  0.50155322  1
  I  I134  1  0.66389031  0.83057683  0.83548865  1
