# generated using pymatgen
data_Cs27Sn14Pb13I81
_symmetry_space_group_name_H-M   'P 1'
_cell_length_a   18.98275027
_cell_length_b   18.97372230
_cell_length_c   18.97029804
_cell_angle_alpha   89.99923219
_cell_angle_beta   90.00091629
_cell_angle_gamma   90.00122961
_symmetry_Int_Tables_number   1
_chemical_formula_structural   Cs27Sn14Pb13I81
_chemical_formula_sum   'Cs27 Sn14 Pb13 I81'
_cell_volume   6832.59735130
_cell_formula_units_Z   1
loop_
 _symmetry_equiv_pos_site_id
 _symmetry_equiv_pos_as_xyz
  1  'x, y, z'
loop_
 _atom_site_type_symbol
 _atom_site_label
 _atom_site_symmetry_multiplicity
 _atom_site_fract_x
 _atom_site_fract_y
 _atom_site_fract_z
 _atom_site_occupancy
  Cs  Cs0  1  0.00123273  0.00151354  0.00085074  1
  Cs  Cs1  1  0.00047311  -0.00113982  0.33526512  1
  Cs  Cs2  1  -0.00059686  -0.00031724  0.66218107  1
  Cs  Cs3  1  -0.00056570  0.33159429  0.00145042  1
  Cs  Cs4  1  0.00635058  0.33513824  0.33058065  1
  Cs  Cs5  1  -0.00198729  0.33746351  0.66799089  1
  Cs  Cs6  1  -0.00373459  0.66630759  -0.00200289  1
  Cs  Cs7  1  0.00220011  0.66816939  0.33408552  1
  Cs  Cs8  1  -0.00142187  0.66504456  0.66807132  1
  Cs  Cs9  1  0.33267454  0.00121998  -0.00343582  1
  Cs  Cs10  1  0.33205762  -0.00244532  0.33142595  1
  Cs  Cs11  1  0.33393730  0.00150826  0.67248351  1
  Cs  Cs12  1  0.32883559  0.32847287  0.00192101  1
  Cs  Cs13  1  0.33075132  0.34158828  0.33603353  1
  Cs  Cs14  1  0.33775354  0.33267541  0.66310404  1
  Cs  Cs15  1  0.33699749  0.67030262  -0.00284781  1
  Cs  Cs16  1  0.33339016  0.66537266  0.33530830  1
  Cs  Cs17  1  0.33204554  0.66682965  0.66663019  1
  Cs  Cs18  1  0.66589914  -0.00057456  0.00180646  1
  Cs  Cs19  1  0.66670389  -0.00076322  0.33357930  1
  Cs  Cs20  1  0.66608518  0.00501517  0.66247989  1
  Cs  Cs21  1  0.67007261  0.33525289  0.00026845  1
  Cs  Cs22  1  0.66145354  0.33268033  0.33349828  1
  Cs  Cs23  1  0.66587961  0.33126295  0.66564648  1
  Cs  Cs24  1  0.66814206  0.66578391  0.00019338  1
  Cs  Cs25  1  0.66352481  0.66911006  0.32935834  1
  Cs  Cs26  1  0.67086338  0.66635977  0.67013338  1
  Sn  Sn27  1  0.49985355  0.83425654  0.16724376  1
  Sn  Sn28  1  0.83357828  0.83422168  0.16580347  1
  Sn  Sn29  1  0.16670300  0.83330793  0.16684813  1
  Sn  Sn30  1  0.83254826  0.16576269  0.16638218  1
  Sn  Sn31  1  0.83299887  0.50010422  0.49968726  1
  Sn  Sn32  1  0.83327470  0.49966739  0.83251880  1
  Sn  Sn33  1  0.49927802  0.83342524  0.49999517  1
  Sn  Sn34  1  0.16778579  0.83419540  0.49973847  1
  Sn  Sn35  1  0.16673056  0.16600122  0.50010430  1
  Sn  Sn36  1  0.50000526  0.49975403  0.83363073  1
  Sn  Sn37  1  0.83338768  0.16629103  0.83366241  1
  Sn  Sn38  1  0.83326233  0.83425737  0.83379659  1
  Sn  Sn39  1  0.16687245  0.49992097  0.83366425  1
  Sn  Sn40  1  0.50046623  0.16613970  0.16685150  1
  Pb  Pb41  1  0.16508015  0.50077523  0.50187913  1
  Pb  Pb42  1  0.16681618  0.50328952  0.16385384  1
  Pb  Pb43  1  0.16434889  0.83208621  0.83301636  1
  Pb  Pb44  1  0.50253143  0.83230641  0.83333180  1
  Pb  Pb45  1  0.49761033  0.16437110  0.49731879  1
  Pb  Pb46  1  0.16425666  0.16881037  0.83098384  1
  Pb  Pb47  1  0.83481993  0.16897852  0.49876702  1
  Pb  Pb48  1  0.16653892  0.16454540  0.16836230  1
  Pb  Pb49  1  0.83332738  0.49971200  0.16676437  1
  Pb  Pb50  1  0.50232992  0.16892249  0.83571222  1
  Pb  Pb51  1  0.83330937  0.83192555  0.49939667  1
  Pb  Pb52  1  0.49984932  0.50000541  0.16445465  1
  Pb  Pb53  1  0.50246000  0.50268401  0.50212612  1
  I  I54  1  0.16546372  -0.00372487  0.16754121  1
  I  I55  1  0.16728544  -0.00175993  0.49619788  1
  I  I56  1  0.16468578  0.00000510  0.83442655  1
  I  I57  1  0.16623302  0.33310564  0.16835298  1
  I  I58  1  0.16292058  0.33163674  0.50123657  1
  I  I59  1  0.16335299  0.33680182  0.83154402  1
  I  I60  1  0.16540372  0.67161575  0.17400489  1
  I  I61  1  0.16880358  0.66985829  0.49661878  1
  I  I62  1  0.16226565  0.66408599  0.83199486  1
  I  I63  1  0.50232896  -0.00154576  0.16983243  1
  I  I64  1  0.50138581  -0.00376856  0.49953538  1
  I  I65  1  0.50163761  0.00013996  0.83134204  1
  I  I66  1  0.50713874  0.33032271  0.16372278  1
  I  I67  1  0.49868801  0.33334759  0.49888196  1
  I  I68  1  0.50296540  0.33687760  0.83423617  1
  I  I69  1  0.50145026  0.67037378  0.16887569  1
  I  I70  1  0.49377430  0.67044383  0.49246896  1
  I  I71  1  0.50398079  0.66425785  0.83529925  1
  I  I72  1  0.83290412  -0.00101255  0.15860568  1
  I  I73  1  0.83262062  -0.00007575  0.50412831  1
  I  I74  1  0.83387713  -0.00023761  0.83871090  1
  I  I75  1  0.82870579  0.33012667  0.16328035  1
  I  I76  1  0.83587805  0.33654209  0.50629222  1
  I  I77  1  0.83365060  0.33389949  0.83357479  1
  I  I78  1  0.83251852  0.66997331  0.16346599  1
  I  I79  1  0.83548555  0.66429032  0.50637222  1
  I  I80  1  0.83350583  0.66626160  0.83338748  1
  I  I81  1  0.16784850  0.16707624  0.00006665  1
  I  I82  1  0.16284959  0.16541253  0.33607039  1
  I  I83  1  0.16460454  0.15891238  0.66334746  1
  I  I84  1  0.16116321  0.50049024  -0.00409806  1
  I  I85  1  0.16380903  0.49799741  0.33353485  1
  I  I86  1  0.16548852  0.50296657  0.66978204  1
  I  I87  1  0.16860325  0.83078564  0.00271501  1
  I  I88  1  0.16393540  0.83642150  0.33317387  1
  I  I89  1  0.16952019  0.83469867  0.66380841  1
  I  I90  1  0.50011508  0.15899312  0.00355703  1
  I  I91  1  0.50911132  0.16511528  0.32948200  1
  I  I92  1  0.50076322  0.16628077  0.66656916  1
  I  I93  1  0.50545557  0.50371176  -0.00349066  1
  I  I94  1  0.50223570  0.49861197  0.33340403  1
  I  I95  1  0.49947476  0.50201689  0.67015453  1
  I  I96  1  0.49781588  0.83488358  0.00314291  1
  I  I97  1  0.50257291  0.83573068  0.33201748  1
  I  I98  1  0.49621492  0.82951003  0.66431946  1
  I  I99  1  0.83083195  0.16873404  0.00004635  1
  I  I100  1  0.83091242  0.16156566  0.32992696  1
  I  I101  1  0.83595489  0.16531640  0.66920368  1
  I  I102  1  0.83317462  0.50099892  -0.00333418  1
  I  I103  1  0.83488499  0.50159169  0.33569482  1
  I  I104  1  0.83411842  0.50150927  0.66915922  1
  I  I105  1  0.83333074  0.83024991  0.00060222  1
  I  I106  1  0.83331793  0.83613449  0.33018307  1
  I  I107  1  0.83376785  0.83299312  0.66905480  1
  I  I108  1  -0.00296806  0.16345472  0.16351629  1
  I  I109  1  0.00239444  0.15954638  0.49861006  1
  I  I110  1  -0.00406016  0.16916267  0.84030753  1
  I  I111  1  -0.00011466  0.49972106  0.16467450  1
  I  I112  1  -0.00267885  0.50248761  0.50716555  1
  I  I113  1  -0.00177063  0.50104744  0.82897333  1
  I  I114  1  -0.00082584  0.83611799  0.16673072  1
  I  I115  1  0.00225483  0.83466924  0.49712006  1
  I  I116  1  -0.00386535  0.82963660  0.83678866  1
  I  I117  1  0.33576140  0.16233632  0.16752445  1
  I  I118  1  0.32991274  0.16649686  0.49913611  1
  I  I119  1  0.33335575  0.16940053  0.83434427  1
  I  I120  1  0.33330822  0.49858159  0.16454232  1
  I  I121  1  0.33343596  0.49835679  0.50264215  1
  I  I122  1  0.33333455  0.50319343  0.83469681  1
  I  I123  1  0.33379395  0.83585377  0.17143363  1
  I  I124  1  0.33272786  0.83504666  0.49156605  1
  I  I125  1  0.33338041  0.82893867  0.83573987  1
  I  I126  1  0.66780157  0.15862634  0.16287793  1
  I  I127  1  0.66658469  0.16657750  0.50209183  1
  I  I128  1  0.67073732  0.16869730  0.83339156  1
  I  I129  1  0.66680753  0.50511403  0.16442793  1
  I  I130  1  0.67009073  0.50097298  0.50693685  1
  I  I131  1  0.66841631  0.50108531  0.83000934  1
  I  I132  1  0.66695836  0.83611487  0.16692128  1
  I  I133  1  0.66472595  0.82994829  0.49687702  1
  I  I134  1  0.67067402  0.82912178  0.83697625  1
