# generated using pymatgen
data_Cs27Sn14Pb13I81
_symmetry_space_group_name_H-M   'P 1'
_cell_length_a   18.97285974
_cell_length_b   18.97727118
_cell_length_c   18.97726860
_cell_angle_alpha   90.00049627
_cell_angle_beta   89.99767577
_cell_angle_gamma   90.00079838
_symmetry_Int_Tables_number   1
_chemical_formula_structural   Cs27Sn14Pb13I81
_chemical_formula_sum   'Cs27 Sn14 Pb13 I81'
_cell_volume   6832.82446724
_cell_formula_units_Z   1
loop_
 _symmetry_equiv_pos_site_id
 _symmetry_equiv_pos_as_xyz
  1  'x, y, z'
loop_
 _atom_site_type_symbol
 _atom_site_label
 _atom_site_symmetry_multiplicity
 _atom_site_fract_x
 _atom_site_fract_y
 _atom_site_fract_z
 _atom_site_occupancy
  Cs  Cs0  1  0.00131562  -0.00150760  0.00003200  1
  Cs  Cs1  1  -0.00280219  0.00073937  0.33418829  1
  Cs  Cs2  1  0.00066356  0.00051927  0.66766150  1
  Cs  Cs3  1  -0.00182851  0.33545000  0.00188210  1
  Cs  Cs4  1  0.00007556  0.34503507  0.33278129  1
  Cs  Cs5  1  -0.00369377  0.33145749  0.66556674  1
  Cs  Cs6  1  0.00291374  0.66837337  0.00384322  1
  Cs  Cs7  1  -0.00002922  0.65649060  0.33343650  1
  Cs  Cs8  1  0.00441359  0.66946238  0.66377083  1
  Cs  Cs9  1  0.33107036  0.00134505  0.00502397  1
  Cs  Cs10  1  0.33551344  0.00223508  0.33050415  1
  Cs  Cs11  1  0.33273638  0.00109933  0.66657157  1
  Cs  Cs12  1  0.33371337  0.32972516  -0.00253167  1
  Cs  Cs13  1  0.33186612  0.33167286  0.33190290  1
  Cs  Cs14  1  0.33421243  0.33201297  0.66766598  1
  Cs  Cs15  1  0.33111988  0.67047375  -0.00198575  1
  Cs  Cs16  1  0.33421511  0.66531851  0.33346599  1
  Cs  Cs17  1  0.33446944  0.66624562  0.66670586  1
  Cs  Cs18  1  0.66710872  -0.00003593  0.00301991  1
  Cs  Cs19  1  0.66600944  -0.00105311  0.33248307  1
  Cs  Cs20  1  0.66714507  0.00007709  0.66559134  1
  Cs  Cs21  1  0.66824552  0.33829406  -0.00452306  1
  Cs  Cs22  1  0.66732964  0.33405522  0.33393461  1
  Cs  Cs23  1  0.67007513  0.33191460  0.67049163  1
  Cs  Cs24  1  0.66654696  0.66370947  -0.00167499  1
  Cs  Cs25  1  0.66546799  0.66881435  0.33263622  1
  Cs  Cs26  1  0.66327455  0.66815353  0.66915152  1
  Sn  Sn27  1  0.49954175  0.16665718  0.50072527  1
  Sn  Sn28  1  0.49966855  0.49991463  0.16712299  1
  Sn  Sn29  1  0.50005695  0.49958824  0.49935287  1
  Sn  Sn30  1  0.16664654  0.49878242  0.83288611  1
  Sn  Sn31  1  0.83336805  0.83350773  0.49995995  1
  Sn  Sn32  1  0.83259490  0.83362338  0.83331136  1
  Sn  Sn33  1  0.83319761  0.83404330  0.16681673  1
  Sn  Sn34  1  0.50053476  0.83480262  0.83281145  1
  Sn  Sn35  1  0.16721413  0.83427725  0.49973122  1
  Sn  Sn36  1  0.49951847  0.16526848  0.83262091  1
  Sn  Sn37  1  0.16717425  0.16751665  0.83246922  1
  Sn  Sn38  1  0.83342775  0.16646246  0.16695829  1
  Sn  Sn39  1  0.49967327  0.83373692  0.50052591  1
  Sn  Sn40  1  0.16705076  0.16596513  0.50048086  1
  Pb  Pb41  1  0.83656669  0.50331236  0.83301856  1
  Pb  Pb42  1  0.16383132  0.83348994  0.17065174  1
  Pb  Pb43  1  0.50160721  0.83188416  0.16644084  1
  Pb  Pb44  1  0.50192147  0.16850858  0.16645100  1
  Pb  Pb45  1  0.83116029  0.50035626  0.16660719  1
  Pb  Pb46  1  0.83023707  0.50295153  0.50062078  1
  Pb  Pb47  1  0.49862526  0.49996485  0.83275623  1
  Pb  Pb48  1  0.16411044  0.16665563  0.16726195  1
  Pb  Pb49  1  0.16721593  0.83433227  0.83169219  1
  Pb  Pb50  1  0.83340811  0.16454515  0.83507708  1
  Pb  Pb51  1  0.83348326  0.16503123  0.49824762  1
  Pb  Pb52  1  0.16907969  0.49926235  0.50172411  1
  Pb  Pb53  1  0.16982351  0.49980886  0.16381231  1
  I  I54  1  0.16953003  -0.00001710  0.16125579  1
  I  I55  1  0.17050824  0.00013243  0.50637255  1
  I  I56  1  0.16724699  0.00283164  0.83045314  1
  I  I57  1  0.16236651  0.33321209  0.17143705  1
  I  I58  1  0.17179150  0.33002817  0.50193513  1
  I  I59  1  0.17406248  0.33143751  0.82821471  1
  I  I60  1  0.16408468  0.66672717  0.16501093  1
  I  I61  1  0.16630703  0.66927967  0.50225101  1
  I  I62  1  0.16704611  0.66561090  0.83202511  1
  I  I63  1  0.50032653  0.00003267  0.16847954  1
  I  I64  1  0.50006049  -0.00046347  0.50480503  1
  I  I65  1  0.49876624  -0.00010897  0.82555133  1
  I  I66  1  0.50316004  0.33609080  0.17092749  1
  I  I67  1  0.49415696  0.33208708  0.49965253  1
  I  I68  1  0.49748036  0.33051231  0.83096291  1
  I  I69  1  0.50278460  0.66415293  0.17072593  1
  I  I70  1  0.50095103  0.66828785  0.50023513  1
  I  I71  1  0.50222062  0.66942845  0.83046625  1
  I  I72  1  0.83150906  -0.00155287  0.16702205  1
  I  I73  1  0.82886077  -0.00356922  0.50184397  1
  I  I74  1  0.83380366  -0.00364704  0.83041643  1
  I  I75  1  0.83213920  0.33097687  0.16633456  1
  I  I76  1  0.83385895  0.33322508  0.49640824  1
  I  I77  1  0.83030596  0.33308275  0.83692021  1
  I  I78  1  0.83196631  0.67005165  0.16728230  1
  I  I79  1  0.83539541  0.67181780  0.49684911  1
  I  I80  1  0.82659662  0.67166782  0.83520477  1
  I  I81  1  0.17083783  0.17013296  -0.00321594  1
  I  I82  1  0.17164230  0.16091162  0.33708716  1
  I  I83  1  0.17073473  0.16596867  0.66641307  1
  I  I84  1  0.16878186  0.49506108  -0.00398793  1
  I  I85  1  0.16502119  0.50051331  0.33360832  1
  I  I86  1  0.17047127  0.50025689  0.66926067  1
  I  I87  1  0.16645488  0.83245035  -0.00005131  1
  I  I88  1  0.17007548  0.83921606  0.33883291  1
  I  I89  1  0.16254006  0.83373682  0.66358544  1
  I  I90  1  0.49661730  0.16352363  -0.00328999  1
  I  I91  1  0.49732483  0.16364296  0.33672346  1
  I  I92  1  0.49689913  0.16738391  0.66606911  1
  I  I93  1  0.49953304  0.50036903  0.00148583  1
  I  I94  1  0.50044627  0.50146741  0.33500483  1
  I  I95  1  0.49793513  0.50215159  0.66393698  1
  I  I96  1  0.50419997  0.83499274  -0.00320195  1
  I  I97  1  0.50091642  0.83532648  0.33677115  1
  I  I98  1  0.50473579  0.83136929  0.66563700  1
  I  I99  1  0.83243531  0.15961170  0.00264823  1
  I  I100  1  0.83153386  0.15886430  0.33074037  1
  I  I101  1  0.83326409  0.16561598  0.66664170  1
  I  I102  1  0.82968814  0.50236394  -0.00014107  1
  I  I103  1  0.83605794  0.50192013  0.33356819  1
  I  I104  1  0.83002196  0.49964558  0.66678307  1
  I  I105  1  0.82801787  0.83708626  -0.00042778  1
  I  I106  1  0.83212716  0.83824675  0.33410213  1
  I  I107  1  0.83172465  0.83230574  0.66617186  1
  I  I108  1  -0.00361475  0.16058126  0.16565436  1
  I  I109  1  0.00295734  0.16044568  0.50417256  1
  I  I110  1  0.00289438  0.16878851  0.82960349  1
  I  I111  1  0.00000352  0.50056433  0.16582320  1
  I  I112  1  0.00027719  0.50075095  0.50037535  1
  I  I113  1  0.00421178  0.49397791  0.83274133  1
  I  I114  1  -0.00449155  0.83697271  0.16291007  1
  I  I115  1  0.00002193  0.83908977  0.50142373  1
  I  I116  1  -0.00226664  0.83256817  0.83238977  1
  I  I117  1  0.33348852  0.16872376  0.16631359  1
  I  I118  1  0.33428183  0.16178275  0.50328331  1
  I  I119  1  0.33412773  0.16501164  0.82984117  1
  I  I120  1  0.33727818  0.50008901  0.17272730  1
  I  I121  1  0.33699377  0.50610806  0.49734639  1
  I  I122  1  0.33106655  0.50143883  0.83297552  1
  I  I123  1  0.33343447  0.83107674  0.16549912  1
  I  I124  1  0.33460926  0.83273881  0.50641264  1
  I  I125  1  0.33630242  0.83234549  0.82794561  1
  I  I126  1  0.66940771  0.16135578  0.16753712  1
  I  I127  1  0.66325979  0.16600369  0.50295945  1
  I  I128  1  0.66359500  0.16481896  0.82946145  1
  I  I129  1  0.66355908  0.50068599  0.16989854  1
  I  I130  1  0.66189566  0.49895263  0.49727651  1
  I  I131  1  0.66641200  0.49834302  0.83405650  1
  I  I132  1  0.66968641  0.83637834  0.17132083  1
  I  I133  1  0.66584496  0.83289028  0.50029079  1
  I  I134  1  0.66555270  0.83773968  0.82823110  1
