# generated using pymatgen
data_Cs27Sn14Pb13I81
_symmetry_space_group_name_H-M   'P 1'
_cell_length_a   18.96996653
_cell_length_b   18.98495831
_cell_length_c   18.97500974
_cell_angle_alpha   89.99854814
_cell_angle_beta   89.99922045
_cell_angle_gamma   90.00013815
_symmetry_Int_Tables_number   1
_chemical_formula_structural   Cs27Sn14Pb13I81
_chemical_formula_sum   'Cs27 Sn14 Pb13 I81'
_cell_volume   6833.73635390
_cell_formula_units_Z   1
loop_
 _symmetry_equiv_pos_site_id
 _symmetry_equiv_pos_as_xyz
  1  'x, y, z'
loop_
 _atom_site_type_symbol
 _atom_site_label
 _atom_site_symmetry_multiplicity
 _atom_site_fract_x
 _atom_site_fract_y
 _atom_site_fract_z
 _atom_site_occupancy
  Cs  Cs0  1  -0.00028492  -0.00262116  0.00319507  1
  Cs  Cs1  1  -0.00429113  -0.00290424  0.33172705  1
  Cs  Cs2  1  -0.00075235  0.00331261  0.66415960  1
  Cs  Cs3  1  -0.00104619  0.33210761  0.00162854  1
  Cs  Cs4  1  0.00107899  0.33417559  0.33476028  1
  Cs  Cs5  1  0.00128109  0.33502373  0.66272053  1
  Cs  Cs6  1  -0.00061444  0.66991497  -0.00103546  1
  Cs  Cs7  1  -0.00304630  0.66791106  0.33476795  1
  Cs  Cs8  1  -0.00145565  0.66202821  0.66656764  1
  Cs  Cs9  1  0.33117027  -0.00168702  -0.00137438  1
  Cs  Cs10  1  0.33381300  0.00115917  0.33524945  1
  Cs  Cs11  1  0.33401278  0.00002531  0.66330036  1
  Cs  Cs12  1  0.33386862  0.33320405  0.00302911  1
  Cs  Cs13  1  0.33357630  0.33207257  0.33238468  1
  Cs  Cs14  1  0.33095151  0.33348055  0.66705589  1
  Cs  Cs15  1  0.33074578  0.66889623  -0.00533692  1
  Cs  Cs16  1  0.33661104  0.66783581  0.33312585  1
  Cs  Cs17  1  0.33092028  0.66707127  0.67203457  1
  Cs  Cs18  1  0.66964663  0.00342795  -0.00358656  1
  Cs  Cs19  1  0.66728347  -0.00223408  0.33400790  1
  Cs  Cs20  1  0.66849558  0.00228208  0.66954521  1
  Cs  Cs21  1  0.66776479  0.33405487  -0.00162846  1
  Cs  Cs22  1  0.66310352  0.33494283  0.33177608  1
  Cs  Cs23  1  0.66856848  0.32977519  0.67016345  1
  Cs  Cs24  1  0.66735989  0.66378400  -0.00202923  1
  Cs  Cs25  1  0.66407129  0.66722225  0.33413159  1
  Cs  Cs26  1  0.66828328  0.66793429  0.66859924  1
  Sn  Sn27  1  0.83339089  0.50003870  0.16627221  1
  Sn  Sn28  1  0.16744220  0.16708081  0.16687778  1
  Sn  Sn29  1  0.83351379  0.83295724  0.83334295  1
  Sn  Sn30  1  0.49950921  0.50030587  0.16703424  1
  Sn  Sn31  1  0.16697954  0.50000521  0.16687669  1
  Sn  Sn32  1  0.16749348  0.16573489  0.49943704  1
  Sn  Sn33  1  0.49909628  0.83335774  0.49953026  1
  Sn  Sn34  1  0.49977480  0.49991331  0.49992064  1
  Sn  Sn35  1  0.16728285  0.83362603  0.49961778  1
  Sn  Sn36  1  0.49983577  0.83351377  0.16661702  1
  Sn  Sn37  1  0.49930815  0.16627798  0.16724653  1
  Sn  Sn38  1  0.49941130  0.16676918  0.49915069  1
  Sn  Sn39  1  0.83351805  0.50054591  0.83404133  1
  Sn  Sn40  1  0.16696503  0.16673565  0.83357521  1
  Pb  Pb41  1  0.49760780  0.16669593  0.83350859  1
  Pb  Pb42  1  0.16452777  0.83548220  0.83041083  1
  Pb  Pb43  1  0.50155992  0.49985859  0.83356272  1
  Pb  Pb44  1  0.83621926  0.16717179  0.83349936  1
  Pb  Pb45  1  0.83036696  0.49988170  0.49959535  1
  Pb  Pb46  1  0.50150885  0.83345950  0.83301874  1
  Pb  Pb47  1  0.16863809  0.83350348  0.16867827  1
  Pb  Pb48  1  0.83031710  0.83081363  0.16500282  1
  Pb  Pb49  1  0.16438573  0.49801551  0.83608375  1
  Pb  Pb50  1  0.83302053  0.16888098  0.16697502  1
  Pb  Pb51  1  0.16908593  0.50006594  0.49775218  1
  Pb  Pb52  1  0.83293634  0.83332289  0.50192822  1
  Pb  Pb53  1  0.83296651  0.16672329  0.49948618  1
  I  I54  1  0.17137719  0.00322832  0.16457020  1
  I  I55  1  0.17444525  0.00128517  0.49950132  1
  I  I56  1  0.16445304  0.00333425  0.83923738  1
  I  I57  1  0.17065430  0.33257508  0.16799213  1
  I  I58  1  0.16999661  0.33025220  0.50192014  1
  I  I59  1  0.16501708  0.33012789  0.82748843  1
  I  I60  1  0.16744056  0.66406957  0.16847427  1
  I  I61  1  0.17085153  0.66898943  0.49827825  1
  I  I62  1  0.16733598  0.66665492  0.83309895  1
  I  I63  1  0.49485924  0.00080926  0.17247311  1
  I  I64  1  0.49556298  0.00029057  0.49377373  1
  I  I65  1  0.50472068  0.00009401  0.83468775  1
  I  I66  1  0.49961906  0.33351094  0.17204950  1
  I  I67  1  0.49709068  0.33272884  0.49354425  1
  I  I68  1  0.50374148  0.33326020  0.83238461  1
  I  I69  1  0.50132331  0.66585115  0.17335732  1
  I  I70  1  0.49765556  0.66699530  0.49259891  1
  I  I71  1  0.49843079  0.66662412  0.83317407  1
  I  I72  1  0.83351635  -0.00026053  0.16414205  1
  I  I73  1  0.82951405  -0.00012099  0.50384751  1
  I  I74  1  0.83284041  -0.00219593  0.83116545  1
  I  I75  1  0.82863762  0.33704801  0.15964216  1
  I  I76  1  0.83419534  0.33356640  0.50393412  1
  I  I77  1  0.83278134  0.33625775  0.83828325  1
  I  I78  1  0.83429345  0.66268355  0.16525787  1
  I  I79  1  0.83437654  0.66653019  0.49878625  1
  I  I80  1  0.83239302  0.66573847  0.83765260  1
  I  I81  1  0.16996358  0.17235459  0.00163622  1
  I  I82  1  0.17186510  0.16789270  0.33315265  1
  I  I83  1  0.16962801  0.16168814  0.66520698  1
  I  I84  1  0.17271267  0.49494959  0.00433476  1
  I  I85  1  0.16207054  0.49423164  0.32962986  1
  I  I86  1  0.16594930  0.49865240  0.66644500  1
  I  I87  1  0.16741085  0.83441386  0.00016161  1
  I  I88  1  0.16803481  0.83883187  0.33657262  1
  I  I89  1  0.17398610  0.83828539  0.66254525  1
  I  I90  1  0.49675645  0.16787885  0.00371810  1
  I  I91  1  0.49275587  0.16778555  0.33301372  1
  I  I92  1  0.49690083  0.16622818  0.66309038  1
  I  I93  1  0.49895686  0.49929476  0.00395376  1
  I  I94  1  0.50252764  0.49958274  0.33200870  1
  I  I95  1  0.50166181  0.49995131  0.66345457  1
  I  I96  1  0.50165964  0.83228201  0.00320928  1
  I  I97  1  0.49731512  0.83277547  0.33366819  1
  I  I98  1  0.49775263  0.83382409  0.66285952  1
  I  I99  1  0.83265275  0.16495133  0.00016796  1
  I  I100  1  0.83828425  0.16833425  0.33307564  1
  I  I101  1  0.83261392  0.16913928  0.66675539  1
  I  I102  1  0.83055066  0.50329955  0.00118580  1
  I  I103  1  0.83439026  0.49826339  0.32996908  1
  I  I104  1  0.83184313  0.50382173  0.66925956  1
  I  I105  1  0.83253745  0.83176589  -0.00271563  1
  I  I106  1  0.83475083  0.83233401  0.33325296  1
  I  I107  1  0.83169825  0.82592570  0.66966407  1
  I  I108  1  0.00359406  0.17131326  0.16706113  1
  I  I109  1  0.00397847  0.16212766  0.49982030  1
  I  I110  1  0.00408524  0.16703266  0.83312515  1
  I  I111  1  0.00038811  0.49400142  0.16181485  1
  I  I112  1  0.00023992  0.49986991  0.49906072  1
  I  I113  1  -0.00355662  0.50371402  0.83841459  1
  I  I114  1  -0.00000011  0.83352996  0.16766523  1
  I  I115  1  0.00294405  0.83943007  0.50121336  1
  I  I116  1  -0.00308827  0.82846212  0.83307940  1
  I  I117  1  0.33350062  0.17231484  0.16728596  1
  I  I118  1  0.33356954  0.16585596  0.49921473  1
  I  I119  1  0.32976577  0.16653953  0.83345210  1
  I  I120  1  0.33429453  0.49744022  0.17212964  1
  I  I121  1  0.33721229  0.49942240  0.49377071  1
  I  I122  1  0.33296905  0.49910583  0.83402580  1
  I  I123  1  0.33691512  0.82857353  0.16773226  1
  I  I124  1  0.33465329  0.83524805  0.49652984  1
  I  I125  1  0.33303279  0.83428516  0.83467026  1
  I  I126  1  0.66279242  0.16716803  0.17171830  1
  I  I127  1  0.66238123  0.16598821  0.49519977  1
  I  I128  1  0.66683243  0.16661476  0.83267257  1
  I  I129  1  0.66536262  0.49995990  0.16647201  1
  I  I130  1  0.66206501  0.50032373  0.49384065  1
  I  I131  1  0.66965694  0.50260856  0.83877981  1
  I  I132  1  0.66206756  0.83446924  0.17391816  1
  I  I133  1  0.66276053  0.83371638  0.49671170  1
  I  I134  1  0.66945289  0.82928476  0.83204801  1
