# generated using pymatgen
data_Cs27Sn14Pb13I81
_symmetry_space_group_name_H-M   'P 1'
_cell_length_a   18.98074555
_cell_length_b   18.97946432
_cell_length_c   18.96764725
_cell_angle_alpha   89.99997567
_cell_angle_beta   90.00048641
_cell_angle_gamma   89.99909982
_symmetry_Int_Tables_number   1
_chemical_formula_structural   Cs27Sn14Pb13I81
_chemical_formula_sum   'Cs27 Sn14 Pb13 I81'
_cell_volume   6832.98837988
_cell_formula_units_Z   1
loop_
 _symmetry_equiv_pos_site_id
 _symmetry_equiv_pos_as_xyz
  1  'x, y, z'
loop_
 _atom_site_type_symbol
 _atom_site_label
 _atom_site_symmetry_multiplicity
 _atom_site_fract_x
 _atom_site_fract_y
 _atom_site_fract_z
 _atom_site_occupancy
  Cs  Cs0  1  0.00403931  -0.00259385  0.00106785  1
  Cs  Cs1  1  0.00122459  0.00052215  0.33339246  1
  Cs  Cs2  1  -0.00138423  0.00261866  0.66434792  1
  Cs  Cs3  1  -0.00319196  0.33082406  -0.00030830  1
  Cs  Cs4  1  0.00067097  0.33272483  0.33437558  1
  Cs  Cs5  1  0.00167317  0.33215726  0.66557377  1
  Cs  Cs6  1  -0.00794732  0.67378514  -0.00618104  1
  Cs  Cs7  1  -0.00210308  0.66688971  0.33437273  1
  Cs  Cs8  1  0.00492881  0.66424248  0.66877443  1
  Cs  Cs9  1  0.32902663  -0.00346551  0.00089601  1
  Cs  Cs10  1  0.33355216  -0.00073589  0.33257958  1
  Cs  Cs11  1  0.33622089  0.00154238  0.66687751  1
  Cs  Cs12  1  0.33543751  0.33406735  0.00460668  1
  Cs  Cs13  1  0.33474752  0.33638871  0.33135036  1
  Cs  Cs14  1  0.33263866  0.33349456  0.66991615  1
  Cs  Cs15  1  0.33261629  0.66740357  -0.00678225  1
  Cs  Cs16  1  0.33673357  0.66356336  0.33409115  1
  Cs  Cs17  1  0.32939040  0.66405879  0.67169532  1
  Cs  Cs18  1  0.66630247  -0.00043045  -0.00264219  1
  Cs  Cs19  1  0.66554696  -0.00060653  0.33570326  1
  Cs  Cs20  1  0.66524202  0.00221204  0.66546493  1
  Cs  Cs21  1  0.66747425  0.33529296  0.00081539  1
  Cs  Cs22  1  0.66575644  0.33422002  0.33283905  1
  Cs  Cs23  1  0.66485853  0.32984152  0.66748580  1
  Cs  Cs24  1  0.67431869  0.66562824  -0.00545029  1
  Cs  Cs25  1  0.66483030  0.66573414  0.33293075  1
  Cs  Cs26  1  0.66656883  0.66829487  0.66833304  1
  Sn  Sn27  1  0.50077781  0.16628757  0.16705986  1
  Sn  Sn28  1  0.16628020  0.16695572  0.83263153  1
  Sn  Sn29  1  0.83236246  0.49978449  0.49973568  1
  Sn  Sn30  1  0.83392202  0.16682244  0.49972647  1
  Sn  Sn31  1  0.50076557  0.50074902  0.49981105  1
  Sn  Sn32  1  0.16641713  0.16619545  0.50041699  1
  Sn  Sn33  1  0.50015130  0.83269131  0.16714453  1
  Sn  Sn34  1  0.83332217  0.83315535  0.49967072  1
  Sn  Sn35  1  0.16717133  0.83399331  0.49942490  1
  Sn  Sn36  1  0.49961871  0.83219231  0.49945052  1
  Sn  Sn37  1  0.16628037  0.50085248  0.16636375  1
  Sn  Sn38  1  0.83247621  0.16639485  0.16702814  1
  Sn  Sn39  1  0.83412526  0.16663739  0.83318475  1
  Sn  Sn40  1  0.49934669  0.50099238  0.16714417  1
  Pb  Pb41  1  0.83309969  0.49847060  0.16839669  1
  Pb  Pb42  1  0.16640050  0.49731181  0.83710380  1
  Pb  Pb43  1  0.50008435  0.83335052  0.83297692  1
  Pb  Pb44  1  0.16699575  0.49977487  0.49881523  1
  Pb  Pb45  1  0.83109664  0.83582404  0.16881211  1
  Pb  Pb46  1  0.49971428  0.16663513  0.83680791  1
  Pb  Pb47  1  0.83336268  0.49747028  0.82988696  1
  Pb  Pb48  1  0.16661553  0.83599289  0.83042307  1
  Pb  Pb49  1  0.16652799  0.16776830  0.16708089  1
  Pb  Pb50  1  0.50011364  0.49993362  0.83332784  1
  Pb  Pb51  1  0.16873731  0.83012420  0.16898721  1
  Pb  Pb52  1  0.83336176  0.83619980  0.83015454  1
  Pb  Pb53  1  0.49957436  0.16692676  0.49835434  1
  I  I54  1  0.16801916  -0.00014899  0.16492482  1
  I  I55  1  0.16370635  0.00075945  0.50266320  1
  I  I56  1  0.16216825  0.00404982  0.83410492  1
  I  I57  1  0.17339109  0.33521343  0.16991556  1
  I  I58  1  0.16275094  0.33051141  0.50185853  1
  I  I59  1  0.16265987  0.32934799  0.82419660  1
  I  I60  1  0.17275593  0.66263751  0.17196725  1
  I  I61  1  0.16412541  0.66908306  0.49604140  1
  I  I62  1  0.16836448  0.66673568  0.83210346  1
  I  I63  1  0.50496831  -0.00012146  0.17181977  1
  I  I64  1  0.50197711  -0.00234978  0.49580903  1
  I  I65  1  0.50082578  0.00028720  0.83203415  1
  I  I66  1  0.49952828  0.33372619  0.17082074  1
  I  I67  1  0.50301223  0.33572722  0.49497436  1
  I  I68  1  0.50010295  0.33299805  0.83177285  1
  I  I69  1  0.49359668  0.66630026  0.17455055  1
  I  I70  1  0.50361005  0.66685380  0.49161576  1
  I  I71  1  0.49942928  0.66667234  0.83636229  1
  I  I72  1  0.82915771  0.00427880  0.16958883  1
  I  I73  1  0.83331967  0.00087812  0.50017358  1
  I  I74  1  0.83663690  0.00444171  0.83166889  1
  I  I75  1  0.82834154  0.32996894  0.16982782  1
  I  I76  1  0.83368177  0.33210291  0.49960702  1
  I  I77  1  0.83681632  0.32908128  0.83146605  1
  I  I78  1  0.83349724  0.66679737  0.16895017  1
  I  I79  1  0.83258553  0.66684393  0.49755679  1
  I  I80  1  0.83234297  0.66681248  0.83364632  1
  I  I81  1  0.16362470  0.17047219  -0.00191693  1
  I  I82  1  0.16278469  0.16408288  0.33620533  1
  I  I83  1  0.15871799  0.16375095  0.66505967  1
  I  I84  1  0.17615860  0.49631079  0.00479470  1
  I  I85  1  0.16944702  0.49554084  0.33135446  1
  I  I86  1  0.16699267  0.50150495  0.66655099  1
  I  I87  1  0.16954682  0.83446672  0.00020768  1
  I  I88  1  0.16420468  0.84211208  0.33735091  1
  I  I89  1  0.16900645  0.83286155  0.66168989  1
  I  I90  1  0.50359249  0.16787032  0.00506792  1
  I  I91  1  0.50331093  0.16728497  0.33033722  1
  I  I92  1  0.50205469  0.16661654  0.66649202  1
  I  I93  1  0.49491745  0.49850081  0.00390949  1
  I  I94  1  0.50014409  0.49998460  0.33342600  1
  I  I95  1  0.50398497  0.50421304  0.66276895  1
  I  I96  1  0.49908404  0.83440706  0.00352249  1
  I  I97  1  0.50057124  0.83324952  0.33448846  1
  I  I98  1  0.50065485  0.82973491  0.66218781  1
  I  I99  1  0.83290928  0.16848830  0.00038724  1
  I  I100  1  0.83367472  0.16682462  0.33479469  1
  I  I101  1  0.83825091  0.16656106  0.66505101  1
  I  I102  1  0.83240354  0.49699750  0.00004079  1
  I  I103  1  0.83177911  0.49647166  0.33692973  1
  I  I104  1  0.82809001  0.49847985  0.66128503  1
  I  I105  1  0.83098496  0.83444447  0.00005972  1
  I  I106  1  0.83495891  0.83684579  0.33747726  1
  I  I107  1  0.82974877  0.83555730  0.66143856  1
  I  I108  1  -0.00260843  0.17003658  0.16790183  1
  I  I109  1  -0.00120579  0.16443826  0.49834653  1
  I  I110  1  -0.00072270  0.16745514  0.83324024  1
  I  I111  1  0.00181369  0.49406014  0.17067159  1
  I  I112  1  -0.00235438  0.50066822  0.49765547  1
  I  I113  1  -0.00009733  0.50057225  0.83319343  1
  I  I114  1  -0.00007213  0.83394833  0.16854842  1
  I  I115  1  -0.00036794  0.83526909  0.50083684  1
  I  I116  1  -0.00004568  0.83151066  0.83373040  1
  I  I117  1  0.33592779  0.16616480  0.16773940  1
  I  I118  1  0.33067853  0.16380922  0.50266517  1
  I  I119  1  0.33036073  0.16651335  0.82760084  1
  I  I120  1  0.33539330  0.49532400  0.17426299  1
  I  I121  1  0.33614716  0.50224380  0.49655220  1
  I  I122  1  0.33317003  0.49651481  0.82810642  1
  I  I123  1  0.33708883  0.84066772  0.17392375  1
  I  I124  1  0.33392892  0.83477163  0.49545040  1
  I  I125  1  0.33325706  0.83739249  0.83097610  1
  I  I126  1  0.66680957  0.16904293  0.16834360  1
  I  I127  1  0.66948965  0.16487504  0.50190426  1
  I  I128  1  0.66979198  0.16647204  0.82899130  1
  I  I129  1  0.66346513  0.49993168  0.17021260  1
  I  I130  1  0.66627970  0.50131085  0.49382773  1
  I  I131  1  0.66686217  0.49655250  0.83744948  1
  I  I132  1  0.66282118  0.82942089  0.17376860  1
  I  I133  1  0.66650764  0.83405248  0.49614174  1
  I  I134  1  0.66683685  0.83669563  0.83093065  1
