# generated using pymatgen
data_Cs27Sn13Pb14I81
_symmetry_space_group_name_H-M   'P 1'
_cell_length_a   18.98079354
_cell_length_b   18.97151938
_cell_length_c   18.97640233
_cell_angle_alpha   89.99597425
_cell_angle_beta   90.00052815
_cell_angle_gamma   89.99986536
_symmetry_Int_Tables_number   1
_chemical_formula_structural   Cs27Sn13Pb14I81
_chemical_formula_sum   'Cs27 Sn13 Pb14 I81'
_cell_volume   6833.29794847
_cell_formula_units_Z   1
loop_
 _symmetry_equiv_pos_site_id
 _symmetry_equiv_pos_as_xyz
  1  'x, y, z'
loop_
 _atom_site_type_symbol
 _atom_site_label
 _atom_site_symmetry_multiplicity
 _atom_site_fract_x
 _atom_site_fract_y
 _atom_site_fract_z
 _atom_site_occupancy
  Cs  Cs0  1  0.00512972  0.00032255  -0.00216136  1
  Cs  Cs1  1  -0.00057892  0.00282892  0.33395228  1
  Cs  Cs2  1  0.00127575  -0.00016643  0.66882855  1
  Cs  Cs3  1  -0.00132291  0.33610501  0.00036169  1
  Cs  Cs4  1  0.00213952  0.33436296  0.33400192  1
  Cs  Cs5  1  0.00552827  0.33074816  0.66745139  1
  Cs  Cs6  1  0.00043693  0.66453555  -0.00146861  1
  Cs  Cs7  1  -0.00797774  0.66259230  0.33779929  1
  Cs  Cs8  1  -0.00096175  0.66864211  0.66642998  1
  Cs  Cs9  1  0.32407778  -0.00408561  0.00181748  1
  Cs  Cs10  1  0.33450161  -0.00032431  0.33108602  1
  Cs  Cs11  1  0.33162750  -0.00089959  0.66672732  1
  Cs  Cs12  1  0.33533501  0.33464073  -0.00056894  1
  Cs  Cs13  1  0.33142171  0.33244207  0.33554671  1
  Cs  Cs14  1  0.33648562  0.33568398  0.66465906  1
  Cs  Cs15  1  0.33139877  0.66879099  0.00132837  1
  Cs  Cs16  1  0.33458588  0.66823195  0.33233536  1
  Cs  Cs17  1  0.33504591  0.66508742  0.66585637  1
  Cs  Cs18  1  0.66698241  0.00058332  0.00085389  1
  Cs  Cs19  1  0.66547532  -0.00005009  0.33411214  1
  Cs  Cs20  1  0.66756287  -0.00013932  0.66519787  1
  Cs  Cs21  1  0.66663360  0.33212346  -0.00019067  1
  Cs  Cs22  1  0.66695210  0.33144696  0.33049656  1
  Cs  Cs23  1  0.65934226  0.33027059  0.67098953  1
  Cs  Cs24  1  0.66802217  0.66757304  0.00053560  1
  Cs  Cs25  1  0.67103219  0.66626865  0.33381986  1
  Cs  Cs26  1  0.66591080  0.66773944  0.66546140  1
  Sn  Sn27  1  0.49926527  0.83400151  0.50066492  1
  Sn  Sn28  1  0.16749268  0.83324136  0.49961967  1
  Sn  Sn29  1  0.83252070  0.16687428  0.49950383  1
  Sn  Sn30  1  0.50056776  0.83361786  0.83303330  1
  Sn  Sn31  1  0.83244582  0.83272619  0.83433763  1
  Sn  Sn32  1  0.16758170  0.50014427  0.16639097  1
  Sn  Sn33  1  0.49936319  0.49945625  0.16684447  1
  Sn  Sn34  1  0.16619650  0.50021902  0.83379640  1
  Sn  Sn35  1  0.83336512  0.83442578  0.16570588  1
  Sn  Sn36  1  0.83358250  0.50046974  0.83295708  1
  Sn  Sn37  1  0.50042033  0.16713324  0.16709958  1
  Sn  Sn38  1  0.50092528  0.16561997  0.49914731  1
  Sn  Sn39  1  0.83276282  0.16557793  0.16723298  1
  Pb  Pb40  1  0.49976044  0.16355909  0.83401010  1
  Pb  Pb41  1  0.83293838  0.49613610  0.50371149  1
  Pb  Pb42  1  0.16642435  0.83132879  0.83170339  1
  Pb  Pb43  1  0.83271151  0.83501983  0.50039203  1
  Pb  Pb44  1  0.83331346  0.16635308  0.83365728  1
  Pb  Pb45  1  0.50011131  0.50240946  0.83562487  1
  Pb  Pb46  1  0.16312963  0.83059687  0.16917904  1
  Pb  Pb47  1  0.83314530  0.49944784  0.16523794  1
  Pb  Pb48  1  0.16704159  0.16996840  0.83340289  1
  Pb  Pb49  1  0.16734858  0.16447226  0.49980581  1
  Pb  Pb50  1  0.50153220  0.83376039  0.16685281  1
  Pb  Pb51  1  0.50031595  0.49992241  0.49731056  1
  Pb  Pb52  1  0.16667521  0.50230710  0.50002090  1
  Pb  Pb53  1  0.16671635  0.16893759  0.16663812  1
  I  I54  1  0.16887308  -0.00039710  0.16746137  1
  I  I55  1  0.16764642  -0.00337882  0.50111311  1
  I  I56  1  0.16592746  -0.00064528  0.83204074  1
  I  I57  1  0.16546684  0.33698925  0.16318358  1
  I  I58  1  0.16639044  0.33336589  0.50096108  1
  I  I59  1  0.15949234  0.33829022  0.83662223  1
  I  I60  1  0.17249330  0.66302286  0.16244106  1
  I  I61  1  0.17221262  0.67017805  0.50005784  1
  I  I62  1  0.16476785  0.66362019  0.83736938  1
  I  I63  1  0.50434679  0.00266758  0.16850675  1
  I  I64  1  0.50054296  0.00004414  0.49783061  1
  I  I65  1  0.50776757  -0.00433501  0.83292412  1
  I  I66  1  0.50241476  0.33239334  0.17114040  1
  I  I67  1  0.50432944  0.32994131  0.49840750  1
  I  I68  1  0.49980817  0.33346274  0.83084020  1
  I  I69  1  0.49803869  0.66477921  0.16563687  1
  I  I70  1  0.49599408  0.66987172  0.50288952  1
  I  I71  1  0.50203049  0.67024872  0.82869114  1
  I  I72  1  0.82682304  0.00045302  0.16539030  1
  I  I73  1  0.83173550  0.00278699  0.49979407  1
  I  I74  1  0.82857634  -0.00317567  0.83389592  1
  I  I75  1  0.83215707  0.33057600  0.16903931  1
  I  I76  1  0.82812841  0.32839989  0.49276751  1
  I  I77  1  0.83837734  0.33597369  0.83391789  1
  I  I78  1  0.83289598  0.66866940  0.16459181  1
  I  I79  1  0.83347890  0.66681193  0.49699760  1
  I  I80  1  0.83343346  0.66776093  0.83946045  1
  I  I81  1  0.16651290  0.16261415  0.00033049  1
  I  I82  1  0.16510120  0.16951621  0.33323399  1
  I  I83  1  0.16505339  0.16847724  0.66632469  1
  I  I84  1  0.16607965  0.50095095  0.00005179  1
  I  I85  1  0.17044442  0.50046394  0.33042320  1
  I  I86  1  0.16147317  0.50142479  0.66961013  1
  I  I87  1  0.16914027  0.83393427  0.00012724  1
  I  I88  1  0.17324290  0.83233413  0.33651891  1
  I  I89  1  0.16610937  0.83144994  0.66397410  1
  I  I90  1  0.50585138  0.17079312  0.00362436  1
  I  I91  1  0.50466207  0.16469926  0.33335057  1
  I  I92  1  0.50495388  0.16457095  0.66355738  1
  I  I93  1  0.49954470  0.49535303  0.00346612  1
  I  I94  1  0.49486687  0.50096879  0.32922127  1
  I  I95  1  0.49916022  0.49754731  0.66689643  1
  I  I96  1  0.50374359  0.83193990  -0.00202724  1
  I  I97  1  0.49783485  0.83441413  0.33589015  1
  I  I98  1  0.50222670  0.83740478  0.66606282  1
  I  I99  1  0.82822752  0.16634825  0.00321454  1
  I  I100  1  0.82909655  0.16054435  0.33228025  1
  I  I101  1  0.82878097  0.16645929  0.66394797  1
  I  I102  1  0.83450129  0.50045134  -0.00262429  1
  I  I103  1  0.83423136  0.50367076  0.33323224  1
  I  I104  1  0.83940010  0.50724135  0.67147540  1
  I  I105  1  0.82721561  0.83444437  -0.00051301  1
  I  I106  1  0.83320033  0.83459918  0.33118416  1
  I  I107  1  0.83264049  0.83070660  0.66928013  1
  I  I108  1  -0.00340153  0.16413227  0.17074701  1
  I  I109  1  -0.00284562  0.16548221  0.49607389  1
  I  I110  1  -0.00032260  0.16219861  0.83214991  1
  I  I111  1  0.00180624  0.50101046  0.16378663  1
  I  I112  1  -0.00023973  0.50119837  0.49509407  1
  I  I113  1  -0.00035834  0.50546943  0.83989012  1
  I  I114  1  -0.00457163  0.83813115  0.16179712  1
  I  I115  1  0.00129945  0.83363811  0.49973926  1
  I  I116  1  -0.00294902  0.83141911  0.83505808  1
  I  I117  1  0.33673402  0.16894415  0.17142776  1
  I  I118  1  0.33709626  0.16461535  0.49545432  1
  I  I119  1  0.33376120  0.16609270  0.83281812  1
  I  I120  1  0.33371048  0.49540560  0.16114836  1
  I  I121  1  0.33352094  0.49642357  0.50418285  1
  I  I122  1  0.33108652  0.50142467  0.83604344  1
  I  I123  1  0.33326838  0.83498144  0.16435227  1
  I  I124  1  0.33524183  0.83798125  0.50534400  1
  I  I125  1  0.33575963  0.83260692  0.83086747  1
  I  I126  1  0.66659551  0.16910193  0.17076662  1
  I  I127  1  0.66575526  0.16030534  0.49574213  1
  I  I128  1  0.66662431  0.17197339  0.83304054  1
  I  I129  1  0.66455002  0.49891570  0.16549344  1
  I  I130  1  0.66667091  0.50649881  0.49924479  1
  I  I131  1  0.66909098  0.50230547  0.83500233  1
  I  I132  1  0.66946715  0.83162219  0.16706806  1
  I  I133  1  0.66397323  0.83591951  0.50127709  1
  I  I134  1  0.66751476  0.82742331  0.83116386  1
