# generated using pymatgen
data_Cs27Sn13Pb14I81
_symmetry_space_group_name_H-M   'P 1'
_cell_length_a   19.05706994
_cell_length_b   19.06410291
_cell_length_c   19.06036374
_cell_angle_alpha   90.00055823
_cell_angle_beta   89.99727099
_cell_angle_gamma   89.99745228
_symmetry_Int_Tables_number   1
_chemical_formula_structural   Cs27Sn13Pb14I81
_chemical_formula_sum   'Cs27 Sn13 Pb14 I81'
_cell_volume   6924.74339797
_cell_formula_units_Z   1
loop_
 _symmetry_equiv_pos_site_id
 _symmetry_equiv_pos_as_xyz
  1  'x, y, z'
loop_
 _atom_site_type_symbol
 _atom_site_label
 _atom_site_symmetry_multiplicity
 _atom_site_fract_x
 _atom_site_fract_y
 _atom_site_fract_z
 _atom_site_occupancy
  Cs  Cs0  1  0.00664435  0.00263832  0.00524480  1
  Cs  Cs1  1  -0.00074358  0.00279310  0.33033316  1
  Cs  Cs2  1  0.00375586  -0.00574684  0.66295394  1
  Cs  Cs3  1  -0.00002446  0.33399033  -0.00186160  1
  Cs  Cs4  1  -0.00458651  0.33069491  0.33217746  1
  Cs  Cs5  1  -0.00552073  0.34015715  0.67198480  1
  Cs  Cs6  1  0.00573269  0.66253741  -0.00613079  1
  Cs  Cs7  1  -0.00535390  0.66320898  0.33522071  1
  Cs  Cs8  1  0.00901610  0.66940113  0.67251528  1
  Cs  Cs9  1  0.32721085  0.00330852  0.00226901  1
  Cs  Cs10  1  0.32594084  0.00396388  0.33149416  1
  Cs  Cs11  1  0.33215625  -0.00139456  0.66188615  1
  Cs  Cs12  1  0.32964121  0.32904883  0.00457188  1
  Cs  Cs13  1  0.33695593  0.34409021  0.34209537  1
  Cs  Cs14  1  0.34198289  0.32968082  0.64677780  1
  Cs  Cs15  1  0.33455051  0.65933604  0.00021146  1
  Cs  Cs16  1  0.33719669  0.64689777  0.33167306  1
  Cs  Cs17  1  0.32560138  0.67012898  0.67014897  1
  Cs  Cs18  1  0.66346013  -0.00288104  -0.00062705  1
  Cs  Cs19  1  0.67144501  -0.00508598  0.33032576  1
  Cs  Cs20  1  0.66457894  -0.00448418  0.66925906  1
  Cs  Cs21  1  0.66977656  0.32813679  -0.00896183  1
  Cs  Cs22  1  0.67205052  0.33555179  0.33519704  1
  Cs  Cs23  1  0.66532695  0.33126327  0.67326277  1
  Cs  Cs24  1  0.66086875  0.67331063  -0.00142999  1
  Cs  Cs25  1  0.66710802  0.66938806  0.33252667  1
  Cs  Cs26  1  0.66646072  0.67188929  0.66849868  1
  Sn  Sn27  1  0.83271475  0.83329134  0.50119923  1
  Sn  Sn28  1  0.49969642  0.50029737  0.83348686  1
  Sn  Sn29  1  0.83264630  0.49926220  0.16601218  1
  Sn  Sn30  1  0.83312303  0.16617905  0.50017253  1
  Sn  Sn31  1  0.16683120  0.16669278  0.16663218  1
  Sn  Sn32  1  0.83339619  0.83407230  0.83331732  1
  Sn  Sn33  1  0.16690463  0.16712135  0.83257739  1
  Sn  Sn34  1  0.50002431  0.83371411  0.49936290  1
  Sn  Sn35  1  0.49984033  0.83307556  0.83285971  1
  Sn  Sn36  1  0.16690695  0.83264766  0.16756080  1
  Sn  Sn37  1  0.50054851  0.16646774  0.16721216  1
  Sn  Sn38  1  0.83240236  0.16750619  0.16679046  1
  Sn  Sn39  1  0.83269253  0.50043295  0.50020008  1
  Pb  Pb40  1  0.50367928  0.50299975  0.50247207  1
  Pb  Pb41  1  0.49736978  0.16573842  0.83493491  1
  Pb  Pb42  1  0.16707258  0.83316460  0.49654907  1
  Pb  Pb43  1  0.16376246  0.16681996  0.49947586  1
  Pb  Pb44  1  0.49720883  0.83514166  0.16714256  1
  Pb  Pb45  1  0.83520226  0.16367666  0.83343712  1
  Pb  Pb46  1  0.50342425  0.16366127  0.49701160  1
  Pb  Pb47  1  0.50359597  0.49694983  0.16419401  1
  Pb  Pb48  1  0.16342600  0.50001163  0.50033210  1
  Pb  Pb49  1  0.83160507  0.50268929  0.83352823  1
  Pb  Pb50  1  0.16751798  0.83524093  0.83557268  1
  Pb  Pb51  1  0.83512062  0.83320005  0.16634917  1
  Pb  Pb52  1  0.16395180  0.49893547  0.16666862  1
  Pb  Pb53  1  0.17036511  0.49618906  0.83310453  1
  I  I54  1  0.16270569  0.00195722  0.16220700  1
  I  I55  1  0.16299191  -0.00003764  0.50255282  1
  I  I56  1  0.16786136  0.00235326  0.83827565  1
  I  I57  1  0.16761430  0.32960938  0.15990314  1
  I  I58  1  0.16909012  0.33306985  0.49808327  1
  I  I59  1  0.16344992  0.32933024  0.84670053  1
  I  I60  1  0.16379015  0.66863675  0.16685625  1
  I  I61  1  0.16335248  0.66704324  0.49771042  1
  I  I62  1  0.16284454  0.66646878  0.83513361  1
  I  I63  1  0.50874356  0.00270974  0.16357576  1
  I  I64  1  0.50783080  -0.00327316  0.51078880  1
  I  I65  1  0.50506039  -0.00320797  0.82949660  1
  I  I66  1  0.49135522  0.32949933  0.16359108  1
  I  I67  1  0.49800301  0.33336699  0.50177303  1
  I  I68  1  0.50017871  0.33507612  0.83832652  1
  I  I69  1  0.49836162  0.66652722  0.16945002  1
  I  I70  1  0.50840516  0.67038500  0.49760175  1
  I  I71  1  0.50734713  0.66820205  0.83035460  1
  I  I72  1  0.83257153  0.00283380  0.17067625  1
  I  I73  1  0.82951849  -0.00036226  0.49825036  1
  I  I74  1  0.82428041  -0.00335829  0.82888272  1
  I  I75  1  0.83590212  0.33177943  0.17741271  1
  I  I76  1  0.83702289  0.33302431  0.49078811  1
  I  I77  1  0.83241384  0.33324779  0.82976456  1
  I  I78  1  0.83669218  0.66462912  0.17160201  1
  I  I79  1  0.82764572  0.66725048  0.49657983  1
  I  I80  1  0.83339380  0.67020446  0.82974370  1
  I  I81  1  0.16353296  0.16088398  0.00213418  1
  I  I82  1  0.16699807  0.15967650  0.32983960  1
  I  I83  1  0.16564540  0.16545563  0.66895651  1
  I  I84  1  0.16139837  0.50439477  0.00004015  1
  I  I85  1  0.17391425  0.49886418  0.33302563  1
  I  I86  1  0.16098365  0.49937114  0.66719312  1
  I  I87  1  0.16360787  0.83813605  0.00271220  1
  I  I88  1  0.16401984  0.84670439  0.32977113  1
  I  I89  1  0.16549580  0.83507929  0.66641953  1
  I  I90  1  0.50822736  0.16386485  0.00279976  1
  I  I91  1  0.49158654  0.16418950  0.32967326  1
  I  I92  1  0.49791695  0.17127709  0.66640780  1
  I  I93  1  0.50329152  0.51228953  -0.00257183  1
  I  I94  1  0.49519896  0.50066394  0.33341695  1
  I  I95  1  0.50328243  0.49741590  0.66976344  1
  I  I96  1  0.50666055  0.83030080  -0.00256508  1
  I  I97  1  0.50861138  0.83763974  0.33608987  1
  I  I98  1  0.50683120  0.83009703  0.66692343  1
  I  I99  1  0.83194966  0.17193444  0.00326215  1
  I  I100  1  0.83624582  0.16424896  0.33244126  1
  I  I101  1  0.83629730  0.17125167  0.66382444  1
  I  I102  1  0.83339716  0.49288593  0.00244829  1
  I  I103  1  0.83395040  0.50180923  0.33336910  1
  I  I104  1  0.83158093  0.49354815  0.66402922  1
  I  I105  1  0.82798113  0.83355175  -0.00249959  1
  I  I106  1  0.82929568  0.83320055  0.33600192  1
  I  I107  1  0.82898366  0.83436496  0.66580493  1
  I  I108  1  -0.00043175  0.16570360  0.16744988  1
  I  I109  1  -0.00408301  0.16231135  0.49171689  1
  I  I110  1  0.00217454  0.16370697  0.84218576  1
  I  I111  1  -0.00362152  0.49351455  0.17146773  1
  I  I112  1  -0.00519045  0.50332007  0.49512448  1
  I  I113  1  0.00018292  0.50169011  0.83267547  1
  I  I114  1  0.00206501  0.84233810  0.16625835  1
  I  I115  1  -0.00352103  0.83316254  0.50524842  1
  I  I116  1  -0.00225692  0.83458956  0.82746186  1
  I  I117  1  0.33291568  0.15663996  0.15665018  1
  I  I118  1  0.33341968  0.16447350  0.50052879  1
  I  I119  1  0.33016708  0.16413380  0.84530075  1
  I  I120  1  0.33344799  0.50063366  0.16535958  1
  I  I121  1  0.33410010  0.50069479  0.50040858  1
  I  I122  1  0.33727755  0.51422671  0.83556521  1
  I  I123  1  0.32999293  0.84529474  0.16522056  1
  I  I124  1  0.33637213  0.83600915  0.50828092  1
  I  I125  1  0.33646033  0.82928296  0.82738860  1
  I  I126  1  0.66787911  0.17233702  0.17264749  1
  I  I127  1  0.67092093  0.17024291  0.49317624  1
  I  I128  1  0.66661271  0.16942576  0.83481050  1
  I  I129  1  0.67067626  0.49465350  0.17361516  1
  I  I130  1  0.67059246  0.49595490  0.49304404  1
  I  I131  1  0.66440333  0.49967189  0.83393643  1
  I  I132  1  0.66665156  0.83450702  0.16563646  1
  I  I133  1  0.66839322  0.83404633  0.50435179  1
  I  I134  1  0.66682589  0.83036661  0.82992433  1
