# generated using pymatgen
data_Cs27Sn14Pb13I81
_symmetry_space_group_name_H-M   'P 1'
_cell_length_a   18.97058203
_cell_length_b   18.97939380
_cell_length_c   18.97552742
_cell_angle_alpha   90.00044340
_cell_angle_beta   89.99940514
_cell_angle_gamma   89.99904405
_symmetry_Int_Tables_number   1
_chemical_formula_structural   Cs27Sn14Pb13I81
_chemical_formula_sum   'Cs27 Sn14 Pb13 I81'
_cell_volume   6832.14143239
_cell_formula_units_Z   1
loop_
 _symmetry_equiv_pos_site_id
 _symmetry_equiv_pos_as_xyz
  1  'x, y, z'
loop_
 _atom_site_type_symbol
 _atom_site_label
 _atom_site_symmetry_multiplicity
 _atom_site_fract_x
 _atom_site_fract_y
 _atom_site_fract_z
 _atom_site_occupancy
  Cs  Cs0  1  0.00195553  -0.00301321  0.00005004  1
  Cs  Cs1  1  0.01019436  0.00358859  0.33449140  1
  Cs  Cs2  1  -0.00231748  0.00334565  0.66665702  1
  Cs  Cs3  1  -0.00089466  0.33323452  -0.00199856  1
  Cs  Cs4  1  -0.00047348  0.32728108  0.33649709  1
  Cs  Cs5  1  0.00049158  0.33332957  0.66606647  1
  Cs  Cs6  1  -0.00449080  0.67020549  0.00107397  1
  Cs  Cs7  1  -0.00182975  0.67091533  0.33026524  1
  Cs  Cs8  1  0.00154080  0.66418009  0.66777259  1
  Cs  Cs9  1  0.33236263  0.00194679  -0.00066146  1
  Cs  Cs10  1  0.32707329  -0.00356054  0.33233964  1
  Cs  Cs11  1  0.33742734  -0.00731666  0.66989752  1
  Cs  Cs12  1  0.33438008  0.33360240  -0.00012054  1
  Cs  Cs13  1  0.33550767  0.33355911  0.33008791  1
  Cs  Cs14  1  0.33289885  0.33807561  0.66941665  1
  Cs  Cs15  1  0.33312647  0.66141387  0.00106758  1
  Cs  Cs16  1  0.33436319  0.66904046  0.33551645  1
  Cs  Cs17  1  0.32963551  0.66604640  0.66264053  1
  Cs  Cs18  1  0.66639487  0.00011832  -0.00405995  1
  Cs  Cs19  1  0.66530778  0.00429519  0.33595915  1
  Cs  Cs20  1  0.66609019  -0.00323242  0.66878378  1
  Cs  Cs21  1  0.66563652  0.33305995  0.00119875  1
  Cs  Cs22  1  0.66710282  0.33451350  0.33344752  1
  Cs  Cs23  1  0.66761368  0.33237864  0.66546821  1
  Cs  Cs24  1  0.67100601  0.66720311  0.00156550  1
  Cs  Cs25  1  0.66668149  0.66478826  0.33301343  1
  Cs  Cs26  1  0.66710559  0.66909885  0.66531363  1
  Sn  Sn27  1  0.83281196  0.16640987  0.16588236  1
  Sn  Sn28  1  0.49935245  0.50016064  0.16679302  1
  Sn  Sn29  1  0.50055153  0.83357074  0.16632451  1
  Sn  Sn30  1  0.49967099  0.16725066  0.49946710  1
  Sn  Sn31  1  0.16666534  0.49965977  0.16699715  1
  Sn  Sn32  1  0.16615723  0.16590406  0.83329744  1
  Sn  Sn33  1  0.83270559  0.50094940  0.50066019  1
  Sn  Sn34  1  0.83387314  0.16746833  0.83435262  1
  Sn  Sn35  1  0.16657513  0.83398956  0.83340084  1
  Sn  Sn36  1  0.83221703  0.49922229  0.83261614  1
  Sn  Sn37  1  0.50074342  0.16627381  0.16752080  1
  Sn  Sn38  1  0.50084681  0.49912146  0.50003952  1
  Sn  Sn39  1  0.83336677  0.83269008  0.49963582  1
  Sn  Sn40  1  0.50117827  0.50014392  0.83316762  1
  Pb  Pb41  1  0.16629857  0.49982669  0.49708040  1
  Pb  Pb42  1  0.16590185  0.49979120  0.83495004  1
  Pb  Pb43  1  0.16377422  0.83322967  0.50232541  1
  Pb  Pb44  1  0.83128623  0.83693962  0.16916042  1
  Pb  Pb45  1  0.49821091  0.82978857  0.83561231  1
  Pb  Pb46  1  0.16891255  0.83094171  0.16470670  1
  Pb  Pb47  1  0.83307989  0.49829895  0.16704485  1
  Pb  Pb48  1  0.83480024  0.83323747  0.83184997  1
  Pb  Pb49  1  0.16706176  0.16844421  0.16483243  1
  Pb  Pb50  1  0.50143439  0.83306842  0.49797423  1
  Pb  Pb51  1  0.17076964  0.16692208  0.50326015  1
  Pb  Pb52  1  0.83171683  0.16710814  0.50034131  1
  Pb  Pb53  1  0.50032642  0.16835040  0.83326800  1
  I  I54  1  0.16750079  0.00013749  0.16674180  1
  I  I55  1  0.16551835  0.00020543  0.49663587  1
  I  I56  1  0.16128011  0.00113700  0.83481309  1
  I  I57  1  0.17352958  0.33600061  0.16343182  1
  I  I58  1  0.16125624  0.33336480  0.50275293  1
  I  I59  1  0.16568263  0.33130233  0.83544270  1
  I  I60  1  0.17201576  0.66313502  0.16354133  1
  I  I61  1  0.17155453  0.66641752  0.50320244  1
  I  I62  1  0.16777241  0.66813580  0.83544769  1
  I  I63  1  0.50531713  0.00147569  0.17131158  1
  I  I64  1  0.50242446  0.00259364  0.49589082  1
  I  I65  1  0.50145954  -0.00005386  0.83303823  1
  I  I66  1  0.49979033  0.33376845  0.16719406  1
  I  I67  1  0.50613851  0.33484367  0.49535789  1
  I  I68  1  0.49865745  0.33649123  0.83755070  1
  I  I69  1  0.49459680  0.66494537  0.16635484  1
  I  I70  1  0.50196099  0.66322635  0.49920784  1
  I  I71  1  0.50398954  0.66161488  0.83305141  1
  I  I72  1  0.82733595  0.00472550  0.16122278  1
  I  I73  1  0.83047585  -0.00139178  0.50041304  1
  I  I74  1  0.83531286  0.00290873  0.83514661  1
  I  I75  1  0.82761733  0.33054058  0.16672114  1
  I  I76  1  0.83020376  0.33607473  0.50107190  1
  I  I77  1  0.83536460  0.33364609  0.83146390  1
  I  I78  1  0.83327375  0.66663038  0.16412895  1
  I  I79  1  0.82711514  0.66450027  0.50551504  1
  I  I80  1  0.83117677  0.66356268  0.83177493  1
  I  I81  1  0.16755143  0.16501437  -0.00303622  1
  I  I82  1  0.16297511  0.16798582  0.33320540  1
  I  I83  1  0.15944614  0.16550805  0.67109547  1
  I  I84  1  0.17318907  0.49892540  0.00248264  1
  I  I85  1  0.17234223  0.49953943  0.32935229  1
  I  I86  1  0.16994823  0.50038108  0.66681775  1
  I  I87  1  0.16536148  0.83676842  -0.00291344  1
  I  I88  1  0.16657249  0.83218289  0.33310245  1
  I  I89  1  0.16904437  0.83577078  0.67022287  1
  I  I90  1  0.50058124  0.16873540  0.00272835  1
  I  I91  1  0.50711199  0.17243420  0.33191742  1
  I  I92  1  0.50026354  0.17230259  0.66441054  1
  I  I93  1  0.49895068  0.49915957  0.00060552  1
  I  I94  1  0.50030074  0.49888311  0.33311681  1
  I  I95  1  0.50417128  0.49398130  0.66627544  1
  I  I96  1  0.50023285  0.83465332  0.00349701  1
  I  I97  1  0.50082102  0.82871273  0.33014457  1
  I  I98  1  0.49943146  0.83441746  0.66673303  1
  I  I99  1  0.83053724  0.17292105  -0.00073918  1
  I  I100  1  0.82930934  0.16816340  0.33121868  1
  I  I101  1  0.83579381  0.16809695  0.66939546  1
  I  I102  1  0.83063333  0.49709364  -0.00246359  1
  I  I103  1  0.82962004  0.50187400  0.33591223  1
  I  I104  1  0.82622327  0.49798034  0.66724140  1
  I  I105  1  0.83381645  0.83078176  0.00013490  1
  I  I106  1  0.83124748  0.82509815  0.33655880  1
  I  I107  1  0.83203161  0.83362516  0.66402710  1
  I  I108  1  -0.00246949  0.17016288  0.16475264  1
  I  I109  1  -0.00006904  0.16673361  0.49698493  1
  I  I110  1  -0.00152597  0.16940862  0.83870076  1
  I  I111  1  0.00165905  0.49770063  0.16437576  1
  I  I112  1  -0.00352233  0.50336298  0.50463007  1
  I  I113  1  -0.00312026  0.49861484  0.83048106  1
  I  I114  1  -0.00010616  0.83178897  0.16693061  1
  I  I115  1  -0.00419233  0.82656459  0.49932560  1
  I  I116  1  0.00258375  0.83198607  0.83343665  1
  I  I117  1  0.33683153  0.16661699  0.16876113  1
  I  I118  1  0.33858261  0.17350550  0.49325302  1
  I  I119  1  0.33154537  0.16537737  0.83360688  1
  I  I120  1  0.33623160  0.49757690  0.16482930  1
  I  I121  1  0.33695629  0.49599967  0.50323066  1
  I  I122  1  0.33592267  0.49934746  0.83219951  1
  I  I123  1  0.33702499  0.83769000  0.16755685  1
  I  I124  1  0.33348726  0.83333653  0.50002108  1
  I  I125  1  0.33055853  0.83967674  0.83403850  1
  I  I126  1  0.66536334  0.17010766  0.16424314  1
  I  I127  1  0.66373588  0.16904027  0.49968286  1
  I  I128  1  0.66920957  0.16992193  0.83457115  1
  I  I129  1  0.66343783  0.50055911  0.16648049  1
  I  I130  1  0.66577498  0.49962193  0.49861557  1
  I  I131  1  0.66691464  0.49413525  0.83518366  1
  I  I132  1  0.66339121  0.82609530  0.16569055  1
  I  I133  1  0.66916425  0.83150177  0.50161858  1
  I  I134  1  0.66662193  0.83577775  0.83301907  1
