# generated using pymatgen
data_Cs27Sn13Pb14I81
_symmetry_space_group_name_H-M   'P 1'
_cell_length_a   18.98215697
_cell_length_b   18.97634469
_cell_length_c   18.97256277
_cell_angle_alpha   89.99908501
_cell_angle_beta   90.00235175
_cell_angle_gamma   89.99991343
_symmetry_Int_Tables_number   1
_chemical_formula_structural   Cs27Sn13Pb14I81
_chemical_formula_sum   'Cs27 Sn13 Pb14 I81'
_cell_volume   6834.14389792
_cell_formula_units_Z   1
loop_
 _symmetry_equiv_pos_site_id
 _symmetry_equiv_pos_as_xyz
  1  'x, y, z'
loop_
 _atom_site_type_symbol
 _atom_site_label
 _atom_site_symmetry_multiplicity
 _atom_site_fract_x
 _atom_site_fract_y
 _atom_site_fract_z
 _atom_site_occupancy
  Cs  Cs0  1  0.00032776  -0.00037757  -0.00143967  1
  Cs  Cs1  1  -0.00186048  -0.00042431  0.33483413  1
  Cs  Cs2  1  -0.00076907  0.00169702  0.66922179  1
  Cs  Cs3  1  0.00104513  0.33236689  0.00010660  1
  Cs  Cs4  1  -0.00066905  0.33246259  0.33245810  1
  Cs  Cs5  1  -0.00064063  0.33896454  0.66614134  1
  Cs  Cs6  1  -0.00150083  0.66925444  0.00209777  1
  Cs  Cs7  1  0.00084277  0.66870435  0.33646463  1
  Cs  Cs8  1  0.00087020  0.65930268  0.65997042  1
  Cs  Cs9  1  0.33263771  0.00124061  0.00029050  1
  Cs  Cs10  1  0.33519320  0.00128462  0.33335454  1
  Cs  Cs11  1  0.33337323  -0.00002927  0.66592129  1
  Cs  Cs12  1  0.33152567  0.33184309  0.00050704  1
  Cs  Cs13  1  0.33580546  0.33209989  0.33195962  1
  Cs  Cs14  1  0.33252990  0.33201193  0.66759847  1
  Cs  Cs15  1  0.33441509  0.66709816  -0.00243727  1
  Cs  Cs16  1  0.33087129  0.66514271  0.33724162  1
  Cs  Cs17  1  0.33569742  0.66748913  0.66421626  1
  Cs  Cs18  1  0.66713826  -0.00058589  0.00073946  1
  Cs  Cs19  1  0.66803566  -0.00620542  0.33244438  1
  Cs  Cs20  1  0.66741440  0.00092180  0.66612071  1
  Cs  Cs21  1  0.66725447  0.33341971  0.00092923  1
  Cs  Cs22  1  0.66392642  0.33166599  0.33354136  1
  Cs  Cs23  1  0.66831633  0.33337218  0.66493614  1
  Cs  Cs24  1  0.66594929  0.66894477  -0.00343752  1
  Cs  Cs25  1  0.66754100  0.67413428  0.33267997  1
  Cs  Cs26  1  0.66290115  0.66458446  0.67136339  1
  Sn  Sn27  1  0.16581104  0.16644429  0.16749328  1
  Sn  Sn28  1  0.16684563  0.83353681  0.16600610  1
  Sn  Sn29  1  0.50013330  0.49995080  0.16743683  1
  Sn  Sn30  1  0.16659183  0.50007529  0.16648152  1
  Sn  Sn31  1  0.83398239  0.16722547  0.16594800  1
  Sn  Sn32  1  0.49942300  0.16725278  0.50064925  1
  Sn  Sn33  1  0.16704040  0.16669075  0.49927752  1
  Sn  Sn34  1  0.50086859  0.16684159  0.83274642  1
  Sn  Sn35  1  0.83320824  0.49942506  0.16664427  1
  Sn  Sn36  1  0.50025486  0.49905668  0.49903218  1
  Sn  Sn37  1  0.16563188  0.83312075  0.83358338  1
  Sn  Sn38  1  0.83463112  0.83385554  0.83315131  1
  Sn  Sn39  1  0.83268786  0.16629506  0.83417040  1
  Pb  Pb40  1  0.49987344  0.49721893  0.83340537  1
  Pb  Pb41  1  0.83352156  0.83325219  0.50393954  1
  Pb  Pb42  1  0.49998847  0.83360928  0.50001932  1
  Pb  Pb43  1  0.16657392  0.83588850  0.50013409  1
  Pb  Pb44  1  0.49694361  0.82994959  0.16660942  1
  Pb  Pb45  1  0.16615175  0.16551984  0.83337543  1
  Pb  Pb46  1  0.49982302  0.83615695  0.83344923  1
  Pb  Pb47  1  0.83311208  0.16664946  0.49982770  1
  Pb  Pb48  1  0.16666185  0.50317602  0.83551143  1
  Pb  Pb49  1  0.83538191  0.83358841  0.16517656  1
  Pb  Pb50  1  0.83034782  0.49987474  0.49672095  1
  Pb  Pb51  1  0.50035759  0.16780150  0.16685278  1
  Pb  Pb52  1  0.16861814  0.49729368  0.49754239  1
  Pb  Pb53  1  0.83347297  0.49971983  0.83547364  1
  I  I54  1  0.16212400  0.00110956  0.16630796  1
  I  I55  1  0.17336658  0.00395330  0.49387890  1
  I  I56  1  0.16619234  -0.00230939  0.83976572  1
  I  I57  1  0.16624139  0.33283374  0.17112379  1
  I  I58  1  0.16846291  0.32928906  0.49573027  1
  I  I59  1  0.16686360  0.33310962  0.83418745  1
  I  I60  1  0.16741311  0.66627904  0.16070100  1
  I  I61  1  0.16848585  0.66641864  0.49974069  1
  I  I62  1  0.16126994  0.67135991  0.83914204  1
  I  I63  1  0.49984418  0.00007278  0.16693105  1
  I  I64  1  0.49581085  0.00385791  0.50436699  1
  I  I65  1  0.50097097  0.00422790  0.82826115  1
  I  I66  1  0.49586115  0.33591814  0.16708707  1
  I  I67  1  0.49586559  0.33227385  0.49923029  1
  I  I68  1  0.50514112  0.32918770  0.83262877  1
  I  I69  1  0.50197110  0.66157008  0.17214591  1
  I  I70  1  0.50015315  0.66330373  0.49468048  1
  I  I71  1  0.50062986  0.66663877  0.83295209  1
  I  I72  1  0.83746205  0.00314084  0.16482252  1
  I  I73  1  0.83064338  0.00043581  0.49411666  1
  I  I74  1  0.83299219  0.00139094  0.83983576  1
  I  I75  1  0.83807505  0.33239777  0.16096741  1
  I  I76  1  0.83576204  0.33310584  0.50499254  1
  I  I77  1  0.82902690  0.32990391  0.83584077  1
  I  I78  1  0.83346348  0.66404782  0.16558275  1
  I  I79  1  0.83235785  0.66640819  0.49885753  1
  I  I80  1  0.83716987  0.66954445  0.83565845  1
  I  I81  1  0.16669330  0.16856643  0.00309836  1
  I  I82  1  0.16745702  0.16557695  0.33157674  1
  I  I83  1  0.16885071  0.16346152  0.66453803  1
  I  I84  1  0.16977953  0.49329027  0.00468026  1
  I  I85  1  0.16444469  0.50475908  0.32890262  1
  I  I86  1  0.16844145  0.49990199  0.66622779  1
  I  I87  1  0.16326539  0.83547254  0.00099759  1
  I  I88  1  0.16743271  0.83093026  0.32997233  1
  I  I89  1  0.16329601  0.83740093  0.66974182  1
  I  I90  1  0.50045624  0.16767101  -0.00195062  1
  I  I91  1  0.49788673  0.16994573  0.33566548  1
  I  I92  1  0.49894574  0.17169604  0.66614262  1
  I  I93  1  0.49945880  0.49889139  0.00340229  1
  I  I94  1  0.49896009  0.49216401  0.33252342  1
  I  I95  1  0.49968080  0.49789764  0.66372978  1
  I  I96  1  0.50061667  0.83326028  0.00006356  1
  I  I97  1  0.49934938  0.83875315  0.33309575  1
  I  I98  1  0.49792186  0.82879333  0.66691005  1
  I  I99  1  0.83325798  0.16691343  0.00054526  1
  I  I100  1  0.83487124  0.17154995  0.32990670  1
  I  I101  1  0.83219800  0.16117560  0.66972264  1
  I  I102  1  0.83121343  0.49800993  0.00409088  1
  I  I103  1  0.83694090  0.49273878  0.32831949  1
  I  I104  1  0.83170118  0.50033984  0.66659632  1
  I  I105  1  0.83552430  0.83541281  -0.00270504  1
  I  I106  1  0.83380234  0.83408431  0.33298607  1
  I  I107  1  0.83932585  0.84195756  0.67210919  1
  I  I108  1  0.00061322  0.17114151  0.16615244  1
  I  I109  1  0.00268405  0.16479704  0.49787283  1
  I  I110  1  -0.00264194  0.16367844  0.83546158  1
  I  I111  1  0.00037445  0.49832232  0.16372690  1
  I  I112  1  0.00011070  0.49906584  0.50005419  1
  I  I113  1  0.00000456  0.49451016  0.83455038  1
  I  I114  1  0.00341983  0.83004395  0.16435636  1
  I  I115  1  0.00036120  0.83526055  0.49712290  1
  I  I116  1  -0.00004370  0.84152472  0.83960466  1
  I  I117  1  0.33063989  0.16741415  0.16663523  1
  I  I118  1  0.33364167  0.16990494  0.49975055  1
  I  I119  1  0.33514318  0.16582016  0.83291724  1
  I  I120  1  0.33292531  0.49948265  0.17026539  1
  I  I121  1  0.33650989  0.49772053  0.49375212  1
  I  I122  1  0.33338031  0.49947315  0.83726695  1
  I  I123  1  0.32861325  0.83646687  0.16009564  1
  I  I124  1  0.33310957  0.83222311  0.50209614  1
  I  I125  1  0.33031337  0.83454172  0.83809699  1
  I  I126  1  0.66930858  0.17176363  0.16506531  1
  I  I127  1  0.66356626  0.17127166  0.50153187  1
  I  I128  1  0.66747479  0.16167966  0.83425395  1
  I  I129  1  0.66687290  0.49271561  0.16977751  1
  I  I130  1  0.66239291  0.49163122  0.49526890  1
  I  I131  1  0.66663444  0.50459881  0.83662566  1
  I  I132  1  0.66688427  0.83371245  0.16538649  1
  I  I133  1  0.66661218  0.83597799  0.49954648  1
  I  I134  1  0.66959209  0.83531929  0.83385735  1
