# generated using pymatgen
data_Cs27Sn14Pb13I81
_symmetry_space_group_name_H-M   'P 1'
_cell_length_a   18.97659722
_cell_length_b   18.97806668
_cell_length_c   18.97179803
_cell_angle_alpha   89.99822045
_cell_angle_beta   89.99940630
_cell_angle_gamma   89.99969738
_symmetry_Int_Tables_number   1
_chemical_formula_structural   Cs27Sn14Pb13I81
_chemical_formula_sum   'Cs27 Sn14 Pb13 I81'
_cell_volume   6832.48678704
_cell_formula_units_Z   1
loop_
 _symmetry_equiv_pos_site_id
 _symmetry_equiv_pos_as_xyz
  1  'x, y, z'
loop_
 _atom_site_type_symbol
 _atom_site_label
 _atom_site_symmetry_multiplicity
 _atom_site_fract_x
 _atom_site_fract_y
 _atom_site_fract_z
 _atom_site_occupancy
  Cs  Cs0  1  0.00052051  -0.00124684  -0.00095376  1
  Cs  Cs1  1  0.00009931  0.00106266  0.33476488  1
  Cs  Cs2  1  -0.00062395  -0.00094741  0.66823936  1
  Cs  Cs3  1  -0.00149774  0.33545875  0.00034909  1
  Cs  Cs4  1  -0.00097145  0.33147827  0.33245680  1
  Cs  Cs5  1  -0.00083329  0.33690135  0.66622619  1
  Cs  Cs6  1  0.00121466  0.66597378  -0.00169909  1
  Cs  Cs7  1  -0.00048931  0.66816716  0.33189668  1
  Cs  Cs8  1  0.00444208  0.66330018  0.66874447  1
  Cs  Cs9  1  0.33160308  0.00367500  -0.00198249  1
  Cs  Cs10  1  0.32990172  0.00083987  0.33382170  1
  Cs  Cs11  1  0.33294489  -0.00185276  0.66872093  1
  Cs  Cs12  1  0.33796139  0.32838893  0.00446288  1
  Cs  Cs13  1  0.33132719  0.33092416  0.33108437  1
  Cs  Cs14  1  0.33584740  0.33581539  0.66412726  1
  Cs  Cs15  1  0.33149816  0.66668101  0.00008991  1
  Cs  Cs16  1  0.33642714  0.66818309  0.33332210  1
  Cs  Cs17  1  0.33247730  0.66595537  0.66558825  1
  Cs  Cs18  1  0.66590412  0.00064333  -0.00130942  1
  Cs  Cs19  1  0.66917786  -0.01016520  0.33539278  1
  Cs  Cs20  1  0.66668646  0.00256868  0.66763112  1
  Cs  Cs21  1  0.66569008  0.33310599  0.00073592  1
  Cs  Cs22  1  0.66890357  0.33545529  0.33771552  1
  Cs  Cs23  1  0.66696106  0.33284502  0.66492781  1
  Cs  Cs24  1  0.66577613  0.66640982  0.00195173  1
  Cs  Cs25  1  0.66516783  0.67106498  0.33213477  1
  Cs  Cs26  1  0.66512906  0.66456907  0.66683073  1
  Sn  Sn27  1  0.50012548  0.50048824  0.83302751  1
  Sn  Sn28  1  0.83392808  0.49946555  0.16757821  1
  Sn  Sn29  1  0.16600870  0.50059434  0.16658577  1
  Sn  Sn30  1  0.50094370  0.49911774  0.50063746  1
  Sn  Sn31  1  0.50072670  0.16703926  0.49980739  1
  Sn  Sn32  1  0.16653385  0.83391512  0.83400787  1
  Sn  Sn33  1  0.83341790  0.83364475  0.83325688  1
  Sn  Sn34  1  0.16651667  0.83270826  0.16598381  1
  Sn  Sn35  1  0.83427296  0.16611506  0.83344614  1
  Sn  Sn36  1  0.16567133  0.16680143  0.83295930  1
  Sn  Sn37  1  0.83254194  0.16723280  0.49995116  1
  Sn  Sn38  1  0.83282068  0.49969615  0.49913282  1
  Sn  Sn39  1  0.49996727  0.83231430  0.83335939  1
  Sn  Sn40  1  0.83290583  0.16707178  0.16672771  1
  Pb  Pb41  1  0.16606549  0.16681646  0.50282331  1
  Pb  Pb42  1  0.83355435  0.83279887  0.50276823  1
  Pb  Pb43  1  0.83511097  0.83308682  0.16431063  1
  Pb  Pb44  1  0.50004893  0.83326775  0.50222326  1
  Pb  Pb45  1  0.16663879  0.49991486  0.49706450  1
  Pb  Pb46  1  0.50028914  0.16680119  0.83179339  1
  Pb  Pb47  1  0.50053073  0.49985449  0.16746497  1
  Pb  Pb48  1  0.16654122  0.83327631  0.50023693  1
  Pb  Pb49  1  0.83162143  0.49962257  0.83341179  1
  Pb  Pb50  1  0.50357492  0.16660124  0.17045150  1
  Pb  Pb51  1  0.49698568  0.83371402  0.16377584  1
  Pb  Pb52  1  0.16939857  0.49940114  0.83547101  1
  Pb  Pb53  1  0.16439011  0.16661229  0.16446946  1
  I  I54  1  0.16606578  -0.00244437  0.16292535  1
  I  I55  1  0.16732453  0.00028838  0.49542163  1
  I  I56  1  0.16816661  -0.00099660  0.83885364  1
  I  I57  1  0.16469248  0.33565920  0.16549779  1
  I  I58  1  0.16765030  0.33336719  0.50115595  1
  I  I59  1  0.16156429  0.33076408  0.83395926  1
  I  I60  1  0.16070802  0.66661403  0.16018293  1
  I  I61  1  0.16621253  0.66633957  0.50530565  1
  I  I62  1  0.16386303  0.66937209  0.83551299  1
  I  I63  1  0.49998520  0.00025012  0.16617852  1
  I  I64  1  0.50544505  0.00296998  0.50166218  1
  I  I65  1  0.49950493  -0.00232253  0.83202135  1
  I  I66  1  0.49310662  0.33336940  0.15854305  1
  I  I67  1  0.50475527  0.33422231  0.50797371  1
  I  I68  1  0.50021872  0.33559566  0.83121459  1
  I  I69  1  0.50464658  0.66661354  0.17043129  1
  I  I70  1  0.50433441  0.66336198  0.50204973  1
  I  I71  1  0.50035724  0.66690240  0.82759150  1
  I  I72  1  0.83430641  0.00276287  0.16899978  1
  I  I73  1  0.82901109  0.00334860  0.49761726  1
  I  I74  1  0.83222160  0.00089527  0.83340975  1
  I  I75  1  0.83950315  0.33363637  0.16493851  1
  I  I76  1  0.82923848  0.33293508  0.50179925  1
  I  I77  1  0.83651179  0.33038052  0.83318847  1
  I  I78  1  0.83502238  0.66378160  0.16979840  1
  I  I79  1  0.82853128  0.66309724  0.49584899  1
  I  I80  1  0.83566705  0.66891217  0.83357817  1
  I  I81  1  0.16229818  0.16477975  -0.00354323  1
  I  I82  1  0.16703191  0.16565722  0.33314335  1
  I  I83  1  0.16161170  0.15953821  0.67087734  1
  I  I84  1  0.16027049  0.50180449  0.00305215  1
  I  I85  1  0.16695045  0.50564538  0.32910808  1
  I  I86  1  0.16455807  0.50098027  0.66685573  1
  I  I87  1  0.16652625  0.83279853  -0.00153182  1
  I  I88  1  0.16565663  0.82895484  0.32994840  1
  I  I89  1  0.16688352  0.83783648  0.67085618  1
  I  I90  1  0.50031024  0.16687743  -0.00014325  1
  I  I91  1  0.50248218  0.17558680  0.33836601  1
  I  I92  1  0.50610157  0.16815490  0.66412863  1
  I  I93  1  0.50024182  0.50506678  -0.00234802  1
  I  I94  1  0.50078239  0.49460123  0.33665537  1
  I  I95  1  0.50539553  0.50026824  0.66620759  1
  I  I96  1  0.50321289  0.82712905  -0.00476803  1
  I  I97  1  0.49841701  0.83282943  0.33340562  1
  I  I98  1  0.49729364  0.83221824  0.67066654  1
  I  I99  1  0.83881743  0.16690391  -0.00064635  1
  I  I100  1  0.82948073  0.17260781  0.33374126  1
  I  I101  1  0.83283636  0.16632308  0.66679602  1
  I  I102  1  0.83569510  0.49737046  0.00231915  1
  I  I103  1  0.83223557  0.49177040  0.33357178  1
  I  I104  1  0.83014222  0.49707163  0.66434398  1
  I  I105  1  0.83158102  0.83706413  -0.00389329  1
  I  I106  1  0.83569074  0.83610712  0.33317570  1
  I  I107  1  0.83568431  0.83766193  0.67112792  1
  I  I108  1  -0.00370476  0.16810389  0.17125569  1
  I  I109  1  -0.00394158  0.17089426  0.49852920  1
  I  I110  1  -0.00143575  0.15858021  0.83179033  1
  I  I111  1  -0.00125662  0.49985484  0.17091454  1
  I  I112  1  -0.00341679  0.49494624  0.49909806  1
  I  I113  1  -0.00008745  0.50245861  0.83084264  1
  I  I114  1  0.00282745  0.83166072  0.15890639  1
  I  I115  1  -0.00025834  0.83370487  0.50359553  1
  I  I116  1  0.00027205  0.83887413  0.83675999  1
  I  I117  1  0.33316640  0.16701185  0.16565545  1
  I  I118  1  0.33613317  0.17093233  0.50323871  1
  I  I119  1  0.33134445  0.16319337  0.83234920  1
  I  I120  1  0.33087230  0.50531584  0.16489114  1
  I  I121  1  0.33661180  0.49657899  0.50391343  1
  I  I122  1  0.33706115  0.50381386  0.82826186  1
  I  I123  1  0.32891084  0.82630427  0.16153597  1
  I  I124  1  0.33352702  0.83331694  0.50230148  1
  I  I125  1  0.33275746  0.83398107  0.83680321  1
  I  I126  1  0.67169614  0.17400993  0.15824224  1
  I  I127  1  0.66817914  0.17179088  0.50345954  1
  I  I128  1  0.66977501  0.16337420  0.83456858  1
  I  I129  1  0.66995303  0.49483365  0.16664308  1
  I  I130  1  0.66724288  0.49528401  0.49942725  1
  I  I131  1  0.66384907  0.50379574  0.83383159  1
  I  I132  1  0.66694710  0.83285399  0.16493019  1
  I  I133  1  0.66685057  0.83367670  0.50153562  1
  I  I134  1  0.66694479  0.83434306  0.83158992  1
