# generated using pymatgen
data_Cs27Sn14Pb13I81
_symmetry_space_group_name_H-M   'P 1'
_cell_length_a   18.97126634
_cell_length_b   18.97572513
_cell_length_c   18.98122814
_cell_angle_alpha   89.99831174
_cell_angle_beta   89.99823077
_cell_angle_gamma   90.00052753
_symmetry_Int_Tables_number   1
_chemical_formula_structural   Cs27Sn14Pb13I81
_chemical_formula_sum   'Cs27 Sn14 Pb13 I81'
_cell_volume   6833.11941879
_cell_formula_units_Z   1
loop_
 _symmetry_equiv_pos_site_id
 _symmetry_equiv_pos_as_xyz
  1  'x, y, z'
loop_
 _atom_site_type_symbol
 _atom_site_label
 _atom_site_symmetry_multiplicity
 _atom_site_fract_x
 _atom_site_fract_y
 _atom_site_fract_z
 _atom_site_occupancy
  Cs  Cs0  1  0.00043076  0.00042917  0.00152781  1
  Cs  Cs1  1  0.00244028  0.00274285  0.32873857  1
  Cs  Cs2  1  0.00097882  -0.00226632  0.66806000  1
  Cs  Cs3  1  -0.00297339  0.33491399  0.00056636  1
  Cs  Cs4  1  -0.00001656  0.33455537  0.33584529  1
  Cs  Cs5  1  0.00176701  0.33440208  0.66382965  1
  Cs  Cs6  1  0.00086501  0.66503919  -0.00097772  1
  Cs  Cs7  1  -0.00051332  0.66313676  0.33594932  1
  Cs  Cs8  1  0.00084686  0.66815097  0.66532495  1
  Cs  Cs9  1  0.32950518  -0.00085337  0.00038603  1
  Cs  Cs10  1  0.33248207  -0.00364372  0.32993896  1
  Cs  Cs11  1  0.33131108  0.00194697  0.66971990  1
  Cs  Cs12  1  0.33490666  0.33449984  -0.00382026  1
  Cs  Cs13  1  0.33697076  0.33423348  0.33578103  1
  Cs  Cs14  1  0.33459795  0.33039852  0.66714931  1
  Cs  Cs15  1  0.33247052  0.66618732  0.00091443  1
  Cs  Cs16  1  0.33494986  0.66858680  0.33181415  1
  Cs  Cs17  1  0.33195687  0.66758852  0.66813852  1
  Cs  Cs18  1  0.66875258  -0.00035251  -0.00109369  1
  Cs  Cs19  1  0.66542135  0.00397143  0.33479465  1
  Cs  Cs20  1  0.66678929  -0.00631305  0.66580883  1
  Cs  Cs21  1  0.66825228  0.33401112  0.00264420  1
  Cs  Cs22  1  0.66638231  0.33216906  0.33245971  1
  Cs  Cs23  1  0.66445710  0.33232964  0.66593217  1
  Cs  Cs24  1  0.66659787  0.66538149  -0.00152543  1
  Cs  Cs25  1  0.66544678  0.66750666  0.33551330  1
  Cs  Cs26  1  0.66667495  0.67725225  0.66609824  1
  Sn  Sn27  1  0.83303061  0.83292028  0.16698735  1
  Sn  Sn28  1  0.50050282  0.16745446  0.16704894  1
  Sn  Sn29  1  0.50044124  0.49972357  0.49974171  1
  Sn  Sn30  1  0.50088102  0.16748873  0.49921864  1
  Sn  Sn31  1  0.16662086  0.49954826  0.16628018  1
  Sn  Sn32  1  0.83379506  0.49939714  0.83324813  1
  Sn  Sn33  1  0.16568975  0.50041805  0.83386149  1
  Sn  Sn34  1  0.83263142  0.16681764  0.16678250  1
  Sn  Sn35  1  0.50026121  0.49917159  0.16743713  1
  Sn  Sn36  1  0.83294088  0.16700096  0.50009114  1
  Sn  Sn37  1  0.16655133  0.83327556  0.50026872  1
  Sn  Sn38  1  0.83324766  0.50022435  0.16638896  1
  Sn  Sn39  1  0.16631657  0.83246772  0.83284866  1
  Sn  Sn40  1  0.83333603  0.16761533  0.83311915  1
  Pb  Pb41  1  0.83513677  0.83288328  0.83528913  1
  Pb  Pb42  1  0.50287008  0.16669498  0.83373562  1
  Pb  Pb43  1  0.50058526  0.50007355  0.83336062  1
  Pb  Pb44  1  0.16714539  0.16981517  0.16665629  1
  Pb  Pb45  1  0.16907623  0.50125772  0.50039507  1
  Pb  Pb46  1  0.49681799  0.83341558  0.83373379  1
  Pb  Pb47  1  0.16450855  0.83069382  0.16633541  1
  Pb  Pb48  1  0.50255684  0.83348212  0.16656040  1
  Pb  Pb49  1  0.83539572  0.83628512  0.49734040  1
  Pb  Pb50  1  0.16402221  0.16760607  0.83351678  1
  Pb  Pb51  1  0.83112555  0.49846252  0.50054036  1
  Pb  Pb52  1  0.49780153  0.83408022  0.49984986  1
  Pb  Pb53  1  0.16736429  0.16455605  0.49976753  1
  I  I54  1  0.16623579  -0.00009076  0.16628180  1
  I  I55  1  0.16697216  -0.00327794  0.50658941  1
  I  I56  1  0.16592953  -0.00247078  0.82852547  1
  I  I57  1  0.16181734  0.33786530  0.16091687  1
  I  I58  1  0.16535577  0.33339121  0.50024453  1
  I  I59  1  0.16503406  0.33694424  0.83841908  1
  I  I60  1  0.16704354  0.66266287  0.16551153  1
  I  I61  1  0.16773669  0.66901530  0.50094487  1
  I  I62  1  0.16051109  0.66527564  0.83351693  1
  I  I63  1  0.50478946  0.00362315  0.17170420  1
  I  I64  1  0.50381140  0.00375019  0.49486800  1
  I  I65  1  0.50052838  0.00036786  0.83313752  1
  I  I66  1  0.50483058  0.33394522  0.17076336  1
  I  I67  1  0.50245510  0.33277345  0.49513851  1
  I  I68  1  0.49357012  0.33345798  0.83203409  1
  I  I69  1  0.50044945  0.66298979  0.17038299  1
  I  I70  1  0.49827356  0.66399384  0.49513925  1
  I  I71  1  0.50577659  0.66624212  0.83281540  1
  I  I72  1  0.82965458  0.00174595  0.16648642  1
  I  I73  1  0.82664349  0.00444179  0.50102247  1
  I  I74  1  0.83383036  0.00267357  0.83502794  1
  I  I75  1  0.83271518  0.33351955  0.16521932  1
  I  I76  1  0.83331617  0.33016092  0.49568663  1
  I  I77  1  0.83912159  0.33400393  0.83911540  1
  I  I78  1  0.83397944  0.66477222  0.16120980  1
  I  I79  1  0.83203735  0.66671945  0.49960565  1
  I  I80  1  0.83503740  0.66345561  0.83930166  1
  I  I81  1  0.16801307  0.16037519  0.00009994  1
  I  I82  1  0.16044743  0.16514095  0.33313896  1
  I  I83  1  0.16652569  0.17035189  0.66668603  1
  I  I84  1  0.16737077  0.50585704  0.00010079  1
  I  I85  1  0.16323247  0.50146534  0.33055985  1
  I  I86  1  0.16245958  0.50243184  0.66959458  1
  I  I87  1  0.16481958  0.83088924  -0.00245050  1
  I  I88  1  0.16588756  0.83324988  0.33500772  1
  I  I89  1  0.16579607  0.82719142  0.66766440  1
  I  I90  1  0.50391901  0.17195770  0.00365049  1
  I  I91  1  0.50923606  0.17163422  0.33276844  1
  I  I92  1  0.50302143  0.17127180  0.66346398  1
  I  I93  1  0.50001449  0.49552449  0.00346775  1
  I  I94  1  0.49967223  0.49613119  0.33172674  1
  I  I95  1  0.49856633  0.49463607  0.66389092  1
  I  I96  1  0.49788053  0.83346989  0.00049954  1
  I  I97  1  0.49574664  0.83216126  0.33318015  1
  I  I98  1  0.50343839  0.83247770  0.66644223  1
  I  I99  1  0.83037557  0.16745757  0.00127054  1
  I  I100  1  0.82963917  0.16618646  0.33220837  1
  I  I101  1  0.83061387  0.17190378  0.66670788  1
  I  I102  1  0.83273177  0.49579078  0.00135768  1
  I  I103  1  0.83666934  0.49947352  0.33007499  1
  I  I104  1  0.83782305  0.49476836  0.66961526  1
  I  I105  1  0.83587265  0.83770044  0.00306175  1
  I  I106  1  0.83628842  0.83088782  0.32959651  1
  I  I107  1  0.83272437  0.83355291  0.66662792  1
  I  I108  1  -0.00363231  0.16654564  0.16701424  1
  I  I109  1  -0.00314285  0.16517011  0.49856802  1
  I  I110  1  -0.00433288  0.16749690  0.83495618  1
  I  I111  1  -0.00108322  0.50034920  0.16178248  1
  I  I112  1  -0.00013580  0.49920495  0.49708845  1
  I  I113  1  -0.00045226  0.49970334  0.84173997  1
  I  I114  1  -0.00331256  0.83585769  0.16646113  1
  I  I115  1  0.00288448  0.83279748  0.50417448  1
  I  I116  1  0.00291065  0.83149804  0.83003868  1
  I  I117  1  0.33687598  0.17029256  0.17295191  1
  I  I118  1  0.33706038  0.16954124  0.49461091  1
  I  I119  1  0.33334697  0.16558249  0.83254542  1
  I  I120  1  0.33382644  0.49631926  0.16650702  1
  I  I121  1  0.33687264  0.49387132  0.49537518  1
  I  I122  1  0.33055364  0.50554407  0.83702133  1
  I  I123  1  0.33305008  0.83385697  0.16624056  1
  I  I124  1  0.33006006  0.83417178  0.50353977  1
  I  I125  1  0.32836931  0.82680497  0.83072650  1
  I  I126  1  0.66798664  0.17120399  0.16721183  1
  I  I127  1  0.66689707  0.17074377  0.49811001  1
  I  I128  1  0.67111665  0.17400906  0.83514233  1
  I  I129  1  0.66750871  0.49880416  0.16586870  1
  I  I130  1  0.66326958  0.49805903  0.49511758  1
  I  I131  1  0.67012090  0.49433580  0.83817468  1
  I  I132  1  0.67059763  0.82945518  0.16637511  1
  I  I133  1  0.66679075  0.83150809  0.49922354  1
  I  I134  1  0.66734784  0.83254817  0.83388974  1
