# generated using pymatgen
data_Cs27Sn14Pb13I81
_symmetry_space_group_name_H-M   'P 1'
_cell_length_a   18.97254729
_cell_length_b   18.97855730
_cell_length_c   18.97414859
_cell_angle_alpha   89.99909318
_cell_angle_beta   90.00187792
_cell_angle_gamma   89.99794803
_symmetry_Int_Tables_number   1
_chemical_formula_structural   Cs27Sn14Pb13I81
_chemical_formula_sum   'Cs27 Sn14 Pb13 I81'
_cell_volume   6832.05157596
_cell_formula_units_Z   1
loop_
 _symmetry_equiv_pos_site_id
 _symmetry_equiv_pos_as_xyz
  1  'x, y, z'
loop_
 _atom_site_type_symbol
 _atom_site_label
 _atom_site_symmetry_multiplicity
 _atom_site_fract_x
 _atom_site_fract_y
 _atom_site_fract_z
 _atom_site_occupancy
  Cs  Cs0  1  0.00192593  -0.00377002  0.00140297  1
  Cs  Cs1  1  0.00001832  0.00095535  0.32986232  1
  Cs  Cs2  1  0.00106426  0.00116615  0.66798632  1
  Cs  Cs3  1  -0.00268513  0.33550456  0.00060506  1
  Cs  Cs4  1  -0.00271201  0.33316141  0.33652362  1
  Cs  Cs5  1  0.00256187  0.33074562  0.66238836  1
  Cs  Cs6  1  -0.00656775  0.66684853  0.00418730  1
  Cs  Cs7  1  -0.00282107  0.66487260  0.32804647  1
  Cs  Cs8  1  0.00556175  0.66888854  0.66757830  1
  Cs  Cs9  1  0.33262913  -0.00040987  0.00370695  1
  Cs  Cs10  1  0.33428537  0.00046138  0.32936106  1
  Cs  Cs11  1  0.33131714  -0.00352986  0.66667239  1
  Cs  Cs12  1  0.33661459  0.33237374  0.00121921  1
  Cs  Cs13  1  0.33400839  0.33448961  0.33295665  1
  Cs  Cs14  1  0.33166196  0.33523082  0.66610767  1
  Cs  Cs15  1  0.33353087  0.66742266  -0.00044187  1
  Cs  Cs16  1  0.33558460  0.66406208  0.33294772  1
  Cs  Cs17  1  0.33152534  0.66760140  0.66768105  1
  Cs  Cs18  1  0.66506777  0.00452637  -0.00570476  1
  Cs  Cs19  1  0.66606894  0.00097249  0.33844785  1
  Cs  Cs20  1  0.67112368  -0.00188314  0.66389475  1
  Cs  Cs21  1  0.66602849  0.33444218  -0.00891269  1
  Cs  Cs22  1  0.66823651  0.33319127  0.33322062  1
  Cs  Cs23  1  0.66627008  0.33271460  0.67046163  1
  Cs  Cs24  1  0.67167088  0.66244236  0.00089019  1
  Cs  Cs25  1  0.66554677  0.66861333  0.33295279  1
  Cs  Cs26  1  0.66679123  0.67080980  0.66734132  1
  Sn  Sn27  1  0.16710481  0.16542676  0.50023371  1
  Sn  Sn28  1  0.83198695  0.49975899  0.50033476  1
  Sn  Sn29  1  0.50004312  0.83281019  0.16547140  1
  Sn  Sn30  1  0.49961852  0.16754453  0.50010651  1
  Sn  Sn31  1  0.16688973  0.50004438  0.83497420  1
  Sn  Sn32  1  0.50114644  0.49923773  0.49972901  1
  Sn  Sn33  1  0.16730771  0.49972153  0.16565023  1
  Sn  Sn34  1  0.16701937  0.16662435  0.83317669  1
  Sn  Sn35  1  0.49938900  0.83318130  0.83449882  1
  Sn  Sn36  1  0.16674890  0.83432223  0.49965773  1
  Sn  Sn37  1  0.16745199  0.83334184  0.83307108  1
  Sn  Sn38  1  0.49949751  0.50052233  0.16709009  1
  Sn  Sn39  1  0.83329301  0.16761386  0.49915513  1
  Sn  Sn40  1  0.83304171  0.16671709  0.16695504  1
  Pb  Pb41  1  0.50218612  0.16728300  0.16844064  1
  Pb  Pb42  1  0.83642727  0.49997938  0.82975424  1
  Pb  Pb43  1  0.49733263  0.16410085  0.83029249  1
  Pb  Pb44  1  0.83367248  0.83325843  0.83339507  1
  Pb  Pb45  1  0.16689759  0.49995092  0.49980571  1
  Pb  Pb46  1  0.16520794  0.16910159  0.16686979  1
  Pb  Pb47  1  0.83663615  0.83335366  0.49985478  1
  Pb  Pb48  1  0.49803853  0.83305777  0.50002467  1
  Pb  Pb49  1  0.16819030  0.83103302  0.16655070  1
  Pb  Pb50  1  0.83602631  0.16667618  0.83266697  1
  Pb  Pb51  1  0.82954214  0.83630076  0.16677884  1
  Pb  Pb52  1  0.49822233  0.50181912  0.83300927  1
  Pb  Pb53  1  0.83234028  0.49810015  0.16852062  1
  I  I54  1  0.16690244  0.00008356  0.16519658  1
  I  I55  1  0.16673765  0.00123295  0.50801764  1
  I  I56  1  0.16963236  -0.00028893  0.82658970  1
  I  I57  1  0.17302706  0.33693172  0.16403022  1
  I  I58  1  0.16623289  0.33080204  0.50309049  1
  I  I59  1  0.16527360  0.33323776  0.83069227  1
  I  I60  1  0.16762207  0.66308126  0.16524415  1
  I  I61  1  0.16788971  0.66841439  0.50405875  1
  I  I62  1  0.17107299  0.66724291  0.83001170  1
  I  I63  1  0.50061113  -0.00221300  0.16481020  1
  I  I64  1  0.50204415  0.00246814  0.50014315  1
  I  I65  1  0.49359870  -0.00361850  0.83862348  1
  I  I66  1  0.49619779  0.33637628  0.17049986  1
  I  I67  1  0.49740633  0.33366292  0.49417859  1
  I  I68  1  0.49811956  0.33323003  0.83570527  1
  I  I69  1  0.49495395  0.66558115  0.17020582  1
  I  I70  1  0.50206540  0.66391484  0.49871309  1
  I  I71  1  0.49211342  0.66961805  0.83096454  1
  I  I72  1  0.83494219  0.00385277  0.17484195  1
  I  I73  1  0.83021216  0.00350121  0.49726361  1
  I  I74  1  0.83473134  0.00019198  0.83103753  1
  I  I75  1  0.83366282  0.33053872  0.17123126  1
  I  I76  1  0.83625236  0.33220004  0.49603606  1
  I  I77  1  0.83439399  0.33331533  0.83570878  1
  I  I78  1  0.83591833  0.66640312  0.16830686  1
  I  I79  1  0.82974053  0.66372752  0.50005508  1
  I  I80  1  0.83638864  0.66643784  0.83165615  1
  I  I81  1  0.16435809  0.16371292  -0.00263693  1
  I  I82  1  0.16771119  0.16383051  0.33672487  1
  I  I83  1  0.16478572  0.16810190  0.66550252  1
  I  I84  1  0.17256058  0.49956961  -0.00025291  1
  I  I85  1  0.16779351  0.50000977  0.33149430  1
  I  I86  1  0.16625245  0.50047559  0.66858614  1
  I  I87  1  0.16944757  0.83683469  -0.00300366  1
  I  I88  1  0.16832348  0.83716877  0.33570460  1
  I  I89  1  0.17213665  0.83145669  0.66738533  1
  I  I90  1  0.50114441  0.16826759  -0.00021422  1
  I  I91  1  0.49454945  0.16534083  0.33687957  1
  I  I92  1  0.50438099  0.17193539  0.66210182  1
  I  I93  1  0.49669037  0.50236174  0.00261049  1
  I  I94  1  0.49637117  0.50228748  0.33353556  1
  I  I95  1  0.50139904  0.49712520  0.66357445  1
  I  I96  1  0.49260772  0.82885313  -0.00002960  1
  I  I97  1  0.49794734  0.83195543  0.33145605  1
  I  I98  1  0.49604521  0.83344167  0.66866694  1
  I  I99  1  0.83462191  0.16626051  0.00231888  1
  I  I100  1  0.83636126  0.17046517  0.33575482  1
  I  I101  1  0.83241984  0.17023539  0.66288589  1
  I  I102  1  0.83204281  0.49798007  0.00000075  1
  I  I103  1  0.83638659  0.49689835  0.33652324  1
  I  I104  1  0.82852256  0.49241495  0.66187310  1
  I  I105  1  0.83917548  0.83514733  0.00027227  1
  I  I106  1  0.83460367  0.83171107  0.33343815  1
  I  I107  1  0.82839410  0.83494403  0.66634669  1
  I  I108  1  -0.00243233  0.16938217  0.17336821  1
  I  I109  1  0.00044035  0.16799540  0.50083975  1
  I  I110  1  0.00430754  0.16450783  0.82687509  1
  I  I111  1  0.00213752  0.49872121  0.16469046  1
  I  I112  1  -0.00154701  0.49634881  0.50053766  1
  I  I113  1  0.00497231  0.50279839  0.83791328  1
  I  I114  1  0.00001933  0.83183297  0.16671138  1
  I  I115  1  0.00473126  0.83600093  0.50744643  1
  I  I116  1  0.00414968  0.83415526  0.82749378  1
  I  I117  1  0.33355129  0.16566401  0.16798247  1
  I  I118  1  0.33275099  0.16750242  0.50452593  1
  I  I119  1  0.32921627  0.16904300  0.82796399  1
  I  I120  1  0.33402663  0.50248548  0.17019921  1
  I  I121  1  0.33562575  0.49714527  0.49869974  1
  I  I122  1  0.32983168  0.49840795  0.83076015  1
  I  I123  1  0.33613268  0.83283554  0.16640099  1
  I  I124  1  0.33017165  0.83665881  0.50229209  1
  I  I125  1  0.33189294  0.83320639  0.83199846  1
  I  I126  1  0.66974224  0.16678072  0.17458446  1
  I  I127  1  0.66670656  0.17063926  0.49415973  1
  I  I128  1  0.66638030  0.16467804  0.83290939  1
  I  I129  1  0.66338957  0.50381377  0.17066679  1
  I  I130  1  0.66547637  0.49247661  0.49363500  1
  I  I131  1  0.66653135  0.50179538  0.83578029  1
  I  I132  1  0.66171397  0.82482246  0.16246904  1
  I  I133  1  0.66644927  0.83590615  0.50077602  1
  I  I134  1  0.66328833  0.83289794  0.83645692  1
