# generated using pymatgen
data_Cs27Sn13Pb14I81
_symmetry_space_group_name_H-M   'P 1'
_cell_length_a   18.97147054
_cell_length_b   18.97799872
_cell_length_c   18.98108566
_cell_angle_alpha   90.00034216
_cell_angle_beta   90.00021117
_cell_angle_gamma   89.99912559
_symmetry_Int_Tables_number   1
_chemical_formula_structural   Cs27Sn13Pb14I81
_chemical_formula_sum   'Cs27 Sn13 Pb14 I81'
_cell_volume   6833.96039951
_cell_formula_units_Z   1
loop_
 _symmetry_equiv_pos_site_id
 _symmetry_equiv_pos_as_xyz
  1  'x, y, z'
loop_
 _atom_site_type_symbol
 _atom_site_label
 _atom_site_symmetry_multiplicity
 _atom_site_fract_x
 _atom_site_fract_y
 _atom_site_fract_z
 _atom_site_occupancy
  Cs  Cs0  1  -0.00266702  -0.00058211  -0.00010660  1
  Cs  Cs1  1  -0.00043984  0.00086302  0.33227256  1
  Cs  Cs2  1  0.00084819  0.00158156  0.66705096  1
  Cs  Cs3  1  -0.00696990  0.33249173  -0.00286932  1
  Cs  Cs4  1  0.00305922  0.32875988  0.33360473  1
  Cs  Cs5  1  -0.00157236  0.33273696  0.66822431  1
  Cs  Cs6  1  0.00241008  0.66789873  -0.00042682  1
  Cs  Cs7  1  -0.00251806  0.66897994  0.33321932  1
  Cs  Cs8  1  0.00145686  0.66557138  0.66702979  1
  Cs  Cs9  1  0.33426915  -0.00219044  -0.00088000  1
  Cs  Cs10  1  0.33092451  0.00368358  0.33043891  1
  Cs  Cs11  1  0.33512706  0.00050031  0.66739424  1
  Cs  Cs12  1  0.33452429  0.33481181  -0.00051315  1
  Cs  Cs13  1  0.33513614  0.33086719  0.33049354  1
  Cs  Cs14  1  0.33266830  0.33187532  0.66740659  1
  Cs  Cs15  1  0.33176374  0.66826556  -0.00123710  1
  Cs  Cs16  1  0.33362789  0.66497518  0.33233827  1
  Cs  Cs17  1  0.33365215  0.66728376  0.66815067  1
  Cs  Cs18  1  0.66901804  0.00097036  0.00123143  1
  Cs  Cs19  1  0.67154457  -0.00161145  0.33351656  1
  Cs  Cs20  1  0.66335101  0.00019874  0.66545522  1
  Cs  Cs21  1  0.67229429  0.33336232  0.00491813  1
  Cs  Cs22  1  0.66231411  0.34125987  0.32875552  1
  Cs  Cs23  1  0.66950791  0.33170609  0.66651179  1
  Cs  Cs24  1  0.66886104  0.66610539  0.00278348  1
  Cs  Cs25  1  0.67300159  0.66113718  0.33951112  1
  Cs  Cs26  1  0.66442068  0.66767045  0.65745990  1
  Sn  Sn27  1  0.50099884  0.16666958  0.50034431  1
  Sn  Sn28  1  0.16703564  0.50067746  0.50006375  1
  Sn  Sn29  1  0.16739993  0.16668906  0.83349671  1
  Sn  Sn30  1  0.83194068  0.16685132  0.50006820  1
  Sn  Sn31  1  0.16684241  0.50062384  0.16637902  1
  Sn  Sn32  1  0.16708383  0.83279769  0.50010801  1
  Sn  Sn33  1  0.16735327  0.49973219  0.83345710  1
  Sn  Sn34  1  0.16598732  0.83354042  0.83318082  1
  Sn  Sn35  1  0.83354138  0.83297339  0.83277896  1
  Sn  Sn36  1  0.49957103  0.83308393  0.16712760  1
  Sn  Sn37  1  0.49935233  0.16782789  0.83303782  1
  Sn  Sn38  1  0.49966471  0.49925974  0.83325395  1
  Sn  Sn39  1  0.16780630  0.83251226  0.16665122  1
  Pb  Pb40  1  0.83291853  0.50257217  0.83302511  1
  Pb  Pb41  1  0.83589451  0.83500492  0.50228495  1
  Pb  Pb42  1  0.83619264  0.49743446  0.50021934  1
  Pb  Pb43  1  0.16723566  0.16673792  0.50196974  1
  Pb  Pb44  1  0.83382352  0.83315554  0.16483026  1
  Pb  Pb45  1  0.16660717  0.16669729  0.16311788  1
  Pb  Pb46  1  0.49992384  0.16466980  0.16608164  1
  Pb  Pb47  1  0.83667197  0.50024959  0.16666865  1
  Pb  Pb48  1  0.49745790  0.49781847  0.50213620  1
  Pb  Pb49  1  0.50002637  0.83315907  0.83447285  1
  Pb  Pb50  1  0.49754232  0.83529076  0.49721825  1
  Pb  Pb51  1  0.83260398  0.16480799  0.83212378  1
  Pb  Pb52  1  0.49793636  0.50246247  0.16417443  1
  Pb  Pb53  1  0.83317101  0.16666435  0.16999761  1
  I  I54  1  0.16956948  -0.00342457  0.16725966  1
  I  I55  1  0.16656153  -0.00247750  0.50071389  1
  I  I56  1  0.16681845  -0.00067749  0.83230721  1
  I  I57  1  0.16655490  0.33653169  0.16837905  1
  I  I58  1  0.16623003  0.33585187  0.50060585  1
  I  I59  1  0.17135965  0.33383590  0.83209877  1
  I  I60  1  0.17043706  0.66757070  0.16193384  1
  I  I61  1  0.16668048  0.66699575  0.50481166  1
  I  I62  1  0.16669207  0.66670420  0.83341214  1
  I  I63  1  0.49135504  -0.00311955  0.16356495  1
  I  I64  1  0.49992000  0.00317253  0.50797565  1
  I  I65  1  0.49589888  0.00252907  0.83104691  1
  I  I66  1  0.49824714  0.33363524  0.16829214  1
  I  I67  1  0.50031733  0.32977462  0.50190649  1
  I  I68  1  0.48958808  0.33281526  0.82928820  1
  I  I69  1  0.49505948  0.67012039  0.16273386  1
  I  I70  1  0.50035754  0.66656570  0.50160206  1
  I  I71  1  0.49477588  0.66433479  0.83623784  1
  I  I72  1  0.83644948  -0.00035197  0.16542415  1
  I  I73  1  0.83249130  0.00278512  0.50203344  1
  I  I74  1  0.83981758  -0.00282235  0.83295410  1
  I  I75  1  0.83506670  0.33342701  0.16428837  1
  I  I76  1  0.83283271  0.32967426  0.50362360  1
  I  I77  1  0.83723177  0.33323795  0.83202835  1
  I  I78  1  0.83124533  0.66698783  0.16632560  1
  I  I79  1  0.83269693  0.66671788  0.50044957  1
  I  I80  1  0.84009063  0.67024517  0.83441397  1
  I  I81  1  0.17257029  0.16541407  -0.00510696  1
  I  I82  1  0.16605115  0.16650344  0.33340562  1
  I  I83  1  0.16765522  0.16575614  0.67006534  1
  I  I84  1  0.17085726  0.50371321  -0.00106735  1
  I  I85  1  0.16501294  0.50713778  0.33335978  1
  I  I86  1  0.16958423  0.50286714  0.66777539  1
  I  I87  1  0.16678714  0.83119534  -0.00079323  1
  I  I88  1  0.17132736  0.82760297  0.33310682  1
  I  I89  1  0.16219664  0.83138289  0.66764563  1
  I  I90  1  0.49363972  0.16837843  -0.00364046  1
  I  I91  1  0.50270153  0.16398638  0.33616791  1
  I  I92  1  0.49850231  0.16830138  0.66792140  1
  I  I93  1  0.49263048  0.49400364  -0.00386910  1
  I  I94  1  0.49772531  0.49815729  0.33330235  1
  I  I95  1  0.49260630  0.50074224  0.67020286  1
  I  I96  1  0.49274896  0.83493719  0.00203088  1
  I  I97  1  0.49217829  0.83603990  0.32973536  1
  I  I98  1  0.49919158  0.83260712  0.66663517  1
  I  I99  1  0.83420608  0.16529400  -0.00029811  1
  I  I100  1  0.83072608  0.16430604  0.33800124  1
  I  I101  1  0.83381540  0.16503387  0.66445646  1
  I  I102  1  0.83521453  0.49933687  -0.00042682  1
  I  I103  1  0.83397508  0.49985113  0.33353948  1
  I  I104  1  0.83747737  0.50062675  0.66676501  1
  I  I105  1  0.84003398  0.83490193  -0.00315714  1
  I  I106  1  0.83504301  0.83605428  0.33361877  1
  I  I107  1  0.83956752  0.83392759  0.67003880  1
  I  I108  1  0.00040975  0.16478738  0.16713429  1
  I  I109  1  -0.00116528  0.16637533  0.50225005  1
  I  I110  1  0.00285954  0.16849685  0.83157287  1
  I  I111  1  0.00551229  0.50718550  0.16300602  1
  I  I112  1  0.00486224  0.50176979  0.50353852  1
  I  I113  1  0.00400823  0.49756834  0.83372241  1
  I  I114  1  0.00407387  0.82943491  0.16761058  1
  I  I115  1  0.00447435  0.83274741  0.49623930  1
  I  I116  1  0.00326950  0.83406183  0.83524933  1
  I  I117  1  0.33301678  0.16689696  0.17208400  1
  I  I118  1  0.33549029  0.16613341  0.50343168  1
  I  I119  1  0.33273828  0.16481638  0.82732080  1
  I  I120  1  0.32937214  0.50221145  0.16775228  1
  I  I121  1  0.32908629  0.50183524  0.49943862  1
  I  I122  1  0.33106979  0.50111306  0.83309557  1
  I  I123  1  0.33071844  0.83102337  0.16300485  1
  I  I124  1  0.32908929  0.83228192  0.50681918  1
  I  I125  1  0.32989093  0.83356311  0.83229897  1
  I  I126  1  0.66638817  0.16282783  0.16047825  1
  I  I127  1  0.66563441  0.16451888  0.50837908  1
  I  I128  1  0.66335763  0.16847376  0.83094075  1
  I  I129  1  0.66622945  0.50134788  0.16457814  1
  I  I130  1  0.66633406  0.50114221  0.50200461  1
  I  I131  1  0.66340338  0.49601796  0.83383938  1
  I  I132  1  0.66409451  0.83676772  0.16169155  1
  I  I133  1  0.66660555  0.83361163  0.50059661  1
  I  I134  1  0.66860779  0.83515554  0.83679366  1
