# generated using pymatgen
data_Cs27Sn14Pb13I81
_symmetry_space_group_name_H-M   'P 1'
_cell_length_a   18.98085863
_cell_length_b   18.97133550
_cell_length_c   18.97491418
_cell_angle_alpha   90.00121293
_cell_angle_beta   89.99899144
_cell_angle_gamma   90.00257117
_symmetry_Int_Tables_number   1
_chemical_formula_structural   Cs27Sn14Pb13I81
_chemical_formula_sum   'Cs27 Sn14 Pb13 I81'
_cell_volume   6832.71928449
_cell_formula_units_Z   1
loop_
 _symmetry_equiv_pos_site_id
 _symmetry_equiv_pos_as_xyz
  1  'x, y, z'
loop_
 _atom_site_type_symbol
 _atom_site_label
 _atom_site_symmetry_multiplicity
 _atom_site_fract_x
 _atom_site_fract_y
 _atom_site_fract_z
 _atom_site_occupancy
  Cs  Cs0  1  0.00540279  0.00003990  0.00208204  1
  Cs  Cs1  1  -0.00854253  0.01000945  0.32759680  1
  Cs  Cs2  1  -0.00252650  -0.00135063  0.66718106  1
  Cs  Cs3  1  -0.00409661  0.33408356  -0.00077278  1
  Cs  Cs4  1  0.00138022  0.32602539  0.33022344  1
  Cs  Cs5  1  0.00162771  0.33495511  0.66889049  1
  Cs  Cs6  1  -0.00029374  0.66672960  -0.00061011  1
  Cs  Cs7  1  -0.00363656  0.66724994  0.33801741  1
  Cs  Cs8  1  0.00185540  0.66668765  0.66666605  1
  Cs  Cs9  1  0.33097380  -0.00477172  0.00147126  1
  Cs  Cs10  1  0.33022645  0.00224968  0.32910928  1
  Cs  Cs11  1  0.33511385  0.00116811  0.66773478  1
  Cs  Cs12  1  0.33553400  0.33375990  -0.00033245  1
  Cs  Cs13  1  0.33248575  0.33501283  0.33362920  1
  Cs  Cs14  1  0.33445172  0.33288139  0.66661841  1
  Cs  Cs15  1  0.33350723  0.66870620  -0.00006899  1
  Cs  Cs16  1  0.33582930  0.66326994  0.33609236  1
  Cs  Cs17  1  0.33259987  0.66605195  0.66533119  1
  Cs  Cs18  1  0.66414947  -0.00147103  -0.00181841  1
  Cs  Cs19  1  0.67717427  -0.00367976  0.33318432  1
  Cs  Cs20  1  0.66703425  0.00165593  0.66717545  1
  Cs  Cs21  1  0.66723612  0.33452650  -0.00088377  1
  Cs  Cs22  1  0.66652489  0.33212716  0.33139924  1
  Cs  Cs23  1  0.66316703  0.33212586  0.66892218  1
  Cs  Cs24  1  0.66753492  0.66557929  0.00111784  1
  Cs  Cs25  1  0.66556610  0.66984231  0.33417522  1
  Cs  Cs26  1  0.66660065  0.66667584  0.66643673  1
  Sn  Sn27  1  0.49915141  0.50095498  0.83339477  1
  Sn  Sn28  1  0.83426221  0.16568913  0.83310602  1
  Sn  Sn29  1  0.50068122  0.83217944  0.83223876  1
  Sn  Sn30  1  0.49912263  0.49913423  0.16663665  1
  Sn  Sn31  1  0.16722160  0.50047012  0.16660633  1
  Sn  Sn32  1  0.16649211  0.50045140  0.49968896  1
  Sn  Sn33  1  0.49882504  0.83305623  0.50081365  1
  Sn  Sn34  1  0.83261507  0.83391361  0.83317830  1
  Sn  Sn35  1  0.16753902  0.49936150  0.83371542  1
  Sn  Sn36  1  0.50024363  0.50031014  0.50009597  1
  Sn  Sn37  1  0.83321677  0.49944156  0.50000259  1
  Sn  Sn38  1  0.16724347  0.83337979  0.49963992  1
  Sn  Sn39  1  0.16620577  0.16752223  0.83288668  1
  Sn  Sn40  1  0.50000001  0.16701430  0.16684786  1
  Pb  Pb41  1  0.49990909  0.83271488  0.16730476  1
  Pb  Pb42  1  0.83335323  0.83169438  0.50188104  1
  Pb  Pb43  1  0.83329808  0.50008749  0.16966350  1
  Pb  Pb44  1  0.16715186  0.83285455  0.83169333  1
  Pb  Pb45  1  0.83364449  0.83300324  0.16341317  1
  Pb  Pb46  1  0.83320661  0.16960850  0.50267686  1
  Pb  Pb47  1  0.49996636  0.16589512  0.49737396  1
  Pb  Pb48  1  0.16868002  0.16922259  0.16384438  1
  Pb  Pb49  1  0.83323378  0.50025230  0.83176465  1
  Pb  Pb50  1  0.83061357  0.16694584  0.16346385  1
  Pb  Pb51  1  0.16674663  0.83044731  0.17076605  1
  Pb  Pb52  1  0.16686010  0.16655055  0.50201978  1
  Pb  Pb53  1  0.49955140  0.16637449  0.83480231  1
  I  I54  1  0.16884528  0.00021839  0.16546242  1
  I  I55  1  0.17345530  -0.00323234  0.50489449  1
  I  I56  1  0.16622672  0.00187881  0.83091971  1
  I  I57  1  0.16920832  0.33751810  0.17274356  1
  I  I58  1  0.16823939  0.33734633  0.49887914  1
  I  I59  1  0.16666589  0.33548208  0.83084531  1
  I  I60  1  0.17484319  0.66196821  0.15935567  1
  I  I61  1  0.16798974  0.66446233  0.50310452  1
  I  I62  1  0.16719222  0.66331100  0.83452083  1
  I  I63  1  0.50076623  0.00213742  0.16388188  1
  I  I64  1  0.49520866  -0.00380570  0.50540024  1
  I  I65  1  0.50094450  -0.00280725  0.83062390  1
  I  I66  1  0.49654151  0.33607443  0.16562408  1
  I  I67  1  0.49846467  0.33710506  0.50370595  1
  I  I68  1  0.49957505  0.33649525  0.83060646  1
  I  I69  1  0.49596754  0.66294113  0.16634390  1
  I  I70  1  0.49937331  0.66494351  0.49938835  1
  I  I71  1  0.50024342  0.66548892  0.83445703  1
  I  I72  1  0.83058221  0.00023316  0.17087141  1
  I  I73  1  0.83270697  -0.00016568  0.49945556  1
  I  I74  1  0.83210781  -0.00035806  0.83191657  1
  I  I75  1  0.83418721  0.33360670  0.16437838  1
  I  I76  1  0.83318611  0.33779263  0.50238281  1
  I  I77  1  0.83424324  0.33157929  0.83151626  1
  I  I78  1  0.83061086  0.66614242  0.16324846  1
  I  I79  1  0.83342340  0.66366525  0.50353174  1
  I  I80  1  0.83182262  0.66880023  0.83096717  1
  I  I81  1  0.16309050  0.17128918  -0.00413400  1
  I  I82  1  0.16777358  0.16702435  0.33300656  1
  I  I83  1  0.16496416  0.17401402  0.67017225  1
  I  I84  1  0.17376573  0.49499006  -0.00096427  1
  I  I85  1  0.17062846  0.50528442  0.33417798  1
  I  I86  1  0.16886636  0.49970115  0.66665385  1
  I  I87  1  0.16635158  0.83297572  -0.00008603  1
  I  I88  1  0.17538632  0.82640638  0.33866995  1
  I  I89  1  0.16775388  0.82594808  0.66401067  1
  I  I90  1  0.50053016  0.17307938  0.00228956  1
  I  I91  1  0.49790234  0.17362370  0.32982670  1
  I  I92  1  0.50065967  0.16947038  0.66693767  1
  I  I93  1  0.49399052  0.49986687  -0.00087991  1
  I  I94  1  0.49732745  0.49976507  0.33412359  1
  I  I95  1  0.49789692  0.50402313  0.66676759  1
  I  I96  1  0.50445755  0.83017669  -0.00298200  1
  I  I97  1  0.49544427  0.82846028  0.33684141  1
  I  I98  1  0.50020782  0.82523813  0.66702839  1
  I  I99  1  0.83751529  0.16517719  -0.00435494  1
  I  I100  1  0.83294099  0.16690212  0.33312806  1
  I  I101  1  0.83507744  0.16303104  0.67062426  1
  I  I102  1  0.83311518  0.49985895  -0.00022481  1
  I  I103  1  0.83261331  0.50215632  0.33769464  1
  I  I104  1  0.83339055  0.50024523  0.66400705  1
  I  I105  1  0.82632026  0.83474925  -0.00519962  1
  I  I106  1  0.83192658  0.83164560  0.33391781  1
  I  I107  1  0.83123599  0.83612307  0.66981668  1
  I  I108  1  0.00011151  0.16775096  0.16763077  1
  I  I109  1  0.00007956  0.16696307  0.49847272  1
  I  I110  1  0.00051387  0.16817233  0.83229494  1
  I  I111  1  0.00340861  0.50118890  0.16489521  1
  I  I112  1  0.00157962  0.50484596  0.50227746  1
  I  I113  1  0.00277483  0.49933219  0.83263944  1
  I  I114  1  0.00039861  0.83080816  0.16596603  1
  I  I115  1  0.00251324  0.82533018  0.50348724  1
  I  I116  1  -0.00166465  0.83357027  0.83106053  1
  I  I117  1  0.33633671  0.16939498  0.16390408  1
  I  I118  1  0.33345494  0.17057581  0.50386545  1
  I  I119  1  0.33103164  0.16925082  0.83425969  1
  I  I120  1  0.33426521  0.49614365  0.16992854  1
  I  I121  1  0.33357442  0.50373796  0.50035467  1
  I  I122  1  0.33364506  0.49926787  0.82974280  1
  I  I123  1  0.33342571  0.83678364  0.15968172  1
  I  I124  1  0.33434923  0.82338421  0.50733132  1
  I  I125  1  0.33619004  0.83224895  0.83182051  1
  I  I126  1  0.66299811  0.17534404  0.16479754  1
  I  I127  1  0.66649330  0.16819905  0.50255724  1
  I  I128  1  0.66836726  0.16633121  0.83506941  1
  I  I129  1  0.66294125  0.49668624  0.16518610  1
  I  I130  1  0.66491919  0.50364703  0.50119157  1
  I  I131  1  0.66359816  0.50008161  0.83293651  1
  I  I132  1  0.66630820  0.83114379  0.17109942  1
  I  I133  1  0.66361020  0.82781351  0.50177554  1
  I  I134  1  0.66510689  0.83328600  0.82779091  1
