# generated using pymatgen
data_Cs27Sn13Pb14I81
_symmetry_space_group_name_H-M   'P 1'
_cell_length_a   18.98545930
_cell_length_b   18.98949906
_cell_length_c   18.99994936
_cell_angle_alpha   89.99876920
_cell_angle_beta   90.00053032
_cell_angle_gamma   90.00041727
_symmetry_Int_Tables_number   1
_chemical_formula_structural   Cs27Sn13Pb14I81
_chemical_formula_sum   'Cs27 Sn13 Pb14 I81'
_cell_volume   6849.94460682
_cell_formula_units_Z   1
loop_
 _symmetry_equiv_pos_site_id
 _symmetry_equiv_pos_as_xyz
  1  'x, y, z'
loop_
 _atom_site_type_symbol
 _atom_site_label
 _atom_site_symmetry_multiplicity
 _atom_site_fract_x
 _atom_site_fract_y
 _atom_site_fract_z
 _atom_site_occupancy
  Cs  Cs0  1  0.00277080  -0.00152591  -0.00142740  1
  Cs  Cs1  1  -0.00366592  -0.00485436  0.34006112  1
  Cs  Cs2  1  -0.00118925  -0.00154285  0.66342019  1
  Cs  Cs3  1  0.00176214  0.33242609  -0.00041402  1
  Cs  Cs4  1  -0.00352014  0.33649635  0.33014705  1
  Cs  Cs5  1  -0.00172281  0.33168791  0.66984828  1
  Cs  Cs6  1  -0.00084531  0.66989397  0.00224053  1
  Cs  Cs7  1  0.00478273  0.66873214  0.33485761  1
  Cs  Cs8  1  0.00364819  0.67155078  0.66261681  1
  Cs  Cs9  1  0.33132889  0.00134282  0.00465042  1
  Cs  Cs10  1  0.33627451  0.00180029  0.33190518  1
  Cs  Cs11  1  0.33273068  0.00265929  0.66518380  1
  Cs  Cs12  1  0.32374475  0.33029355  -0.00122860  1
  Cs  Cs13  1  0.33381442  0.33200283  0.33082350  1
  Cs  Cs14  1  0.33360394  0.33193362  0.66931653  1
  Cs  Cs15  1  0.33329607  0.66749625  -0.00566482  1
  Cs  Cs16  1  0.32992361  0.66543121  0.33747669  1
  Cs  Cs17  1  0.33334486  0.66489095  0.66666081  1
  Cs  Cs18  1  0.66478660  -0.00657852  0.00192340  1
  Cs  Cs19  1  0.66601285  -0.00108569  0.33158767  1
  Cs  Cs20  1  0.66870912  0.00263749  0.66620483  1
  Cs  Cs21  1  0.66899870  0.33422838  0.00051137  1
  Cs  Cs22  1  0.66752720  0.33433794  0.33367148  1
  Cs  Cs23  1  0.66680617  0.33255993  0.66605443  1
  Cs  Cs24  1  0.66555969  0.67105623  -0.00151919  1
  Cs  Cs25  1  0.66621678  0.66088492  0.32998096  1
  Cs  Cs26  1  0.66329204  0.66453762  0.67174765  1
  Sn  Sn27  1  0.16721778  0.16754147  0.49972151  1
  Sn  Sn28  1  0.83275443  0.50010706  0.50023942  1
  Sn  Sn29  1  0.50002830  0.49944721  0.16653278  1
  Sn  Sn30  1  0.83334936  0.49965119  0.83354295  1
  Sn  Sn31  1  0.83216923  0.16708643  0.83470372  1
  Sn  Sn32  1  0.16703969  0.83337519  0.16617830  1
  Sn  Sn33  1  0.83309295  0.16673982  0.16556733  1
  Sn  Sn34  1  0.16696873  0.83353629  0.83381794  1
  Sn  Sn35  1  0.50080600  0.49981862  0.49937059  1
  Sn  Sn36  1  0.50060502  0.83322259  0.50007576  1
  Sn  Sn37  1  0.83244728  0.49929717  0.16624175  1
  Sn  Sn38  1  0.50075661  0.16682392  0.83353229  1
  Sn  Sn39  1  0.49942995  0.16679259  0.50053020  1
  Pb  Pb40  1  0.16718822  0.49728062  0.50005115  1
  Pb  Pb41  1  0.16346321  0.50217641  0.83323528  1
  Pb  Pb42  1  0.16343541  0.16475118  0.16933592  1
  Pb  Pb43  1  0.16612905  0.16505115  0.83171909  1
  Pb  Pb44  1  0.50192621  0.16877608  0.16652055  1
  Pb  Pb45  1  0.83480491  0.83374531  0.83316128  1
  Pb  Pb46  1  0.16672283  0.50173487  0.16660633  1
  Pb  Pb47  1  0.16904921  0.83545047  0.50001796  1
  Pb  Pb48  1  0.49790766  0.83033622  0.16873033  1
  Pb  Pb49  1  0.50159391  0.49770720  0.83367006  1
  Pb  Pb50  1  0.49803358  0.83633245  0.83128790  1
  Pb  Pb51  1  0.82996040  0.82972244  0.50003053  1
  Pb  Pb52  1  0.83255479  0.16844299  0.49999567  1
  Pb  Pb53  1  0.83478038  0.83293982  0.16680499  1
  I  I54  1  0.16622109  -0.00279022  0.16261371  1
  I  I55  1  0.17100316  0.00312617  0.50019311  1
  I  I56  1  0.16482316  -0.00256114  0.83624432  1
  I  I57  1  0.16784835  0.33316675  0.16822428  1
  I  I58  1  0.17253511  0.32973280  0.50120189  1
  I  I59  1  0.16829248  0.33294977  0.83150645  1
  I  I60  1  0.16414484  0.66955547  0.16456718  1
  I  I61  1  0.16643314  0.66670881  0.50004083  1
  I  I62  1  0.16615184  0.67004989  0.83584912  1
  I  I63  1  0.50115409  0.00014809  0.16830669  1
  I  I64  1  0.49388478  0.00123577  0.50480326  1
  I  I65  1  0.50694994  0.00418960  0.82714080  1
  I  I66  1  0.50245273  0.33657256  0.17409308  1
  I  I67  1  0.50072528  0.33343962  0.50010879  1
  I  I68  1  0.50118994  0.33000456  0.82585290  1
  I  I69  1  0.50797383  0.66249273  0.17227731  1
  I  I70  1  0.50443254  0.66538879  0.49486014  1
  I  I71  1  0.50033445  0.66650323  0.83199758  1
  I  I72  1  0.83493971  0.00292927  0.16179704  1
  I  I73  1  0.83402522  0.00012410  0.50008760  1
  I  I74  1  0.83072233  0.00368652  0.83756599  1
  I  I75  1  0.83045791  0.33443538  0.16695284  1
  I  I76  1  0.82798180  0.33637229  0.49951097  1
  I  I77  1  0.83008022  0.33310220  0.83316482  1
  I  I78  1  0.83051764  0.66282904  0.16649825  1
  I  I79  1  0.83049662  0.66144014  0.49920991  1
  I  I80  1  0.83467365  0.66340252  0.83387440  1
  I  I81  1  0.16926414  0.16659409  0.00010813  1
  I  I82  1  0.17338630  0.16443710  0.33672698  1
  I  I83  1  0.16648783  0.16333199  0.66399793  1
  I  I84  1  0.16837635  0.49762638  -0.00003799  1
  I  I85  1  0.16146154  0.50368805  0.33343767  1
  I  I86  1  0.16625717  0.50393996  0.66654314  1
  I  I87  1  0.16514446  0.83378653  -0.00005092  1
  I  I88  1  0.16665424  0.83366317  0.33155324  1
  I  I89  1  0.16643588  0.83483844  0.66845650  1
  I  I90  1  0.50275766  0.16848817  -0.00253124  1
  I  I91  1  0.49729990  0.16521959  0.33638583  1
  I  I92  1  0.50180449  0.16849353  0.66544126  1
  I  I93  1  0.50529085  0.49942580  0.00258076  1
  I  I94  1  0.50822862  0.49838027  0.33473925  1
  I  I95  1  0.50425982  0.50157154  0.66359523  1
  I  I96  1  0.50050165  0.83288315  -0.00000167  1
  I  I97  1  0.49707243  0.83917154  0.33665616  1
  I  I98  1  0.49681754  0.82713800  0.66338686  1
  I  I99  1  0.82919365  0.17573991  -0.00081647  1
  I  I100  1  0.83451057  0.17113996  0.33135056  1
  I  I101  1  0.83296909  0.17093789  0.66895318  1
  I  I102  1  0.82996016  0.49545664  0.00045351  1
  I  I103  1  0.82877244  0.49526569  0.33306151  1
  I  I104  1  0.82923988  0.49534839  0.66658340  1
  I  I105  1  0.83181247  0.82900856  -0.00002861  1
  I  I106  1  0.83841032  0.83608119  0.33350590  1
  I  I107  1  0.83871898  0.83430651  0.66650440  1
  I  I108  1  -0.00422722  0.17452627  0.16181593  1
  I  I109  1  0.00133279  0.16694457  0.50014560  1
  I  I110  1  -0.00330574  0.17008895  0.83500456  1
  I  I111  1  -0.00375995  0.49722360  0.16780123  1
  I  I112  1  -0.00313198  0.49742512  0.49878358  1
  I  I113  1  -0.00509555  0.49185234  0.83356655  1
  I  I114  1  0.00270166  0.83179920  0.16411046  1
  I  I115  1  0.00014063  0.83412246  0.50003876  1
  I  I116  1  0.00273768  0.83458556  0.83590245  1
  I  I117  1  0.33335439  0.16790860  0.16455560  1
  I  I118  1  0.33551107  0.16805216  0.50598601  1
  I  I119  1  0.33578312  0.16526646  0.82904205  1
  I  I120  1  0.33646197  0.50176463  0.17453259  1
  I  I121  1  0.33721454  0.50215756  0.49478480  1
  I  I122  1  0.33351203  0.49929262  0.83304133  1
  I  I123  1  0.33033479  0.83301618  0.16273374  1
  I  I124  1  0.33665312  0.82809343  0.50005240  1
  I  I125  1  0.33035943  0.83462162  0.83729779  1
  I  I126  1  0.66993962  0.16872179  0.16833881  1
  I  I127  1  0.66357056  0.16559222  0.50162817  1
  I  I128  1  0.66727168  0.17060245  0.82878106  1
  I  I129  1  0.66776030  0.49663293  0.16987638  1
  I  I130  1  0.66599874  0.49768263  0.49870497  1
  I  I131  1  0.66992905  0.49864717  0.83228389  1
  I  I132  1  0.66641451  0.83483306  0.16862367  1
  I  I133  1  0.66237856  0.84122828  0.50012462  1
  I  I134  1  0.66641954  0.83194137  0.83148740  1
