# generated using pymatgen
data_Cs27Sn13Pb14I81
_symmetry_space_group_name_H-M   'P 1'
_cell_length_a   18.97861182
_cell_length_b   18.97820814
_cell_length_c   18.97423804
_cell_angle_alpha   90.00315077
_cell_angle_beta   90.00019801
_cell_angle_gamma   90.00047728
_symmetry_Int_Tables_number   1
_chemical_formula_structural   Cs27Sn13Pb14I81
_chemical_formula_sum   'Cs27 Sn13 Pb14 I81'
_cell_volume   6834.14191002
_cell_formula_units_Z   1
loop_
 _symmetry_equiv_pos_site_id
 _symmetry_equiv_pos_as_xyz
  1  'x, y, z'
loop_
 _atom_site_type_symbol
 _atom_site_label
 _atom_site_symmetry_multiplicity
 _atom_site_fract_x
 _atom_site_fract_y
 _atom_site_fract_z
 _atom_site_occupancy
  Cs  Cs0  1  0.00202941  -0.00124332  0.00312253  1
  Cs  Cs1  1  0.00083803  0.00192081  0.33196329  1
  Cs  Cs2  1  -0.00376196  -0.00077866  0.66458530  1
  Cs  Cs3  1  0.00043976  0.33655159  0.00023063  1
  Cs  Cs4  1  -0.00213303  0.33046353  0.33284025  1
  Cs  Cs5  1  0.00123263  0.33386309  0.66703375  1
  Cs  Cs6  1  -0.00175532  0.66601073  -0.00016093  1
  Cs  Cs7  1  0.00315918  0.66851635  0.33192115  1
  Cs  Cs8  1  -0.00020782  0.66742639  0.66706380  1
  Cs  Cs9  1  0.33480531  -0.00101556  -0.00111595  1
  Cs  Cs10  1  0.33257127  -0.00196679  0.33118626  1
  Cs  Cs11  1  0.33334062  0.00099027  0.67063419  1
  Cs  Cs12  1  0.33367508  0.33014554  -0.00419020  1
  Cs  Cs13  1  0.33430599  0.33494199  0.33424735  1
  Cs  Cs14  1  0.33148271  0.33554957  0.66985267  1
  Cs  Cs15  1  0.33382037  0.67068396  -0.00032978  1
  Cs  Cs16  1  0.33856119  0.66525678  0.34060338  1
  Cs  Cs17  1  0.33361997  0.66369583  0.66190388  1
  Cs  Cs18  1  0.66399666  0.00064262  0.00017231  1
  Cs  Cs19  1  0.66616941  -0.00024081  0.33336997  1
  Cs  Cs20  1  0.67060224  0.00005258  0.66609261  1
  Cs  Cs21  1  0.66506607  0.33583108  0.00216377  1
  Cs  Cs22  1  0.66815727  0.33435806  0.33372445  1
  Cs  Cs23  1  0.66743618  0.33045587  0.66394467  1
  Cs  Cs24  1  0.66745027  0.66230612  -0.00161301  1
  Cs  Cs25  1  0.65667515  0.66317808  0.33391787  1
  Cs  Cs26  1  0.66710728  0.67058911  0.66931642  1
  Sn  Sn27  1  0.49967501  0.16634701  0.49979950  1
  Sn  Sn28  1  0.83391876  0.16596888  0.16623171  1
  Sn  Sn29  1  0.16611682  0.83302499  0.16606762  1
  Sn  Sn30  1  0.83369372  0.16692221  0.83409025  1
  Sn  Sn31  1  0.83369090  0.50006796  0.49987353  1
  Sn  Sn32  1  0.16685882  0.16647325  0.49948951  1
  Sn  Sn33  1  0.16696653  0.50005131  0.16666339  1
  Sn  Sn34  1  0.16693650  0.83344518  0.83355519  1
  Sn  Sn35  1  0.49936267  0.83259058  0.83340813  1
  Sn  Sn36  1  0.49994130  0.50053032  0.83339138  1
  Sn  Sn37  1  0.83348520  0.83365525  0.16706154  1
  Sn  Sn38  1  0.83358475  0.16742396  0.49976023  1
  Sn  Sn39  1  0.16610516  0.16697496  0.16721717  1
  Pb  Pb40  1  0.16450520  0.16478662  0.83370277  1
  Pb  Pb41  1  0.49696111  0.49984428  0.16455478  1
  Pb  Pb42  1  0.16658717  0.83552709  0.49963746  1
  Pb  Pb43  1  0.49992790  0.83337675  0.16481335  1
  Pb  Pb44  1  0.50208179  0.49775661  0.50224691  1
  Pb  Pb45  1  0.49994458  0.16670539  0.16885023  1
  Pb  Pb46  1  0.50214637  0.16636946  0.83141078  1
  Pb  Pb47  1  0.50000107  0.83581126  0.50294927  1
  Pb  Pb48  1  0.83177405  0.49768892  0.83125631  1
  Pb  Pb49  1  0.83358651  0.83510660  0.83569086  1
  Pb  Pb50  1  0.83482184  0.50014886  0.16857692  1
  Pb  Pb51  1  0.16820451  0.50265199  0.83528125  1
  Pb  Pb52  1  0.16463560  0.49752315  0.49797223  1
  Pb  Pb53  1  0.83330498  0.83330033  0.49676894  1
  I  I54  1  0.16213613  0.00042813  0.16718514  1
  I  I55  1  0.16272923  0.00415342  0.49492535  1
  I  I56  1  0.17287883  -0.00288918  0.83897346  1
  I  I57  1  0.16234118  0.33177019  0.17163268  1
  I  I58  1  0.16762181  0.32904900  0.49544652  1
  I  I59  1  0.16834188  0.33313701  0.83435154  1
  I  I60  1  0.16118733  0.66791279  0.16027083  1
  I  I61  1  0.16495162  0.66650323  0.49898469  1
  I  I62  1  0.16647877  0.67073438  0.83920232  1
  I  I63  1  0.49688987  0.00014204  0.16428314  1
  I  I64  1  0.50384676  0.00402720  0.50133540  1
  I  I65  1  0.49698667  -0.00246353  0.83237837  1
  I  I66  1  0.50022390  0.33315598  0.16308100  1
  I  I67  1  0.49894147  0.32974560  0.50273325  1
  I  I68  1  0.50217193  0.33511822  0.83171001  1
  I  I69  1  0.50137191  0.66670242  0.16869659  1
  I  I70  1  0.50204496  0.66644594  0.49880065  1
  I  I71  1  0.49670566  0.66753498  0.83430691  1
  I  I72  1  0.84091515  0.00161821  0.16821923  1
  I  I73  1  0.83352947  0.00378527  0.50194614  1
  I  I74  1  0.83125105  0.00319514  0.82790761  1
  I  I75  1  0.83753254  0.32990331  0.16601895  1
  I  I76  1  0.83289947  0.33046637  0.49801476  1
  I  I77  1  0.83173137  0.32941432  0.83740984  1
  I  I78  1  0.83898700  0.66930763  0.16698719  1
  I  I79  1  0.83332221  0.66404779  0.49929074  1
  I  I80  1  0.83415098  0.66680978  0.83271522  1
  I  I81  1  0.16185038  0.16774884  0.00333983  1
  I  I82  1  0.16195333  0.16471444  0.33240375  1
  I  I83  1  0.16504831  0.16464246  0.66413195  1
  I  I84  1  0.16543104  0.49374348  0.00343765  1
  I  I85  1  0.16605517  0.50468021  0.32984409  1
  I  I86  1  0.16690641  0.49959417  0.66661404  1
  I  I87  1  0.16707314  0.83652173  0.00131144  1
  I  I88  1  0.16133180  0.83350901  0.32960730  1
  I  I89  1  0.17095619  0.83605531  0.66945512  1
  I  I90  1  0.50075511  0.16671599  -0.00029115  1
  I  I91  1  0.50449712  0.16759042  0.33684667  1
  I  I92  1  0.50064888  0.16618167  0.66346551  1
  I  I93  1  0.50206301  0.50243843  -0.00332537  1
  I  I94  1  0.50020618  0.49920246  0.33368300  1
  I  I95  1  0.49950451  0.50391035  0.66983801  1
  I  I96  1  0.49832030  0.83231859  -0.00322180  1
  I  I97  1  0.49977862  0.83412779  0.33340087  1
  I  I98  1  0.49446659  0.83004131  0.67091781  1
  I  I99  1  0.83769006  0.16175811  0.00136099  1
  I  I100  1  0.83454092  0.16664019  0.33327494  1
  I  I101  1  0.83273800  0.17028225  0.66545959  1
  I  I102  1  0.83265236  0.49815074  0.00018133  1
  I  I103  1  0.83386687  0.49198457  0.33616313  1
  I  I104  1  0.83336322  0.49250562  0.66338621  1
  I  I105  1  0.83543442  0.83956249  0.00354850  1
  I  I106  1  0.84145263  0.84036608  0.32892163  1
  I  I107  1  0.83323414  0.83557305  0.66672987  1
  I  I108  1  -0.00000114  0.16525189  0.17125608  1
  I  I109  1  -0.00073354  0.16980933  0.49845333  1
  I  I110  1  -0.00332413  0.16482396  0.82882642  1
  I  I111  1  0.00289688  0.49922667  0.16645437  1
  I  I112  1  -0.00306229  0.49241690  0.50055998  1
  I  I113  1  0.00003857  0.50027181  0.83296439  1
  I  I114  1  0.00120291  0.83541519  0.16113796  1
  I  I115  1  -0.00007761  0.83519991  0.50571485  1
  I  I116  1  0.00253930  0.83652650  0.83626248  1
  I  I117  1  0.32956570  0.16528421  0.17074094  1
  I  I118  1  0.33239196  0.16479190  0.49542999  1
  I  I119  1  0.33319900  0.16758925  0.83234659  1
  I  I120  1  0.32876060  0.49922056  0.16732772  1
  I  I121  1  0.33329473  0.49783902  0.49963396  1
  I  I122  1  0.33617551  0.49912295  0.83335372  1
  I  I123  1  0.32970897  0.83618998  0.16381411  1
  I  I124  1  0.33320557  0.83574455  0.49555922  1
  I  I125  1  0.33272398  0.83265035  0.83982671  1
  I  I126  1  0.67027873  0.16189928  0.16732689  1
  I  I127  1  0.66820729  0.17006174  0.50089838  1
  I  I128  1  0.67009764  0.16458516  0.83305910  1
  I  I129  1  0.66676702  0.49983600  0.16703414  1
  I  I130  1  0.66980341  0.49223842  0.49825985  1
  I  I131  1  0.66389256  0.50668681  0.83340804  1
  I  I132  1  0.66968935  0.84037734  0.16621322  1
  I  I133  1  0.66682255  0.83683780  0.50013976  1
  I  I134  1  0.66444592  0.83152917  0.83390355  1
