# generated using pymatgen
data_Cs27Sn13Pb14I81
_symmetry_space_group_name_H-M   'P 1'
_cell_length_a   18.97400970
_cell_length_b   18.97631858
_cell_length_c   18.98022330
_cell_angle_alpha   89.99974973
_cell_angle_beta   90.00039748
_cell_angle_gamma   90.00101551
_symmetry_Int_Tables_number   1
_chemical_formula_structural   Cs27Sn13Pb14I81
_chemical_formula_sum   'Cs27 Sn13 Pb14 I81'
_cell_volume   6833.95946705
_cell_formula_units_Z   1
loop_
 _symmetry_equiv_pos_site_id
 _symmetry_equiv_pos_as_xyz
  1  'x, y, z'
loop_
 _atom_site_type_symbol
 _atom_site_label
 _atom_site_symmetry_multiplicity
 _atom_site_fract_x
 _atom_site_fract_y
 _atom_site_fract_z
 _atom_site_occupancy
  Cs  Cs0  1  0.00193432  -0.00043251  -0.00385764  1
  Cs  Cs1  1  0.00037913  0.00093969  0.33507430  1
  Cs  Cs2  1  -0.00128618  -0.00112733  0.66516112  1
  Cs  Cs3  1  0.00212655  0.33359186  -0.00087197  1
  Cs  Cs4  1  -0.00153059  0.33282065  0.33472492  1
  Cs  Cs5  1  -0.00145228  0.33603524  0.66586760  1
  Cs  Cs6  1  -0.00059121  0.66666246  0.00019257  1
  Cs  Cs7  1  0.00049190  0.66602130  0.33256952  1
  Cs  Cs8  1  0.00197068  0.66503521  0.66699192  1
  Cs  Cs9  1  0.32941433  0.00344520  -0.00157226  1
  Cs  Cs10  1  0.33364588  0.00113127  0.33293287  1
  Cs  Cs11  1  0.33418502  -0.00072917  0.66690340  1
  Cs  Cs12  1  0.33244439  0.33114703  -0.00313272  1
  Cs  Cs13  1  0.33370261  0.33207064  0.33497674  1
  Cs  Cs14  1  0.33635680  0.33676265  0.66734707  1
  Cs  Cs15  1  0.33398817  0.66625466  -0.00001210  1
  Cs  Cs16  1  0.33657698  0.66584781  0.33510693  1
  Cs  Cs17  1  0.33592049  0.66427349  0.66528522  1
  Cs  Cs18  1  0.66811936  -0.00675452  -0.00726802  1
  Cs  Cs19  1  0.66566979  0.00287017  0.33435705  1
  Cs  Cs20  1  0.66739005  -0.00131376  0.67070800  1
  Cs  Cs21  1  0.66362589  0.33539218  0.00057443  1
  Cs  Cs22  1  0.66871388  0.33048501  0.33145209  1
  Cs  Cs23  1  0.66850116  0.33249883  0.66855960  1
  Cs  Cs24  1  0.66151593  0.67180365  0.00825690  1
  Cs  Cs25  1  0.66066291  0.66760517  0.32442974  1
  Cs  Cs26  1  0.65984622  0.66775687  0.66779322  1
  Sn  Sn27  1  0.83330592  0.16645127  0.49951376  1
  Sn  Sn28  1  0.83268613  0.16638033  0.16667805  1
  Sn  Sn29  1  0.16624970  0.83247968  0.16711536  1
  Sn  Sn30  1  0.16616973  0.83223784  0.83286715  1
  Sn  Sn31  1  0.83366555  0.83273583  0.49965915  1
  Sn  Sn32  1  0.50034014  0.16666455  0.49955694  1
  Sn  Sn33  1  0.83356945  0.50048268  0.83312240  1
  Sn  Sn34  1  0.16662954  0.16623405  0.50013299  1
  Sn  Sn35  1  0.16564235  0.50103726  0.83411771  1
  Sn  Sn36  1  0.16589218  0.83390346  0.49989486  1
  Sn  Sn37  1  0.83331083  0.50081425  0.50032042  1
  Sn  Sn38  1  0.50131097  0.16635656  0.16696944  1
  Sn  Sn39  1  0.16627537  0.50056964  0.16624768  1
  Pb  Pb40  1  0.49704560  0.83646796  0.16678171  1
  Pb  Pb41  1  0.50027101  0.50013823  0.83348258  1
  Pb  Pb42  1  0.16633265  0.16671869  0.16859553  1
  Pb  Pb43  1  0.50013419  0.83553073  0.49988977  1
  Pb  Pb44  1  0.50022455  0.16659907  0.83349591  1
  Pb  Pb45  1  0.83521318  0.83031403  0.83096383  1
  Pb  Pb46  1  0.83505791  0.49829943  0.16656626  1
  Pb  Pb47  1  0.49686302  0.83326270  0.83333768  1
  Pb  Pb48  1  0.83550463  0.83594229  0.16886502  1
  Pb  Pb49  1  0.83346690  0.16874472  0.83333925  1
  Pb  Pb50  1  0.16644836  0.16715554  0.82991926  1
  Pb  Pb51  1  0.49676846  0.49733391  0.16677573  1
  Pb  Pb52  1  0.50403688  0.49740678  0.49977810  1
  Pb  Pb53  1  0.16540800  0.50041036  0.50004411  1
  I  I54  1  0.16708171  -0.00245732  0.16509259  1
  I  I55  1  0.16246046  -0.00034932  0.49929824  1
  I  I56  1  0.16761680  -0.00294060  0.83626404  1
  I  I57  1  0.16645398  0.33543759  0.16343187  1
  I  I58  1  0.16535430  0.33093756  0.49871887  1
  I  I59  1  0.16377250  0.33664676  0.83727785  1
  I  I60  1  0.16471856  0.66704675  0.16834402  1
  I  I61  1  0.16120357  0.66961871  0.49971205  1
  I  I62  1  0.16218413  0.66662180  0.83203758  1
  I  I63  1  0.50107112  0.00425756  0.17361063  1
  I  I64  1  0.50234166  0.00389031  0.49553379  1
  I  I65  1  0.49818070  0.00005234  0.83279268  1
  I  I66  1  0.50172499  0.32940555  0.17217708  1
  I  I67  1  0.49632720  0.32895041  0.49620896  1
  I  I68  1  0.49589306  0.33335803  0.83252954  1
  I  I69  1  0.50122677  0.66685329  0.16574320  1
  I  I70  1  0.49859770  0.66666780  0.50144347  1
  I  I71  1  0.50144145  0.66660589  0.83206023  1
  I  I72  1  0.83279866  0.00400130  0.17377931  1
  I  I73  1  0.83542389  0.00073790  0.49500414  1
  I  I74  1  0.83478779  -0.00043570  0.83269701  1
  I  I75  1  0.83352224  0.33027482  0.17355153  1
  I  I76  1  0.83451596  0.33240203  0.50025525  1
  I  I77  1  0.84128167  0.33660425  0.82651820  1
  I  I78  1  0.83379330  0.66681148  0.16841399  1
  I  I79  1  0.84276484  0.66693614  0.50546598  1
  I  I80  1  0.83793930  0.66252817  0.82738631  1
  I  I81  1  0.16740798  0.16439074  0.00007022  1
  I  I82  1  0.16574484  0.16375924  0.33669932  1
  I  I83  1  0.16539239  0.16326135  0.66167319  1
  I  I84  1  0.16117004  0.50596149  -0.00053828  1
  I  I85  1  0.16478985  0.50161157  0.33141508  1
  I  I86  1  0.16404663  0.50171132  0.66899635  1
  I  I87  1  0.16796390  0.82921380  0.00003026  1
  I  I88  1  0.16281033  0.83430865  0.33416528  1
  I  I89  1  0.16251442  0.83424671  0.66584611  1
  I  I90  1  0.50284369  0.16775398  0.00344193  1
  I  I91  1  0.50044281  0.16674250  0.33450934  1
  I  I92  1  0.50012120  0.16665735  0.66305101  1
  I  I93  1  0.50331410  0.49585806  0.00017413  1
  I  I94  1  0.49806504  0.50135256  0.33339133  1
  I  I95  1  0.49469214  0.49691970  0.66646009  1
  I  I96  1  0.49978691  0.83658206  0.00020181  1
  I  I97  1  0.49662778  0.83166848  0.33341747  1
  I  I98  1  0.49798544  0.83662657  0.66633087  1
  I  I99  1  0.82969736  0.16925521  0.00305360  1
  I  I100  1  0.83358387  0.16925723  0.33537329  1
  I  I101  1  0.83353954  0.16525139  0.66281887  1
  I  I102  1  0.83815101  0.49574866  -0.00250901  1
  I  I103  1  0.83669632  0.49897973  0.33619443  1
  I  I104  1  0.84098078  0.49643172  0.66568199  1
  I  I105  1  0.83524580  0.83483395  -0.00002646  1
  I  I106  1  0.84062053  0.83000789  0.33731353  1
  I  I107  1  0.83998857  0.84053420  0.66262825  1
  I  I108  1  -0.00218849  0.16746686  0.17277276  1
  I  I109  1  -0.00073377  0.16591739  0.49606042  1
  I  I110  1  0.00017793  0.16574096  0.83446371  1
  I  I111  1  0.00317719  0.50022542  0.16604090  1
  I  I112  1  -0.00255296  0.49416591  0.50068529  1
  I  I113  1  0.00107947  0.50235761  0.83230347  1
  I  I114  1  0.00391952  0.83267689  0.16579503  1
  I  I115  1  0.00098866  0.83936440  0.49999285  1
  I  I116  1  0.00375306  0.83240987  0.83468125  1
  I  I117  1  0.33501799  0.16660586  0.17228338  1
  I  I118  1  0.33275597  0.16196893  0.49590443  1
  I  I119  1  0.33299420  0.16819286  0.83341977  1
  I  I120  1  0.32850396  0.50188701  0.16148878  1
  I  I121  1  0.33336901  0.49873472  0.50072977  1
  I  I122  1  0.32955411  0.50319316  0.83675523  1
  I  I123  1  0.32847012  0.83160769  0.16975608  1
  I  I124  1  0.32960006  0.83807289  0.50036442  1
  I  I125  1  0.32789007  0.82765066  0.82962570  1
  I  I126  1  0.66733429  0.16890306  0.17733134  1
  I  I127  1  0.66780203  0.16785883  0.49516824  1
  I  I128  1  0.66694233  0.16919246  0.82895976  1
  I  I129  1  0.66680216  0.49981211  0.16650989  1
  I  I130  1  0.67227416  0.50015975  0.50657190  1
  I  I131  1  0.67015577  0.49587331  0.82634802  1
  I  I132  1  0.66685116  0.83201171  0.16830151  1
  I  I133  1  0.67008735  0.83452294  0.50078322  1
  I  I134  1  0.66712767  0.83327150  0.83110935  1
