# generated using pymatgen
data_Cs27Sn14Pb13I81
_symmetry_space_group_name_H-M   'P 1'
_cell_length_a   18.96690226
_cell_length_b   18.97191751
_cell_length_c   18.98588200
_cell_angle_alpha   90.00069271
_cell_angle_beta   90.00075222
_cell_angle_gamma   89.99929524
_symmetry_Int_Tables_number   1
_chemical_formula_structural   Cs27Sn14Pb13I81
_chemical_formula_sum   'Cs27 Sn14 Pb13 I81'
_cell_volume   6831.85139523
_cell_formula_units_Z   1
loop_
 _symmetry_equiv_pos_site_id
 _symmetry_equiv_pos_as_xyz
  1  'x, y, z'
loop_
 _atom_site_type_symbol
 _atom_site_label
 _atom_site_symmetry_multiplicity
 _atom_site_fract_x
 _atom_site_fract_y
 _atom_site_fract_z
 _atom_site_occupancy
  Cs  Cs0  1  0.00129329  -0.00036350  -0.00002310  1
  Cs  Cs1  1  -0.00332960  -0.00238917  0.33011183  1
  Cs  Cs2  1  -0.00105085  0.00096346  0.66749975  1
  Cs  Cs3  1  0.00242631  0.34379096  0.00041926  1
  Cs  Cs4  1  0.00116057  0.34427176  0.33253958  1
  Cs  Cs5  1  0.00600691  0.33668312  0.66526284  1
  Cs  Cs6  1  -0.00001790  0.65948285  0.00159060  1
  Cs  Cs7  1  -0.00733875  0.66111276  0.33495882  1
  Cs  Cs8  1  -0.00409786  0.66139382  0.66380107  1
  Cs  Cs9  1  0.33145530  -0.00245933  0.00029430  1
  Cs  Cs10  1  0.33313641  0.00074591  0.33289145  1
  Cs  Cs11  1  0.33207563  -0.00069917  0.66641034  1
  Cs  Cs12  1  0.33153455  0.33475846  -0.00037482  1
  Cs  Cs13  1  0.33269342  0.33065622  0.33675247  1
  Cs  Cs14  1  0.32728283  0.32977995  0.66385586  1
  Cs  Cs15  1  0.33537339  0.66933878  0.00160385  1
  Cs  Cs16  1  0.33430165  0.66842747  0.33195114  1
  Cs  Cs17  1  0.33734311  0.67025540  0.66620657  1
  Cs  Cs18  1  0.66796249  0.00193806  -0.00140202  1
  Cs  Cs19  1  0.67100659  0.00455742  0.33138346  1
  Cs  Cs20  1  0.66781861  0.00053578  0.66776542  1
  Cs  Cs21  1  0.66772426  0.33034601  0.00031492  1
  Cs  Cs22  1  0.66567776  0.32552136  0.32990165  1
  Cs  Cs23  1  0.66664769  0.33110821  0.66798776  1
  Cs  Cs24  1  0.66252850  0.66659072  -0.00211581  1
  Cs  Cs25  1  0.66885391  0.66806034  0.33636223  1
  Cs  Cs26  1  0.66511195  0.66638872  0.66651064  1
  Sn  Sn27  1  0.49982218  0.83311862  0.16694804  1
  Sn  Sn28  1  0.83342012  0.83378770  0.83354205  1
  Sn  Sn29  1  0.49980878  0.50069760  0.16699255  1
  Sn  Sn30  1  0.16711602  0.83404779  0.16703110  1
  Sn  Sn31  1  0.50012987  0.50025497  0.49995286  1
  Sn  Sn32  1  0.83396526  0.16663734  0.50083007  1
  Sn  Sn33  1  0.16634088  0.16607079  0.16653855  1
  Sn  Sn34  1  0.49992461  0.49955377  0.83302152  1
  Sn  Sn35  1  0.50002015  0.83372287  0.83332990  1
  Sn  Sn36  1  0.50001386  0.16634549  0.83318815  1
  Sn  Sn37  1  0.16611986  0.83339776  0.83318195  1
  Sn  Sn38  1  0.49967633  0.83327487  0.49972367  1
  Sn  Sn39  1  0.83342466  0.16613582  0.83241062  1
  Sn  Sn40  1  0.16678576  0.83357386  0.49967699  1
  Pb  Pb41  1  0.50104600  0.16591919  0.50231129  1
  Pb  Pb42  1  0.83317681  0.83321993  0.16377012  1
  Pb  Pb43  1  0.49821520  0.16609924  0.16415186  1
  Pb  Pb44  1  0.83297287  0.83466475  0.50227977  1
  Pb  Pb45  1  0.16378443  0.16406821  0.49756319  1
  Pb  Pb46  1  0.16981414  0.50351293  0.83304997  1
  Pb  Pb47  1  0.82993992  0.49679013  0.50029638  1
  Pb  Pb48  1  0.83099143  0.49960582  0.83320936  1
  Pb  Pb49  1  0.82942339  0.50020034  0.16661800  1
  Pb  Pb50  1  0.16940728  0.50121079  0.16685010  1
  Pb  Pb51  1  0.16949490  0.50320861  0.50003330  1
  Pb  Pb52  1  0.83676691  0.16668621  0.16548185  1
  Pb  Pb53  1  0.16606483  0.16494534  0.83492715  1
  I  I54  1  0.17314423  -0.00249245  0.16567715  1
  I  I55  1  0.17504093  -0.00409942  0.50290110  1
  I  I56  1  0.17275269  -0.00375918  0.83216442  1
  I  I57  1  0.16740779  0.33127647  0.16509894  1
  I  I58  1  0.16727430  0.33324653  0.49806872  1
  I  I59  1  0.16717099  0.33346185  0.83628868  1
  I  I60  1  0.17018564  0.67070923  0.16485058  1
  I  I61  1  0.16764459  0.67163760  0.49824106  1
  I  I62  1  0.16612518  0.67214612  0.83719175  1
  I  I63  1  0.49784657  -0.00340405  0.16633820  1
  I  I64  1  0.49719069  -0.00352720  0.50053051  1
  I  I65  1  0.50067222  -0.00162754  0.83344623  1
  I  I66  1  0.49885954  0.33574098  0.16620805  1
  I  I67  1  0.50349168  0.33571017  0.49976167  1
  I  I68  1  0.50635906  0.33323321  0.83449409  1
  I  I69  1  0.49450240  0.66827879  0.16150257  1
  I  I70  1  0.49673435  0.66815260  0.50413138  1
  I  I71  1  0.49958324  0.66823036  0.83381284  1
  I  I72  1  0.82786998  -0.00001726  0.16841974  1
  I  I73  1  0.82995178  0.00235141  0.50300081  1
  I  I74  1  0.82684912  -0.00049286  0.83019595  1
  I  I75  1  0.83362386  0.33311797  0.16480903  1
  I  I76  1  0.83186311  0.32922304  0.50733967  1
  I  I77  1  0.82659437  0.32992216  0.83082335  1
  I  I78  1  0.83861995  0.66699843  0.16553782  1
  I  I79  1  0.83537181  0.66666408  0.50079485  1
  I  I80  1  0.83247048  0.66980734  0.83416809  1
  I  I81  1  0.16750860  0.15897024  0.00253323  1
  I  I82  1  0.16805576  0.15970689  0.33008476  1
  I  I83  1  0.16871197  0.16522500  0.66668928  1
  I  I84  1  0.16838506  0.50083164  -0.00003329  1
  I  I85  1  0.16920491  0.50012586  0.33334127  1
  I  I86  1  0.16892807  0.49942710  0.66662154  1
  I  I87  1  0.17113156  0.83792762  -0.00006395  1
  I  I88  1  0.17626432  0.83822619  0.33295467  1
  I  I89  1  0.17200759  0.83317314  0.66709849  1
  I  I90  1  0.50582943  0.16566795  -0.00385899  1
  I  I91  1  0.50182943  0.16731370  0.33328415  1
  I  I92  1  0.50112654  0.16534271  0.67046777  1
  I  I93  1  0.49993281  0.50425926  -0.00042739  1
  I  I94  1  0.49959686  0.50845655  0.33333935  1
  I  I95  1  0.50100411  0.50528921  0.66710254  1
  I  I96  1  0.49793568  0.83093704  -0.00087096  1
  I  I97  1  0.49248258  0.82591023  0.33328428  1
  I  I98  1  0.49768545  0.83094028  0.66754278  1
  I  I99  1  0.82786728  0.16142106  -0.00370848  1
  I  I100  1  0.83211928  0.16572993  0.33541092  1
  I  I101  1  0.82763745  0.16119952  0.66835777  1
  I  I102  1  0.83185778  0.49806689  -0.00031534  1
  I  I103  1  0.83190182  0.49859274  0.33362469  1
  I  I104  1  0.82995972  0.50314434  0.66678727  1
  I  I105  1  0.83103444  0.84042217  -0.00443673  1
  I  I106  1  0.83269494  0.83558737  0.33349556  1
  I  I107  1  0.83158223  0.83558809  0.67039832  1
  I  I108  1  0.00415496  0.15639304  0.16514186  1
  I  I109  1  -0.00358399  0.16297192  0.50880325  1
  I  I110  1  -0.00295057  0.15908361  0.83102367  1
  I  I111  1  0.00029129  0.49962133  0.16626312  1
  I  I112  1  -0.00007848  0.50098901  0.49939907  1
  I  I113  1  0.00018521  0.49994910  0.83422255  1
  I  I114  1  0.00335640  0.83913957  0.16638183  1
  I  I115  1  0.00263987  0.83732445  0.50002301  1
  I  I116  1  0.00021066  0.84104223  0.83350250  1
  I  I117  1  0.33072706  0.16344801  0.16483449  1
  I  I118  1  0.33317833  0.16883277  0.50080600  1
  I  I119  1  0.33609473  0.16586748  0.83518202  1
  I  I120  1  0.33753766  0.50266617  0.16482153  1
  I  I121  1  0.33789077  0.50010728  0.50075721  1
  I  I122  1  0.33840224  0.49899658  0.83416665  1
  I  I123  1  0.33430880  0.83326230  0.16214875  1
  I  I124  1  0.33459791  0.83061153  0.50420069  1
  I  I125  1  0.33472091  0.83296782  0.83374066  1
  I  I126  1  0.66664695  0.16731877  0.16781034  1
  I  I127  1  0.66892125  0.16461549  0.50158916  1
  I  I128  1  0.66585365  0.16155604  0.83107769  1
  I  I129  1  0.66110539  0.50617163  0.16504635  1
  I  I130  1  0.66188123  0.50938355  0.50107006  1
  I  I131  1  0.66225511  0.50589262  0.83369085  1
  I  I132  1  0.66290357  0.82882725  0.16668444  1
  I  I133  1  0.66316414  0.83003434  0.50056957  1
  I  I134  1  0.66486215  0.83340789  0.83317153  1
