# generated using pymatgen
data_Cs27Sn13Pb14I81
_symmetry_space_group_name_H-M   'P 1'
_cell_length_a   18.97721674
_cell_length_b   18.97956688
_cell_length_c   18.97484133
_cell_angle_alpha   89.99899563
_cell_angle_beta   89.99898585
_cell_angle_gamma   89.99751442
_symmetry_Int_Tables_number   1
_chemical_formula_structural   Cs27Sn13Pb14I81
_chemical_formula_sum   'Cs27 Sn13 Pb14 I81'
_cell_volume   6834.34608690
_cell_formula_units_Z   1
loop_
 _symmetry_equiv_pos_site_id
 _symmetry_equiv_pos_as_xyz
  1  'x, y, z'
loop_
 _atom_site_type_symbol
 _atom_site_label
 _atom_site_symmetry_multiplicity
 _atom_site_fract_x
 _atom_site_fract_y
 _atom_site_fract_z
 _atom_site_occupancy
  Cs  Cs0  1  -0.00034835  -0.00329382  -0.00218568  1
  Cs  Cs1  1  0.00058170  0.00149984  0.33255165  1
  Cs  Cs2  1  0.00004360  0.00044404  0.66806661  1
  Cs  Cs3  1  0.00258527  0.33277236  0.00105830  1
  Cs  Cs4  1  -0.00464900  0.33474092  0.33509663  1
  Cs  Cs5  1  -0.00059148  0.33205281  0.66279846  1
  Cs  Cs6  1  -0.00522409  0.66908845  0.00043982  1
  Cs  Cs7  1  0.00131093  0.66269813  0.33209024  1
  Cs  Cs8  1  0.00001203  0.66624719  0.66652410  1
  Cs  Cs9  1  0.33406385  0.00313220  0.00225670  1
  Cs  Cs10  1  0.33363156  -0.00161139  0.33356254  1
  Cs  Cs11  1  0.33231020  -0.00011595  0.66599734  1
  Cs  Cs12  1  0.33332276  0.33256188  -0.00244074  1
  Cs  Cs13  1  0.33158031  0.33631198  0.33330575  1
  Cs  Cs14  1  0.33315785  0.33283103  0.66963054  1
  Cs  Cs15  1  0.33185266  0.66561795  0.00207605  1
  Cs  Cs16  1  0.33244514  0.66607835  0.33345768  1
  Cs  Cs17  1  0.33354712  0.66723397  0.66469870  1
  Cs  Cs18  1  0.66871587  0.00154200  0.00905852  1
  Cs  Cs19  1  0.66591677  0.00427187  0.33067951  1
  Cs  Cs20  1  0.66812893  -0.00309428  0.66415928  1
  Cs  Cs21  1  0.66548708  0.33386037  -0.00066484  1
  Cs  Cs22  1  0.67381890  0.33058746  0.33205247  1
  Cs  Cs23  1  0.66770243  0.33517179  0.66935155  1
  Cs  Cs24  1  0.67705102  0.66580638  -0.00375298  1
  Cs  Cs25  1  0.66288374  0.66619864  0.33162045  1
  Cs  Cs26  1  0.66518650  0.66910519  0.67083012  1
  Sn  Sn27  1  0.49924569  0.16683173  0.50028006  1
  Sn  Sn28  1  0.49932604  0.50032796  0.16704973  1
  Sn  Sn29  1  0.16692910  0.50100805  0.83399493  1
  Sn  Sn30  1  0.16706998  0.16742562  0.16775155  1
  Sn  Sn31  1  0.16758412  0.16604194  0.49914694  1
  Sn  Sn32  1  0.49905498  0.83375663  0.83338024  1
  Sn  Sn33  1  0.16648599  0.83402828  0.50070895  1
  Sn  Sn34  1  0.16797813  0.83241130  0.83261615  1
  Sn  Sn35  1  0.83302969  0.16654836  0.83320801  1
  Sn  Sn36  1  0.16762688  0.49911177  0.16569678  1
  Sn  Sn37  1  0.83344675  0.83304629  0.49966924  1
  Sn  Sn38  1  0.49979638  0.49973178  0.49939497  1
  Sn  Sn39  1  0.49995222  0.83350941  0.50051804  1
  Pb  Pb40  1  0.16679277  0.83308341  0.16666047  1
  Pb  Pb41  1  0.16584176  0.16622703  0.83296065  1
  Pb  Pb42  1  0.83662811  0.49754524  0.83307043  1
  Pb  Pb43  1  0.83342556  0.83494411  0.83168426  1
  Pb  Pb44  1  0.49993849  0.83089284  0.16644464  1
  Pb  Pb45  1  0.83644342  0.16673990  0.16410299  1
  Pb  Pb46  1  0.82961307  0.50288384  0.50021316  1
  Pb  Pb47  1  0.83343830  0.49989865  0.16671167  1
  Pb  Pb48  1  0.50211106  0.16378955  0.83122323  1
  Pb  Pb49  1  0.83328849  0.83343720  0.17015971  1
  Pb  Pb50  1  0.83344760  0.16485910  0.50126274  1
  Pb  Pb51  1  0.16813752  0.49992591  0.50003679  1
  Pb  Pb52  1  0.49774784  0.16920719  0.16912805  1
  Pb  Pb53  1  0.49814399  0.50210424  0.83350019  1
  I  I54  1  0.16561623  0.00253132  0.16815423  1
  I  I55  1  0.17073192  -0.00064332  0.50040758  1
  I  I56  1  0.16797122  -0.00288639  0.83144726  1
  I  I57  1  0.17074940  0.33389349  0.16591264  1
  I  I58  1  0.17114091  0.33081334  0.50037337  1
  I  I59  1  0.16471310  0.33534347  0.83409276  1
  I  I60  1  0.17074172  0.66366726  0.16685402  1
  I  I61  1  0.16783312  0.66952168  0.50089744  1
  I  I62  1  0.17011605  0.66769473  0.83211615  1
  I  I63  1  0.49909315  0.00014916  0.16714617  1
  I  I64  1  0.49890545  -0.00086304  0.50521886  1
  I  I65  1  0.49254759  -0.00421700  0.82624666  1
  I  I66  1  0.49697719  0.33711284  0.17131135  1
  I  I67  1  0.49360965  0.33310376  0.49600100  1
  I  I68  1  0.49976962  0.33338239  0.83137657  1
  I  I69  1  0.49139163  0.66312954  0.17433078  1
  I  I70  1  0.49936266  0.66760671  0.49951965  1
  I  I71  1  0.49842193  0.67002874  0.82608832  1
  I  I72  1  0.83470810  0.00027646  0.16548805  1
  I  I73  1  0.82994909  -0.00296013  0.50245142  1
  I  I74  1  0.83742377  0.00217811  0.83074008  1
  I  I75  1  0.83226929  0.33322446  0.16782414  1
  I  I76  1  0.83400762  0.33320947  0.50106709  1
  I  I77  1  0.83461283  0.33006655  0.83110692  1
  I  I78  1  0.83586767  0.66656392  0.16552053  1
  I  I79  1  0.83669623  0.67094116  0.50205019  1
  I  I80  1  0.83196360  0.66691679  0.83265130  1
  I  I81  1  0.16368396  0.16798367  0.00202629  1
  I  I82  1  0.17011038  0.16584478  0.33473595  1
  I  I83  1  0.16855980  0.16555430  0.66370573  1
  I  I84  1  0.17287058  0.49863654  0.00059779  1
  I  I85  1  0.16935659  0.49984473  0.33117844  1
  I  I86  1  0.16821643  0.50102539  0.66869835  1
  I  I87  1  0.17099049  0.83328468  -0.00323220  1
  I  I88  1  0.16811764  0.83413409  0.33690983  1
  I  I89  1  0.16758624  0.83347990  0.66562469  1
  I  I90  1  0.49978486  0.16627999  0.00009627  1
  I  I91  1  0.49923858  0.15983128  0.33756362  1
  I  I92  1  0.49288368  0.17075927  0.66259633  1
  I  I93  1  0.49607909  0.50134697  0.00254339  1
  I  I94  1  0.49290027  0.50320536  0.33432049  1
  I  I95  1  0.49818645  0.49964182  0.66374920  1
  I  I96  1  0.49366963  0.83219850  -0.00317712  1
  I  I97  1  0.49876538  0.83454804  0.33720992  1
  I  I98  1  0.49913394  0.83077266  0.66473518  1
  I  I99  1  0.83512953  0.16469293  -0.00339768  1
  I  I100  1  0.83203292  0.16499629  0.33340227  1
  I  I101  1  0.83717378  0.16522076  0.66864970  1
  I  I102  1  0.82880268  0.50080177  -0.00018240  1
  I  I103  1  0.83861952  0.50024959  0.33362104  1
  I  I104  1  0.83424498  0.49893922  0.66657658  1
  I  I105  1  0.83345186  0.83436012  -0.00034777  1
  I  I106  1  0.83340071  0.83479871  0.33845807  1
  I  I107  1  0.83292941  0.83506256  0.66371432  1
  I  I108  1  0.00460215  0.17310371  0.17424138  1
  I  I109  1  0.00328433  0.16223694  0.49839467  1
  I  I110  1  -0.00151187  0.16458573  0.83100847  1
  I  I111  1  0.00386175  0.49691484  0.16320971  1
  I  I112  1  0.00016139  0.50013005  0.49969068  1
  I  I113  1  0.00490590  0.50709588  0.83882982  1
  I  I114  1  0.00046810  0.83140451  0.16600161  1
  I  I115  1  0.00178780  0.83887311  0.50429696  1
  I  I116  1  0.00325009  0.83152504  0.82916637  1
  I  I117  1  0.32967219  0.16779169  0.16679559  1
  I  I118  1  0.33275683  0.16130398  0.49744933  1
  I  I119  1  0.33332556  0.16785881  0.83434021  1
  I  I120  1  0.33236158  0.49709045  0.16766522  1
  I  I121  1  0.33608873  0.50478497  0.49890753  1
  I  I122  1  0.33002606  0.50042193  0.83411529  1
  I  I123  1  0.33319525  0.83467172  0.17069948  1
  I  I124  1  0.33330788  0.83421582  0.50412439  1
  I  I125  1  0.33235056  0.83028476  0.82388391  1
  I  I126  1  0.66647443  0.16754139  0.16736814  1
  I  I127  1  0.66370421  0.16538578  0.50250894  1
  I  I128  1  0.66943960  0.16503007  0.82984980  1
  I  I129  1  0.66328500  0.50166843  0.17245954  1
  I  I130  1  0.66125536  0.49849626  0.49423761  1
  I  I131  1  0.66644401  0.50134804  0.83367460  1
  I  I132  1  0.66635830  0.83126313  0.16548115  1
  I  I133  1  0.66500698  0.83258955  0.50455919  1
  I  I134  1  0.66398049  0.83404731  0.82737620  1
