# generated using pymatgen
data_Cs27Sn14Pb13I81
_symmetry_space_group_name_H-M   'P 1'
_cell_length_a   18.97355153
_cell_length_b   18.97937484
_cell_length_c   18.97345039
_cell_angle_alpha   89.99838583
_cell_angle_beta   89.99847311
_cell_angle_gamma   90.00015825
_symmetry_Int_Tables_number   1
_chemical_formula_structural   Cs27Sn14Pb13I81
_chemical_formula_sum   'Cs27 Sn14 Pb13 I81'
_cell_volume   6832.45609974
_cell_formula_units_Z   1
loop_
 _symmetry_equiv_pos_site_id
 _symmetry_equiv_pos_as_xyz
  1  'x, y, z'
loop_
 _atom_site_type_symbol
 _atom_site_label
 _atom_site_symmetry_multiplicity
 _atom_site_fract_x
 _atom_site_fract_y
 _atom_site_fract_z
 _atom_site_occupancy
  Cs  Cs0  1  -0.00036615  -0.00154992  -0.00343698  1
  Cs  Cs1  1  -0.00059031  0.00010989  0.33527913  1
  Cs  Cs2  1  0.00302173  -0.00320707  0.66655658  1
  Cs  Cs3  1  0.00081533  0.33283965  0.00007966  1
  Cs  Cs4  1  -0.00061910  0.33514071  0.33466384  1
  Cs  Cs5  1  -0.00213124  0.33270495  0.66417248  1
  Cs  Cs6  1  -0.00255566  0.66880771  0.00138240  1
  Cs  Cs7  1  -0.00024780  0.66439472  0.33225475  1
  Cs  Cs8  1  0.00175157  0.66955480  0.66556221  1
  Cs  Cs9  1  0.33550392  0.00538265  0.00144306  1
  Cs  Cs10  1  0.33547402  -0.00014421  0.33316423  1
  Cs  Cs11  1  0.33034951  -0.00783941  0.66609383  1
  Cs  Cs12  1  0.33071419  0.33022565  -0.00053008  1
  Cs  Cs13  1  0.33198243  0.33062235  0.33050915  1
  Cs  Cs14  1  0.33233683  0.34007091  0.67130391  1
  Cs  Cs15  1  0.33611496  0.66426486  0.00147642  1
  Cs  Cs16  1  0.33188459  0.66820021  0.33383814  1
  Cs  Cs17  1  0.33458481  0.66760772  0.66632570  1
  Cs  Cs18  1  0.66647440  -0.00240229  -0.00131796  1
  Cs  Cs19  1  0.66566867  0.00526694  0.33658607  1
  Cs  Cs20  1  0.66614339  0.00438363  0.66723639  1
  Cs  Cs21  1  0.66731690  0.33313466  -0.00112160  1
  Cs  Cs22  1  0.66783086  0.33091090  0.33523766  1
  Cs  Cs23  1  0.66674649  0.33211357  0.66653530  1
  Cs  Cs24  1  0.66738236  0.66934051  0.00136437  1
  Cs  Cs25  1  0.66792787  0.66643999  0.33077883  1
  Cs  Cs26  1  0.66351069  0.66413707  0.66563306  1
  Sn  Sn27  1  0.50025183  0.83390194  0.83400687  1
  Sn  Sn28  1  0.83350225  0.16730817  0.16571486  1
  Sn  Sn29  1  0.83278465  0.83231632  0.49993498  1
  Sn  Sn30  1  0.83289022  0.16737802  0.83433640  1
  Sn  Sn31  1  0.49914552  0.83275175  0.16613479  1
  Sn  Sn32  1  0.83329402  0.49908270  0.16648942  1
  Sn  Sn33  1  0.16706471  0.16775913  0.50013303  1
  Sn  Sn34  1  0.50007795  0.50024005  0.16685565  1
  Sn  Sn35  1  0.50038838  0.16604052  0.83318698  1
  Sn  Sn36  1  0.83385295  0.50116314  0.49997796  1
  Sn  Sn37  1  0.16735880  0.83284808  0.16646687  1
  Sn  Sn38  1  0.83346282  0.49963217  0.83347227  1
  Sn  Sn39  1  0.16601277  0.49909401  0.49924180  1
  Sn  Sn40  1  0.16661264  0.50073977  0.16728205  1
  Pb  Pb41  1  0.50228049  0.49997286  0.83580534  1
  Pb  Pb42  1  0.16418632  0.16674462  0.16808135  1
  Pb  Pb43  1  0.83453600  0.16728172  0.50058074  1
  Pb  Pb44  1  0.83143040  0.83336355  0.83098417  1
  Pb  Pb45  1  0.50242716  0.83319744  0.49936590  1
  Pb  Pb46  1  0.16497083  0.83239056  0.49768013  1
  Pb  Pb47  1  0.16627909  0.16676326  0.83071716  1
  Pb  Pb48  1  0.16383837  0.50020266  0.83363504  1
  Pb  Pb49  1  0.83291100  0.83352131  0.16813484  1
  Pb  Pb50  1  0.16961588  0.83304073  0.83666770  1
  Pb  Pb51  1  0.50227384  0.16664147  0.16515501  1
  Pb  Pb52  1  0.49651616  0.16698528  0.50339117  1
  Pb  Pb53  1  0.49973254  0.49983097  0.49712231  1
  I  I54  1  0.17017051  -0.00236348  0.16889809  1
  I  I55  1  0.16341677  0.00151320  0.49944998  1
  I  I56  1  0.16099101  -0.00005806  0.83165605  1
  I  I57  1  0.16846998  0.33662708  0.16886220  1
  I  I58  1  0.15933231  0.33530012  0.49411356  1
  I  I59  1  0.17231557  0.33349327  0.83763425  1
  I  I60  1  0.16498455  0.66502495  0.17245805  1
  I  I61  1  0.16309972  0.66335229  0.49701144  1
  I  I62  1  0.16609079  0.66657448  0.82768765  1
  I  I63  1  0.49670388  -0.00269451  0.16457788  1
  I  I64  1  0.50142977  0.00003969  0.49470821  1
  I  I65  1  0.50659065  -0.00001194  0.83965012  1
  I  I66  1  0.49812362  0.33619163  0.16589787  1
  I  I67  1  0.50573962  0.33344298  0.49959462  1
  I  I68  1  0.50291159  0.33101146  0.83394760  1
  I  I69  1  0.50186793  0.66650640  0.16081662  1
  I  I70  1  0.49701898  0.66652856  0.50605102  1
  I  I71  1  0.50167443  0.66891835  0.83601061  1
  I  I72  1  0.83357283  0.00234495  0.16443167  1
  I  I73  1  0.83518280  -0.00144356  0.49847538  1
  I  I74  1  0.83119846  0.00279141  0.83684608  1
  I  I75  1  0.83317235  0.33525977  0.16843287  1
  I  I76  1  0.83595022  0.33653074  0.49916770  1
  I  I77  1  0.82738353  0.33342546  0.83242256  1
  I  I78  1  0.83347400  0.66351651  0.16494485  1
  I  I79  1  0.83877913  0.66431584  0.49894257  1
  I  I80  1  0.83242196  0.66375588  0.83664503  1
  I  I81  1  0.16733523  0.16667936  -0.00000668  1
  I  I82  1  0.16259394  0.16867763  0.33579986  1
  I  I83  1  0.16358893  0.17324541  0.66292878  1
  I  I84  1  0.16589059  0.50394832  0.00380500  1
  I  I85  1  0.16107973  0.50006043  0.33246592  1
  I  I86  1  0.16178086  0.49507097  0.66349382  1
  I  I87  1  0.16440895  0.82693460  0.00470445  1
  I  I88  1  0.17244672  0.83167631  0.32991506  1
  I  I89  1  0.16694874  0.83369597  0.66645258  1
  I  I90  1  0.50190953  0.16559612  -0.00278109  1
  I  I91  1  0.50228183  0.16550011  0.33317451  1
  I  I92  1  0.50965215  0.16095517  0.67119442  1
  I  I93  1  0.49978160  0.50159209  0.00396065  1
  I  I94  1  0.50493594  0.50660822  0.32882268  1
  I  I95  1  0.50024645  0.50034621  0.66696599  1
  I  I96  1  0.49772908  0.83281972  0.00104579  1
  I  I97  1  0.49706829  0.82809391  0.32974713  1
  I  I98  1  0.50326621  0.83833402  0.66937076  1
  I  I99  1  0.83099681  0.17444125  -0.00018615  1
  I  I100  1  0.83491566  0.16934080  0.33129088  1
  I  I101  1  0.83026626  0.16988874  0.66944959  1
  I  I102  1  0.83310123  0.49511653  0.00111896  1
  I  I103  1  0.83418931  0.50013426  0.33255038  1
  I  I104  1  0.83745084  0.49959116  0.66618174  1
  I  I105  1  0.83512973  0.83150715  0.00005152  1
  I  I106  1  0.83273495  0.82940674  0.33579269  1
  I  I107  1  0.83295642  0.82941586  0.66334531  1
  I  I108  1  -0.00380550  0.17036870  0.16157995  1
  I  I109  1  0.00212198  0.16838207  0.50050792  1
  I  I110  1  -0.00348207  0.17176959  0.83634467  1
  I  I111  1  -0.00053649  0.50031251  0.16792304  1
  I  I112  1  -0.00096214  0.49969934  0.49482921  1
  I  I113  1  -0.00452177  0.49339799  0.83742552  1
  I  I114  1  0.00185766  0.82991047  0.17051835  1
  I  I115  1  -0.00292174  0.83204363  0.49834816  1
  I  I116  1  -0.00026615  0.83441620  0.83352344  1
  I  I117  1  0.33331897  0.16910313  0.16594270  1
  I  I118  1  0.32886793  0.17264024  0.49793866  1
  I  I119  1  0.33620642  0.16198256  0.83256828  1
  I  I120  1  0.33277727  0.50541534  0.17138845  1
  I  I121  1  0.32983373  0.49584123  0.49571851  1
  I  I122  1  0.33357074  0.49957571  0.83268016  1
  I  I123  1  0.33379647  0.82513162  0.16411475  1
  I  I124  1  0.33328170  0.83354487  0.50213664  1
  I  I125  1  0.33775677  0.83944771  0.83259191  1
  I  I126  1  0.67033187  0.17062515  0.16687547  1
  I  I127  1  0.66679090  0.16604424  0.49811281  1
  I  I128  1  0.66789994  0.16666304  0.83698243  1
  I  I129  1  0.66772082  0.50102532  0.16621450  1
  I  I130  1  0.67013941  0.50387828  0.49912446  1
  I  I131  1  0.67052334  0.49880386  0.83274532  1
  I  I132  1  0.66406214  0.82950303  0.16379643  1
  I  I133  1  0.67034951  0.82720767  0.49707840  1
  I  I134  1  0.66381248  0.83399264  0.84137539  1
