# generated using pymatgen
data_Cs27Sn13Pb14I81
_symmetry_space_group_name_H-M   'P 1'
_cell_length_a   18.98223887
_cell_length_b   18.97540594
_cell_length_c   18.97262365
_cell_angle_alpha   90.00027388
_cell_angle_beta   89.99875148
_cell_angle_gamma   89.99918917
_symmetry_Int_Tables_number   1
_chemical_formula_structural   Cs27Sn13Pb14I81
_chemical_formula_sum   'Cs27 Sn13 Pb14 I81'
_cell_volume   6833.85722938
_cell_formula_units_Z   1
loop_
 _symmetry_equiv_pos_site_id
 _symmetry_equiv_pos_as_xyz
  1  'x, y, z'
loop_
 _atom_site_type_symbol
 _atom_site_label
 _atom_site_symmetry_multiplicity
 _atom_site_fract_x
 _atom_site_fract_y
 _atom_site_fract_z
 _atom_site_occupancy
  Cs  Cs0  1  -0.00106658  0.00064166  0.00100416  1
  Cs  Cs1  1  0.00005042  -0.00191346  0.33218676  1
  Cs  Cs2  1  0.00061619  -0.00113878  0.66366937  1
  Cs  Cs3  1  -0.00089546  0.33273789  -0.00108700  1
  Cs  Cs4  1  -0.00170753  0.33570927  0.33164726  1
  Cs  Cs5  1  0.00292015  0.33253669  0.67004359  1
  Cs  Cs6  1  -0.00114081  0.66674105  0.00000814  1
  Cs  Cs7  1  -0.00201190  0.66617665  0.33413584  1
  Cs  Cs8  1  0.00112589  0.66793722  0.66645028  1
  Cs  Cs9  1  0.33399004  -0.00030143  0.00082513  1
  Cs  Cs10  1  0.33280818  0.00188122  0.33059172  1
  Cs  Cs11  1  0.33342521  -0.00476711  0.66596053  1
  Cs  Cs12  1  0.33286951  0.33303222  -0.00104752  1
  Cs  Cs13  1  0.33318078  0.33345446  0.33417596  1
  Cs  Cs14  1  0.33105709  0.33253938  0.66787384  1
  Cs  Cs15  1  0.33488472  0.66703434  -0.00011775  1
  Cs  Cs16  1  0.33537670  0.66287689  0.33086522  1
  Cs  Cs17  1  0.33294731  0.67384448  0.66845159  1
  Cs  Cs18  1  0.66642523  -0.00012062  0.00098297  1
  Cs  Cs19  1  0.66654870  0.00166022  0.33710783  1
  Cs  Cs20  1  0.66588493  0.00129713  0.65740363  1
  Cs  Cs21  1  0.66800786  0.33212419  -0.00117610  1
  Cs  Cs22  1  0.67194632  0.34089428  0.34226082  1
  Cs  Cs23  1  0.66689832  0.33152385  0.66394964  1
  Cs  Cs24  1  0.66674766  0.66848630  -0.00091498  1
  Cs  Cs25  1  0.66724776  0.65849610  0.34029206  1
  Cs  Cs26  1  0.66554587  0.66770908  0.66349439  1
  Sn  Sn27  1  0.50044096  0.83382841  0.16640381  1
  Sn  Sn28  1  0.49980678  0.16667869  0.16619285  1
  Sn  Sn29  1  0.83319423  0.83310845  0.83375802  1
  Sn  Sn30  1  0.83273958  0.83336144  0.16597614  1
  Sn  Sn31  1  0.16761503  0.16689548  0.83334943  1
  Sn  Sn32  1  0.16729784  0.16604937  0.16648494  1
  Sn  Sn33  1  0.16682404  0.83379572  0.16610210  1
  Sn  Sn34  1  0.83329566  0.50087455  0.83372223  1
  Sn  Sn35  1  0.49917852  0.16704547  0.83412105  1
  Sn  Sn36  1  0.16694082  0.49946412  0.50101074  1
  Sn  Sn37  1  0.49972036  0.49938405  0.83367805  1
  Sn  Sn38  1  0.16703717  0.49970543  0.83269997  1
  Sn  Sn39  1  0.16691669  0.16730466  0.49999425  1
  Pb  Pb40  1  0.16501415  0.83367547  0.83541447  1
  Pb  Pb41  1  0.83663752  0.16683501  0.49988861  1
  Pb  Pb42  1  0.49972529  0.83334545  0.49608196  1
  Pb  Pb43  1  0.83313816  0.50239612  0.16437183  1
  Pb  Pb44  1  0.50013272  0.49885170  0.16474025  1
  Pb  Pb45  1  0.16669356  0.49934437  0.16615452  1
  Pb  Pb46  1  0.83262319  0.16495634  0.16673296  1
  Pb  Pb47  1  0.50235970  0.83419905  0.83477672  1
  Pb  Pb48  1  0.49757970  0.16683938  0.49979552  1
  Pb  Pb49  1  0.83633256  0.49997706  0.50351452  1
  Pb  Pb50  1  0.83343249  0.83321592  0.49986456  1
  Pb  Pb51  1  0.16688618  0.83308344  0.49688006  1
  Pb  Pb52  1  0.83291996  0.16623662  0.83332984  1
  Pb  Pb53  1  0.49687866  0.49979724  0.50361169  1
  I  I54  1  0.16672526  0.00097619  0.16615450  1
  I  I55  1  0.16677739  0.00325785  0.50302134  1
  I  I56  1  0.16966895  0.00329961  0.83153334  1
  I  I57  1  0.17201751  0.32971444  0.16637773  1
  I  I58  1  0.16695025  0.33260883  0.49973243  1
  I  I59  1  0.16482177  0.33307467  0.83475920  1
  I  I60  1  0.16669474  0.66940223  0.16605561  1
  I  I61  1  0.16576184  0.66362643  0.50501268  1
  I  I62  1  0.16838630  0.66384550  0.83037740  1
  I  I63  1  0.49792891  0.00052939  0.15988086  1
  I  I64  1  0.49767128  0.00029148  0.50615763  1
  I  I65  1  0.49515143  0.00323176  0.83615441  1
  I  I66  1  0.49136762  0.32944197  0.16313428  1
  I  I67  1  0.50180910  0.33331267  0.49408164  1
  I  I68  1  0.50009753  0.33283439  0.83967270  1
  I  I69  1  0.49817784  0.66948985  0.16444313  1
  I  I70  1  0.49724767  0.66639509  0.50004928  1
  I  I71  1  0.49707357  0.66423501  0.83486509  1
  I  I72  1  0.83516577  -0.00355260  0.15844421  1
  I  I73  1  0.83560461  -0.00013215  0.50350160  1
  I  I74  1  0.83489707  -0.00285123  0.83908058  1
  I  I75  1  0.83488953  0.33333106  0.16538690  1
  I  I76  1  0.83121273  0.33365037  0.50054883  1
  I  I77  1  0.83472234  0.33613917  0.83228800  1
  I  I78  1  0.83541523  0.67104618  0.16405243  1
  I  I79  1  0.83699530  0.66648763  0.49742409  1
  I  I80  1  0.83472144  0.66601119  0.83855806  1
  I  I81  1  0.16989922  0.16690792  -0.00031770  1
  I  I82  1  0.17010236  0.16596430  0.33232408  1
  I  I83  1  0.16912892  0.17230933  0.66791015  1
  I  I84  1  0.16631319  0.49733473  -0.00368121  1
  I  I85  1  0.16639696  0.49752166  0.33566291  1
  I  I86  1  0.16575761  0.49178632  0.66840488  1
  I  I87  1  0.16792973  0.83677581  0.00352179  1
  I  I88  1  0.16427516  0.83725229  0.32864806  1
  I  I89  1  0.16370296  0.83570421  0.66687430  1
  I  I90  1  0.49162768  0.16643764  -0.00025217  1
  I  I91  1  0.49449892  0.15926722  0.32977306  1
  I  I92  1  0.49712228  0.17131870  0.67012625  1
  I  I93  1  0.49564401  0.49937957  -0.00387852  1
  I  I94  1  0.49867800  0.50156189  0.33357602  1
  I  I95  1  0.50346822  0.49359234  0.67190500  1
  I  I96  1  0.49755436  0.83447715  0.00301447  1
  I  I97  1  0.50075977  0.84053820  0.32754643  1
  I  I98  1  0.50201562  0.83349327  0.66695511  1
  I  I99  1  0.83907705  0.16868100  -0.00016569  1
  I  I100  1  0.83353950  0.16361028  0.33310660  1
  I  I101  1  0.83266864  0.16351505  0.66709130  1
  I  I102  1  0.83791840  0.50104685  -0.00415416  1
  I  I103  1  0.83464561  0.50131193  0.33376600  1
  I  I104  1  0.83110375  0.50681219  0.67161460  1
  I  I105  1  0.83435907  0.82906440  0.00047692  1
  I  I106  1  0.83499373  0.83608909  0.32957972  1
  I  I107  1  0.83475991  0.82911585  0.66999031  1
  I  I108  1  0.00348583  0.16303815  0.16562338  1
  I  I109  1  0.00538371  0.16981623  0.50113275  1
  I  I110  1  0.00343068  0.16978500  0.83412203  1
  I  I111  1  0.00025529  0.50024254  0.16437553  1
  I  I112  1  0.00409789  0.49569050  0.50464965  1
  I  I113  1  0.00104644  0.49977935  0.82997450  1
  I  I114  1  0.00037674  0.83711574  0.16291394  1
  I  I115  1  0.00036503  0.83427389  0.49743246  1
  I  I116  1  -0.00274941  0.82952514  0.83991928  1
  I  I117  1  0.33226162  0.15845112  0.16512261  1
  I  I118  1  0.32929675  0.17094912  0.49951430  1
  I  I119  1  0.33227558  0.17428286  0.83490476  1
  I  I120  1  0.33317890  0.50665336  0.16449515  1
  I  I121  1  0.32907301  0.49542582  0.50388651  1
  I  I122  1  0.33255301  0.49488346  0.83044355  1
  I  I123  1  0.33318777  0.83792850  0.16682681  1
  I  I124  1  0.33290732  0.83254039  0.50151797  1
  I  I125  1  0.33344047  0.83018300  0.83503865  1
  I  I126  1  0.66287268  0.16136927  0.15823350  1
  I  I127  1  0.66630721  0.16515214  0.50030792  1
  I  I128  1  0.66324751  0.16977477  0.84010067  1
  I  I129  1  0.66656009  0.49974775  0.16406700  1
  I  I130  1  0.66666053  0.50124602  0.49952226  1
  I  I131  1  0.66643902  0.50010253  0.83779793  1
  I  I132  1  0.66640551  0.83790883  0.15988676  1
  I  I133  1  0.66670401  0.83355082  0.49963007  1
  I  I134  1  0.66999901  0.82867537  0.84070518  1
