# generated using pymatgen
data_Cs27Sn14Pb13I81
_symmetry_space_group_name_H-M   'P 1'
_cell_length_a   18.97692301
_cell_length_b   18.97078761
_cell_length_c   18.97734295
_cell_angle_alpha   90.00142231
_cell_angle_beta   89.99906966
_cell_angle_gamma   90.00150188
_symmetry_Int_Tables_number   1
_chemical_formula_structural   Cs27Sn14Pb13I81
_chemical_formula_sum   'Cs27 Sn14 Pb13 I81'
_cell_volume   6831.97963671
_cell_formula_units_Z   1
loop_
 _symmetry_equiv_pos_site_id
 _symmetry_equiv_pos_as_xyz
  1  'x, y, z'
loop_
 _atom_site_type_symbol
 _atom_site_label
 _atom_site_symmetry_multiplicity
 _atom_site_fract_x
 _atom_site_fract_y
 _atom_site_fract_z
 _atom_site_occupancy
  Cs  Cs0  1  0.00035872  0.00072805  -0.00041592  1
  Cs  Cs1  1  0.00218464  -0.00356554  0.32930631  1
  Cs  Cs2  1  0.00094010  0.00083596  0.66970245  1
  Cs  Cs3  1  -0.00155881  0.33007634  -0.00223629  1
  Cs  Cs4  1  0.00060861  0.33508445  0.34235488  1
  Cs  Cs5  1  -0.00001210  0.33402518  0.65877384  1
  Cs  Cs6  1  -0.00001356  0.66681256  0.00143264  1
  Cs  Cs7  1  0.00030369  0.66718108  0.33189001  1
  Cs  Cs8  1  -0.00063761  0.66618939  0.66622148  1
  Cs  Cs9  1  0.32984179  0.00040559  -0.00264118  1
  Cs  Cs10  1  0.33482375  0.00127634  0.33386183  1
  Cs  Cs11  1  0.33251491  -0.00032228  0.66793247  1
  Cs  Cs12  1  0.33553618  0.33926978  0.00041438  1
  Cs  Cs13  1  0.33754720  0.33146213  0.33420588  1
  Cs  Cs14  1  0.32783089  0.33390135  0.66640319  1
  Cs  Cs15  1  0.33361031  0.65679085  -0.00130354  1
  Cs  Cs16  1  0.33261487  0.66707145  0.33085759  1
  Cs  Cs17  1  0.33723574  0.66637867  0.67008531  1
  Cs  Cs18  1  0.66804601  0.00015669  -0.00059957  1
  Cs  Cs19  1  0.66338470  -0.00210931  0.33210132  1
  Cs  Cs20  1  0.66712154  -0.00050172  0.66878416  1
  Cs  Cs21  1  0.66690760  0.33314989  0.00285878  1
  Cs  Cs22  1  0.66233017  0.33231797  0.33346509  1
  Cs  Cs23  1  0.67288457  0.32809531  0.66268399  1
  Cs  Cs24  1  0.66701726  0.66649213  -0.00136384  1
  Cs  Cs25  1  0.66801256  0.66878593  0.33584472  1
  Cs  Cs26  1  0.66439965  0.66870619  0.66591827  1
  Sn  Sn27  1  0.50019178  0.83336780  0.16643835  1
  Sn  Sn28  1  0.16688108  0.83347161  0.50093505  1
  Sn  Sn29  1  0.83357242  0.83353506  0.50015325  1
  Sn  Sn30  1  0.16608689  0.16683713  0.16603238  1
  Sn  Sn31  1  0.83359137  0.50007688  0.16622094  1
  Sn  Sn32  1  0.83253596  0.83322754  0.16642784  1
  Sn  Sn33  1  0.83342998  0.50077078  0.83371254  1
  Sn  Sn34  1  0.83419377  0.83251120  0.83352021  1
  Sn  Sn35  1  0.16603959  0.83340665  0.83296253  1
  Sn  Sn36  1  0.83430374  0.16669823  0.16689572  1
  Sn  Sn37  1  0.16751215  0.16620772  0.83440818  1
  Sn  Sn38  1  0.49904603  0.16666594  0.83350440  1
  Sn  Sn39  1  0.49971030  0.83261501  0.49924185  1
  Sn  Sn40  1  0.50001572  0.50067868  0.50025422  1
  Pb  Pb41  1  0.83409373  0.16664228  0.83479860  1
  Pb  Pb42  1  0.49976339  0.16455120  0.16470883  1
  Pb  Pb43  1  0.16658001  0.16430349  0.50003899  1
  Pb  Pb44  1  0.16387997  0.49633404  0.16672527  1
  Pb  Pb45  1  0.50246656  0.50269211  0.16840879  1
  Pb  Pb46  1  0.49981392  0.83418397  0.83364561  1
  Pb  Pb47  1  0.83170407  0.50230807  0.49982550  1
  Pb  Pb48  1  0.49988912  0.16592887  0.50255861  1
  Pb  Pb49  1  0.16948303  0.50337283  0.49998035  1
  Pb  Pb50  1  0.83335434  0.16341712  0.49635898  1
  Pb  Pb51  1  0.50313063  0.49689414  0.83095047  1
  Pb  Pb52  1  0.16698450  0.83435037  0.16592833  1
  Pb  Pb53  1  0.16403199  0.49987219  0.83335875  1
  I  I54  1  0.16029130  0.00218380  0.16520056  1
  I  I55  1  0.16856871  -0.00415296  0.50116826  1
  I  I56  1  0.16405633  -0.00078452  0.83286494  1
  I  I57  1  0.16279849  0.32821125  0.15912230  1
  I  I58  1  0.16803191  0.33334642  0.50032327  1
  I  I59  1  0.17004871  0.33000750  0.83869614  1
  I  I60  1  0.16650347  0.66676102  0.16685894  1
  I  I61  1  0.16279509  0.67181433  0.50515216  1
  I  I62  1  0.16436166  0.67001233  0.82890031  1
  I  I63  1  0.50722240  -0.00338741  0.17373082  1
  I  I64  1  0.50064863  -0.00392195  0.49653881  1
  I  I65  1  0.50150238  0.00194786  0.83189128  1
  I  I66  1  0.50127701  0.33332259  0.16842167  1
  I  I67  1  0.50225990  0.33568318  0.50136631  1
  I  I68  1  0.49476853  0.32946644  0.83344112  1
  I  I69  1  0.50485380  0.67092181  0.16722445  1
  I  I70  1  0.50123676  0.66925478  0.49700631  1
  I  I71  1  0.49786783  0.66661684  0.83497063  1
  I  I72  1  0.83336821  -0.00126822  0.16667472  1
  I  I73  1  0.82990171  -0.00513236  0.50272675  1
  I  I74  1  0.83373735  -0.00310590  0.83349262  1
  I  I75  1  0.83751769  0.33326954  0.15921578  1
  I  I76  1  0.83097037  0.33344260  0.50102978  1
  I  I77  1  0.83106879  0.33544101  0.83886339  1
  I  I78  1  0.82820858  0.66818068  0.16623690  1
  I  I79  1  0.83511668  0.67083012  0.49576936  1
  I  I80  1  0.83789988  0.66885066  0.83795308  1
  I  I81  1  0.16537711  0.15835767  -0.00086031  1
  I  I82  1  0.16116968  0.16432174  0.33044156  1
  I  I83  1  0.17099418  0.16377038  0.66988711  1
  I  I84  1  0.16978905  0.50626010  -0.00001900  1
  I  I85  1  0.16319890  0.50071797  0.33335696  1
  I  I86  1  0.16295194  0.49460681  0.66671333  1
  I  I87  1  0.16245794  0.83720027  -0.00290834  1
  I  I88  1  0.16440746  0.83482769  0.33542383  1
  I  I89  1  0.16333102  0.83933491  0.66728114  1
  I  I90  1  0.49977102  0.16302696  -0.00283000  1
  I  I91  1  0.50030372  0.16767361  0.33321537  1
  I  I92  1  0.49491035  0.16345323  0.67027346  1
  I  I93  1  0.49928987  0.50101527  -0.00009567  1
  I  I94  1  0.50292533  0.50181229  0.33626452  1
  I  I95  1  0.50225752  0.50970403  0.66365200  1
  I  I96  1  0.50517352  0.83738354  0.00231626  1
  I  I97  1  0.50407118  0.83128770  0.33390224  1
  I  I98  1  0.50271620  0.83165915  0.66404817  1
  I  I99  1  0.83395890  0.16116608  0.00281736  1
  I  I100  1  0.83852178  0.16764077  0.32818179  1
  I  I101  1  0.83303188  0.16736174  0.66665848  1
  I  I102  1  0.83293329  0.50580722  0.00040188  1
  I  I103  1  0.83202851  0.50076299  0.33051711  1
  I  I104  1  0.83185632  0.50450244  0.66909633  1
  I  I105  1  0.83294953  0.83354868  0.00037831  1
  I  I106  1  0.83267120  0.83409391  0.33279959  1
  I  I107  1  0.83314998  0.82855829  0.66719414  1
  I  I108  1  -0.00080407  0.16254128  0.15973268  1
  I  I109  1  -0.00013928  0.16684603  0.50494966  1
  I  I110  1  0.00261165  0.16374613  0.83657125  1
  I  I111  1  -0.00453901  0.50800322  0.16385272  1
  I  I112  1  -0.00027227  0.50003217  0.50027614  1
  I  I113  1  -0.00405399  0.50058595  0.83685135  1
  I  I114  1  -0.00314430  0.83231938  0.16921157  1
  I  I115  1  -0.00063736  0.83532749  0.49978371  1
  I  I116  1  -0.00077951  0.83609286  0.83057354  1
  I  I117  1  0.33078598  0.16188446  0.16481468  1
  I  I118  1  0.33328109  0.16397390  0.49520862  1
  I  I119  1  0.33178730  0.15865312  0.83801273  1
  I  I120  1  0.33365859  0.50088310  0.16786049  1
  I  I121  1  0.33723102  0.50580746  0.50028557  1
  I  I122  1  0.33349874  0.50237938  0.83199629  1
  I  I123  1  0.33564377  0.83740588  0.17131323  1
  I  I124  1  0.33368720  0.83046899  0.49976739  1
  I  I125  1  0.33073860  0.83793162  0.82985873  1
  I  I126  1  0.66951039  0.16692206  0.16457257  1
  I  I127  1  0.66669129  0.16429432  0.50215865  1
  I  I128  1  0.66548363  0.16546925  0.83396211  1
  I  I129  1  0.67063499  0.49539341  0.16281225  1
  I  I130  1  0.66416923  0.50765982  0.50018767  1
  I  I131  1  0.67067333  0.50646436  0.83745984  1
  I  I132  1  0.66861826  0.83569574  0.16981992  1
  I  I133  1  0.66689932  0.82963508  0.49892305  1
  I  I134  1  0.66956644  0.83230129  0.83170252  1
