# generated using pymatgen
data_Cs27Sn13Pb14I81
_symmetry_space_group_name_H-M   'P 1'
_cell_length_a   18.97963034
_cell_length_b   18.97963030
_cell_length_c   18.97243044
_cell_angle_alpha   89.99978131
_cell_angle_beta   90.00021878
_cell_angle_gamma   89.99980401
_symmetry_Int_Tables_number   1
_chemical_formula_structural   Cs27Sn13Pb14I81
_chemical_formula_sum   'Cs27 Sn13 Pb14 I81'
_cell_volume   6834.36969248
_cell_formula_units_Z   1
loop_
 _symmetry_equiv_pos_site_id
 _symmetry_equiv_pos_as_xyz
  1  'x, y, z'
loop_
 _atom_site_type_symbol
 _atom_site_label
 _atom_site_symmetry_multiplicity
 _atom_site_fract_x
 _atom_site_fract_y
 _atom_site_fract_z
 _atom_site_occupancy
  Cs  Cs0  1  0.00030607  0.00030624  0.00000000  1
  Cs  Cs1  1  -0.00006595  0.00042891  0.33243512  1
  Cs  Cs2  1  0.00042875  -0.00006573  0.66756475  1
  Cs  Cs3  1  0.00143084  0.33354913  -0.00590443  1
  Cs  Cs4  1  -0.00374468  0.33376800  0.33379248  1
  Cs  Cs5  1  0.00652764  0.33274891  0.67428806  1
  Cs  Cs6  1  -0.00244588  0.66644694  0.00063690  1
  Cs  Cs7  1  -0.00137859  0.66650515  0.33208871  1
  Cs  Cs8  1  0.00254118  0.66719838  0.66749383  1
  Cs  Cs9  1  0.33354903  0.00143084  0.00590438  1
  Cs  Cs10  1  0.33274887  0.00652758  0.32571190  1
  Cs  Cs11  1  0.33376784  -0.00374474  0.66620745  1
  Cs  Cs12  1  0.33263734  0.33263736  -0.00000005  1
  Cs  Cs13  1  0.33243277  0.32792495  0.33916033  1
  Cs  Cs14  1  0.32792499  0.33243274  0.66083959  1
  Cs  Cs15  1  0.33581788  0.66683940  -0.00026114  1
  Cs  Cs16  1  0.33218474  0.66596315  0.33392053  1
  Cs  Cs17  1  0.33369809  0.66808745  0.66590641  1
  Cs  Cs18  1  0.66644701  -0.00244595  -0.00063682  1
  Cs  Cs19  1  0.66719843  0.00254117  0.33250603  1
  Cs  Cs20  1  0.66650513  -0.00137863  0.66791134  1
  Cs  Cs21  1  0.66683931  0.33581800  0.00026115  1
  Cs  Cs22  1  0.66808734  0.33369815  0.33409354  1
  Cs  Cs23  1  0.66596309  0.33218477  0.66607953  1
  Cs  Cs24  1  0.66635951  0.66635946  -0.00000001  1
  Cs  Cs25  1  0.66823604  0.66526630  0.33319466  1
  Cs  Cs26  1  0.66526635  0.66823604  0.66680530  1
  Sn  Sn27  1  0.83328015  0.83328016  0.50000001  1
  Sn  Sn28  1  0.83353371  0.49906724  0.16716702  1
  Sn  Sn29  1  0.49906724  0.83353370  0.83283300  1
  Sn  Sn30  1  0.49978633  0.83342167  0.49980392  1
  Sn  Sn31  1  0.83336586  0.16693898  0.50000161  1
  Sn  Sn32  1  0.83309875  0.16754471  0.16675049  1
  Sn  Sn33  1  0.16669858  0.49988069  0.16692092  1
  Sn  Sn34  1  0.83342161  0.49978635  0.50019608  1
  Sn  Sn35  1  0.50002747  0.49957729  0.83333290  1
  Sn  Sn36  1  0.49988063  0.16669854  0.83307908  1
  Sn  Sn37  1  0.16693900  0.83336592  0.49999841  1
  Sn  Sn38  1  0.49957726  0.50002748  0.16666709  1
  Sn  Sn39  1  0.16754470  0.83309877  0.83324950  1
  Pb  Pb40  1  0.83140821  0.50004454  0.83332738  1
  Pb  Pb41  1  0.83323751  0.83328607  0.16898144  1
  Pb  Pb42  1  0.16972860  0.16377355  0.83338501  1
  Pb  Pb43  1  0.16399642  0.50197506  0.49818744  1
  Pb  Pb44  1  0.83328608  0.83323750  0.83101854  1
  Pb  Pb45  1  0.16377360  0.16972861  0.16661499  1
  Pb  Pb46  1  0.16390956  0.16390956  0.50000000  1
  Pb  Pb47  1  0.16670611  0.83156156  0.16653756  1
  Pb  Pb48  1  0.16957143  0.50230265  0.83530687  1
  Pb  Pb49  1  0.50161442  0.50161434  0.50000002  1
  Pb  Pb50  1  0.50004453  0.83140823  0.16667266  1
  Pb  Pb51  1  0.50197507  0.16399643  0.50181253  1
  Pb  Pb52  1  0.50230261  0.16957144  0.16469315  1
  Pb  Pb53  1  0.83156151  0.16670610  0.83346247  1
  I  I54  1  0.16500491  0.00013940  0.16645643  1
  I  I55  1  0.16474050  -0.00462887  0.50401172  1
  I  I56  1  0.17068949  -0.00434767  0.82913509  1
  I  I57  1  0.16946026  0.33776693  0.16623163  1
  I  I58  1  0.16598067  0.33344567  0.49891514  1
  I  I59  1  0.16716751  0.33353941  0.83459001  1
  I  I60  1  0.16313316  0.66350110  0.16702386  1
  I  I61  1  0.16441351  0.67024860  0.50337243  1
  I  I62  1  0.17212317  0.67010032  0.82891243  1
  I  I63  1  0.50204352  0.00032060  0.16580422  1
  I  I64  1  0.50283095  -0.00434476  0.50607383  1
  I  I65  1  0.49793204  -0.00135988  0.82723792  1
  I  I66  1  0.49943222  0.33773760  0.16122951  1
  I  I67  1  0.50272906  0.33330157  0.50139301  1
  I  I68  1  0.50441089  0.33408913  0.83995762  1
  I  I69  1  0.50416277  0.66304621  0.16141776  1
  I  I70  1  0.50307393  0.66988207  0.50505583  1
  I  I71  1  0.49722351  0.66727411  0.83375997  1
  I  I72  1  0.83252408  0.00283043  0.17058908  1
  I  I73  1  0.83287278  -0.00042139  0.49649869  1
  I  I74  1  0.83033067  -0.00011785  0.83420760  1
  I  I75  1  0.83209949  0.33471064  0.17574134  1
  I  I76  1  0.83069514  0.33372495  0.49370671  1
  I  I77  1  0.83046142  0.33344308  0.82845496  1
  I  I78  1  0.83303237  0.66310716  0.17035609  1
  I  I79  1  0.83265780  0.66684242  0.49598104  1
  I  I80  1  0.83025513  0.66667572  0.83402443  1
  I  I81  1  0.16353212  0.16353226  0.00000002  1
  I  I82  1  0.17014946  0.16319871  0.33330735  1
  I  I83  1  0.16319905  0.17014947  0.66669264  1
  I  I84  1  0.16037065  0.50291355  0.00327326  1
  I  I85  1  0.17097526  0.50367830  0.33014423  1
  I  I86  1  0.16589822  0.49963568  0.66666529  1
  I  I87  1  0.17329568  0.83178759  -0.00304401  1
  I  I88  1  0.16549186  0.83095695  0.33661450  1
  I  I89  1  0.16704893  0.83219459  0.66606270  1
  I  I90  1  0.50291391  0.16037093  -0.00327327  1
  I  I91  1  0.49963558  0.16589787  0.33333472  1
  I  I92  1  0.50367807  0.17097555  0.66985576  1
  I  I93  1  0.50300906  0.50300881  0.00000005  1
  I  I94  1  0.50061629  0.50347949  0.33063644  1
  I  I95  1  0.50347917  0.50061610  0.66936357  1
  I  I96  1  0.49512800  0.83447133  -0.00348834  1
  I  I97  1  0.50119830  0.83028540  0.33655016  1
  I  I98  1  0.50075274  0.83069859  0.66710881  1
  I  I99  1  0.83178747  0.17329564  0.00304398  1
  I  I100  1  0.83219479  0.16704868  0.33393729  1
  I  I101  1  0.83095684  0.16549180  0.66338554  1
  I  I102  1  0.83447139  0.49512785  0.00348833  1
  I  I103  1  0.83069865  0.50075273  0.33289119  1
  I  I104  1  0.83028531  0.50119848  0.66344986  1
  I  I105  1  0.83321539  0.83321554  -0.00000001  1
  I  I106  1  0.83307455  0.83235547  0.33765012  1
  I  I107  1  0.83235533  0.83307429  0.66234990  1
  I  I108  1  -0.00434763  0.17068960  0.17086486  1
  I  I109  1  -0.00462886  0.16474023  0.49598858  1
  I  I110  1  0.00013945  0.16500506  0.83354344  1
  I  I111  1  -0.00135993  0.49793219  0.17276207  1
  I  I112  1  -0.00434475  0.50283105  0.49392641  1
  I  I113  1  0.00032060  0.50204360  0.83419551  1
  I  I114  1  -0.00011784  0.83033035  0.16579232  1
  I  I115  1  -0.00042135  0.83287265  0.50350148  1
  I  I116  1  0.00283038  0.83252384  0.82941078  1
  I  I117  1  0.33353944  0.16716754  0.16540985  1
  I  I118  1  0.33344566  0.16598094  0.50108475  1
  I  I119  1  0.33776694  0.16946028  0.83376880  1
  I  I120  1  0.33408917  0.50441079  0.16004237  1
  I  I121  1  0.33330155  0.50272888  0.49860665  1
  I  I122  1  0.33773764  0.49943222  0.83877097  1
  I  I123  1  0.33344310  0.83046144  0.17154499  1
  I  I124  1  0.33372497  0.83069501  0.50629331  1
  I  I125  1  0.33471068  0.83209953  0.82425873  1
  I  I126  1  0.67010034  0.17212301  0.17108780  1
  I  I127  1  0.67024856  0.16441343  0.49662748  1
  I  I128  1  0.66350112  0.16313295  0.83297583  1
  I  I129  1  0.66727409  0.49722346  0.16624001  1
  I  I130  1  0.66988202  0.50307387  0.49494423  1
  I  I131  1  0.66304624  0.50416274  0.83858207  1
  I  I132  1  0.66667569  0.83025536  0.16597590  1
  I  I133  1  0.66684240  0.83265789  0.50401889  1
  I  I134  1  0.66310720  0.83303265  0.82964385  1
