# generated using pymatgen
data_Cs27Sn14Pb13I81
_symmetry_space_group_name_H-M   'P 1'
_cell_length_a   18.96357644
_cell_length_b   18.97837015
_cell_length_c   18.98422043
_cell_angle_alpha   89.99944472
_cell_angle_beta   90.00172328
_cell_angle_gamma   89.99771983
_symmetry_Int_Tables_number   1
_chemical_formula_structural   Cs27Sn14Pb13I81
_chemical_formula_sum   'Cs27 Sn14 Pb13 I81'
_cell_volume   6832.37865121
_cell_formula_units_Z   1
loop_
 _symmetry_equiv_pos_site_id
 _symmetry_equiv_pos_as_xyz
  1  'x, y, z'
loop_
 _atom_site_type_symbol
 _atom_site_label
 _atom_site_symmetry_multiplicity
 _atom_site_fract_x
 _atom_site_fract_y
 _atom_site_fract_z
 _atom_site_occupancy
  Cs  Cs0  1  -0.00116409  0.00437341  -0.00106753  1
  Cs  Cs1  1  0.00053694  -0.00334458  0.33261655  1
  Cs  Cs2  1  0.00182280  -0.00168403  0.66919251  1
  Cs  Cs3  1  -0.00604157  0.32298607  0.01075320  1
  Cs  Cs4  1  -0.00736430  0.33247132  0.32570003  1
  Cs  Cs5  1  -0.00493966  0.33066329  0.66625373  1
  Cs  Cs6  1  -0.00215515  0.66740688  0.00173058  1
  Cs  Cs7  1  0.00117664  0.66770716  0.33344026  1
  Cs  Cs8  1  0.00205571  0.66882763  0.66477805  1
  Cs  Cs9  1  0.33355028  0.00162215  -0.00080009  1
  Cs  Cs10  1  0.33563509  -0.00322553  0.33698077  1
  Cs  Cs11  1  0.33263609  0.00059047  0.66548930  1
  Cs  Cs12  1  0.33416208  0.33276268  -0.00025133  1
  Cs  Cs13  1  0.33236334  0.33555920  0.33261482  1
  Cs  Cs14  1  0.33378590  0.33675448  0.66900116  1
  Cs  Cs15  1  0.33438834  0.66511106  -0.00183436  1
  Cs  Cs16  1  0.33276019  0.66742782  0.33383494  1
  Cs  Cs17  1  0.33103915  0.66386426  0.66782831  1
  Cs  Cs18  1  0.66613459  -0.00102430  -0.00118386  1
  Cs  Cs19  1  0.66356933  -0.00042806  0.33635774  1
  Cs  Cs20  1  0.66780706  0.00307968  0.66446574  1
  Cs  Cs21  1  0.66511473  0.33407912  0.00131515  1
  Cs  Cs22  1  0.67275295  0.33096957  0.33533155  1
  Cs  Cs23  1  0.67091610  0.33381893  0.66270152  1
  Cs  Cs24  1  0.66532608  0.66684078  -0.00357273  1
  Cs  Cs25  1  0.66604180  0.66926760  0.33255362  1
  Cs  Cs26  1  0.66853860  0.66441238  0.67069582  1
  Sn  Sn27  1  0.49945493  0.50024418  0.50004921  1
  Sn  Sn28  1  0.49964713  0.49926040  0.16686405  1
  Sn  Sn29  1  0.49901176  0.83343306  0.83287688  1
  Sn  Sn30  1  0.49922932  0.49969032  0.83306238  1
  Sn  Sn31  1  0.16704884  0.49926633  0.50050697  1
  Sn  Sn32  1  0.16626434  0.83318638  0.50010768  1
  Sn  Sn33  1  0.16611532  0.49994568  0.83335272  1
  Sn  Sn34  1  0.16773916  0.83251842  0.83375233  1
  Sn  Sn35  1  0.49951414  0.16707752  0.83355790  1
  Sn  Sn36  1  0.16686515  0.16754494  0.49986606  1
  Sn  Sn37  1  0.83391852  0.83301100  0.16736041  1
  Sn  Sn38  1  0.16634515  0.83322471  0.16615473  1
  Sn  Sn39  1  0.49931460  0.16739752  0.16652344  1
  Sn  Sn40  1  0.83391892  0.83287898  0.49941255  1
  Pb  Pb41  1  0.49975351  0.83106908  0.50283007  1
  Pb  Pb42  1  0.16833248  0.16749807  0.83176518  1
  Pb  Pb43  1  0.83009962  0.16343013  0.16682401  1
  Pb  Pb44  1  0.49971307  0.83325566  0.16467038  1
  Pb  Pb45  1  0.83026691  0.50269565  0.16660933  1
  Pb  Pb46  1  0.16916036  0.16393993  0.16908843  1
  Pb  Pb47  1  0.49811473  0.16948155  0.50013917  1
  Pb  Pb48  1  0.83668387  0.16365987  0.49992327  1
  Pb  Pb49  1  0.83015821  0.16680629  0.83328909  1
  Pb  Pb50  1  0.16821626  0.50171194  0.16618147  1
  Pb  Pb51  1  0.83499008  0.49990901  0.83350573  1
  Pb  Pb52  1  0.83416139  0.83317034  0.83321326  1
  Pb  Pb53  1  0.83441553  0.50237356  0.50008644  1
  I  I54  1  0.16570964  -0.00440953  0.16584181  1
  I  I55  1  0.16261516  -0.00168589  0.50011977  1
  I  I56  1  0.17087140  -0.00295524  0.83177531  1
  I  I57  1  0.16686593  0.33327756  0.16700886  1
  I  I58  1  0.17518275  0.33484048  0.50634502  1
  I  I59  1  0.17381258  0.33678251  0.82622165  1
  I  I60  1  0.16661117  0.67009838  0.17103684  1
  I  I61  1  0.16684604  0.66714943  0.50088411  1
  I  I62  1  0.17577562  0.66747641  0.82800539  1
  I  I63  1  0.50017856  0.00177798  0.16126138  1
  I  I64  1  0.49956423  -0.00017463  0.49977870  1
  I  I65  1  0.49640861  -0.00039868  0.83897431  1
  I  I66  1  0.49807505  0.33413901  0.16092758  1
  I  I67  1  0.49398007  0.33740931  0.50435835  1
  I  I68  1  0.49542255  0.33455773  0.83472657  1
  I  I69  1  0.50009675  0.66429400  0.16572593  1
  I  I70  1  0.49495102  0.66318561  0.49832340  1
  I  I71  1  0.49688293  0.66608009  0.83409620  1
  I  I72  1  0.83578644  -0.00428319  0.17063709  1
  I  I73  1  0.83647598  -0.00446338  0.49647543  1
  I  I74  1  0.83229051  -0.00044180  0.83289385  1
  I  I75  1  0.83475948  0.33307649  0.16607469  1
  I  I76  1  0.83290423  0.33335493  0.50066816  1
  I  I77  1  0.83396011  0.33340774  0.83252182  1
  I  I78  1  0.83549198  0.67060370  0.17064505  1
  I  I79  1  0.83875259  0.67025895  0.49649311  1
  I  I80  1  0.82597093  0.66687162  0.83387641  1
  I  I81  1  0.16633349  0.16562089  0.00010434  1
  I  I82  1  0.17035507  0.16653581  0.33688281  1
  I  I83  1  0.17019752  0.16083150  0.66392075  1
  I  I84  1  0.17361224  0.50771846  -0.00319336  1
  I  I85  1  0.17251635  0.50273850  0.33618856  1
  I  I86  1  0.17656468  0.50686468  0.66633730  1
  I  I87  1  0.16790073  0.82809595  -0.00097344  1
  I  I88  1  0.16233073  0.83327480  0.33417671  1
  I  I89  1  0.16669866  0.83291040  0.66633361  1
  I  I90  1  0.49896397  0.17056211  -0.00074983  1
  I  I91  1  0.49832605  0.16973667  0.33106259  1
  I  I92  1  0.49803405  0.16562469  0.66938677  1
  I  I93  1  0.49669783  0.50030625  -0.00111733  1
  I  I94  1  0.49531483  0.49700883  0.33363592  1
  I  I95  1  0.49568100  0.50132066  0.66742475  1
  I  I96  1  0.49681281  0.82911359  -0.00321324  1
  I  I97  1  0.49831164  0.83320283  0.33352644  1
  I  I98  1  0.49664745  0.83441277  0.67078473  1
  I  I99  1  0.83720806  0.16325788  0.00030827  1
  I  I100  1  0.82980909  0.16769901  0.33339247  1
  I  I101  1  0.83005402  0.16387899  0.66629920  1
  I  I102  1  0.83240802  0.50449907  0.00011816  1
  I  I103  1  0.83210774  0.49998736  0.33342543  1
  I  I104  1  0.82672006  0.50313614  0.66663567  1
  I  I105  1  0.83527893  0.83317036  0.00250926  1
  I  I106  1  0.84133664  0.83251123  0.33368080  1
  I  I107  1  0.83669615  0.83289991  0.66404515  1
  I  I108  1  0.00015296  0.16804696  0.16767305  1
  I  I109  1  0.00472945  0.17177244  0.50116239  1
  I  I110  1  0.00049051  0.16532709  0.83149273  1
  I  I111  1  0.00016802  0.49973562  0.16691685  1
  I  I112  1  0.00426301  0.50004015  0.50622366  1
  I  I113  1  0.00483068  0.50940912  0.82517442  1
  I  I114  1  0.00130241  0.83229213  0.16630082  1
  I  I115  1  0.00224366  0.83151526  0.50129386  1
  I  I116  1  0.00398684  0.82803385  0.83220295  1
  I  I117  1  0.33691872  0.16800362  0.16193176  1
  I  I118  1  0.33047810  0.15883249  0.49983666  1
  I  I119  1  0.33674209  0.16593245  0.83667634  1
  I  I120  1  0.33673099  0.50031150  0.16628024  1
  I  I121  1  0.33267520  0.50340213  0.50105342  1
  I  I122  1  0.33432053  0.50217716  0.83193736  1
  I  I123  1  0.33072013  0.83327938  0.17011976  1
  I  I124  1  0.32997766  0.83491624  0.49681864  1
  I  I125  1  0.33263439  0.83226100  0.83351891  1
  I  I126  1  0.66219099  0.16920699  0.16275655  1
  I  I127  1  0.66647335  0.16591772  0.50037697  1
  I  I128  1  0.66110878  0.16511368  0.83633326  1
  I  I129  1  0.66155727  0.49865277  0.16572976  1
  I  I130  1  0.66370569  0.50150081  0.50140643  1
  I  I131  1  0.66272101  0.50182836  0.83285741  1
  I  I132  1  0.66851998  0.83335049  0.17053930  1
  I  I133  1  0.66860843  0.83146388  0.49578501  1
  I  I134  1  0.66368670  0.83235776  0.83447367  1
