# generated using pymatgen
data_Cs27Sn13Pb14I81
_symmetry_space_group_name_H-M   'P 1'
_cell_length_a   18.98146832
_cell_length_b   18.97965459
_cell_length_c   18.96976295
_cell_angle_alpha   89.99988511
_cell_angle_beta   90.00103268
_cell_angle_gamma   89.99954757
_symmetry_Int_Tables_number   1
_chemical_formula_structural   Cs27Sn13Pb14I81
_chemical_formula_sum   'Cs27 Sn13 Pb14 I81'
_cell_volume   6834.07928298
_cell_formula_units_Z   1
loop_
 _symmetry_equiv_pos_site_id
 _symmetry_equiv_pos_as_xyz
  1  'x, y, z'
loop_
 _atom_site_type_symbol
 _atom_site_label
 _atom_site_symmetry_multiplicity
 _atom_site_fract_x
 _atom_site_fract_y
 _atom_site_fract_z
 _atom_site_occupancy
  Cs  Cs0  1  0.00298720  -0.00344467  0.00222956  1
  Cs  Cs1  1  0.00021829  0.00124702  0.33396187  1
  Cs  Cs2  1  -0.00253294  -0.00151396  0.66477178  1
  Cs  Cs3  1  0.00638578  0.33557274  0.00497288  1
  Cs  Cs4  1  -0.00634162  0.33143670  0.33256620  1
  Cs  Cs5  1  0.00055824  0.33470703  0.66574732  1
  Cs  Cs6  1  0.00191839  0.66621570  0.00142994  1
  Cs  Cs7  1  0.00069540  0.66790040  0.33294706  1
  Cs  Cs8  1  -0.00105528  0.66592137  0.66763465  1
  Cs  Cs9  1  0.33359742  0.00524107  0.00150087  1
  Cs  Cs10  1  0.33078293  -0.00264549  0.33488602  1
  Cs  Cs11  1  0.33431087  0.00122920  0.66546073  1
  Cs  Cs12  1  0.32863240  0.32508494  0.00204567  1
  Cs  Cs13  1  0.33910710  0.33532511  0.33035092  1
  Cs  Cs14  1  0.33118309  0.33126740  0.66921855  1
  Cs  Cs15  1  0.32975805  0.66670609  0.00029412  1
  Cs  Cs16  1  0.33690806  0.66656475  0.33383892  1
  Cs  Cs17  1  0.33478636  0.66632855  0.66489269  1
  Cs  Cs18  1  0.66423094  -0.00191543  -0.00311087  1
  Cs  Cs19  1  0.66839114  0.00080828  0.33441467  1
  Cs  Cs20  1  0.66826907  -0.00001456  0.66792914  1
  Cs  Cs21  1  0.66453313  0.33215206  0.00584769  1
  Cs  Cs22  1  0.66821399  0.33316828  0.32417629  1
  Cs  Cs23  1  0.66863382  0.33387683  0.66721116  1
  Cs  Cs24  1  0.66819184  0.66847662  -0.00288199  1
  Cs  Cs25  1  0.66276984  0.66542599  0.33338070  1
  Cs  Cs26  1  0.66621536  0.66698576  0.66799456  1
  Sn  Sn27  1  0.16605154  0.50010394  0.50030220  1
  Sn  Sn28  1  0.83360299  0.16827056  0.83354324  1
  Sn  Sn29  1  0.83365365  0.50094078  0.50068592  1
  Sn  Sn30  1  0.83380192  0.83232874  0.49918700  1
  Sn  Sn31  1  0.16800095  0.83335884  0.83223657  1
  Sn  Sn32  1  0.16766438  0.16698203  0.50035790  1
  Sn  Sn33  1  0.16590463  0.83285756  0.50104816  1
  Sn  Sn34  1  0.50018622  0.50006088  0.83329158  1
  Sn  Sn35  1  0.50077435  0.83321207  0.16566813  1
  Sn  Sn36  1  0.83234115  0.83302424  0.16796717  1
  Sn  Sn37  1  0.49858923  0.83261925  0.83400613  1
  Sn  Sn38  1  0.83266187  0.49854550  0.83291214  1
  Sn  Sn39  1  0.49983257  0.16695338  0.50024318  1
  Pb  Pb40  1  0.16405600  0.16412793  0.83123975  1
  Pb  Pb41  1  0.50150464  0.16686784  0.83189645  1
  Pb  Pb42  1  0.83329056  0.50242435  0.16645489  1
  Pb  Pb43  1  0.16667972  0.50008674  0.17023961  1
  Pb  Pb44  1  0.16697073  0.83326786  0.16710397  1
  Pb  Pb45  1  0.83346664  0.83265287  0.83307256  1
  Pb  Pb46  1  0.83346554  0.16707282  0.50103470  1
  Pb  Pb47  1  0.50009672  0.16377487  0.16943793  1
  Pb  Pb48  1  0.16660730  0.50179214  0.83167344  1
  Pb  Pb49  1  0.50061855  0.49752546  0.50190751  1
  Pb  Pb50  1  0.16654225  0.16665366  0.17011064  1
  Pb  Pb51  1  0.50027410  0.83448172  0.50046428  1
  Pb  Pb52  1  0.49990644  0.50241421  0.16290251  1
  Pb  Pb53  1  0.83338119  0.16371205  0.16301939  1
  I  I54  1  0.16575377  -0.00052249  0.16843036  1
  I  I55  1  0.16634147  -0.00121099  0.50366186  1
  I  I56  1  0.16992987  -0.00402697  0.82746376  1
  I  I57  1  0.16691431  0.33331314  0.16505550  1
  I  I58  1  0.16570453  0.33367877  0.50072377  1
  I  I59  1  0.16876868  0.33335051  0.83114939  1
  I  I60  1  0.16595501  0.66723196  0.16816659  1
  I  I61  1  0.16120262  0.66757943  0.50412459  1
  I  I62  1  0.16560338  0.67002244  0.82717893  1
  I  I63  1  0.50407821  -0.00425762  0.15945688  1
  I  I64  1  0.49660406  0.00210122  0.50181428  1
  I  I65  1  0.49899136  -0.00309480  0.83528377  1
  I  I66  1  0.50000812  0.33324948  0.16723303  1
  I  I67  1  0.49568986  0.33014994  0.50402640  1
  I  I68  1  0.50366925  0.33598557  0.82794376  1
  I  I69  1  0.50391552  0.67067063  0.16842394  1
  I  I70  1  0.49791542  0.66659834  0.49852208  1
  I  I71  1  0.50340038  0.66775116  0.83470167  1
  I  I72  1  0.83034274  -0.00442035  0.17235596  1
  I  I73  1  0.83606070  -0.00267556  0.49914116  1
  I  I74  1  0.83316292  0.00103218  0.83173399  1
  I  I75  1  0.83326157  0.33342634  0.17019510  1
  I  I76  1  0.83688540  0.33615544  0.50422800  1
  I  I77  1  0.82742508  0.33497992  0.82396117  1
  I  I78  1  0.83019039  0.67057546  0.16624858  1
  I  I79  1  0.84031706  0.66714104  0.50260056  1
  I  I80  1  0.83197672  0.66438357  0.83124468  1
  I  I81  1  0.16547818  0.16407917  -0.00042106  1
  I  I82  1  0.16858038  0.16142035  0.33882341  1
  I  I83  1  0.16971774  0.16715904  0.66295477  1
  I  I84  1  0.16524931  0.50363682  -0.00044633  1
  I  I85  1  0.16077161  0.50397693  0.33918015  1
  I  I86  1  0.16476629  0.49963259  0.66319059  1
  I  I87  1  0.16570103  0.83271398  -0.00281732  1
  I  I88  1  0.16559511  0.83388657  0.33711511  1
  I  I89  1  0.16601922  0.83347063  0.66524654  1
  I  I90  1  0.50230127  0.16740141  -0.00007712  1
  I  I91  1  0.49661187  0.16553997  0.33747018  1
  I  I92  1  0.49662594  0.16250056  0.66407686  1
  I  I93  1  0.50817604  0.50214986  -0.00516044  1
  I  I94  1  0.49952248  0.50020975  0.33349019  1
  I  I95  1  0.50218166  0.50823896  0.66961785  1
  I  I96  1  0.50216442  0.82973023  -0.00115072  1
  I  I97  1  0.50111681  0.83661429  0.33169285  1
  I  I98  1  0.49970156  0.83140007  0.66934755  1
  I  I99  1  0.83096046  0.17056744  -0.00476406  1
  I  I100  1  0.83358190  0.16790649  0.33336902  1
  I  I101  1  0.83298921  0.16393010  0.66871450  1
  I  I102  1  0.82825230  0.49862926  -0.00350941  1
  I  I103  1  0.83839909  0.50195181  0.33679396  1
  I  I104  1  0.83363066  0.50341982  0.66608812  1
  I  I105  1  0.83241396  0.83444506  0.00161405  1
  I  I106  1  0.83373457  0.82931564  0.33510097  1
  I  I107  1  0.83457367  0.83296014  0.66409757  1
  I  I108  1  -0.00026689  0.16317396  0.16872870  1
  I  I109  1  0.00249636  0.16503934  0.50238664  1
  I  I110  1  -0.00353293  0.16982655  0.82912283  1
  I  I111  1  -0.00028693  0.50371340  0.16144202  1
  I  I112  1  -0.00066734  0.50021177  0.50632905  1
  I  I113  1  -0.00294852  0.49896843  0.82982328  1
  I  I114  1  -0.00256732  0.83336577  0.16720743  1
  I  I115  1  0.00015511  0.83524126  0.50099334  1
  I  I116  1  0.00191475  0.83414559  0.83134721  1
  I  I117  1  0.33345957  0.16374852  0.16385110  1
  I  I118  1  0.33225105  0.16413246  0.50190792  1
  I  I119  1  0.33304507  0.16781645  0.83280677  1
  I  I120  1  0.33349687  0.50421370  0.16832435  1
  I  I121  1  0.33071324  0.50358932  0.50148323  1
  I  I122  1  0.33573779  0.50497103  0.83034800  1
  I  I123  1  0.33610581  0.83328143  0.16608332  1
  I  I124  1  0.33067250  0.83180933  0.50077871  1
  I  I125  1  0.33399588  0.82818159  0.83206236  1
  I  I126  1  0.66679032  0.16683550  0.17137607  1
  I  I127  1  0.66498820  0.16383861  0.50305965  1
  I  I128  1  0.66924851  0.16371023  0.82776829  1
  I  I129  1  0.66665587  0.49990490  0.17267142  1
  I  I130  1  0.66986251  0.50474593  0.50339105  1
  I  I131  1  0.66752546  0.50383425  0.82623159  1
  I  I132  1  0.66687200  0.83315854  0.16630779  1
  I  I133  1  0.66943548  0.83135434  0.50017022  1
  I  I134  1  0.66468773  0.83291303  0.83357210  1
