# generated using pymatgen
data_Cs27Sn13Pb14I81
_symmetry_space_group_name_H-M   'P 1'
_cell_length_a   18.98553342
_cell_length_b   18.97153734
_cell_length_c   18.97669263
_cell_angle_alpha   89.99835117
_cell_angle_beta   89.99966945
_cell_angle_gamma   89.99982957
_symmetry_Int_Tables_number   1
_chemical_formula_structural   Cs27Sn13Pb14I81
_chemical_formula_sum   'Cs27 Sn13 Pb14 I81'
_cell_volume   6835.11540577
_cell_formula_units_Z   1
loop_
 _symmetry_equiv_pos_site_id
 _symmetry_equiv_pos_as_xyz
  1  'x, y, z'
loop_
 _atom_site_type_symbol
 _atom_site_label
 _atom_site_symmetry_multiplicity
 _atom_site_fract_x
 _atom_site_fract_y
 _atom_site_fract_z
 _atom_site_occupancy
  Cs  Cs0  1  0.00185702  0.00054315  -0.00022229  1
  Cs  Cs1  1  -0.00175983  -0.00124169  0.33339193  1
  Cs  Cs2  1  0.00200943  0.00032816  0.66594168  1
  Cs  Cs3  1  -0.00065021  0.33133729  -0.00087703  1
  Cs  Cs4  1  0.00794676  0.33255480  0.33357909  1
  Cs  Cs5  1  -0.00240929  0.33551216  0.66709131  1
  Cs  Cs6  1  -0.00209432  0.66859116  0.00010126  1
  Cs  Cs7  1  -0.00014048  0.66987003  0.33357447  1
  Cs  Cs8  1  -0.00242283  0.66517575  0.66723911  1
  Cs  Cs9  1  0.33366554  0.00001994  -0.00695601  1
  Cs  Cs10  1  0.33549674  0.00023717  0.33448286  1
  Cs  Cs11  1  0.33387436  -0.00118066  0.67145329  1
  Cs  Cs12  1  0.33082808  0.33625796  0.00303958  1
  Cs  Cs13  1  0.32747897  0.33835066  0.33121863  1
  Cs  Cs14  1  0.32945628  0.33411514  0.66564532  1
  Cs  Cs15  1  0.33323693  0.66484000  -0.00297474  1
  Cs  Cs16  1  0.33515358  0.66332954  0.33249943  1
  Cs  Cs17  1  0.33376908  0.66810932  0.67043482  1
  Cs  Cs18  1  0.66505246  0.00204390  0.00254996  1
  Cs  Cs19  1  0.66720411  -0.00037072  0.33319756  1
  Cs  Cs20  1  0.66407326  0.00098808  0.66419412  1
  Cs  Cs21  1  0.66838593  0.33185189  -0.00125834  1
  Cs  Cs22  1  0.66454713  0.33034848  0.33254927  1
  Cs  Cs23  1  0.67135635  0.33451654  0.66884094  1
  Cs  Cs24  1  0.66753732  0.66689064  0.00237656  1
  Cs  Cs25  1  0.66469299  0.66730676  0.33330322  1
  Cs  Cs26  1  0.66839353  0.66471095  0.66580301  1
  Sn  Sn27  1  0.49874448  0.83401029  0.16719848  1
  Sn  Sn28  1  0.49975468  0.83386416  0.49922934  1
  Sn  Sn29  1  0.16718089  0.83341557  0.49922761  1
  Sn  Sn30  1  0.83302739  0.83407987  0.50105577  1
  Sn  Sn31  1  0.83277559  0.16769372  0.16788546  1
  Sn  Sn32  1  0.16838721  0.83362904  0.16724434  1
  Sn  Sn33  1  0.50030504  0.16588624  0.16764151  1
  Sn  Sn34  1  0.83320325  0.49860607  0.16755190  1
  Sn  Sn35  1  0.83277029  0.83404133  0.83224756  1
  Sn  Sn36  1  0.16710582  0.50008921  0.83330354  1
  Sn  Sn37  1  0.49969237  0.49976942  0.83326856  1
  Sn  Sn38  1  0.83265155  0.16590193  0.49886917  1
  Sn  Sn39  1  0.50054003  0.16618007  0.49902208  1
  Pb  Pb40  1  0.83317373  0.49941085  0.49723756  1
  Pb  Pb41  1  0.83329178  0.50178415  0.83533940  1
  Pb  Pb42  1  0.50205919  0.83199210  0.83328627  1
  Pb  Pb43  1  0.16667229  0.50299261  0.50206736  1
  Pb  Pb44  1  0.50014524  0.49941951  0.50191725  1
  Pb  Pb45  1  0.83316449  0.16406812  0.83306886  1
  Pb  Pb46  1  0.83279206  0.83430621  0.16745522  1
  Pb  Pb47  1  0.49997013  0.16926033  0.83308422  1
  Pb  Pb48  1  0.16716032  0.16401085  0.16672631  1
  Pb  Pb49  1  0.16665176  0.16964243  0.83325381  1
  Pb  Pb50  1  0.16700901  0.16431458  0.49995950  1
  Pb  Pb51  1  0.16460460  0.83215485  0.83320387  1
  Pb  Pb52  1  0.16413537  0.50280965  0.16509085  1
  Pb  Pb53  1  0.50147033  0.49973648  0.16527593  1
  I  I54  1  0.16372552  -0.00410401  0.16991274  1
  I  I55  1  0.16501439  -0.00417654  0.49682166  1
  I  I56  1  0.16463920  -0.00053022  0.83376460  1
  I  I57  1  0.16814751  0.33339967  0.16422371  1
  I  I58  1  0.16611120  0.33322710  0.50253322  1
  I  I59  1  0.16991693  0.33774328  0.83436153  1
  I  I60  1  0.16978863  0.67079258  0.17040925  1
  I  I61  1  0.16579289  0.67161307  0.49600781  1
  I  I62  1  0.16979293  0.66448445  0.83353867  1
  I  I63  1  0.50360309  -0.00047831  0.16978752  1
  I  I64  1  0.50175624  -0.00119609  0.49639759  1
  I  I65  1  0.50184211  0.00002305  0.83406647  1
  I  I66  1  0.50367517  0.33009582  0.16943804  1
  I  I67  1  0.50668996  0.32941300  0.49699565  1
  I  I68  1  0.49702459  0.33691096  0.83402921  1
  I  I69  1  0.49932050  0.66973773  0.16969981  1
  I  I70  1  0.50098574  0.67035165  0.49660348  1
  I  I71  1  0.49765185  0.66430505  0.83401826  1
  I  I72  1  0.83233286  0.00272242  0.16745827  1
  I  I73  1  0.83277106  -0.00091802  0.49771150  1
  I  I74  1  0.83365382  -0.00388305  0.83446429  1
  I  I75  1  0.82698661  0.33169064  0.16942676  1
  I  I76  1  0.82716670  0.32959514  0.49907078  1
  I  I77  1  0.83424694  0.33326182  0.83152961  1
  I  I78  1  0.83382649  0.66572971  0.16452145  1
  I  I79  1  0.83308598  0.67007201  0.50222222  1
  I  I80  1  0.83346410  0.66972034  0.82982569  1
  I  I81  1  0.16566664  0.16235649  0.00038773  1
  I  I82  1  0.16538789  0.16999110  0.33332131  1
  I  I83  1  0.16664636  0.16361284  0.66628241  1
  I  I84  1  0.17054785  0.50386910  -0.00261183  1
  I  I85  1  0.16527871  0.49925862  0.33313293  1
  I  I86  1  0.16960765  0.50243445  0.66999087  1
  I  I87  1  0.16826128  0.83186671  0.00261621  1
  I  I88  1  0.16366511  0.83298650  0.33378947  1
  I  I89  1  0.16829802  0.83212818  0.66356696  1
  I  I90  1  0.50491740  0.16237898  0.00347318  1
  I  I91  1  0.50615899  0.16134983  0.33317813  1
  I  I92  1  0.50483541  0.16177801  0.66292223  1
  I  I93  1  0.49755954  0.50183159  -0.00254011  1
  I  I94  1  0.50223872  0.50160649  0.33324332  1
  I  I95  1  0.49724642  0.50199929  0.66979876  1
  I  I96  1  0.49815672  0.83600357  0.00308715  1
  I  I97  1  0.50201199  0.83572547  0.33363493  1
  I  I98  1  0.49799794  0.83654496  0.66331930  1
  I  I99  1  0.82923517  0.16847707  0.00328576  1
  I  I100  1  0.82876098  0.16337483  0.33352061  1
  I  I101  1  0.82871119  0.16396966  0.66304077  1
  I  I102  1  0.83289741  0.49773621  0.00309937  1
  I  I103  1  0.83189611  0.50323205  0.32954515  1
  I  I104  1  0.83400568  0.49899560  0.66661260  1
  I  I105  1  0.83394557  0.83130093  -0.00109587  1
  I  I106  1  0.83404819  0.83376217  0.33630051  1
  I  I107  1  0.83386719  0.83643076  0.66454332  1
  I  I108  1  -0.00317042  0.16880952  0.17005409  1
  I  I109  1  -0.00334590  0.16211684  0.49614503  1
  I  I110  1  -0.00048377  0.16822211  0.83399218  1
  I  I111  1  -0.00356959  0.49657968  0.16377341  1
  I  I112  1  -0.00019873  0.50072345  0.50299731  1
  I  I113  1  0.00190390  0.50341464  0.83497180  1
  I  I114  1  0.00142153  0.83174820  0.16863355  1
  I  I115  1  -0.00072727  0.83601952  0.49958269  1
  I  I116  1  -0.00312746  0.82995596  0.83112914  1
  I  I117  1  0.33702944  0.16475465  0.17104124  1
  I  I118  1  0.33709373  0.16295451  0.49635222  1
  I  I119  1  0.33368537  0.16277393  0.83288200  1
  I  I120  1  0.33327439  0.49842211  0.16601260  1
  I  I121  1  0.33345135  0.49934442  0.49822723  1
  I  I122  1  0.33348360  0.50303184  0.83424477  1
  I  I123  1  0.33462068  0.83709890  0.17355007  1
  I  I124  1  0.33429759  0.83653146  0.49558634  1
  I  I125  1  0.33346021  0.83272446  0.83156125  1
  I  I126  1  0.66658464  0.16400382  0.16985577  1
  I  I127  1  0.66687271  0.15758000  0.49580565  1
  I  I128  1  0.66663709  0.17026429  0.83414705  1
  I  I129  1  0.66922455  0.50270278  0.16284260  1
  I  I130  1  0.66673807  0.50649426  0.50405164  1
  I  I131  1  0.66474042  0.50170281  0.83448465  1
  I  I132  1  0.66407148  0.83320588  0.16852894  1
  I  I133  1  0.66651847  0.83661678  0.49978759  1
  I  I134  1  0.66967301  0.82949242  0.83054346  1
