# generated using pymatgen
data_Cs27Sn13Pb14I81
_symmetry_space_group_name_H-M   'P 1'
_cell_length_a   18.97599978
_cell_length_b   18.97387497
_cell_length_c   18.98208793
_cell_angle_alpha   89.99893384
_cell_angle_beta   89.99918268
_cell_angle_gamma   89.99968194
_symmetry_Int_Tables_number   1
_chemical_formula_structural   Cs27Sn13Pb14I81
_chemical_formula_sum   'Cs27 Sn13 Pb14 I81'
_cell_volume   6834.46748667
_cell_formula_units_Z   1
loop_
 _symmetry_equiv_pos_site_id
 _symmetry_equiv_pos_as_xyz
  1  'x, y, z'
loop_
 _atom_site_type_symbol
 _atom_site_label
 _atom_site_symmetry_multiplicity
 _atom_site_fract_x
 _atom_site_fract_y
 _atom_site_fract_z
 _atom_site_occupancy
  Cs  Cs0  1  0.00225996  -0.00047950  -0.00079116  1
  Cs  Cs1  1  0.00091882  0.00007054  0.33500762  1
  Cs  Cs2  1  0.00435699  0.00325508  0.66569928  1
  Cs  Cs3  1  0.00165258  0.34146991  0.00050319  1
  Cs  Cs4  1  -0.00419586  0.33186097  0.33006365  1
  Cs  Cs5  1  0.00293336  0.33225914  0.66922172  1
  Cs  Cs6  1  0.00426468  0.65752535  0.00345216  1
  Cs  Cs7  1  0.00203263  0.66795551  0.33294250  1
  Cs  Cs8  1  -0.00252130  0.66423760  0.66449154  1
  Cs  Cs9  1  0.33039926  -0.00149906  -0.00305406  1
  Cs  Cs10  1  0.33076837  0.00297647  0.33363842  1
  Cs  Cs11  1  0.32385259  0.00105329  0.66951778  1
  Cs  Cs12  1  0.33225489  0.33196282  -0.00014718  1
  Cs  Cs13  1  0.33768157  0.33265056  0.33380917  1
  Cs  Cs14  1  0.33271223  0.33192106  0.66650480  1
  Cs  Cs15  1  0.33107830  0.66919572  0.00097926  1
  Cs  Cs16  1  0.33376145  0.66559009  0.33357805  1
  Cs  Cs17  1  0.33637212  0.66851226  0.66563684  1
  Cs  Cs18  1  0.66632915  -0.00080129  -0.00073774  1
  Cs  Cs19  1  0.66724804  0.00298096  0.33183739  1
  Cs  Cs20  1  0.66772658  -0.00205114  0.66914014  1
  Cs  Cs21  1  0.66792694  0.33236727  0.00055500  1
  Cs  Cs22  1  0.66577353  0.32679435  0.33146884  1
  Cs  Cs23  1  0.66599709  0.33403285  0.66668772  1
  Cs  Cs24  1  0.66642401  0.66821474  -0.00043659  1
  Cs  Cs25  1  0.66480768  0.66780699  0.33570572  1
  Cs  Cs26  1  0.66621387  0.66718067  0.66568431  1
  Sn  Sn27  1  0.83276080  0.83305265  0.16669261  1
  Sn  Sn28  1  0.83228438  0.83283037  0.49991477  1
  Sn  Sn29  1  0.50077946  0.16707312  0.83309706  1
  Sn  Sn30  1  0.83329397  0.83368090  0.83343300  1
  Sn  Sn31  1  0.50078012  0.83280107  0.16763798  1
  Sn  Sn32  1  0.50058589  0.50046767  0.49982463  1
  Sn  Sn33  1  0.50058168  0.50065269  0.16675102  1
  Sn  Sn34  1  0.16674985  0.49998063  0.49991094  1
  Sn  Sn35  1  0.83286086  0.50032218  0.49981287  1
  Sn  Sn36  1  0.50037745  0.49927742  0.83339836  1
  Sn  Sn37  1  0.83259658  0.16626730  0.83337368  1
  Sn  Sn38  1  0.50062452  0.83332562  0.49926038  1
  Sn  Sn39  1  0.16659485  0.16679408  0.16675871  1
  Pb  Pb40  1  0.50116534  0.83325188  0.83310319  1
  Pb  Pb41  1  0.16250184  0.83281235  0.83326382  1
  Pb  Pb42  1  0.16622990  0.16693397  0.83525073  1
  Pb  Pb43  1  0.83134583  0.50029800  0.83147829  1
  Pb  Pb44  1  0.16704952  0.83470826  0.16689687  1
  Pb  Pb45  1  0.16677969  0.83138511  0.49995793  1
  Pb  Pb46  1  0.50006839  0.16565082  0.50254188  1
  Pb  Pb47  1  0.16989800  0.50021312  0.83097483  1
  Pb  Pb48  1  0.16658727  0.16958616  0.49761546  1
  Pb  Pb49  1  0.83308600  0.16614470  0.50224311  1
  Pb  Pb50  1  0.83519254  0.16416612  0.16389977  1
  Pb  Pb51  1  0.83082381  0.50223717  0.16930430  1
  Pb  Pb52  1  0.16945218  0.49824515  0.16908274  1
  Pb  Pb53  1  0.49896003  0.16582918  0.16429825  1
  I  I54  1  0.16896001  0.00242628  0.16580428  1
  I  I55  1  0.16700843  0.00003666  0.50014883  1
  I  I56  1  0.17254703  0.00013247  0.83303561  1
  I  I57  1  0.16801257  0.33076637  0.16659614  1
  I  I58  1  0.16853501  0.33766449  0.50075930  1
  I  I59  1  0.16231145  0.33353120  0.83319480  1
  I  I60  1  0.16511181  0.66638517  0.16713539  1
  I  I61  1  0.16770998  0.66339901  0.49871891  1
  I  I62  1  0.16766461  0.66633990  0.83500303  1
  I  I63  1  0.50278831  -0.00349085  0.17015933  1
  I  I64  1  0.50636655  -0.00388853  0.49561973  1
  I  I65  1  0.50289720  0.00199120  0.83433549  1
  I  I66  1  0.49727979  0.33598602  0.16969111  1
  I  I67  1  0.50056197  0.33677380  0.49761751  1
  I  I68  1  0.50544328  0.33402442  0.83281771  1
  I  I69  1  0.50313928  0.66675335  0.16578841  1
  I  I70  1  0.50053422  0.66572118  0.50172446  1
  I  I71  1  0.50149959  0.66408593  0.83201792  1
  I  I72  1  0.82659239  -0.00411962  0.17203717  1
  I  I73  1  0.82783510  -0.00389377  0.49812316  1
  I  I74  1  0.82616502  -0.00064173  0.83199727  1
  I  I75  1  0.83331907  0.33350917  0.16704282  1
  I  I76  1  0.83202268  0.33652896  0.50202520  1
  I  I77  1  0.83074019  0.33122341  0.83092051  1
  I  I78  1  0.83270183  0.67052550  0.16090495  1
  I  I79  1  0.83218461  0.66737262  0.50297154  1
  I  I80  1  0.83083407  0.66959795  0.83337891  1
  I  I81  1  0.16805470  0.16636461  0.00259357  1
  I  I82  1  0.16820044  0.16537835  0.33029046  1
  I  I83  1  0.16691700  0.16693345  0.66679352  1
  I  I84  1  0.16705706  0.49869172  0.00036157  1
  I  I85  1  0.16866727  0.49992830  0.33682716  1
  I  I86  1  0.16772007  0.49993247  0.66285770  1
  I  I87  1  0.16892946  0.83420544  0.00020659  1
  I  I88  1  0.16238752  0.83472041  0.33343133  1
  I  I89  1  0.16947229  0.83437582  0.66642859  1
  I  I90  1  0.50321696  0.17074414  -0.00338855  1
  I  I91  1  0.49798105  0.16942102  0.33313041  1
  I  I92  1  0.50352613  0.17107160  0.67041376  1
  I  I93  1  0.50072990  0.50030861  0.00017110  1
  I  I94  1  0.49882790  0.50509695  0.33419772  1
  I  I95  1  0.50008172  0.50029857  0.66549134  1
  I  I96  1  0.50411102  0.83042872  0.00238824  1
  I  I97  1  0.50753199  0.82472166  0.33364090  1
  I  I98  1  0.50495120  0.82884338  0.66391690  1
  I  I99  1  0.82861689  0.16150275  -0.00383563  1
  I  I100  1  0.83516354  0.16658548  0.33312634  1
  I  I101  1  0.82959287  0.16147323  0.67009165  1
  I  I102  1  0.83203688  0.50073905  0.00010041  1
  I  I103  1  0.83206762  0.50480521  0.33750860  1
  I  I104  1  0.83049597  0.50541087  0.66329296  1
  I  I105  1  0.82758294  0.83964580  0.00016670  1
  I  I106  1  0.82962627  0.82802442  0.33392789  1
  I  I107  1  0.82816867  0.83265000  0.66583088  1
  I  I108  1  0.00264860  0.16549045  0.16582881  1
  I  I109  1  -0.00022294  0.16666316  0.50252702  1
  I  I110  1  -0.00316228  0.16030871  0.83291124  1
  I  I111  1  -0.00020067  0.50015795  0.16777437  1
  I  I112  1  -0.00105000  0.50464801  0.50087392  1
  I  I113  1  -0.00028895  0.49942762  0.83144840  1
  I  I114  1  -0.00330682  0.83636425  0.16748342  1
  I  I115  1  -0.00367501  0.82925719  0.49986521  1
  I  I116  1  -0.00599208  0.84092685  0.83174376  1
  I  I117  1  0.33142416  0.16601857  0.16456582  1
  I  I118  1  0.33352268  0.16630558  0.50281136  1
  I  I119  1  0.33614182  0.17121112  0.83403836  1
  I  I120  1  0.33770595  0.50590714  0.16837460  1
  I  I121  1  0.33535393  0.50329315  0.49999816  1
  I  I122  1  0.33842957  0.49402842  0.83141984  1
  I  I123  1  0.33718721  0.83009210  0.17133186  1
  I  I124  1  0.33699425  0.82871841  0.49532119  1
  I  I125  1  0.33370429  0.83453996  0.83324431  1
  I  I126  1  0.66669670  0.16821026  0.16682007  1
  I  I127  1  0.66653135  0.17180126  0.49757980  1
  I  I128  1  0.66645881  0.16672401  0.83369070  1
  I  I129  1  0.66259713  0.49995485  0.16805322  1
  I  I130  1  0.66555834  0.50538618  0.50151832  1
  I  I131  1  0.66311168  0.49897371  0.83053044  1
  I  I132  1  0.66618421  0.83022268  0.16752722  1
  I  I133  1  0.66679828  0.82483556  0.49977277  1
  I  I134  1  0.66932815  0.83445933  0.83267868  1
