# generated using pymatgen
data_Cs27Sn13Pb14I81
_symmetry_space_group_name_H-M   'P 1'
_cell_length_a   18.97671246
_cell_length_b   18.98149212
_cell_length_c   18.97286199
_cell_angle_alpha   90.00177637
_cell_angle_beta   90.00077787
_cell_angle_gamma   89.99892980
_symmetry_Int_Tables_number   1
_chemical_formula_structural   Cs27Sn13Pb14I81
_chemical_formula_sum   'Cs27 Sn13 Pb14 I81'
_cell_volume   6834.14475765
_cell_formula_units_Z   1
loop_
 _symmetry_equiv_pos_site_id
 _symmetry_equiv_pos_as_xyz
  1  'x, y, z'
loop_
 _atom_site_type_symbol
 _atom_site_label
 _atom_site_symmetry_multiplicity
 _atom_site_fract_x
 _atom_site_fract_y
 _atom_site_fract_z
 _atom_site_occupancy
  Cs  Cs0  1  0.00319459  0.00317836  -0.00066918  1
  Cs  Cs1  1  0.00081094  -0.00079624  0.33110376  1
  Cs  Cs2  1  -0.00226484  0.00175829  0.66989916  1
  Cs  Cs3  1  0.00071055  0.32946434  -0.00375981  1
  Cs  Cs4  1  0.00041639  0.33408352  0.33533291  1
  Cs  Cs5  1  -0.00228707  0.33484879  0.66871345  1
  Cs  Cs6  1  0.00071498  0.66739341  -0.00086121  1
  Cs  Cs7  1  0.00636351  0.66632780  0.34079227  1
  Cs  Cs8  1  -0.00471105  0.66447143  0.66061859  1
  Cs  Cs9  1  0.33063486  0.00009398  -0.00072159  1
  Cs  Cs10  1  0.33205351  -0.00059702  0.33419003  1
  Cs  Cs11  1  0.33631280  -0.00117558  0.66607362  1
  Cs  Cs12  1  0.33292779  0.33566384  -0.00103886  1
  Cs  Cs13  1  0.33530207  0.33491263  0.33358429  1
  Cs  Cs14  1  0.33519097  0.33295087  0.66746925  1
  Cs  Cs15  1  0.33246362  0.66374592  -0.00118790  1
  Cs  Cs16  1  0.32424403  0.66447566  0.33390510  1
  Cs  Cs17  1  0.33313172  0.66868605  0.66917511  1
  Cs  Cs18  1  0.66715261  -0.00184376  0.00245615  1
  Cs  Cs19  1  0.66668384  0.00246782  0.33174642  1
  Cs  Cs20  1  0.66492896  -0.00601145  0.66738900  1
  Cs  Cs21  1  0.66596117  0.33460472  0.00147102  1
  Cs  Cs22  1  0.66508501  0.33097626  0.33250454  1
  Cs  Cs23  1  0.66488192  0.33338843  0.66569474  1
  Cs  Cs24  1  0.66707192  0.66833734  0.00157701  1
  Cs  Cs25  1  0.66821636  0.66804429  0.32983382  1
  Cs  Cs26  1  0.67198692  0.67364104  0.66665462  1
  Sn  Sn27  1  0.83259769  0.16686402  0.16738090  1
  Sn  Sn28  1  0.49999436  0.49964328  0.83213771  1
  Sn  Sn29  1  0.50019358  0.16712735  0.83356230  1
  Sn  Sn30  1  0.83375161  0.49974411  0.16675100  1
  Sn  Sn31  1  0.16681856  0.16676359  0.50002061  1
  Sn  Sn32  1  0.50040419  0.50009128  0.50085388  1
  Sn  Sn33  1  0.16669779  0.83235450  0.83308060  1
  Sn  Sn34  1  0.50024225  0.16719837  0.50005006  1
  Sn  Sn35  1  0.49973854  0.83386556  0.16697171  1
  Sn  Sn36  1  0.83313657  0.83343295  0.16678690  1
  Sn  Sn37  1  0.16704869  0.50087570  0.83309247  1
  Sn  Sn38  1  0.50025510  0.16588759  0.16642579  1
  Sn  Sn39  1  0.83297929  0.16672427  0.49944586  1
  Pb  Pb40  1  0.16668904  0.83337433  0.16504746  1
  Pb  Pb41  1  0.16896237  0.49780114  0.50263510  1
  Pb  Pb42  1  0.83599286  0.83339935  0.83578749  1
  Pb  Pb43  1  0.83249146  0.49994666  0.83502733  1
  Pb  Pb44  1  0.16916511  0.16708752  0.83102682  1
  Pb  Pb45  1  0.16347521  0.49969076  0.16435892  1
  Pb  Pb46  1  0.50101285  0.50001019  0.16671187  1
  Pb  Pb47  1  0.83055970  0.49786648  0.49780878  1
  Pb  Pb48  1  0.83020544  0.16663458  0.83343233  1
  Pb  Pb49  1  0.16698591  0.16691164  0.16880393  1
  Pb  Pb50  1  0.49886564  0.83290640  0.83561038  1
  Pb  Pb51  1  0.16670345  0.83578391  0.50288166  1
  Pb  Pb52  1  0.83323458  0.83607539  0.49727511  1
  Pb  Pb53  1  0.49986871  0.83296804  0.49714309  1
  I  I54  1  0.16345736  0.00024047  0.16328592  1
  I  I55  1  0.17027418  0.00402357  0.50112069  1
  I  I56  1  0.16775624  -0.00157289  0.83312647  1
  I  I57  1  0.16724422  0.33318294  0.16361956  1
  I  I58  1  0.16533319  0.32983402  0.50141321  1
  I  I59  1  0.16938965  0.33580102  0.83274362  1
  I  I60  1  0.16796254  0.66657596  0.16801975  1
  I  I61  1  0.16841776  0.66632141  0.49828687  1
  I  I62  1  0.17431517  0.66569143  0.83594901  1
  I  I63  1  0.50739205  0.00183866  0.16635806  1
  I  I64  1  0.50042501  0.00381211  0.50259444  1
  I  I65  1  0.49855298  0.00283791  0.83100513  1
  I  I66  1  0.50441223  0.33026061  0.16691423  1
  I  I67  1  0.49982560  0.33138020  0.49850205  1
  I  I68  1  0.49453008  0.33296636  0.83513056  1
  I  I69  1  0.50571896  0.66879338  0.16525806  1
  I  I70  1  0.49964157  0.66352757  0.50393381  1
  I  I71  1  0.49724642  0.66361084  0.83126222  1
  I  I72  1  0.82823580  0.00105807  0.17059797  1
  I  I73  1  0.82972030  0.00464368  0.49515496  1
  I  I74  1  0.83457298  0.00025966  0.83495833  1
  I  I75  1  0.82813943  0.33172568  0.16990296  1
  I  I76  1  0.83441339  0.32955900  0.49364908  1
  I  I77  1  0.83851868  0.33312066  0.83742057  1
  I  I78  1  0.82685583  0.66719950  0.16281770  1
  I  I79  1  0.83238675  0.66646699  0.49833878  1
  I  I80  1  0.82861775  0.66662383  0.83688831  1
  I  I81  1  0.16645333  0.16642557  -0.00046754  1
  I  I82  1  0.17120956  0.16660564  0.33673083  1
  I  I83  1  0.16635516  0.16651138  0.66325292  1
  I  I84  1  0.17456935  0.50168857  -0.00366134  1
  I  I85  1  0.16787937  0.49962886  0.33385329  1
  I  I86  1  0.16839256  0.50296608  0.67047957  1
  I  I87  1  0.16703337  0.83118950  -0.00286373  1
  I  I88  1  0.16647592  0.83427385  0.33344869  1
  I  I89  1  0.16970123  0.82967495  0.67059160  1
  I  I90  1  0.50424745  0.16714983  0.00063584  1
  I  I91  1  0.50115967  0.16718725  0.33350570  1
  I  I92  1  0.49923423  0.17183096  0.66610572  1
  I  I93  1  0.49750091  0.49625201  -0.00254756  1
  I  I94  1  0.50308004  0.49498102  0.33555882  1
  I  I95  1  0.49553127  0.48935095  0.66715563  1
  I  I96  1  0.50381177  0.83790734  0.00347051  1
  I  I97  1  0.50471678  0.83840915  0.32910696  1
  I  I98  1  0.49793586  0.83669948  0.66681178  1
  I  I99  1  0.82905830  0.16627696  0.00365325  1
  I  I100  1  0.82814481  0.16659450  0.33238161  1
  I  I101  1  0.83332152  0.16793814  0.66352328  1
  I  I102  1  0.83064190  0.49648327  0.00343618  1
  I  I103  1  0.83008943  0.50109091  0.32972151  1
  I  I104  1  0.83529828  0.49774790  0.66636627  1
  I  I105  1  0.82865460  0.83693860  0.00422570  1
  I  I106  1  0.82883989  0.83215287  0.32893957  1
  I  I107  1  0.83419314  0.83468732  0.66651989  1
  I  I108  1  -0.00354012  0.16539317  0.17049500  1
  I  I109  1  -0.00082385  0.16505641  0.49442014  1
  I  I110  1  0.00009972  0.16677128  0.83349883  1
  I  I111  1  -0.00465612  0.49877875  0.16539623  1
  I  I112  1  -0.00011240  0.49783811  0.50024926  1
  I  I113  1  0.00265256  0.50344201  0.83673448  1
  I  I114  1  -0.00331986  0.83609766  0.16440783  1
  I  I115  1  -0.00004788  0.83502543  0.49764052  1
  I  I116  1  0.00386011  0.82868596  0.83540903  1
  I  I117  1  0.33710169  0.16214173  0.16731869  1
  I  I118  1  0.33514275  0.16982190  0.50022044  1
  I  I119  1  0.33733231  0.16776455  0.83429396  1
  I  I120  1  0.33350102  0.50012599  0.16812227  1
  I  I121  1  0.33696282  0.49292542  0.49864638  1
  I  I122  1  0.33464340  0.49916836  0.83133736  1
  I  I123  1  0.33631089  0.83951309  0.16549070  1
  I  I124  1  0.33347066  0.83715352  0.49612141  1
  I  I125  1  0.33112359  0.83288993  0.83675973  1
  I  I126  1  0.66617227  0.16606667  0.17057236  1
  I  I127  1  0.66563915  0.17103434  0.49754990  1
  I  I128  1  0.66201449  0.17265451  0.83058954  1
  I  I129  1  0.66898552  0.49899591  0.16466272  1
  I  I130  1  0.66266701  0.49272571  0.50610899  1
  I  I131  1  0.66296650  0.49377118  0.83154251  1
  I  I132  1  0.66669886  0.83524860  0.16546664  1
  I  I133  1  0.66645824  0.83476001  0.50373199  1
  I  I134  1  0.66656221  0.83360456  0.83296946  1
