# generated using pymatgen
data_Cs27Sn13Pb14I81
_symmetry_space_group_name_H-M   'P 1'
_cell_length_a   18.97539984
_cell_length_b   18.97435729
_cell_length_c   18.98015185
_cell_angle_alpha   90.00154641
_cell_angle_beta   90.00070976
_cell_angle_gamma   90.00173109
_symmetry_Int_Tables_number   1
_chemical_formula_structural   Cs27Sn13Pb14I81
_chemical_formula_sum   'Cs27 Sn13 Pb14 I81'
_cell_volume   6833.72805457
_cell_formula_units_Z   1
loop_
 _symmetry_equiv_pos_site_id
 _symmetry_equiv_pos_as_xyz
  1  'x, y, z'
loop_
 _atom_site_type_symbol
 _atom_site_label
 _atom_site_symmetry_multiplicity
 _atom_site_fract_x
 _atom_site_fract_y
 _atom_site_fract_z
 _atom_site_occupancy
  Cs  Cs0  1  0.00258420  0.00108175  0.00013477  1
  Cs  Cs1  1  -0.00109895  -0.00097483  0.33302853  1
  Cs  Cs2  1  -0.00036998  -0.00040132  0.66645881  1
  Cs  Cs3  1  -0.00384146  0.32728259  -0.00428620  1
  Cs  Cs4  1  0.00124026  0.33432832  0.33712014  1
  Cs  Cs5  1  0.00029289  0.33500491  0.66582252  1
  Cs  Cs6  1  0.00692858  0.66865862  0.00105839  1
  Cs  Cs7  1  -0.00202612  0.66725190  0.33270316  1
  Cs  Cs8  1  0.00062101  0.66665022  0.66710775  1
  Cs  Cs9  1  0.32997524  -0.00090574  -0.00254681  1
  Cs  Cs10  1  0.33714088  0.00302886  0.33673094  1
  Cs  Cs11  1  0.33629369  0.00209366  0.66718931  1
  Cs  Cs12  1  0.33734827  0.33776651  0.00238601  1
  Cs  Cs13  1  0.33239966  0.33255885  0.33258881  1
  Cs  Cs14  1  0.32873805  0.33192930  0.66486986  1
  Cs  Cs15  1  0.32779817  0.66167258  0.00149443  1
  Cs  Cs16  1  0.33154825  0.66420285  0.32991796  1
  Cs  Cs17  1  0.33222196  0.66527205  0.66890361  1
  Cs  Cs18  1  0.66716678  0.00128621  0.00006067  1
  Cs  Cs19  1  0.66485110  -0.00064902  0.33267300  1
  Cs  Cs20  1  0.66410976  -0.00219349  0.66675626  1
  Cs  Cs21  1  0.66489138  0.33299024  0.00000723  1
  Cs  Cs22  1  0.66571974  0.33390404  0.32997877  1
  Cs  Cs23  1  0.67025108  0.33857877  0.67006862  1
  Cs  Cs24  1  0.66557510  0.66671740  0.00049366  1
  Cs  Cs25  1  0.66872308  0.66816264  0.33578616  1
  Cs  Cs26  1  0.66668030  0.66778249  0.66466369  1
  Sn  Sn27  1  0.83281524  0.83332876  0.83368407  1
  Sn  Sn28  1  0.50041209  0.83341489  0.16556801  1
  Sn  Sn29  1  0.83267415  0.83269204  0.16632555  1
  Sn  Sn30  1  0.83354993  0.50060215  0.16696692  1
  Sn  Sn31  1  0.16765918  0.16638850  0.83409578  1
  Sn  Sn32  1  0.50057047  0.49994742  0.50003413  1
  Sn  Sn33  1  0.16636884  0.83344199  0.49991523  1
  Sn  Sn34  1  0.83226781  0.50016020  0.49907127  1
  Sn  Sn35  1  0.49953568  0.16630646  0.83329763  1
  Sn  Sn36  1  0.83278428  0.16646688  0.49996486  1
  Sn  Sn37  1  0.16670397  0.16659012  0.16630434  1
  Sn  Sn38  1  0.50064043  0.83366310  0.83468055  1
  Sn  Sn39  1  0.83411834  0.83351493  0.50002759  1
  Pb  Pb40  1  0.16711609  0.83475942  0.83143125  1
  Pb  Pb41  1  0.83458651  0.16638760  0.16861159  1
  Pb  Pb42  1  0.50265554  0.16932479  0.50236490  1
  Pb  Pb43  1  0.16657686  0.49651933  0.83349021  1
  Pb  Pb44  1  0.50223195  0.50252637  0.16869068  1
  Pb  Pb45  1  0.16490089  0.16475305  0.50022008  1
  Pb  Pb46  1  0.16674289  0.83492335  0.16866761  1
  Pb  Pb47  1  0.49803882  0.16444490  0.16453056  1
  Pb  Pb48  1  0.83296918  0.16434434  0.83130311  1
  Pb  Pb49  1  0.83342158  0.50321172  0.83374377  1
  Pb  Pb50  1  0.16328935  0.49696347  0.16669713  1
  Pb  Pb51  1  0.16609309  0.50254604  0.49988086  1
  Pb  Pb52  1  0.50010305  0.50057206  0.83140644  1
  Pb  Pb53  1  0.50013426  0.83189465  0.50013312  1
  I  I54  1  0.16324197  0.00244532  0.16345205  1
  I  I55  1  0.16002854  -0.00299745  0.49985936  1
  I  I56  1  0.16700011  0.00260694  0.83568496  1
  I  I57  1  0.16563254  0.32928942  0.16361995  1
  I  I58  1  0.16482228  0.33321350  0.50111217  1
  I  I59  1  0.17145502  0.32817502  0.83507615  1
  I  I60  1  0.16827661  0.66684555  0.16878625  1
  I  I61  1  0.16060657  0.67040019  0.49991906  1
  I  I62  1  0.16669315  0.66709452  0.83108778  1
  I  I63  1  0.50748220  -0.00369438  0.16777960  1
  I  I64  1  0.50073898  -0.00009234  0.49881032  1
  I  I65  1  0.50045668  -0.00115299  0.83501890  1
  I  I66  1  0.50069777  0.33341609  0.16598977  1
  I  I67  1  0.50570315  0.33687108  0.50134755  1
  I  I68  1  0.49532023  0.33045753  0.83040536  1
  I  I69  1  0.50087794  0.67072184  0.16098478  1
  I  I70  1  0.50659130  0.66439595  0.50150603  1
  I  I71  1  0.50595542  0.67031329  0.83439061  1
  I  I72  1  0.83147901  -0.00344720  0.16846232  1
  I  I73  1  0.83866047  -0.00160680  0.50017364  1
  I  I74  1  0.83246961  -0.00388762  0.83285588  1
  I  I75  1  0.83640302  0.33579827  0.17298081  1
  I  I76  1  0.82952105  0.33419748  0.49591423  1
  I  I77  1  0.83409308  0.33316825  0.83207515  1
  I  I78  1  0.82969256  0.66829392  0.17250727  1
  I  I79  1  0.83301050  0.66757942  0.49943981  1
  I  I80  1  0.82691349  0.67148617  0.82779361  1
  I  I81  1  0.16774935  0.16364007  -0.00074704  1
  I  I82  1  0.16309873  0.16463250  0.33148724  1
  I  I83  1  0.16954930  0.16436046  0.66918275  1
  I  I84  1  0.16567044  0.50493857  0.00032877  1
  I  I85  1  0.16902454  0.49693395  0.33339778  1
  I  I86  1  0.16442554  0.49860593  0.66630768  1
  I  I87  1  0.16348854  0.83399678  -0.00002715  1
  I  I88  1  0.16154906  0.83600634  0.33632290  1
  I  I89  1  0.16130264  0.83542299  0.66370295  1
  I  I90  1  0.50064459  0.16512708  -0.00359220  1
  I  I91  1  0.49834038  0.16533063  0.33342565  1
  I  I92  1  0.49349451  0.15803033  0.67003418  1
  I  I93  1  0.50172741  0.49808721  0.00017613  1
  I  I94  1  0.50324981  0.50230831  0.33655180  1
  I  I95  1  0.50810492  0.50290345  0.66353385  1
  I  I96  1  0.50905945  0.83752628  -0.00050975  1
  I  I97  1  0.50340125  0.83134499  0.33124199  1
  I  I98  1  0.50325661  0.83578345  0.66923217  1
  I  I99  1  0.83321046  0.16714874  -0.00015931  1
  I  I100  1  0.83634940  0.16218750  0.33656028  1
  I  I101  1  0.83544665  0.16671376  0.66335591  1
  I  I102  1  0.83412979  0.50386099  0.00327964  1
  I  I103  1  0.82994291  0.50521116  0.33459125  1
  I  I104  1  0.83014968  0.50055731  0.66335938  1
  I  I105  1  0.82837778  0.82968117  0.00049374  1
  I  I106  1  0.83359122  0.83263571  0.33372753  1
  I  I107  1  0.83327629  0.83411968  0.66588688  1
  I  I108  1  0.00234743  0.16423906  0.16030984  1
  I  I109  1  -0.00324375  0.16982448  0.50207891  1
  I  I110  1  0.00199875  0.16497981  0.83563829  1
  I  I111  1  -0.00457180  0.50873204  0.17524208  1
  I  I112  1  -0.00389031  0.49870927  0.49650756  1
  I  I113  1  -0.00038808  0.49996863  0.83001619  1
  I  I114  1  -0.00339420  0.83093662  0.16560916  1
  I  I115  1  -0.00284948  0.83204255  0.50023908  1
  I  I116  1  -0.00281402  0.83448403  0.83415416  1
  I  I117  1  0.33017362  0.16365470  0.16715149  1
  I  I118  1  0.33345437  0.16609635  0.49882447  1
  I  I119  1  0.33365011  0.15919423  0.83526626  1
  I  I120  1  0.33340927  0.50113805  0.16869690  1
  I  I121  1  0.33581273  0.50279755  0.50198266  1
  I  I122  1  0.33355212  0.50559069  0.83018249  1
  I  I123  1  0.33597006  0.83596406  0.16426105  1
  I  I124  1  0.33148199  0.83241891  0.50017420  1
  I  I125  1  0.33638286  0.83586553  0.83480838  1
  I  I126  1  0.66672558  0.16792985  0.16633677  1
  I  I127  1  0.67058245  0.15966140  0.50053893  1
  I  I128  1  0.66419379  0.16357910  0.83025171  1
  I  I129  1  0.67037147  0.50080066  0.16961810  1
  I  I130  1  0.66890022  0.50310914  0.49772759  1
  I  I131  1  0.66690292  0.49431779  0.83381280  1
  I  I132  1  0.66818944  0.83108095  0.16866760  1
  I  I133  1  0.66995365  0.83409318  0.50030400  1
  I  I134  1  0.66694093  0.83903620  0.83114366  1
