# generated using pymatgen
data_Cs27Sn13Pb14I81
_symmetry_space_group_name_H-M   'P 1'
_cell_length_a   18.97103650
_cell_length_b   18.98042811
_cell_length_c   18.98045635
_cell_angle_alpha   89.99942196
_cell_angle_beta   90.00063528
_cell_angle_gamma   89.99999708
_symmetry_Int_Tables_number   1
_chemical_formula_structural   Cs27Sn13Pb14I81
_chemical_formula_sum   'Cs27 Sn13 Pb14 I81'
_cell_volume   6834.45224971
_cell_formula_units_Z   1
loop_
 _symmetry_equiv_pos_site_id
 _symmetry_equiv_pos_as_xyz
  1  'x, y, z'
loop_
 _atom_site_type_symbol
 _atom_site_label
 _atom_site_symmetry_multiplicity
 _atom_site_fract_x
 _atom_site_fract_y
 _atom_site_fract_z
 _atom_site_occupancy
  Cs  Cs0  1  -0.00227186  -0.00011666  0.00180393  1
  Cs  Cs1  1  0.00085272  0.00000119  0.33221669  1
  Cs  Cs2  1  0.00038625  0.00096476  0.66510469  1
  Cs  Cs3  1  -0.00344351  0.33244999  -0.00562537  1
  Cs  Cs4  1  -0.00084223  0.33049027  0.33478591  1
  Cs  Cs5  1  -0.00449559  0.33709409  0.66986828  1
  Cs  Cs6  1  0.00402071  0.66757551  -0.00125991  1
  Cs  Cs7  1  -0.00081612  0.66855084  0.33365651  1
  Cs  Cs8  1  -0.00229360  0.66185349  0.66722091  1
  Cs  Cs9  1  0.33352282  -0.00010363  -0.00137381  1
  Cs  Cs10  1  0.33224328  0.00195226  0.33420876  1
  Cs  Cs11  1  0.33582940  0.00002526  0.66754476  1
  Cs  Cs12  1  0.33510579  0.33414652  0.00024822  1
  Cs  Cs13  1  0.33391625  0.33417716  0.33353917  1
  Cs  Cs14  1  0.33344837  0.33189459  0.66587680  1
  Cs  Cs15  1  0.32788260  0.66651683  -0.00007874  1
  Cs  Cs16  1  0.33111312  0.66118526  0.33035885  1
  Cs  Cs17  1  0.33428246  0.66797670  0.66932952  1
  Cs  Cs18  1  0.66784770  -0.00152605  0.00098332  1
  Cs  Cs19  1  0.66748879  -0.00003865  0.33655346  1
  Cs  Cs20  1  0.66393428  -0.00356282  0.65839803  1
  Cs  Cs21  1  0.66580852  0.33286972  -0.00038648  1
  Cs  Cs22  1  0.66704738  0.33222967  0.33347620  1
  Cs  Cs23  1  0.67030979  0.33390684  0.66691025  1
  Cs  Cs24  1  0.66565910  0.66955509  0.00337608  1
  Cs  Cs25  1  0.66920399  0.66720470  0.33076269  1
  Cs  Cs26  1  0.66754685  0.66891926  0.66470887  1
  Sn  Sn27  1  0.49922271  0.16562384  0.16602576  1
  Sn  Sn28  1  0.49954720  0.49999283  0.50097258  1
  Sn  Sn29  1  0.49989285  0.49970762  0.83269358  1
  Sn  Sn30  1  0.16712459  0.83307848  0.50012659  1
  Sn  Sn31  1  0.83278382  0.83243948  0.16573831  1
  Sn  Sn32  1  0.16751479  0.16681571  0.16619556  1
  Sn  Sn33  1  0.16712988  0.16690566  0.50035755  1
  Sn  Sn34  1  0.49958623  0.16719310  0.83384499  1
  Sn  Sn35  1  0.83315109  0.83355135  0.83376837  1
  Sn  Sn36  1  0.16750097  0.49986802  0.50011163  1
  Sn  Sn37  1  0.16733195  0.16667930  0.83343729  1
  Sn  Sn38  1  0.83357145  0.50050347  0.16629309  1
  Sn  Sn39  1  0.49994582  0.83410478  0.16664040  1
  Pb  Pb40  1  0.83614154  0.16672890  0.50025569  1
  Pb  Pb41  1  0.16666483  0.83523875  0.16807054  1
  Pb  Pb42  1  0.49830590  0.16843193  0.50003578  1
  Pb  Pb43  1  0.49752711  0.83059480  0.49700788  1
  Pb  Pb44  1  0.83212766  0.16428441  0.83327154  1
  Pb  Pb45  1  0.83549540  0.83326974  0.49946336  1
  Pb  Pb46  1  0.16875730  0.49778624  0.83124051  1
  Pb  Pb47  1  0.16465274  0.83566825  0.83108565  1
  Pb  Pb48  1  0.50111241  0.49963027  0.16649120  1
  Pb  Pb49  1  0.83307885  0.50003905  0.49794270  1
  Pb  Pb50  1  0.83270761  0.16614411  0.16657065  1
  Pb  Pb51  1  0.83046664  0.50230366  0.83569092  1
  Pb  Pb52  1  0.50137631  0.83368470  0.83520748  1
  Pb  Pb53  1  0.16410981  0.49706370  0.16835263  1
  I  I54  1  0.16579238  0.00349187  0.16984546  1
  I  I55  1  0.16441394  0.00115075  0.49909678  1
  I  I56  1  0.17288330  0.00396199  0.83102281  1
  I  I57  1  0.17219272  0.32902848  0.16939197  1
  I  I58  1  0.17118964  0.33292751  0.49845785  1
  I  I59  1  0.16697556  0.32941783  0.83228169  1
  I  I60  1  0.16873612  0.66659076  0.16972125  1
  I  I61  1  0.16995529  0.66599097  0.49813881  1
  I  I62  1  0.16731068  0.66657873  0.83144996  1
  I  I63  1  0.50163022  0.00096657  0.16144719  1
  I  I64  1  0.49887228  -0.00006478  0.50208846  1
  I  I65  1  0.49660223  0.00311042  0.83637666  1
  I  I66  1  0.49740599  0.33050155  0.16629445  1
  I  I67  1  0.49393222  0.33621688  0.49780964  1
  I  I68  1  0.49581735  0.33228794  0.83604350  1
  I  I69  1  0.50393114  0.66872581  0.16788103  1
  I  I70  1  0.49405860  0.66292534  0.50465225  1
  I  I71  1  0.50292204  0.66429708  0.83032228  1
  I  I72  1  0.83298499  -0.00295381  0.16311609  1
  I  I73  1  0.83461480  -0.00027652  0.49777779  1
  I  I74  1  0.83346095  -0.00316239  0.84173823  1
  I  I75  1  0.83335311  0.33529563  0.16909735  1
  I  I76  1  0.83548236  0.33364393  0.49701659  1
  I  I77  1  0.83559045  0.33341519  0.83449281  1
  I  I78  1  0.82665547  0.66800830  0.16469116  1
  I  I79  1  0.83696539  0.66668559  0.50085582  1
  I  I80  1  0.83248043  0.66989359  0.83532200  1
  I  I81  1  0.17072646  0.16557775  0.00008005  1
  I  I82  1  0.16981114  0.16653033  0.33339663  1
  I  I83  1  0.17054198  0.16583799  0.66662537  1
  I  I84  1  0.16748010  0.49901891  -0.00012210  1
  I  I85  1  0.17312430  0.49753414  0.33664687  1
  I  I86  1  0.16696885  0.49805851  0.66293751  1
  I  I87  1  0.16753412  0.83512273  0.00002207  1
  I  I88  1  0.16513960  0.83620633  0.33610474  1
  I  I89  1  0.16505210  0.83555679  0.66310161  1
  I  I90  1  0.49194798  0.16894013  0.00020164  1
  I  I91  1  0.49644956  0.16490128  0.33052380  1
  I  I92  1  0.49572369  0.16873653  0.66944771  1
  I  I93  1  0.50339672  0.49766287  -0.00214966  1
  I  I94  1  0.49681308  0.50006156  0.33540390  1
  I  I95  1  0.49570481  0.49430942  0.66681818  1
  I  I96  1  0.50147976  0.83290066  0.00328664  1
  I  I97  1  0.50656669  0.83889888  0.32928205  1
  I  I98  1  0.50196665  0.83560407  0.66650892  1
  I  I99  1  0.83947864  0.16848902  0.00007864  1
  I  I100  1  0.83341080  0.16507610  0.33300402  1
  I  I101  1  0.83344409  0.16446971  0.66700805  1
  I  I102  1  0.83143458  0.50094346  0.00331997  1
  I  I103  1  0.83118848  0.50630239  0.33022054  1
  I  I104  1  0.83521469  0.50142079  0.66692027  1
  I  I105  1  0.82988856  0.83041024  0.00158899  1
  I  I106  1  0.83077812  0.82990572  0.32995911  1
  I  I107  1  0.83490297  0.83515100  0.66902845  1
  I  I108  1  0.00290243  0.16678464  0.16828301  1
  I  I109  1  0.00548346  0.16900953  0.49848261  1
  I  I110  1  0.00297538  0.16470303  0.83319102  1
  I  I111  1  -0.00337870  0.50586710  0.16890830  1
  I  I112  1  0.00323527  0.49880612  0.49751324  1
  I  I113  1  -0.00005634  0.49869010  0.83225173  1
  I  I114  1  -0.00261269  0.83133664  0.16529554  1
  I  I115  1  0.00360712  0.83295552  0.49750304  1
  I  I116  1  -0.00307468  0.83478302  0.84067915  1
  I  I117  1  0.33378426  0.16161558  0.16678019  1
  I  I118  1  0.32981749  0.16512073  0.49910099  1
  I  I119  1  0.33345665  0.16940899  0.83402847  1
  I  I120  1  0.33328108  0.50254258  0.16623454  1
  I  I121  1  0.33275763  0.49913970  0.50158702  1
  I  I122  1  0.33679963  0.49962135  0.83389050  1
  I  I123  1  0.33581692  0.83582054  0.16869928  1
  I  I124  1  0.32974852  0.83720786  0.49900390  1
  I  I125  1  0.33338388  0.83189056  0.83405475  1
  I  I126  1  0.66326575  0.16654050  0.16118601  1
  I  I127  1  0.66604171  0.16834401  0.49928344  1
  I  I128  1  0.66275000  0.17050606  0.84048028  1
  I  I129  1  0.66891487  0.50008549  0.16883155  1
  I  I130  1  0.66353828  0.49961200  0.50242231  1
  I  I131  1  0.66270208  0.49216985  0.82699512  1
  I  I132  1  0.66672521  0.83501667  0.16331449  1
  I  I133  1  0.66634261  0.83180913  0.50118076  1
  I  I134  1  0.66929931  0.83480586  0.83604510  1
