# generated using pymatgen
data_Cs27Sn14Pb13I81
_symmetry_space_group_name_H-M   'P 1'
_cell_length_a   18.97758091
_cell_length_b   18.98635648
_cell_length_c   18.96560667
_cell_angle_alpha   90.00082081
_cell_angle_beta   89.99869903
_cell_angle_gamma   89.99993199
_symmetry_Int_Tables_number   1
_chemical_formula_structural   Cs27Sn14Pb13I81
_chemical_formula_sum   'Cs27 Sn14 Pb13 I81'
_cell_volume   6833.59477234
_cell_formula_units_Z   1
loop_
 _symmetry_equiv_pos_site_id
 _symmetry_equiv_pos_as_xyz
  1  'x, y, z'
loop_
 _atom_site_type_symbol
 _atom_site_label
 _atom_site_symmetry_multiplicity
 _atom_site_fract_x
 _atom_site_fract_y
 _atom_site_fract_z
 _atom_site_occupancy
  Cs  Cs0  1  0.00161639  -0.00476561  0.00638172  1
  Cs  Cs1  1  -0.00209401  -0.00119070  0.33172682  1
  Cs  Cs2  1  -0.00162077  0.00180573  0.66472767  1
  Cs  Cs3  1  0.00337071  0.33943898  0.00237557  1
  Cs  Cs4  1  -0.00216631  0.33368094  0.33065152  1
  Cs  Cs5  1  -0.00073077  0.33238147  0.66635748  1
  Cs  Cs6  1  0.00630050  0.66619698  0.00736875  1
  Cs  Cs7  1  -0.00070413  0.66744992  0.33047540  1
  Cs  Cs8  1  -0.00024150  0.66608806  0.66650176  1
  Cs  Cs9  1  0.33273380  -0.00127854  0.00205803  1
  Cs  Cs10  1  0.33261695  0.00315185  0.33235571  1
  Cs  Cs11  1  0.33315343  -0.00034626  0.66697299  1
  Cs  Cs12  1  0.33448400  0.33289930  0.00158237  1
  Cs  Cs13  1  0.33439733  0.33116052  0.33392298  1
  Cs  Cs14  1  0.33236657  0.33291718  0.66607166  1
  Cs  Cs15  1  0.32790626  0.66845457  -0.00172819  1
  Cs  Cs16  1  0.33865343  0.66634206  0.33826694  1
  Cs  Cs17  1  0.33382594  0.67027402  0.66531717  1
  Cs  Cs18  1  0.66516302  -0.00008980  -0.00061675  1
  Cs  Cs19  1  0.66968977  0.00390225  0.32884031  1
  Cs  Cs20  1  0.66837979  -0.00011696  0.66799996  1
  Cs  Cs21  1  0.66457855  0.33486109  -0.00270422  1
  Cs  Cs22  1  0.66742714  0.33116822  0.33044337  1
  Cs  Cs23  1  0.66820572  0.33350471  0.66853891  1
  Cs  Cs24  1  0.66711132  0.66521686  0.00125345  1
  Cs  Cs25  1  0.66405170  0.66599019  0.33277743  1
  Cs  Cs26  1  0.66579776  0.66670852  0.66599815  1
  Sn  Sn27  1  0.83357540  0.83271902  0.83289875  1
  Sn  Sn28  1  0.49998023  0.50105291  0.16540007  1
  Sn  Sn29  1  0.16564296  0.49982493  0.50050970  1
  Sn  Sn30  1  0.83309032  0.50059003  0.83257205  1
  Sn  Sn31  1  0.83389942  0.16680954  0.83314421  1
  Sn  Sn32  1  0.49975784  0.16668999  0.50118887  1
  Sn  Sn33  1  0.50016394  0.49981772  0.83373064  1
  Sn  Sn34  1  0.49964331  0.16732069  0.83217891  1
  Sn  Sn35  1  0.83391325  0.83236440  0.50087635  1
  Sn  Sn36  1  0.16588466  0.83346438  0.50045714  1
  Sn  Sn37  1  0.16659768  0.16664957  0.83276296  1
  Sn  Sn38  1  0.16721304  0.16674303  0.50086433  1
  Sn  Sn39  1  0.83409086  0.50078573  0.50080390  1
  Sn  Sn40  1  0.50003602  0.83235534  0.16643870  1
  Pb  Pb41  1  0.16675998  0.49836671  0.83132213  1
  Pb  Pb42  1  0.50065648  0.49801876  0.50079889  1
  Pb  Pb43  1  0.50094369  0.83625938  0.49846427  1
  Pb  Pb44  1  0.83133377  0.50006265  0.16661731  1
  Pb  Pb45  1  0.83145888  0.83307148  0.16695831  1
  Pb  Pb46  1  0.83360572  0.16686245  0.50124129  1
  Pb  Pb47  1  0.16988486  0.50001405  0.17012553  1
  Pb  Pb48  1  0.50180107  0.83316942  0.83475173  1
  Pb  Pb49  1  0.50000803  0.16707155  0.16598867  1
  Pb  Pb50  1  0.16383123  0.83579822  0.83114615  1
  Pb  Pb51  1  0.83345586  0.16694313  0.16228853  1
  Pb  Pb52  1  0.16941258  0.83317292  0.17003427  1
  Pb  Pb53  1  0.16650421  0.16682325  0.16683898  1
  I  I54  1  0.17010856  -0.00011936  0.16764343  1
  I  I55  1  0.16725334  0.00053741  0.50407608  1
  I  I56  1  0.16901927  0.00402718  0.82714427  1
  I  I57  1  0.16908221  0.33352554  0.16900359  1
  I  I58  1  0.16747237  0.33282641  0.50422677  1
  I  I59  1  0.16324925  0.33015189  0.82649880  1
  I  I60  1  0.16573575  0.66660190  0.16618157  1
  I  I61  1  0.16260444  0.66659693  0.49884536  1
  I  I62  1  0.16803079  0.66675820  0.83145613  1
  I  I63  1  0.50062129  -0.00184804  0.16782203  1
  I  I64  1  0.49631642  0.00393684  0.50461597  1
  I  I65  1  0.50121245  0.00309181  0.83109900  1
  I  I66  1  0.50055512  0.33593524  0.16538368  1
  I  I67  1  0.49613546  0.33026376  0.49943052  1
  I  I68  1  0.50497344  0.33301710  0.83507120  1
  I  I69  1  0.50167807  0.66567793  0.16305450  1
  I  I70  1  0.49675960  0.66663071  0.50106412  1
  I  I71  1  0.50543040  0.66371943  0.83521095  1
  I  I72  1  0.82937318  -0.00017235  0.16814440  1
  I  I73  1  0.83512392  -0.00224942  0.50409735  1
  I  I74  1  0.83217450  0.00020332  0.82816412  1
  I  I75  1  0.82990287  0.33360243  0.17039749  1
  I  I76  1  0.83515968  0.33590895  0.50407420  1
  I  I77  1  0.83099989  0.33371065  0.82851750  1
  I  I78  1  0.83264485  0.66658418  0.16255770  1
  I  I79  1  0.84016952  0.66644352  0.50793410  1
  I  I80  1  0.82597355  0.66577290  0.82782570  1
  I  I81  1  0.16768620  0.16720103  -0.00375265  1
  I  I82  1  0.17339963  0.16658734  0.33749495  1
  I  I83  1  0.16834784  0.16687163  0.66595822  1
  I  I84  1  0.16407337  0.49769286  -0.00018542  1
  I  I85  1  0.16144220  0.49665843  0.33848306  1
  I  I86  1  0.16806569  0.50087591  0.66301470  1
  I  I87  1  0.16541133  0.83573528  -0.00015008  1
  I  I88  1  0.15932319  0.83702405  0.33826236  1
  I  I89  1  0.16764878  0.83165434  0.66287153  1
  I  I90  1  0.50087670  0.16762469  -0.00378713  1
  I  I91  1  0.49457441  0.16673011  0.33595703  1
  I  I92  1  0.49906809  0.17186614  0.66794198  1
  I  I93  1  0.50682410  0.49677139  -0.00173743  1
  I  I94  1  0.49903714  0.50188511  0.33183846  1
  I  I95  1  0.50206396  0.49623634  0.66950594  1
  I  I96  1  0.50337480  0.83478129  0.00257661  1
  I  I97  1  0.50079297  0.82761209  0.33082894  1
  I  I98  1  0.49856997  0.83142224  0.66652557  1
  I  I99  1  0.83044863  0.16644473  -0.00638347  1
  I  I100  1  0.83190536  0.16602164  0.33358208  1
  I  I101  1  0.83214931  0.16692581  0.66970798  1
  I  I102  1  0.83006977  0.49841627  -0.00374064  1
  I  I103  1  0.83602271  0.50483305  0.33687837  1
  I  I104  1  0.83039514  0.50014568  0.66728713  1
  I  I105  1  0.82995151  0.83529812  -0.00325766  1
  I  I106  1  0.83646596  0.82917484  0.33701414  1
  I  I107  1  0.83528983  0.83307672  0.66642311  1
  I  I108  1  0.00006745  0.16545186  0.16899205  1
  I  I109  1  0.00273189  0.16664767  0.50485663  1
  I  I110  1  -0.00021608  0.16671999  0.82674571  1
  I  I111  1  0.00015493  0.49945827  0.16391938  1
  I  I112  1  -0.00069982  0.49814340  0.50648465  1
  I  I113  1  -0.00306103  0.49794476  0.82974553  1
  I  I114  1  0.00007415  0.83454702  0.16470683  1
  I  I115  1  -0.00039337  0.83540417  0.50444283  1
  I  I116  1  -0.00445096  0.83252453  0.83161988  1
  I  I117  1  0.33351147  0.16631382  0.16370868  1
  I  I118  1  0.33266874  0.16694394  0.50698722  1
  I  I119  1  0.33404980  0.17186436  0.82894665  1
  I  I120  1  0.33769876  0.50290337  0.16066848  1
  I  I121  1  0.33122275  0.50135349  0.49908936  1
  I  I122  1  0.33619182  0.49421468  0.83592601  1
  I  I123  1  0.33701820  0.83008936  0.16646240  1
  I  I124  1  0.33096174  0.83129915  0.49718300  1
  I  I125  1  0.33312709  0.83370870  0.83332423  1
  I  I126  1  0.66630605  0.16583351  0.17086245  1
  I  I127  1  0.66458022  0.16692106  0.50361843  1
  I  I128  1  0.66638819  0.16755270  0.82914979  1
  I  I129  1  0.66335573  0.50275728  0.16788736  1
  I  I130  1  0.66945578  0.50372205  0.50106417  1
  I  I131  1  0.66713539  0.49479852  0.83154237  1
  I  I132  1  0.66380438  0.83025775  0.16922699  1
  I  I133  1  0.66988771  0.82925373  0.50285816  1
  I  I134  1  0.66997232  0.83804194  0.82696296  1
