# generated using pymatgen
data_Cs27Sn14Pb13I81
_symmetry_space_group_name_H-M   'P 1'
_cell_length_a   18.97412378
_cell_length_b   18.97817235
_cell_length_c   18.97323024
_cell_angle_alpha   90.00100507
_cell_angle_beta   89.99893726
_cell_angle_gamma   90.00037093
_symmetry_Int_Tables_number   1
_chemical_formula_structural   Cs27Sn14Pb13I81
_chemical_formula_sum   'Cs27 Sn14 Pb13 I81'
_cell_volume   6832.14999900
_cell_formula_units_Z   1
loop_
 _symmetry_equiv_pos_site_id
 _symmetry_equiv_pos_as_xyz
  1  'x, y, z'
loop_
 _atom_site_type_symbol
 _atom_site_label
 _atom_site_symmetry_multiplicity
 _atom_site_fract_x
 _atom_site_fract_y
 _atom_site_fract_z
 _atom_site_occupancy
  Cs  Cs0  1  -0.00228423  -0.00398571  0.00038683  1
  Cs  Cs1  1  0.00331622  -0.00046772  0.33441804  1
  Cs  Cs2  1  0.00149061  0.00560407  0.66519015  1
  Cs  Cs3  1  0.00907660  0.33370428  -0.00119395  1
  Cs  Cs4  1  0.00299833  0.33199459  0.33664395  1
  Cs  Cs5  1  -0.00219514  0.32344913  0.66353837  1
  Cs  Cs6  1  -0.00079275  0.66827721  0.00023465  1
  Cs  Cs7  1  -0.00202951  0.66618629  0.33305384  1
  Cs  Cs8  1  -0.00240958  0.66724762  0.66701002  1
  Cs  Cs9  1  0.33330504  0.00105901  -0.00063146  1
  Cs  Cs10  1  0.33323025  0.00069510  0.33627162  1
  Cs  Cs11  1  0.33499805  -0.00200204  0.66271443  1
  Cs  Cs12  1  0.32464750  0.33607210  -0.00716802  1
  Cs  Cs13  1  0.33547482  0.33433308  0.33166416  1
  Cs  Cs14  1  0.33339543  0.33613525  0.67535751  1
  Cs  Cs15  1  0.33079042  0.66387720  -0.00261559  1
  Cs  Cs16  1  0.33384670  0.66546473  0.33569858  1
  Cs  Cs17  1  0.33597136  0.66743787  0.66547609  1
  Cs  Cs18  1  0.66736236  0.00006476  0.00239872  1
  Cs  Cs19  1  0.66440895  0.00032302  0.32881557  1
  Cs  Cs20  1  0.66421441  0.00118820  0.67138815  1
  Cs  Cs21  1  0.66556564  0.33247016  0.00141000  1
  Cs  Cs22  1  0.66493229  0.33475376  0.33354076  1
  Cs  Cs23  1  0.66880000  0.32987778  0.66532472  1
  Cs  Cs24  1  0.66886395  0.66721554  0.00160662  1
  Cs  Cs25  1  0.66719426  0.66468879  0.33241952  1
  Cs  Cs26  1  0.66662317  0.66726933  0.66795396  1
  Sn  Sn27  1  0.49944491  0.83288630  0.16671934  1
  Sn  Sn28  1  0.16683437  0.83303449  0.16623956  1
  Sn  Sn29  1  0.50043068  0.16737697  0.16691422  1
  Sn  Sn30  1  0.16728228  0.50019418  0.50001403  1
  Sn  Sn31  1  0.83327634  0.16720980  0.16666245  1
  Sn  Sn32  1  0.83325464  0.50024246  0.83427219  1
  Sn  Sn33  1  0.16594327  0.83317549  0.83362965  1
  Sn  Sn34  1  0.50033158  0.49969846  0.16689048  1
  Sn  Sn35  1  0.83295000  0.83371675  0.50000148  1
  Sn  Sn36  1  0.83414857  0.83260940  0.83328160  1
  Sn  Sn37  1  0.83308588  0.49937838  0.16583363  1
  Sn  Sn38  1  0.49925010  0.49904512  0.49939358  1
  Sn  Sn39  1  0.50012375  0.16779510  0.49917941  1
  Sn  Sn40  1  0.83331770  0.83330289  0.16681553  1
  Pb  Pb41  1  0.16652085  0.16310037  0.83330568  1
  Pb  Pb42  1  0.50223650  0.83299079  0.49782795  1
  Pb  Pb43  1  0.83332671  0.16656776  0.83637189  1
  Pb  Pb44  1  0.83265502  0.50111629  0.49987179  1
  Pb  Pb45  1  0.50027844  0.83316694  0.83627737  1
  Pb  Pb46  1  0.50006817  0.16681864  0.83412492  1
  Pb  Pb47  1  0.16454784  0.83176556  0.50014000  1
  Pb  Pb48  1  0.16652322  0.50221921  0.16797102  1
  Pb  Pb49  1  0.83085518  0.16372076  0.49715961  1
  Pb  Pb50  1  0.16333682  0.50233889  0.83032451  1
  Pb  Pb51  1  0.16999511  0.16955191  0.49970378  1
  Pb  Pb52  1  0.50260522  0.50007555  0.83361920  1
  Pb  Pb53  1  0.16721825  0.16401828  0.16670377  1
  I  I54  1  0.16516949  -0.00447220  0.16380949  1
  I  I55  1  0.16690476  -0.00013595  0.50062523  1
  I  I56  1  0.15893437  -0.00504613  0.83779838  1
  I  I57  1  0.16549933  0.33357499  0.16854595  1
  I  I58  1  0.16421701  0.33741052  0.49783813  1
  I  I59  1  0.16604188  0.33379678  0.83252824  1
  I  I60  1  0.16546147  0.67040641  0.16417592  1
  I  I61  1  0.17386224  0.66423023  0.49866393  1
  I  I62  1  0.16394529  0.67007514  0.83888635  1
  I  I63  1  0.50392809  -0.00019901  0.16990841  1
  I  I64  1  0.50306617  0.00202469  0.49508028  1
  I  I65  1  0.50159423  -0.00023491  0.83264499  1
  I  I66  1  0.50989032  0.33390911  0.17257929  1
  I  I67  1  0.49751593  0.33422862  0.49023342  1
  I  I68  1  0.50189823  0.33360147  0.83727608  1
  I  I69  1  0.50404021  0.66636310  0.17064636  1
  I  I70  1  0.49799029  0.66384338  0.49533997  1
  I  I71  1  0.49868600  0.66670837  0.83191596  1
  I  I72  1  0.83020095  -0.00156052  0.16670284  1
  I  I73  1  0.83318231  -0.00423943  0.50016236  1
  I  I74  1  0.83690713  -0.00358601  0.83440717  1
  I  I75  1  0.82469963  0.33426721  0.16280361  1
  I  I76  1  0.83600687  0.33311258  0.50100962  1
  I  I77  1  0.83098906  0.33635388  0.83677252  1
  I  I78  1  0.83070473  0.66746824  0.16625193  1
  I  I79  1  0.83156649  0.66912786  0.49485361  1
  I  I80  1  0.83588596  0.66797359  0.83864517  1
  I  I81  1  0.16958600  0.17050366  0.00030328  1
  I  I82  1  0.16302937  0.16245049  0.33321822  1
  I  I83  1  0.16737927  0.16425185  0.66631222  1
  I  I84  1  0.16935953  0.49911422  -0.00023163  1
  I  I85  1  0.16567011  0.50404486  0.33561469  1
  I  I86  1  0.17351497  0.50387440  0.66310500  1
  I  I87  1  0.16139792  0.83250840  0.00115328  1
  I  I88  1  0.16480141  0.83234307  0.33047080  1
  I  I89  1  0.16056399  0.83124429  0.66929346  1
  I  I90  1  0.50548362  0.16496200  0.00448239  1
  I  I91  1  0.50454209  0.16687869  0.33163293  1
  I  I92  1  0.49965811  0.17113464  0.66350915  1
  I  I93  1  0.50301733  0.50065462  0.00379573  1
  I  I94  1  0.50262983  0.50033061  0.33194379  1
  I  I95  1  0.49750802  0.49577688  0.66347343  1
  I  I96  1  0.50524998  0.83363028  0.00495764  1
  I  I97  1  0.50083435  0.83322454  0.32927227  1
  I  I98  1  0.50068150  0.83412077  0.66650165  1
  I  I99  1  0.82536673  0.16077969  0.00449606  1
  I  I100  1  0.83104912  0.16691767  0.32903995  1
  I  I101  1  0.83193377  0.16628017  0.66649959  1
  I  I102  1  0.82747027  0.50610477  0.00195671  1
  I  I103  1  0.83194250  0.50278454  0.33011872  1
  I  I104  1  0.83329719  0.50784417  0.66876027  1
  I  I105  1  0.83371837  0.83296980  0.00161684  1
  I  I106  1  0.83320136  0.83213305  0.33112165  1
  I  I107  1  0.83764124  0.82654065  0.66765233  1
  I  I108  1  -0.00304614  0.16582148  0.16520913  1
  I  I109  1  -0.00018906  0.16745863  0.49941813  1
  I  I110  1  -0.00040463  0.16947842  0.83423602  1
  I  I111  1  -0.00323995  0.50158093  0.16499819  1
  I  I112  1  0.00126147  0.50552720  0.49922864  1
  I  I113  1  -0.00427746  0.50386591  0.84005117  1
  I  I114  1  -0.00166590  0.83303102  0.16593666  1
  I  I115  1  -0.00335977  0.82961606  0.49412171  1
  I  I116  1  -0.00158680  0.82890102  0.83981650  1
  I  I117  1  0.33714311  0.16535884  0.17129934  1
  I  I118  1  0.33785711  0.16423289  0.49089937  1
  I  I119  1  0.33335548  0.16561396  0.83613628  1
  I  I120  1  0.33637793  0.50080708  0.17016507  1
  I  I121  1  0.33500055  0.49860503  0.49277865  1
  I  I122  1  0.33305234  0.50093784  0.83530773  1
  I  I123  1  0.33382823  0.83342741  0.16275002  1
  I  I124  1  0.33363817  0.83494843  0.49990187  1
  I  I125  1  0.33053784  0.83408520  0.83841053  1
  I  I126  1  0.66644610  0.16177078  0.16970939  1
  I  I127  1  0.66323094  0.17429316  0.49740094  1
  I  I128  1  0.66691787  0.16306742  0.83104543  1
  I  I129  1  0.66683298  0.50464137  0.16894084  1
  I  I130  1  0.66380590  0.49796675  0.49763382  1
  I  I131  1  0.67043224  0.50856117  0.83348852  1
  I  I132  1  0.66763803  0.83345216  0.16714001  1
  I  I133  1  0.67014994  0.83028305  0.49972930  1
  I  I134  1  0.67031060  0.83021188  0.83391518  1
