# generated using pymatgen
data_Cs27Sn13Pb14I81
_symmetry_space_group_name_H-M   'P 1'
_cell_length_a   18.97503823
_cell_length_b   18.97230276
_cell_length_c   18.98176366
_cell_angle_alpha   90.00199174
_cell_angle_beta   90.00049952
_cell_angle_gamma   90.00063144
_symmetry_Int_Tables_number   1
_chemical_formula_structural   Cs27Sn13Pb14I81
_chemical_formula_sum   'Cs27 Sn13 Pb14 I81'
_cell_volume   6833.43814534
_cell_formula_units_Z   1
loop_
 _symmetry_equiv_pos_site_id
 _symmetry_equiv_pos_as_xyz
  1  'x, y, z'
loop_
 _atom_site_type_symbol
 _atom_site_label
 _atom_site_symmetry_multiplicity
 _atom_site_fract_x
 _atom_site_fract_y
 _atom_site_fract_z
 _atom_site_occupancy
  Cs  Cs0  1  -0.00267910  -0.00090399  -0.00289374  1
  Cs  Cs1  1  -0.00057005  -0.00080544  0.33728550  1
  Cs  Cs2  1  -0.00346850  -0.00078413  0.66434153  1
  Cs  Cs3  1  0.00748860  0.33695563  0.00012645  1
  Cs  Cs4  1  0.00000249  0.33375346  0.32941190  1
  Cs  Cs5  1  0.00504587  0.33171291  0.66965332  1
  Cs  Cs6  1  0.00126193  0.66428193  0.00220592  1
  Cs  Cs7  1  0.00086971  0.66722071  0.33120721  1
  Cs  Cs8  1  0.00010338  0.67032920  0.66551252  1
  Cs  Cs9  1  0.33594093  -0.00009096  0.00178206  1
  Cs  Cs10  1  0.33241235  0.00103820  0.33136471  1
  Cs  Cs11  1  0.33246366  0.00069963  0.66610255  1
  Cs  Cs12  1  0.32763471  0.32518908  -0.00066511  1
  Cs  Cs13  1  0.32640374  0.33143789  0.33534283  1
  Cs  Cs14  1  0.32454638  0.33615420  0.66634119  1
  Cs  Cs15  1  0.33542111  0.66985281  -0.00178895  1
  Cs  Cs16  1  0.33685445  0.66673262  0.33676242  1
  Cs  Cs17  1  0.33525367  0.66412949  0.66723674  1
  Cs  Cs18  1  0.66574194  0.00191721  -0.00144357  1
  Cs  Cs19  1  0.66685590  0.00100465  0.33362528  1
  Cs  Cs20  1  0.67017133  0.00098257  0.66740821  1
  Cs  Cs21  1  0.66640259  0.33282602  -0.00060193  1
  Cs  Cs22  1  0.66822663  0.33288755  0.33571522  1
  Cs  Cs23  1  0.66657491  0.33401700  0.66450427  1
  Cs  Cs24  1  0.66551163  0.66610734  0.00021977  1
  Cs  Cs25  1  0.66537882  0.66493840  0.33205850  1
  Cs  Cs26  1  0.66616688  0.66545574  0.66737200  1
  Sn  Sn27  1  0.49998684  0.49979215  0.16563574  1
  Sn  Sn28  1  0.83300041  0.83418547  0.16668440  1
  Sn  Sn29  1  0.50076860  0.50012089  0.83458915  1
  Sn  Sn30  1  0.50045705  0.16625122  0.50018776  1
  Sn  Sn31  1  0.83260332  0.50006926  0.83249725  1
  Sn  Sn32  1  0.83225703  0.16779990  0.49922594  1
  Sn  Sn33  1  0.16740425  0.83320552  0.83396557  1
  Sn  Sn34  1  0.16693363  0.83323525  0.16592915  1
  Sn  Sn35  1  0.49965948  0.83295816  0.83326461  1
  Sn  Sn36  1  0.50061656  0.83441885  0.50017436  1
  Sn  Sn37  1  0.83277596  0.16606828  0.16697037  1
  Sn  Sn38  1  0.83307612  0.49932753  0.50093180  1
  Sn  Sn39  1  0.50023912  0.83284966  0.16661546  1
  Pb  Pb40  1  0.83318493  0.16967172  0.83342718  1
  Pb  Pb41  1  0.16334582  0.16356330  0.16669611  1
  Pb  Pb42  1  0.83289612  0.83125888  0.83572858  1
  Pb  Pb43  1  0.83173425  0.49980227  0.16645863  1
  Pb  Pb44  1  0.16964872  0.83326903  0.50000907  1
  Pb  Pb45  1  0.83111165  0.83314650  0.49786260  1
  Pb  Pb46  1  0.50156382  0.16691175  0.16852216  1
  Pb  Pb47  1  0.16600818  0.16645450  0.49985686  1
  Pb  Pb48  1  0.50108195  0.49959605  0.50020247  1
  Pb  Pb49  1  0.17067542  0.50263873  0.16657875  1
  Pb  Pb50  1  0.16265492  0.50029126  0.49983815  1
  Pb  Pb51  1  0.50004204  0.16709851  0.83055059  1
  Pb  Pb52  1  0.16670634  0.16289350  0.83340716  1
  Pb  Pb53  1  0.16730612  0.50251624  0.83347074  1
  I  I54  1  0.17361706  -0.00462317  0.16299642  1
  I  I55  1  0.16226563  -0.00038409  0.50113432  1
  I  I56  1  0.17307667  -0.00525886  0.83778769  1
  I  I57  1  0.16636957  0.33326556  0.16733896  1
  I  I58  1  0.17347085  0.33326397  0.50066648  1
  I  I59  1  0.16695547  0.33358829  0.83228847  1
  I  I60  1  0.16018830  0.67103148  0.16301197  1
  I  I61  1  0.16670549  0.66715702  0.49941723  1
  I  I62  1  0.16866866  0.67040696  0.83811957  1
  I  I63  1  0.49858825  -0.00351212  0.16465214  1
  I  I64  1  0.50554658  -0.00100036  0.49928782  1
  I  I65  1  0.49602740  -0.00351113  0.83655376  1
  I  I66  1  0.50509166  0.33602405  0.16361809  1
  I  I67  1  0.50451426  0.33095864  0.49904247  1
  I  I68  1  0.50594857  0.33692539  0.83713690  1
  I  I69  1  0.50268113  0.66868078  0.16836511  1
  I  I70  1  0.50128502  0.66926412  0.49903663  1
  I  I71  1  0.50028734  0.66782849  0.83218024  1
  I  I72  1  0.83149684  -0.00093004  0.17199492  1
  I  I73  1  0.83113558  0.00242823  0.49702217  1
  I  I74  1  0.83402412  -0.00029163  0.83142227  1
  I  I75  1  0.82911785  0.33114813  0.16907610  1
  I  I76  1  0.82548571  0.33262370  0.49740614  1
  I  I77  1  0.82552531  0.33759635  0.83391702  1
  I  I78  1  0.83405562  0.66933920  0.16694682  1
  I  I79  1  0.83093727  0.66434684  0.50217980  1
  I  I80  1  0.83092527  0.66349584  0.82847734  1
  I  I81  1  0.16514977  0.16889943  0.00028772  1
  I  I82  1  0.16903661  0.16365026  0.33319693  1
  I  I83  1  0.16514132  0.16471211  0.66652138  1
  I  I84  1  0.15961168  0.49878147  0.00004506  1
  I  I85  1  0.16747735  0.50313579  0.33302739  1
  I  I86  1  0.17151430  0.50298651  0.66683867  1
  I  I87  1  0.17168160  0.83284734  0.00060230  1
  I  I88  1  0.16685104  0.83354246  0.33005265  1
  I  I89  1  0.17109581  0.83223381  0.66975844  1
  I  I90  1  0.50185852  0.16436970  0.00009761  1
  I  I91  1  0.50345641  0.16222490  0.33647121  1
  I  I92  1  0.50772739  0.16157039  0.66259162  1
  I  I93  1  0.50770242  0.51057661  -0.00050775  1
  I  I94  1  0.50296988  0.50566743  0.33121982  1
  I  I95  1  0.50315454  0.50476879  0.66931265  1
  I  I96  1  0.49941275  0.82846197  0.00043764  1
  I  I97  1  0.50061381  0.83219351  0.33229443  1
  I  I98  1  0.49564951  0.83221606  0.66736182  1
  I  I99  1  0.83254025  0.16186543  0.00295442  1
  I  I100  1  0.82872110  0.16797926  0.33393225  1
  I  I101  1  0.82912623  0.16796748  0.66338939  1
  I  I102  1  0.83026127  0.50192075  -0.00221596  1
  I  I103  1  0.83040808  0.49918046  0.33523101  1
  I  I104  1  0.82626515  0.49627886  0.66659095  1
  I  I105  1  0.82903453  0.83711830  0.00379777  1
  I  I106  1  0.83314766  0.83214925  0.32973964  1
  I  I107  1  0.83383990  0.83524188  0.66669701  1
  I  I108  1  -0.00479416  0.16330707  0.17375858  1
  I  I109  1  -0.00407095  0.17054606  0.49590759  1
  I  I110  1  -0.00032114  0.16646134  0.83124927  1
  I  I111  1  -0.00005014  0.50101504  0.16727968  1
  I  I112  1  -0.00569431  0.49463141  0.50500537  1
  I  I113  1  -0.00272197  0.50063296  0.82887672  1
  I  I114  1  -0.00037193  0.83775413  0.16238928  1
  I  I115  1  -0.00032358  0.83343433  0.49996296  1
  I  I116  1  0.00203068  0.83180776  0.83841931  1
  I  I117  1  0.33336673  0.16688055  0.16844532  1
  I  I118  1  0.33643131  0.16156688  0.50009020  1
  I  I119  1  0.33367357  0.17126352  0.83125897  1
  I  I120  1  0.33881565  0.50548097  0.16184993  1
  I  I121  1  0.33367093  0.49991550  0.50012303  1
  I  I122  1  0.33704533  0.50332701  0.83645620  1
  I  I123  1  0.33474748  0.82831967  0.16607889  1
  I  I124  1  0.33813113  0.83779957  0.49556366  1
  I  I125  1  0.33524626  0.82818166  0.83756603  1
  I  I126  1  0.66954956  0.16042692  0.16926741  1
  I  I127  1  0.66738874  0.16597770  0.49602404  1
  I  I128  1  0.66664341  0.16115474  0.83478335  1
  I  I129  1  0.66393016  0.50748515  0.16582376  1
  I  I130  1  0.66902130  0.49920222  0.50077183  1
  I  I131  1  0.66556499  0.50660121  0.83320008  1
  I  I132  1  0.66557750  0.83290887  0.16712359  1
  I  I133  1  0.66291084  0.83402345  0.50028455  1
  I  I134  1  0.66340766  0.83105835  0.83417008  1
