# generated using pymatgen
data_Cs27Sn14Pb13I81
_symmetry_space_group_name_H-M   'P 1'
_cell_length_a   18.97607790
_cell_length_b   18.97570323
_cell_length_c   18.97483389
_cell_angle_alpha   89.99977189
_cell_angle_beta   89.99887665
_cell_angle_gamma   89.99907074
_symmetry_Int_Tables_number   1
_chemical_formula_structural   Cs27Sn14Pb13I81
_chemical_formula_sum   'Cs27 Sn14 Pb13 I81'
_cell_volume   6832.54210465
_cell_formula_units_Z   1
loop_
 _symmetry_equiv_pos_site_id
 _symmetry_equiv_pos_as_xyz
  1  'x, y, z'
loop_
 _atom_site_type_symbol
 _atom_site_label
 _atom_site_symmetry_multiplicity
 _atom_site_fract_x
 _atom_site_fract_y
 _atom_site_fract_z
 _atom_site_occupancy
  Cs  Cs0  1  -0.00099877  -0.00096434  -0.00066378  1
  Cs  Cs1  1  0.00290096  0.00112808  0.33653337  1
  Cs  Cs2  1  0.00085743  0.00008071  0.66543682  1
  Cs  Cs3  1  0.00060806  0.34030063  0.00026583  1
  Cs  Cs4  1  -0.00092961  0.33190224  0.33246113  1
  Cs  Cs5  1  -0.00052432  0.33172287  0.66729498  1
  Cs  Cs6  1  -0.00599853  0.65915059  -0.00345794  1
  Cs  Cs7  1  0.00101447  0.66468330  0.33395957  1
  Cs  Cs8  1  -0.00254760  0.66674112  0.66956306  1
  Cs  Cs9  1  0.33482227  0.00060214  -0.00213625  1
  Cs  Cs10  1  0.32954262  -0.00190599  0.33664584  1
  Cs  Cs11  1  0.33284998  -0.00045253  0.66666794  1
  Cs  Cs12  1  0.33474639  0.33534852  -0.00088414  1
  Cs  Cs13  1  0.33283826  0.33766375  0.33416356  1
  Cs  Cs14  1  0.33444718  0.33189457  0.66802563  1
  Cs  Cs15  1  0.33224616  0.66453298  -0.00069658  1
  Cs  Cs16  1  0.33479376  0.66701064  0.33257059  1
  Cs  Cs17  1  0.33455560  0.66870760  0.66757479  1
  Cs  Cs18  1  0.66736842  0.00052486  0.00926633  1
  Cs  Cs19  1  0.66803566  -0.00055413  0.32906206  1
  Cs  Cs20  1  0.66633661  0.00028948  0.66696624  1
  Cs  Cs21  1  0.66351320  0.32640944  0.00996092  1
  Cs  Cs22  1  0.66761037  0.34159393  0.32842295  1
  Cs  Cs23  1  0.66543321  0.33409509  0.66520637  1
  Cs  Cs24  1  0.67527542  0.67028472  0.00320834  1
  Cs  Cs25  1  0.66376159  0.65886305  0.32820974  1
  Cs  Cs26  1  0.66701683  0.66448667  0.66680201  1
  Sn  Sn27  1  0.16679145  0.16688954  0.50024240  1
  Sn  Sn28  1  0.50049120  0.50120730  0.83322096  1
  Sn  Sn29  1  0.50037580  0.16598794  0.50003476  1
  Sn  Sn30  1  0.16663719  0.83402676  0.16597999  1
  Sn  Sn31  1  0.16662689  0.83302268  0.50036972  1
  Sn  Sn32  1  0.49971988  0.83257124  0.83270689  1
  Sn  Sn33  1  0.50055450  0.83419760  0.50071555  1
  Sn  Sn34  1  0.16658365  0.50022406  0.50082414  1
  Sn  Sn35  1  0.16581159  0.16594786  0.83350965  1
  Sn  Sn36  1  0.16677524  0.16572201  0.16633475  1
  Sn  Sn37  1  0.83288555  0.16563152  0.50078171  1
  Sn  Sn38  1  0.83280542  0.83395994  0.50008475  1
  Sn  Sn39  1  0.83385878  0.16635151  0.83256522  1
  Sn  Sn40  1  0.16708636  0.83390847  0.83360980  1
  Pb  Pb41  1  0.16674013  0.50031175  0.16913631  1
  Pb  Pb42  1  0.49793310  0.50045743  0.50131206  1
  Pb  Pb43  1  0.83306034  0.83549531  0.83145349  1
  Pb  Pb44  1  0.50020732  0.16559901  0.83180392  1
  Pb  Pb45  1  0.83367703  0.50001246  0.16666334  1
  Pb  Pb46  1  0.83579920  0.49978754  0.50028045  1
  Pb  Pb47  1  0.49760132  0.83344416  0.16668092  1
  Pb  Pb48  1  0.49671245  0.16627948  0.17066896  1
  Pb  Pb49  1  0.16786783  0.50004985  0.83115250  1
  Pb  Pb50  1  0.83673436  0.83355220  0.17014687  1
  Pb  Pb51  1  0.83628885  0.16643203  0.16726888  1
  Pb  Pb52  1  0.49946007  0.50044594  0.16292403  1
  Pb  Pb53  1  0.82977467  0.49621863  0.83296451  1
  I  I54  1  0.16699231  0.00007737  0.17227899  1
  I  I55  1  0.16680571  0.00001219  0.49963275  1
  I  I56  1  0.16906513  -0.00009413  0.82883277  1
  I  I57  1  0.16622354  0.33002838  0.16760778  1
  I  I58  1  0.16719710  0.33126087  0.49988539  1
  I  I59  1  0.16525424  0.33008333  0.83218945  1
  I  I60  1  0.16765491  0.67017712  0.16873062  1
  I  I61  1  0.16715131  0.66865215  0.49937269  1
  I  I62  1  0.16937696  0.67000416  0.83208680  1
  I  I63  1  0.50222350  0.00002132  0.16078522  1
  I  I64  1  0.49444148  -0.00071605  0.50609088  1
  I  I65  1  0.49639388  -0.00304258  0.82953211  1
  I  I66  1  0.49755567  0.33311658  0.16636272  1
  I  I67  1  0.49789471  0.33061730  0.50259720  1
  I  I68  1  0.49867255  0.33438555  0.83004610  1
  I  I69  1  0.49585300  0.66705138  0.17358029  1
  I  I70  1  0.49823234  0.67021081  0.50191399  1
  I  I71  1  0.49162593  0.66886421  0.82551691  1
  I  I72  1  0.83027914  0.00004703  0.16426623  1
  I  I73  1  0.83853752  0.00072800  0.50369085  1
  I  I74  1  0.83478215  0.00344787  0.82941769  1
  I  I75  1  0.83581150  0.33266197  0.16873993  1
  I  I76  1  0.83440135  0.32952746  0.50347798  1
  I  I77  1  0.84099419  0.32837237  0.82481936  1
  I  I78  1  0.83636385  0.66720423  0.16789521  1
  I  I79  1  0.83506742  0.66997483  0.49995095  1
  I  I80  1  0.83635123  0.66679910  0.83225028  1
  I  I81  1  0.16262223  0.15942381  -0.00115716  1
  I  I82  1  0.16705500  0.16394709  0.33527054  1
  I  I83  1  0.16634717  0.16452846  0.66566192  1
  I  I84  1  0.16843062  0.49921866  -0.00032796  1
  I  I85  1  0.16760086  0.49948751  0.33743881  1
  I  I86  1  0.16776474  0.49912131  0.66325999  1
  I  I87  1  0.17304099  0.84180937  -0.00123665  1
  I  I88  1  0.16640771  0.83636292  0.33531233  1
  I  I89  1  0.16785154  0.83612516  0.66576444  1
  I  I90  1  0.50059148  0.16808882  0.00006827  1
  I  I91  1  0.49998279  0.16016969  0.33896166  1
  I  I92  1  0.49439133  0.16556102  0.66351082  1
  I  I93  1  0.49604895  0.50435538  -0.00500720  1
  I  I94  1  0.49915063  0.49928021  0.33345089  1
  I  I95  1  0.49755101  0.50126567  0.66892962  1
  I  I96  1  0.49417888  0.82943196  -0.00350435  1
  I  I97  1  0.49811588  0.83841307  0.33714718  1
  I  I98  1  0.49354183  0.83376863  0.66559963  1
  I  I99  1  0.83690449  0.16760354  -0.00290033  1
  I  I100  1  0.83519760  0.16256267  0.33719707  1
  I  I101  1  0.83968415  0.16332184  0.66513140  1
  I  I102  1  0.83509415  0.49958504  -0.00066957  1
  I  I103  1  0.83365869  0.49803602  0.33401504  1
  I  I104  1  0.83437377  0.50124796  0.66662214  1
  I  I105  1  0.83269575  0.83444742  -0.00009638  1
  I  I106  1  0.83370505  0.84118443  0.33859760  1
  I  I107  1  0.83916690  0.83599167  0.66316241  1
  I  I108  1  0.00433092  0.16197096  0.17267355  1
  I  I109  1  0.00155934  0.16428947  0.50012755  1
  I  I110  1  0.00211716  0.16136280  0.82770629  1
  I  I111  1  0.00079672  0.49972058  0.16653002  1
  I  I112  1  0.00405621  0.50009041  0.50044753  1
  I  I113  1  -0.00017950  0.50204007  0.83298900  1
  I  I114  1  0.00497189  0.83905005  0.16705755  1
  I  I115  1  0.00170400  0.83628235  0.49950972  1
  I  I116  1  0.00329860  0.83612764  0.83170953  1
  I  I117  1  0.32862816  0.16238038  0.16514850  1
  I  I118  1  0.33182614  0.16417820  0.50045826  1
  I  I119  1  0.33022385  0.16605954  0.83187283  1
  I  I120  1  0.33282745  0.49873758  0.16840485  1
  I  I121  1  0.33001919  0.49862490  0.50070992  1
  I  I122  1  0.33557292  0.49899909  0.83056207  1
  I  I123  1  0.32929337  0.83788097  0.17251946  1
  I  I124  1  0.33205071  0.83606125  0.50035348  1
  I  I125  1  0.33186993  0.83555799  0.82811936  1
  I  I126  1  0.66665971  0.16857474  0.16527762  1
  I  I127  1  0.66697069  0.15896159  0.50782822  1
  I  I128  1  0.66899277  0.16803070  0.82578266  1
  I  I129  1  0.66633871  0.49905954  0.16893835  1
  I  I130  1  0.66646157  0.49914923  0.50061416  1
  I  I131  1  0.66232990  0.50702745  0.82932313  1
  I  I132  1  0.66682041  0.83180397  0.16611031  1
  I  I133  1  0.66590038  0.84185111  0.50697724  1
  I  I134  1  0.66376622  0.83044107  0.82662964  1
