# generated using pymatgen
data_Cs27Sn13Pb14I81
_symmetry_space_group_name_H-M   'P 1'
_cell_length_a   19.00249460
_cell_length_b   19.00392619
_cell_length_c   19.01269676
_cell_angle_alpha   89.99907807
_cell_angle_beta   89.99972578
_cell_angle_gamma   89.99819023
_symmetry_Int_Tables_number   1
_chemical_formula_structural   Cs27Sn13Pb14I81
_chemical_formula_sum   'Cs27 Sn13 Pb14 I81'
_cell_volume   6865.90316570
_cell_formula_units_Z   1
loop_
 _symmetry_equiv_pos_site_id
 _symmetry_equiv_pos_as_xyz
  1  'x, y, z'
loop_
 _atom_site_type_symbol
 _atom_site_label
 _atom_site_symmetry_multiplicity
 _atom_site_fract_x
 _atom_site_fract_y
 _atom_site_fract_z
 _atom_site_occupancy
  Cs  Cs0  1  -0.00129189  0.00230963  0.00107304  1
  Cs  Cs1  1  0.00300507  0.00383857  0.33204961  1
  Cs  Cs2  1  -0.00063726  -0.00110095  0.66734210  1
  Cs  Cs3  1  0.00262084  0.32996737  -0.00064618  1
  Cs  Cs4  1  0.00319041  0.32955466  0.32870788  1
  Cs  Cs5  1  0.00093004  0.33802494  0.66879225  1
  Cs  Cs6  1  -0.00061020  0.66821184  0.00098221  1
  Cs  Cs7  1  -0.00209375  0.66607250  0.33235932  1
  Cs  Cs8  1  -0.00140813  0.66235019  0.66602846  1
  Cs  Cs9  1  0.33484835  -0.00964138  -0.00275677  1
  Cs  Cs10  1  0.32581633  -0.00557167  0.34701829  1
  Cs  Cs11  1  0.33276911  -0.00664371  0.65935131  1
  Cs  Cs12  1  0.33635519  0.33564272  -0.00145218  1
  Cs  Cs13  1  0.33041576  0.33455373  0.33410903  1
  Cs  Cs14  1  0.33370307  0.33302389  0.66690383  1
  Cs  Cs15  1  0.33447593  0.67269891  0.00783536  1
  Cs  Cs16  1  0.33372021  0.66881679  0.32242607  1
  Cs  Cs17  1  0.33169541  0.66867706  0.66743071  1
  Cs  Cs18  1  0.66873904  0.00343011  -0.00133424  1
  Cs  Cs19  1  0.66803115  0.00080168  0.33708028  1
  Cs  Cs20  1  0.66624277  0.00079470  0.66574084  1
  Cs  Cs21  1  0.66399792  0.32996129  -0.00191633  1
  Cs  Cs22  1  0.66547230  0.33286713  0.33243181  1
  Cs  Cs23  1  0.66519514  0.33542197  0.66720221  1
  Cs  Cs24  1  0.66665486  0.66752959  0.00350043  1
  Cs  Cs25  1  0.66768741  0.66659627  0.32973250  1
  Cs  Cs26  1  0.66910025  0.66281194  0.66595903  1
  Sn  Sn27  1  0.16832034  0.49951374  0.83291031  1
  Sn  Sn28  1  0.83300230  0.83404875  0.83302290  1
  Sn  Sn29  1  0.49916234  0.16688381  0.83382662  1
  Sn  Sn30  1  0.83339431  0.16606087  0.83208522  1
  Sn  Sn31  1  0.83300462  0.83295908  0.16667598  1
  Sn  Sn32  1  0.16751697  0.16697380  0.83333323  1
  Sn  Sn33  1  0.49874684  0.49982925  0.83268939  1
  Sn  Sn34  1  0.16805665  0.50006140  0.50063403  1
  Sn  Sn35  1  0.49921223  0.16587813  0.16658901  1
  Sn  Sn36  1  0.83333743  0.16666335  0.50128094  1
  Sn  Sn37  1  0.83323401  0.83418515  0.50028087  1
  Sn  Sn38  1  0.49875257  0.50013602  0.50055702  1
  Sn  Sn39  1  0.83329867  0.49968077  0.16616932  1
  Pb  Pb40  1  0.17082500  0.16659552  0.16371542  1
  Pb  Pb41  1  0.83208389  0.16621899  0.16645807  1
  Pb  Pb42  1  0.50236915  0.83724874  0.16690447  1
  Pb  Pb43  1  0.16404747  0.83386681  0.16671455  1
  Pb  Pb44  1  0.83346629  0.49938394  0.49810739  1
  Pb  Pb45  1  0.16384022  0.82996836  0.50021215  1
  Pb  Pb46  1  0.16410451  0.16897079  0.50277807  1
  Pb  Pb47  1  0.50156171  0.16844954  0.50068475  1
  Pb  Pb48  1  0.16412766  0.83294701  0.83322684  1
  Pb  Pb49  1  0.50239585  0.82984445  0.50010126  1
  Pb  Pb50  1  0.50249932  0.83315968  0.83311166  1
  Pb  Pb51  1  0.83316943  0.49945289  0.83519294  1
  Pb  Pb52  1  0.50176145  0.49831733  0.16612626  1
  Pb  Pb53  1  0.16457567  0.49973664  0.16575731  1
  I  I54  1  0.16233197  0.00051570  0.16415569  1
  I  I55  1  0.16751760  0.00000153  0.50034308  1
  I  I56  1  0.16794373  0.00321414  0.83578842  1
  I  I57  1  0.15913348  0.33322259  0.16964237  1
  I  I58  1  0.16646412  0.33661816  0.50198684  1
  I  I59  1  0.16272353  0.33340045  0.82931625  1
  I  I60  1  0.16816278  0.66642510  0.16404944  1
  I  I61  1  0.16692824  0.66226553  0.50928719  1
  I  I62  1  0.16851470  0.66314019  0.82881860  1
  I  I63  1  0.50486233  0.00467563  0.15577013  1
  I  I64  1  0.50053821  -0.00002705  0.49976406  1
  I  I65  1  0.49919057  0.00344117  0.83939204  1
  I  I66  1  0.50704018  0.33095306  0.16367606  1
  I  I67  1  0.50145505  0.33625496  0.50186549  1
  I  I68  1  0.50374462  0.33294762  0.83351655  1
  I  I69  1  0.50058339  0.66688161  0.16650755  1
  I  I70  1  0.49985201  0.66177958  0.50769632  1
  I  I71  1  0.49774277  0.66318701  0.82845113  1
  I  I72  1  0.83102094  -0.00255875  0.16610480  1
  I  I73  1  0.83184294  0.00018685  0.49862871  1
  I  I74  1  0.83324600  0.00120058  0.83540544  1
  I  I75  1  0.83176407  0.33488524  0.16744219  1
  I  I76  1  0.83247997  0.33092666  0.50472578  1
  I  I77  1  0.83288552  0.33026335  0.83006808  1
  I  I78  1  0.83242627  0.66731165  0.16685266  1
  I  I79  1  0.83348701  0.66884947  0.50222822  1
  I  I80  1  0.83351400  0.66877171  0.83135554  1
  I  I81  1  0.15629132  0.17526225  -0.00466645  1
  I  I82  1  0.16434386  0.16833705  0.33357908  1
  I  I83  1  0.17067080  0.16899758  0.67070005  1
  I  I84  1  0.16891929  0.49506646  -0.00374797  1
  I  I85  1  0.16889983  0.50109987  0.33601298  1
  I  I86  1  0.16798722  0.49552432  0.66779314  1
  I  I87  1  0.16335345  0.83030795  -0.00037087  1
  I  I88  1  0.16411585  0.83180730  0.33368295  1
  I  I89  1  0.16258665  0.83545247  0.66677103  1
  I  I90  1  0.50534389  0.17436795  -0.00247485  1
  I  I91  1  0.50830733  0.16974456  0.33164607  1
  I  I92  1  0.50083308  0.17002837  0.67029380  1
  I  I93  1  0.49802986  0.49696708  -0.00336508  1
  I  I94  1  0.49884440  0.49791973  0.33577925  1
  I  I95  1  0.49931154  0.49311676  0.66789818  1
  I  I96  1  0.50321170  0.82788622  -0.00008122  1
  I  I97  1  0.50482717  0.83281038  0.33339954  1
  I  I98  1  0.50447640  0.83837981  0.66669434  1
  I  I99  1  0.83475185  0.16426510  -0.00323337  1
  I  I100  1  0.83000674  0.16500192  0.33545629  1
  I  I101  1  0.83086487  0.15883341  0.66817626  1
  I  I102  1  0.83273843  0.50445359  0.00263629  1
  I  I103  1  0.83232207  0.50398773  0.33068012  1
  I  I104  1  0.83317619  0.50301565  0.66686528  1
  I  I105  1  0.83333747  0.83319402  -0.00039024  1
  I  I106  1  0.83244986  0.83199107  0.33349366  1
  I  I107  1  0.83338459  0.83871049  0.66686492  1
  I  I108  1  0.00010516  0.16647534  0.16667288  1
  I  I109  1  -0.00403143  0.16486856  0.50373885  1
  I  I110  1  -0.00077498  0.16739340  0.82825210  1
  I  I111  1  -0.00339354  0.50399416  0.16750157  1
  I  I112  1  0.00186579  0.50081894  0.50507006  1
  I  I113  1  0.00205981  0.49735788  0.82963212  1
  I  I114  1  -0.00505559  0.82941947  0.16574896  1
  I  I115  1  -0.00456243  0.83501470  0.50024945  1
  I  I116  1  -0.00433073  0.83685206  0.83392754  1
  I  I117  1  0.33820321  0.17282560  0.16085564  1
  I  I118  1  0.33312012  0.16594830  0.49855296  1
  I  I119  1  0.33381706  0.17539748  0.84046415  1
  I  I120  1  0.33336609  0.49829996  0.16777409  1
  I  I121  1  0.33359868  0.49655184  0.50542501  1
  I  I122  1  0.33371402  0.48920189  0.82864972  1
  I  I123  1  0.33376610  0.83222125  0.16540710  1
  I  I124  1  0.33313517  0.83659258  0.50007047  1
  I  I125  1  0.33334075  0.83612478  0.83360860  1
  I  I126  1  0.66484791  0.16788583  0.15905405  1
  I  I127  1  0.66972342  0.16569649  0.50560296  1
  I  I128  1  0.66689106  0.16718907  0.83422467  1
  I  I129  1  0.66948908  0.50411181  0.16732470  1
  I  I130  1  0.66484519  0.49978131  0.50444799  1
  I  I131  1  0.66432621  0.49666541  0.82977913  1
  I  I132  1  0.67076134  0.82774163  0.16596427  1
  I  I133  1  0.67100826  0.83517798  0.50027940  1
  I  I134  1  0.67089033  0.83709490  0.83369292  1
