# generated using pymatgen
data_Cs27Sn14Pb13I81
_symmetry_space_group_name_H-M   'P 1'
_cell_length_a   18.97833340
_cell_length_b   18.96912351
_cell_length_c   18.97862122
_cell_angle_alpha   89.99837737
_cell_angle_beta   89.99999035
_cell_angle_gamma   89.99873988
_symmetry_Int_Tables_number   1
_chemical_formula_structural   Cs27Sn14Pb13I81
_chemical_formula_sum   'Cs27 Sn14 Pb13 I81'
_cell_volume   6832.34823999
_cell_formula_units_Z   1
loop_
 _symmetry_equiv_pos_site_id
 _symmetry_equiv_pos_as_xyz
  1  'x, y, z'
loop_
 _atom_site_type_symbol
 _atom_site_label
 _atom_site_symmetry_multiplicity
 _atom_site_fract_x
 _atom_site_fract_y
 _atom_site_fract_z
 _atom_site_occupancy
  Cs  Cs0  1  -0.00013604  0.00346077  0.00069776  1
  Cs  Cs1  1  -0.00126511  -0.00099951  0.33251473  1
  Cs  Cs2  1  -0.00489538  0.00901725  0.66773936  1
  Cs  Cs3  1  -0.00060111  0.33254395  0.00143834  1
  Cs  Cs4  1  -0.00031583  0.33427682  0.32954840  1
  Cs  Cs5  1  0.00026033  0.33106547  0.66858222  1
  Cs  Cs6  1  0.00288509  0.66546868  0.00088674  1
  Cs  Cs7  1  0.00181058  0.66715846  0.33425201  1
  Cs  Cs8  1  0.00248020  0.66517620  0.66428729  1
  Cs  Cs9  1  0.33395681  -0.00216279  -0.00031511  1
  Cs  Cs10  1  0.33393476  0.00333879  0.33471304  1
  Cs  Cs11  1  0.33132206  0.00033709  0.66592733  1
  Cs  Cs12  1  0.33515394  0.33491422  0.00113224  1
  Cs  Cs13  1  0.33723993  0.33145240  0.33102968  1
  Cs  Cs14  1  0.33440911  0.33194585  0.66733819  1
  Cs  Cs15  1  0.33246133  0.66685473  0.00038996  1
  Cs  Cs16  1  0.33020668  0.66465659  0.33630417  1
  Cs  Cs17  1  0.33312267  0.66634736  0.66587650  1
  Cs  Cs18  1  0.66513815  -0.01198359  -0.00027914  1
  Cs  Cs19  1  0.66762000  0.00176164  0.33244083  1
  Cs  Cs20  1  0.67581323  -0.00013512  0.66773920  1
  Cs  Cs21  1  0.66628718  0.33417095  -0.00018449  1
  Cs  Cs22  1  0.66386354  0.33111568  0.33213274  1
  Cs  Cs23  1  0.66531537  0.33542880  0.66722100  1
  Cs  Cs24  1  0.66446868  0.67431516  -0.00110359  1
  Cs  Cs25  1  0.66793271  0.66875070  0.33477624  1
  Cs  Cs26  1  0.66441158  0.66443830  0.66677809  1
  Sn  Sn27  1  0.83308869  0.49965910  0.16651314  1
  Sn  Sn28  1  0.16724232  0.83306447  0.50061997  1
  Sn  Sn29  1  0.16632760  0.83298791  0.83249001  1
  Sn  Sn30  1  0.50007406  0.16675637  0.83332008  1
  Sn  Sn31  1  0.83349928  0.16726369  0.16621771  1
  Sn  Sn32  1  0.83343932  0.50015167  0.83365214  1
  Sn  Sn33  1  0.16679894  0.50001156  0.50074593  1
  Sn  Sn34  1  0.49938629  0.83282148  0.50032247  1
  Sn  Sn35  1  0.49962026  0.50064196  0.50061665  1
  Sn  Sn36  1  0.83352836  0.49993047  0.49982894  1
  Sn  Sn37  1  0.49972647  0.49931788  0.83283353  1
  Sn  Sn38  1  0.16645220  0.16602502  0.16670203  1
  Sn  Sn39  1  0.16668214  0.83431825  0.16697794  1
  Sn  Sn40  1  0.16674464  0.50046332  0.83259937  1
  Pb  Pb41  1  0.50003126  0.16645295  0.50250576  1
  Pb  Pb42  1  0.16665710  0.16702195  0.49771267  1
  Pb  Pb43  1  0.50052188  0.16653808  0.16396699  1
  Pb  Pb44  1  0.16529247  0.50002369  0.16675094  1
  Pb  Pb45  1  0.83077036  0.16898890  0.83598517  1
  Pb  Pb46  1  0.83386106  0.83129483  0.50012671  1
  Pb  Pb47  1  0.83331432  0.16978118  0.49756845  1
  Pb  Pb48  1  0.49695276  0.83306988  0.17005919  1
  Pb  Pb49  1  0.16816249  0.16722414  0.83539305  1
  Pb  Pb50  1  0.83562246  0.83314281  0.16670329  1
  Pb  Pb51  1  0.49779128  0.83276328  0.83075126  1
  Pb  Pb52  1  0.50305284  0.50030973  0.16673061  1
  Pb  Pb53  1  0.83664341  0.83055912  0.83308713  1
  I  I54  1  0.16079610  -0.00055685  0.16646521  1
  I  I55  1  0.17268595  -0.00343299  0.50172347  1
  I  I56  1  0.17043617  -0.00266575  0.83152413  1
  I  I57  1  0.16364493  0.33143866  0.16622505  1
  I  I58  1  0.16700054  0.33727227  0.50383008  1
  I  I59  1  0.16473144  0.33706598  0.83009836  1
  I  I60  1  0.16523227  0.66894934  0.16685351  1
  I  I61  1  0.16700603  0.66578330  0.49787013  1
  I  I62  1  0.16808054  0.66536134  0.83560737  1
  I  I63  1  0.50442400  -0.00016519  0.16556084  1
  I  I64  1  0.49214346  -0.00311647  0.50006459  1
  I  I65  1  0.49650545  0.00177991  0.83403346  1
  I  I66  1  0.49447292  0.33351699  0.17097499  1
  I  I67  1  0.49938501  0.33707199  0.50148834  1
  I  I68  1  0.49786396  0.33621948  0.82830961  1
  I  I69  1  0.50066711  0.66657850  0.16099584  1
  I  I70  1  0.49907929  0.66477136  0.50537904  1
  I  I71  1  0.50234041  0.66316451  0.83137745  1
  I  I72  1  0.83622350  0.00272807  0.16654630  1
  I  I73  1  0.83287760  0.00006234  0.49768011  1
  I  I74  1  0.83223933  0.00014136  0.83543898  1
  I  I75  1  0.84093814  0.33443817  0.16705854  1
  I  I76  1  0.83364387  0.33857067  0.50291265  1
  I  I77  1  0.83899956  0.33771674  0.83064613  1
  I  I78  1  0.83461411  0.66327445  0.16702547  1
  I  I79  1  0.83392214  0.66223707  0.49724234  1
  I  I80  1  0.82735651  0.66170028  0.83628651  1
  I  I81  1  0.16315322  0.16358852  0.00322965  1
  I  I82  1  0.16338537  0.16403003  0.32966050  1
  I  I83  1  0.16796584  0.16446056  0.66688575  1
  I  I84  1  0.16658323  0.50269960  -0.00274086  1
  I  I85  1  0.16633060  0.50293334  0.33612493  1
  I  I86  1  0.16303106  0.50723293  0.66674020  1
  I  I87  1  0.16508983  0.83173667  -0.00037086  1
  I  I88  1  0.16979618  0.83172737  0.33413382  1
  I  I89  1  0.17181210  0.82559975  0.66608207  1
  I  I90  1  0.49860406  0.17569566  -0.00356814  1
  I  I91  1  0.49985626  0.16734195  0.33328721  1
  I  I92  1  0.49775681  0.17109774  0.67004812  1
  I  I93  1  0.49843923  0.49540626  -0.00343355  1
  I  I94  1  0.49834996  0.50381506  0.33695050  1
  I  I95  1  0.50374616  0.49991277  0.66663134  1
  I  I96  1  0.49900343  0.83324381  -0.00037100  1
  I  I97  1  0.49508641  0.82590299  0.33786864  1
  I  I98  1  0.49301369  0.83013234  0.66318002  1
  I  I99  1  0.83893591  0.17473311  0.00353055  1
  I  I100  1  0.83707731  0.17252017  0.32957403  1
  I  I101  1  0.83266316  0.16649306  0.66710465  1
  I  I102  1  0.83542788  0.49518362  -0.00046819  1
  I  I103  1  0.83479331  0.49659252  0.33382228  1
  I  I104  1  0.83324285  0.50222448  0.66672563  1
  I  I105  1  0.83402203  0.82994828  -0.00007070  1
  I  I106  1  0.83536695  0.82977130  0.33338648  1
  I  I107  1  0.83490272  0.83330160  0.66664930  1
  I  I108  1  0.00028819  0.16753248  0.16582648  1
  I  I109  1  0.00007891  0.16650911  0.50269933  1
  I  I110  1  -0.00014054  0.16680872  0.83316253  1
  I  I111  1  -0.00276821  0.49931632  0.16679948  1
  I  I112  1  0.00065618  0.50387919  0.50177443  1
  I  I113  1  0.00049450  0.50511886  0.83110036  1
  I  I114  1  0.00397731  0.83313306  0.16977098  1
  I  I115  1  0.00388282  0.82764686  0.49843127  1
  I  I116  1  0.00498657  0.82800941  0.83124822  1
  I  I117  1  0.33062251  0.16246892  0.16623540  1
  I  I118  1  0.33327207  0.17176516  0.49619334  1
  I  I119  1  0.33570583  0.17411637  0.83569040  1
  I  I120  1  0.33322961  0.49937004  0.16645422  1
  I  I121  1  0.33295872  0.50466062  0.50674264  1
  I  I122  1  0.33292037  0.49984875  0.82719811  1
  I  I123  1  0.32865915  0.83836339  0.16355037  1
  I  I124  1  0.33195799  0.82426156  0.49927475  1
  I  I125  1  0.32972205  0.82735253  0.83632356  1
  I  I126  1  0.66972865  0.17440806  0.16699417  1
  I  I127  1  0.66661675  0.16576119  0.49704908  1
  I  I128  1  0.66320445  0.17342333  0.83363470  1
  I  I129  1  0.67133163  0.49227292  0.16747765  1
  I  I130  1  0.66623057  0.50346083  0.50262698  1
  I  I131  1  0.66643743  0.49403109  0.83041129  1
  I  I132  1  0.66665146  0.83425600  0.16739308  1
  I  I133  1  0.66391828  0.82818596  0.50048310  1
  I  I134  1  0.66646617  0.83350978  0.83299834  1
