# generated using pymatgen
data_Cs27Sn14Pb13I81
_symmetry_space_group_name_H-M   'P 1'
_cell_length_a   18.98450940
_cell_length_b   18.97078301
_cell_length_c   18.96979607
_cell_angle_alpha   89.99948896
_cell_angle_beta   89.99905847
_cell_angle_gamma   89.99984540
_symmetry_Int_Tables_number   1
_chemical_formula_structural   Cs27Sn14Pb13I81
_chemical_formula_sum   'Cs27 Sn14 Pb13 I81'
_cell_volume   6831.99117986
_cell_formula_units_Z   1
loop_
 _symmetry_equiv_pos_site_id
 _symmetry_equiv_pos_as_xyz
  1  'x, y, z'
loop_
 _atom_site_type_symbol
 _atom_site_label
 _atom_site_symmetry_multiplicity
 _atom_site_fract_x
 _atom_site_fract_y
 _atom_site_fract_z
 _atom_site_occupancy
  Cs  Cs0  1  -0.00278381  -0.00099430  -0.00461746  1
  Cs  Cs1  1  -0.00100979  0.00709476  0.33576977  1
  Cs  Cs2  1  -0.00167708  -0.00250910  0.66901895  1
  Cs  Cs3  1  -0.00055305  0.33509502  0.00034259  1
  Cs  Cs4  1  0.00297002  0.32512653  0.33381522  1
  Cs  Cs5  1  0.00114408  0.33396500  0.66841152  1
  Cs  Cs6  1  -0.00040972  0.66573366  0.00077643  1
  Cs  Cs7  1  0.00101870  0.66546247  0.33224644  1
  Cs  Cs8  1  -0.00044996  0.66853711  0.66554511  1
  Cs  Cs9  1  0.33665551  -0.00224105  -0.00155873  1
  Cs  Cs10  1  0.33394271  0.00000833  0.33501971  1
  Cs  Cs11  1  0.33162170  -0.00038587  0.66730302  1
  Cs  Cs12  1  0.33097145  0.33509931  -0.00062358  1
  Cs  Cs13  1  0.32921819  0.32268773  0.33385750  1
  Cs  Cs14  1  0.33490597  0.33483923  0.66687436  1
  Cs  Cs15  1  0.33454413  0.66737650  0.00247409  1
  Cs  Cs16  1  0.33155305  0.66883802  0.33086551  1
  Cs  Cs17  1  0.33326242  0.66577413  0.66566804  1
  Cs  Cs18  1  0.66535759  0.00052157  0.00038003  1
  Cs  Cs19  1  0.66664608  0.00477277  0.33231493  1
  Cs  Cs20  1  0.66979904  -0.00234782  0.66785951  1
  Cs  Cs21  1  0.66859742  0.33388823  -0.00176021  1
  Cs  Cs22  1  0.66693043  0.32680257  0.34103488  1
  Cs  Cs23  1  0.66455258  0.33907523  0.66423677  1
  Cs  Cs24  1  0.66582179  0.66483942  0.00272018  1
  Cs  Cs25  1  0.66699207  0.66717756  0.33145737  1
  Cs  Cs26  1  0.66742800  0.66311362  0.66146852  1
  Sn  Sn27  1  0.50078330  0.49983422  0.16720561  1
  Sn  Sn28  1  0.16673744  0.50068127  0.50029244  1
  Sn  Sn29  1  0.50021202  0.83267218  0.16702544  1
  Sn  Sn30  1  0.16720498  0.83234975  0.49911132  1
  Sn  Sn31  1  0.16636463  0.83339939  0.16736779  1
  Sn  Sn32  1  0.16675433  0.16749807  0.83353169  1
  Sn  Sn33  1  0.83308100  0.16780694  0.83366044  1
  Sn  Sn34  1  0.83336948  0.83283201  0.16662550  1
  Sn  Sn35  1  0.83408313  0.49972571  0.83390188  1
  Sn  Sn36  1  0.49951654  0.83295642  0.49976596  1
  Sn  Sn37  1  0.83225864  0.50030457  0.16656178  1
  Sn  Sn38  1  0.50013158  0.16618525  0.83360067  1
  Sn  Sn39  1  0.16605734  0.49976447  0.83270228  1
  Sn  Sn40  1  0.50012683  0.83336105  0.83300943  1
  Pb  Pb41  1  0.83061278  0.83217156  0.83520931  1
  Pb  Pb42  1  0.49993059  0.16371630  0.50324425  1
  Pb  Pb43  1  0.49999172  0.16692873  0.16457473  1
  Pb  Pb44  1  0.83326916  0.16680312  0.50371070  1
  Pb  Pb45  1  0.83590351  0.50011493  0.49914971  1
  Pb  Pb46  1  0.50003069  0.50025258  0.83467087  1
  Pb  Pb47  1  0.49728036  0.50197842  0.49619030  1
  Pb  Pb48  1  0.16832492  0.83263287  0.83320400  1
  Pb  Pb49  1  0.83323038  0.16738521  0.16464268  1
  Pb  Pb50  1  0.16673059  0.16294996  0.16352876  1
  Pb  Pb51  1  0.16646191  0.50125534  0.16680342  1
  Pb  Pb52  1  0.83357830  0.83314561  0.49670095  1
  Pb  Pb53  1  0.16675929  0.16600086  0.50285613  1
  I  I54  1  0.16839492  -0.00536885  0.17170244  1
  I  I55  1  0.17130072  -0.00353412  0.49651804  1
  I  I56  1  0.16472721  0.00192021  0.83447685  1
  I  I57  1  0.16692236  0.33332831  0.16940676  1
  I  I58  1  0.16528143  0.33599742  0.50201790  1
  I  I59  1  0.16830145  0.33415006  0.82839213  1
  I  I60  1  0.16781801  0.66964181  0.16443602  1
  I  I61  1  0.17017310  0.66754536  0.50331611  1
  I  I62  1  0.16325735  0.66396954  0.83291010  1
  I  I63  1  0.50016551  -0.00377557  0.16754801  1
  I  I64  1  0.49275075  -0.00471614  0.49409901  1
  I  I65  1  0.49889415  -0.00061808  0.83574256  1
  I  I66  1  0.50454301  0.33651918  0.16259531  1
  I  I67  1  0.49907290  0.33349654  0.49983787  1
  I  I68  1  0.49947688  0.33113381  0.83673968  1
  I  I69  1  0.50031504  0.66849652  0.16270626  1
  I  I70  1  0.49796855  0.67035840  0.50643668  1
  I  I71  1  0.49855694  0.66943345  0.83344218  1
  I  I72  1  0.83221388  -0.00301520  0.16542991  1
  I  I73  1  0.83582593  -0.00035087  0.50029883  1
  I  I74  1  0.83590972  0.00199115  0.83454730  1
  I  I75  1  0.82902526  0.33701501  0.16295465  1
  I  I76  1  0.83509604  0.33363245  0.49443312  1
  I  I77  1  0.83309089  0.33402059  0.83967409  1
  I  I78  1  0.83244718  0.66667616  0.15968894  1
  I  I79  1  0.83223036  0.66675355  0.50729550  1
  I  I80  1  0.83812765  0.66351315  0.83591895  1
  I  I81  1  0.16683351  0.17239869  -0.00454483  1
  I  I82  1  0.16653944  0.16978560  0.33343680  1
  I  I83  1  0.16650931  0.16497514  0.67101435  1
  I  I84  1  0.16580372  0.49748096  -0.00258888  1
  I  I85  1  0.16753999  0.50536052  0.33549321  1
  I  I86  1  0.16192674  0.50235592  0.66798238  1
  I  I87  1  0.16848366  0.83345643  0.00236534  1
  I  I88  1  0.17198551  0.82598931  0.33334298  1
  I  I89  1  0.17221152  0.83308599  0.66444343  1
  I  I90  1  0.49971694  0.15927139  -0.00376447  1
  I  I91  1  0.49969025  0.16661428  0.33347143  1
  I  I92  1  0.49944613  0.16229384  0.67159407  1
  I  I93  1  0.49853167  0.50671221  0.00248248  1
  I  I94  1  0.50553200  0.50796261  0.32843198  1
  I  I95  1  0.50212786  0.50101468  0.66644270  1
  I  I96  1  0.49886123  0.83435526  0.00077332  1
  I  I97  1  0.49845011  0.82712682  0.33238800  1
  I  I98  1  0.49401294  0.83891381  0.66679420  1
  I  I99  1  0.83359039  0.16693477  -0.00377001  1
  I  I100  1  0.83359636  0.16645429  0.33317806  1
  I  I101  1  0.83377499  0.17113918  0.67225883  1
  I  I102  1  0.83591594  0.50027411  -0.00051805  1
  I  I103  1  0.83024448  0.50764415  0.32963109  1
  I  I104  1  0.83484579  0.49496225  0.66980037  1
  I  I105  1  0.83454681  0.83265965  0.00330115  1
  I  I106  1  0.82932931  0.82585580  0.32853604  1
  I  I107  1  0.83321043  0.83476239  0.66685754  1
  I  I108  1  0.00003704  0.16615556  0.16415321  1
  I  I109  1  0.00035987  0.16387316  0.50099943  1
  I  I110  1  -0.00000849  0.17094911  0.83398249  1
  I  I111  1  -0.00248925  0.50586974  0.16380440  1
  I  I112  1  0.00384263  0.50773974  0.50104623  1
  I  I113  1  0.00005817  0.49286437  0.83567247  1
  I  I114  1  0.00003749  0.82845429  0.16934452  1
  I  I115  1  0.00343327  0.82993007  0.49697201  1
  I  I116  1  -0.00013333  0.83672097  0.83385161  1
  I  I117  1  0.33327748  0.16843251  0.16246399  1
  I  I118  1  0.33326554  0.16881225  0.50274496  1
  I  I119  1  0.33329349  0.16566814  0.83363734  1
  I  I120  1  0.33538268  0.50636533  0.16445996  1
  I  I121  1  0.32969003  0.50285773  0.50739569  1
  I  I122  1  0.33092607  0.49754401  0.83175389  1
  I  I123  1  0.33418003  0.82925317  0.16605615  1
  I  I124  1  0.33320380  0.82979824  0.49578539  1
  I  I125  1  0.33630865  0.83670251  0.83809682  1
  I  I126  1  0.66664941  0.16126631  0.16271322  1
  I  I127  1  0.66638585  0.16462097  0.50130852  1
  I  I128  1  0.66670426  0.16527856  0.83505981  1
  I  I129  1  0.66715117  0.51052586  0.15787164  1
  I  I130  1  0.66642013  0.50135965  0.50342841  1
  I  I131  1  0.66906262  0.49740987  0.83680563  1
  I  I132  1  0.66586133  0.82908847  0.16473966  1
  I  I133  1  0.66353005  0.83441220  0.50108343  1
  I  I134  1  0.66259080  0.83793587  0.83362186  1
