# generated using pymatgen
data_Cs27Sn13Pb14I81
_symmetry_space_group_name_H-M   'P 1'
_cell_length_a   19.27306421
_cell_length_b   19.28774540
_cell_length_c   19.28642134
_cell_angle_alpha   89.99308688
_cell_angle_beta   90.00126391
_cell_angle_gamma   89.99064058
_symmetry_Int_Tables_number   1
_chemical_formula_structural   Cs27Sn13Pb14I81
_chemical_formula_sum   'Cs27 Sn13 Pb14 I81'
_cell_volume   7169.41754199
_cell_formula_units_Z   1
loop_
 _symmetry_equiv_pos_site_id
 _symmetry_equiv_pos_as_xyz
  1  'x, y, z'
loop_
 _atom_site_type_symbol
 _atom_site_label
 _atom_site_symmetry_multiplicity
 _atom_site_fract_x
 _atom_site_fract_y
 _atom_site_fract_z
 _atom_site_occupancy
  Cs  Cs0  1  -0.01692438  -0.00286245  0.00326630  1
  Cs  Cs1  1  -0.01804324  -0.01097175  0.31997856  1
  Cs  Cs2  1  -0.01890347  0.00657917  0.66463190  1
  Cs  Cs3  1  0.01207396  0.31306881  -0.00121716  1
  Cs  Cs4  1  0.02233592  0.34351094  0.34562410  1
  Cs  Cs5  1  0.00654661  0.34519437  0.65371022  1
  Cs  Cs6  1  0.00058125  0.68998154  -0.00169702  1
  Cs  Cs7  1  -0.00198565  0.66514881  0.33935777  1
  Cs  Cs8  1  0.01036236  0.65982254  0.65039346  1
  Cs  Cs9  1  0.34043735  -0.00285024  -0.00209015  1
  Cs  Cs10  1  0.33213647  0.00362458  0.30774488  1
  Cs  Cs11  1  0.33339058  -0.01638803  0.69188569  1
  Cs  Cs12  1  0.31475440  0.31007905  0.00737222  1
  Cs  Cs13  1  0.35481070  0.33517532  0.33006944  1
  Cs  Cs14  1  0.30890708  0.33321119  0.67392207  1
  Cs  Cs15  1  0.32490770  0.69806548  0.00004305  1
  Cs  Cs16  1  0.32828605  0.68433084  0.34552121  1
  Cs  Cs17  1  0.36088604  0.67774313  0.67720047  1
  Cs  Cs18  1  0.66152162  -0.01261090  -0.00260713  1
  Cs  Cs19  1  0.68160113  0.01746448  0.35580058  1
  Cs  Cs20  1  0.66701982  0.01283131  0.63654591  1
  Cs  Cs21  1  0.67515420  0.36174336  0.00108544  1
  Cs  Cs22  1  0.62690555  0.33283439  0.32890548  1
  Cs  Cs23  1  0.70878160  0.33697319  0.66091376  1
  Cs  Cs24  1  0.67599071  0.64350815  -0.00312237  1
  Cs  Cs25  1  0.71027430  0.65001092  0.33282497  1
  Cs  Cs26  1  0.62655943  0.66425412  0.66933395  1
  Sn  Sn27  1  0.16292355  0.16705808  0.17114516  1
  Sn  Sn28  1  0.16971026  0.49905868  0.49795561  1
  Sn  Sn29  1  0.15986208  0.83268875  0.83098806  1
  Sn  Sn30  1  0.16677694  0.16473800  0.82986566  1
  Sn  Sn31  1  0.83370652  0.49991018  0.50040892  1
  Sn  Sn32  1  0.50331207  0.16888584  0.83461931  1
  Sn  Sn33  1  0.83061709  0.16795061  0.16211064  1
  Sn  Sn34  1  0.83318193  0.83363783  0.83311519  1
  Sn  Sn35  1  0.16848605  0.83289493  0.16771580  1
  Sn  Sn36  1  0.50218522  0.83133634  0.16807760  1
  Sn  Sn37  1  0.16809027  0.50030170  0.16212467  1
  Sn  Sn38  1  0.16986730  0.16236851  0.49932866  1
  Sn  Sn39  1  0.16554182  0.49974293  0.83823498  1
  Pb  Pb40  1  0.83979373  0.50121939  0.83330335  1
  Pb  Pb41  1  0.49633260  0.83510680  0.49437833  1
  Pb  Pb42  1  0.83161192  0.16553206  0.83564783  1
  Pb  Pb43  1  0.49099504  0.16618195  0.50457694  1
  Pb  Pb44  1  0.83584126  0.83114241  0.50504460  1
  Pb  Pb45  1  0.50012715  0.16406336  0.16311359  1
  Pb  Pb46  1  0.83046652  0.83374383  0.16603575  1
  Pb  Pb47  1  0.49091243  0.49502724  0.83591728  1
  Pb  Pb48  1  0.49689773  0.49926622  0.50034002  1
  Pb  Pb49  1  0.84307497  0.49588178  0.16567258  1
  Pb  Pb50  1  0.50335310  0.83643330  0.83626428  1
  Pb  Pb51  1  0.84052906  0.16817651  0.49752788  1
  Pb  Pb52  1  0.49200717  0.50325898  0.16417081  1
  Pb  Pb53  1  0.16557096  0.83693188  0.50014684  1
  I  I54  1  0.17644145  0.00114087  0.16237869  1
  I  I55  1  0.17792469  0.00489081  0.49982278  1
  I  I56  1  0.17969321  -0.00149259  0.83881491  1
  I  I57  1  0.13983314  0.33464742  0.15925917  1
  I  I58  1  0.15309705  0.33226121  0.50659659  1
  I  I59  1  0.19419656  0.33752349  0.83963711  1
  I  I60  1  0.19754778  0.66190099  0.16213970  1
  I  I61  1  0.14763815  0.66481120  0.49140874  1
  I  I62  1  0.13879660  0.66281987  0.84233196  1
  I  I63  1  0.47399202  -0.00015310  0.16242561  1
  I  I64  1  0.51606731  0.00044922  0.49960497  1
  I  I65  1  0.47403358  -0.00022349  0.83839436  1
  I  I66  1  0.51343750  0.33202128  0.16560443  1
  I  I67  1  0.51236358  0.33295207  0.49474962  1
  I  I68  1  0.47836429  0.32935229  0.83610002  1
  I  I69  1  0.47801893  0.67030860  0.16122295  1
  I  I70  1  0.48947001  0.66677230  0.50759853  1
  I  I71  1  0.50826081  0.66813677  0.83538427  1
  I  I72  1  0.85453099  -0.00115047  0.16382222  1
  I  I73  1  0.82665068  -0.00078692  0.50371528  1
  I  I74  1  0.85797727  0.00025388  0.83551951  1
  I  I75  1  0.84724807  0.32902385  0.14931461  1
  I  I76  1  0.84049523  0.33428781  0.50789757  1
  I  I77  1  0.80264722  0.33122043  0.83658279  1
  I  I78  1  0.81548195  0.66775083  0.16160465  1
  I  I79  1  0.85762698  0.66587577  0.49346941  1
  I  I80  1  0.84943387  0.66849870  0.84792992  1
  I  I81  1  0.16497581  0.17412168  -0.00084848  1
  I  I82  1  0.13897214  0.17422211  0.33471546  1
  I  I83  1  0.18817757  0.17133564  0.66543166  1
  I  I84  1  0.18046763  0.48711774  0.00021991  1
  I  I85  1  0.15121953  0.49522140  0.33117499  1
  I  I86  1  0.15051995  0.48969620  0.66822879  1
  I  I87  1  0.16868794  0.82793415  -0.00046484  1
  I  I88  1  0.19808969  0.83725518  0.33159933  1
  I  I89  1  0.14023527  0.83672918  0.66855284  1
  I  I90  1  0.47226789  0.16329846  -0.00049007  1
  I  I91  1  0.51325948  0.15999649  0.33279050  1
  I  I92  1  0.48404713  0.15253981  0.67024629  1
  I  I93  1  0.52747323  0.50205604  0.00018640  1
  I  I94  1  0.49653170  0.49415028  0.33278237  1
  I  I95  1  0.49521770  0.50947092  0.66785650  1
  I  I96  1  0.49116110  0.84232877  0.00202595  1
  I  I97  1  0.45972814  0.83749217  0.33118062  1
  I  I98  1  0.50532194  0.83293215  0.66819876  1
  I  I99  1  0.85637040  0.16253974  0.00058026  1
  I  I100  1  0.84659066  0.14751636  0.33193780  1
  I  I101  1  0.81187493  0.15598587  0.66883340  1
  I  I102  1  0.81898921  0.50243895  0.00020085  1
  I  I103  1  0.85421442  0.50610905  0.33210201  1
  I  I104  1  0.85302990  0.49602153  0.66667621  1
  I  I105  1  0.83579576  0.84005737  -0.00120932  1
  I  I106  1  0.81686438  0.83598024  0.33385354  1
  I  I107  1  0.86731271  0.83684732  0.66967032  1
  I  I108  1  0.00694118  0.15356262  0.15637329  1
  I  I109  1  0.00183665  0.16289135  0.53603347  1
  I  I110  1  0.00362606  0.18497627  0.81742443  1
  I  I111  1  0.00418275  0.53864164  0.15404851  1
  I  I112  1  0.00116749  0.49105341  0.49957829  1
  I  I113  1  0.00220638  0.46313931  0.84680093  1
  I  I114  1  0.00362006  0.81835898  0.17560644  1
  I  I115  1  0.00149327  0.84887694  0.46677257  1
  I  I116  1  0.00481237  0.84165946  0.85849489  1
  I  I117  1  0.32994775  0.18611233  0.18860366  1
  I  I118  1  0.32934157  0.19009538  0.47157371  1
  I  I119  1  0.32482585  0.16233428  0.83719508  1
  I  I120  1  0.32935411  0.46398641  0.17354061  1
  I  I121  1  0.32833679  0.48202452  0.49617673  1
  I  I122  1  0.32773433  0.53287290  0.81844652  1
  I  I123  1  0.32656626  0.84041240  0.14801777  1
  I  I124  1  0.32960991  0.82144726  0.53009627  1
  I  I125  1  0.33020548  0.81558049  0.82144915  1
  I  I126  1  0.67194261  0.14480030  0.16036160  1
  I  I127  1  0.66806411  0.16928337  0.49768079  1
  I  I128  1  0.66082701  0.14070796  0.84841588  1
  I  I129  1  0.66822573  0.50004289  0.18086012  1
  I  I130  1  0.67156013  0.51276765  0.49948158  1
  I  I131  1  0.66599186  0.50863608  0.82141354  1
  I  I132  1  0.66000440  0.85050315  0.15848021  1
  I  I133  1  0.66668756  0.83403778  0.50715945  1
  I  I134  1  0.67208033  0.84469656  0.83732414  1
