# generated using pymatgen
data_Cs27Sn13Pb14I81
_symmetry_space_group_name_H-M   'P 1'
_cell_length_a   18.97293230
_cell_length_b   18.97274609
_cell_length_c   18.98343469
_cell_angle_alpha   89.99912202
_cell_angle_beta   89.99930183
_cell_angle_gamma   89.99788214
_symmetry_Int_Tables_number   1
_chemical_formula_structural   Cs27Sn13Pb14I81
_chemical_formula_sum   'Cs27 Sn13 Pb14 I81'
_cell_volume   6833.44091926
_cell_formula_units_Z   1
loop_
 _symmetry_equiv_pos_site_id
 _symmetry_equiv_pos_as_xyz
  1  'x, y, z'
loop_
 _atom_site_type_symbol
 _atom_site_label
 _atom_site_symmetry_multiplicity
 _atom_site_fract_x
 _atom_site_fract_y
 _atom_site_fract_z
 _atom_site_occupancy
  Cs  Cs0  1  -0.00239015  0.00359270  0.00282036  1
  Cs  Cs1  1  -0.00091444  0.00173937  0.32754190  1
  Cs  Cs2  1  0.00174276  -0.00442577  0.66860948  1
  Cs  Cs3  1  0.00260064  0.33220823  -0.00021725  1
  Cs  Cs4  1  0.00107886  0.33313331  0.33452986  1
  Cs  Cs5  1  -0.00054059  0.33427083  0.66604384  1
  Cs  Cs6  1  -0.00030340  0.66598631  -0.00142265  1
  Cs  Cs7  1  -0.00061540  0.66477413  0.33460429  1
  Cs  Cs8  1  -0.00041502  0.66804528  0.66678821  1
  Cs  Cs9  1  0.33347654  -0.00386778  -0.00070649  1
  Cs  Cs10  1  0.33597701  -0.00091729  0.33663424  1
  Cs  Cs11  1  0.33696629  -0.00721840  0.66413527  1
  Cs  Cs12  1  0.33198297  0.33488846  0.00202357  1
  Cs  Cs13  1  0.33201213  0.33434083  0.33129158  1
  Cs  Cs14  1  0.33315399  0.33407284  0.66659750  1
  Cs  Cs15  1  0.33428090  0.66585192  -0.00169113  1
  Cs  Cs16  1  0.33280427  0.66589189  0.33360289  1
  Cs  Cs17  1  0.33279760  0.67197251  0.66857221  1
  Cs  Cs18  1  0.66960593  -0.00076553  0.00160812  1
  Cs  Cs19  1  0.66468406  -0.00217617  0.33240813  1
  Cs  Cs20  1  0.66212179  0.01108174  0.66491096  1
  Cs  Cs21  1  0.66356440  0.33368649  -0.00388453  1
  Cs  Cs22  1  0.66487757  0.33468344  0.33800762  1
  Cs  Cs23  1  0.66533156  0.32462861  0.66560302  1
  Cs  Cs24  1  0.66624972  0.66788055  0.00103777  1
  Cs  Cs25  1  0.66774904  0.66727493  0.33115747  1
  Cs  Cs26  1  0.67183790  0.66516744  0.66870436  1
  Sn  Sn27  1  0.83408196  0.50035088  0.83401046  1
  Sn  Sn28  1  0.83324865  0.83351992  0.50083262  1
  Sn  Sn29  1  0.83341747  0.49974863  0.16589916  1
  Sn  Sn30  1  0.16687578  0.16726701  0.83202352  1
  Sn  Sn31  1  0.50001279  0.49909575  0.16746301  1
  Sn  Sn32  1  0.16754025  0.49955565  0.50033627  1
  Sn  Sn33  1  0.16643133  0.16714636  0.50119517  1
  Sn  Sn34  1  0.16647083  0.50091806  0.16665498  1
  Sn  Sn35  1  0.83332984  0.83288535  0.83225793  1
  Sn  Sn36  1  0.16669437  0.83230839  0.16676162  1
  Sn  Sn37  1  0.16594847  0.49942610  0.83309226  1
  Sn  Sn38  1  0.49927456  0.50050997  0.49985309  1
  Sn  Sn39  1  0.50004012  0.16758371  0.16639246  1
  Pb  Pb40  1  0.50004413  0.50015769  0.83303124  1
  Pb  Pb41  1  0.83029311  0.17016384  0.16674501  1
  Pb  Pb42  1  0.83557665  0.16721961  0.83333196  1
  Pb  Pb43  1  0.49765469  0.83250907  0.16665762  1
  Pb  Pb44  1  0.49724562  0.16898003  0.49806424  1
  Pb  Pb45  1  0.16501670  0.83314327  0.83538259  1
  Pb  Pb46  1  0.50298111  0.83025380  0.50009402  1
  Pb  Pb47  1  0.49653892  0.16681625  0.83579254  1
  Pb  Pb48  1  0.50376458  0.83333563  0.83322538  1
  Pb  Pb49  1  0.16510612  0.83304692  0.49804550  1
  Pb  Pb50  1  0.83518341  0.83121027  0.16639513  1
  Pb  Pb51  1  0.83337879  0.50075852  0.50048092  1
  Pb  Pb52  1  0.83609718  0.16361723  0.49987819  1
  Pb  Pb53  1  0.16821954  0.16700122  0.16673338  1
  I  I54  1  0.16760576  -0.00182089  0.16655477  1
  I  I55  1  0.16379989  0.00246832  0.50211627  1
  I  I56  1  0.16540443  0.00242161  0.83170085  1
  I  I57  1  0.16550400  0.33688506  0.16643436  1
  I  I58  1  0.16909079  0.33536801  0.49792642  1
  I  I59  1  0.16127144  0.33553413  0.83539260  1
  I  I60  1  0.16809656  0.66370201  0.16688307  1
  I  I61  1  0.16869332  0.66309556  0.50122294  1
  I  I62  1  0.16462708  0.66319299  0.83179735  1
  I  I63  1  0.49632888  0.00240885  0.16586872  1
  I  I64  1  0.49929733  0.00019525  0.49781764  1
  I  I65  1  0.49869070  0.00024232  0.83603678  1
  I  I66  1  0.49687501  0.33593885  0.16981990  1
  I  I67  1  0.50010572  0.33718040  0.49738558  1
  I  I68  1  0.50535258  0.33373070  0.83202211  1
  I  I69  1  0.50135493  0.66260279  0.17018720  1
  I  I70  1  0.49192495  0.66215847  0.49207420  1
  I  I71  1  0.49457590  0.66618732  0.83603290  1
  I  I72  1  0.83465351  -0.00016168  0.16616900  1
  I  I73  1  0.83572711  -0.00425697  0.50563301  1
  I  I74  1  0.83560583  -0.00276077  0.82995789  1
  I  I75  1  0.84061075  0.33857171  0.16183191  1
  I  I76  1  0.83167157  0.33349339  0.49981700  1
  I  I77  1  0.83584593  0.33695126  0.83829027  1
  I  I78  1  0.83002248  0.66278854  0.16570572  1
  I  I79  1  0.83607348  0.66841546  0.50090728  1
  I  I80  1  0.83973538  0.66505047  0.83344411  1
  I  I81  1  0.16751920  0.17041171  -0.00212039  1
  I  I82  1  0.16788162  0.17022408  0.33553377  1
  I  I83  1  0.16516707  0.17617404  0.66666642  1
  I  I84  1  0.16597862  0.49978407  0.00034881  1
  I  I85  1  0.16668992  0.49996363  0.33291470  1
  I  I86  1  0.16587270  0.49513977  0.66671629  1
  I  I87  1  0.16485968  0.82894452  0.00306538  1
  I  I88  1  0.16360534  0.82852088  0.33038327  1
  I  I89  1  0.16616639  0.83140579  0.66676819  1
  I  I90  1  0.49761948  0.17531385  0.00356883  1
  I  I91  1  0.49652923  0.17019715  0.33031000  1
  I  I92  1  0.50176158  0.16830576  0.66645471  1
  I  I93  1  0.49750750  0.49681809  0.00322240  1
  I  I94  1  0.49687994  0.49640859  0.33216189  1
  I  I95  1  0.49641908  0.50122040  0.66369365  1
  I  I96  1  0.50049378  0.83125310  0.00034011  1
  I  I97  1  0.50276527  0.83490088  0.33325879  1
  I  I98  1  0.49494218  0.83109395  0.66643529  1
  I  I99  1  0.83643661  0.16171863  0.00007619  1
  I  I100  1  0.83758224  0.16609236  0.33320817  1
  I  I101  1  0.83080995  0.17175897  0.66668305  1
  I  I102  1  0.83674258  0.50547493  -0.00005635  1
  I  I103  1  0.83577718  0.50222971  0.33092819  1
  I  I104  1  0.83753763  0.50364054  0.66938726  1
  I  I105  1  0.83555425  0.83022809  -0.00251959  1
  I  I106  1  0.83554178  0.83076376  0.33502051  1
  I  I107  1  0.83646573  0.82433526  0.66756310  1
  I  I108  1  0.00031802  0.16634636  0.16647413  1
  I  I109  1  0.00424523  0.17551297  0.50110558  1
  I  I110  1  0.00375086  0.16931889  0.83223862  1
  I  I111  1  0.00106419  0.50508356  0.16657556  1
  I  I112  1  0.00310405  0.49817652  0.49702885  1
  I  I113  1  0.00096823  0.50024906  0.83660365  1
  I  I114  1  0.00306618  0.82805795  0.16700645  1
  I  I115  1  -0.00246644  0.82940974  0.50314636  1
  I  I116  1  -0.00274851  0.82994995  0.83041480  1
  I  I117  1  0.33564897  0.17405626  0.16644587  1
  I  I118  1  0.32925731  0.16819094  0.50276163  1
  I  I119  1  0.32851681  0.17502423  0.83103154  1
  I  I120  1  0.33239201  0.49959895  0.16717352  1
  I  I121  1  0.33178055  0.49618904  0.49545477  1
  I  I122  1  0.32982372  0.49553182  0.83648691  1
  I  I123  1  0.32966737  0.82739967  0.16688407  1
  I  I124  1  0.33314046  0.83509739  0.49771363  1
  I  I125  1  0.33286534  0.83291240  0.83531812  1
  I  I126  1  0.66249378  0.17108201  0.16702158  1
  I  I127  1  0.66625901  0.16761466  0.49915790  1
  I  I128  1  0.66657998  0.16656293  0.83431615  1
  I  I129  1  0.66651870  0.49615146  0.16717336  1
  I  I130  1  0.66446388  0.50365917  0.49495001  1
  I  I131  1  0.66985606  0.50584278  0.83744531  1
  I  I132  1  0.66685325  0.83261446  0.16626500  1
  I  I133  1  0.67075484  0.82998890  0.50227535  1
  I  I134  1  0.67199043  0.82414234  0.83254796  1
