# generated using pymatgen
data_Cs27Sn13Pb14I81
_symmetry_space_group_name_H-M   'P 1'
_cell_length_a   18.97799117
_cell_length_b   18.97517500
_cell_length_c   18.97609257
_cell_angle_alpha   90.00091659
_cell_angle_beta   89.99942849
_cell_angle_gamma   89.99921029
_symmetry_Int_Tables_number   1
_chemical_formula_structural   Cs27Sn13Pb14I81
_chemical_formula_sum   'Cs27 Sn13 Pb14 I81'
_cell_volume   6833.49404234
_cell_formula_units_Z   1
loop_
 _symmetry_equiv_pos_site_id
 _symmetry_equiv_pos_as_xyz
  1  'x, y, z'
loop_
 _atom_site_type_symbol
 _atom_site_label
 _atom_site_symmetry_multiplicity
 _atom_site_fract_x
 _atom_site_fract_y
 _atom_site_fract_z
 _atom_site_occupancy
  Cs  Cs0  1  -0.00089208  0.00269288  -0.00078223  1
  Cs  Cs1  1  0.00027602  0.00069203  0.33278299  1
  Cs  Cs2  1  -0.00192537  0.00295121  0.66786065  1
  Cs  Cs3  1  0.00204924  0.32999913  -0.00074130  1
  Cs  Cs4  1  -0.00164669  0.33081263  0.33148612  1
  Cs  Cs5  1  0.00211334  0.33708206  0.67246148  1
  Cs  Cs6  1  -0.00229897  0.66712814  0.00343974  1
  Cs  Cs7  1  0.00214170  0.66639020  0.33296877  1
  Cs  Cs8  1  -0.00007208  0.65755048  0.66526567  1
  Cs  Cs9  1  0.33414489  -0.00179793  -0.00235294  1
  Cs  Cs10  1  0.33180398  0.00006163  0.33479776  1
  Cs  Cs11  1  0.33528997  -0.00052684  0.66872631  1
  Cs  Cs12  1  0.33331194  0.33628653  -0.00055384  1
  Cs  Cs13  1  0.34140993  0.33033302  0.33314678  1
  Cs  Cs14  1  0.33233369  0.34082661  0.66748246  1
  Cs  Cs15  1  0.33547918  0.66889579  -0.00027247  1
  Cs  Cs16  1  0.32734556  0.66876043  0.33531224  1
  Cs  Cs17  1  0.32995824  0.66314769  0.66602156  1
  Cs  Cs18  1  0.66681849  -0.00225080  -0.00120561  1
  Cs  Cs19  1  0.66696396  0.00110953  0.33430662  1
  Cs  Cs20  1  0.66586530  -0.00147571  0.66657365  1
  Cs  Cs21  1  0.66399407  0.33699884  0.00216546  1
  Cs  Cs22  1  0.66228142  0.33180863  0.33371325  1
  Cs  Cs23  1  0.66619894  0.34366753  0.66424426  1
  Cs  Cs24  1  0.66584571  0.66843989  -0.00082901  1
  Cs  Cs25  1  0.66864966  0.66755415  0.33263648  1
  Cs  Cs26  1  0.66944100  0.66440486  0.66759169  1
  Sn  Sn27  1  0.83406806  0.49963003  0.16707792  1
  Sn  Sn28  1  0.83367967  0.16667818  0.16728964  1
  Sn  Sn29  1  0.16614000  0.16640592  0.49970724  1
  Sn  Sn30  1  0.83407699  0.16599127  0.49962902  1
  Sn  Sn31  1  0.49904961  0.83426212  0.83282612  1
  Sn  Sn32  1  0.50054269  0.83386023  0.16726683  1
  Sn  Sn33  1  0.16651145  0.83366941  0.83312480  1
  Sn  Sn34  1  0.83299744  0.83418445  0.49927388  1
  Sn  Sn35  1  0.50048618  0.83373837  0.50000810  1
  Sn  Sn36  1  0.50047814  0.16636419  0.83303388  1
  Sn  Sn37  1  0.16646680  0.16739416  0.16738045  1
  Sn  Sn38  1  0.83253605  0.83370615  0.16758164  1
  Sn  Sn39  1  0.16621499  0.49875737  0.16696094  1
  Pb  Pb40  1  0.83058453  0.16677297  0.83292800  1
  Pb  Pb41  1  0.83353099  0.49957125  0.49732420  1
  Pb  Pb42  1  0.50006617  0.16438347  0.16502950  1
  Pb  Pb43  1  0.49995130  0.50377491  0.49959945  1
  Pb  Pb44  1  0.16560407  0.83518530  0.50240410  1
  Pb  Pb45  1  0.49994283  0.50076959  0.83345298  1
  Pb  Pb46  1  0.83330295  0.83336011  0.83267789  1
  Pb  Pb47  1  0.16605508  0.83406173  0.16538464  1
  Pb  Pb48  1  0.50041933  0.16505730  0.50240442  1
  Pb  Pb49  1  0.83342289  0.49972515  0.83660971  1
  Pb  Pb50  1  0.16660063  0.50291914  0.83639886  1
  Pb  Pb51  1  0.16855169  0.16531317  0.83339189  1
  Pb  Pb52  1  0.16643489  0.49625105  0.49690529  1
  Pb  Pb53  1  0.49975171  0.50309843  0.16696657  1
  I  I54  1  0.16377864  0.00284942  0.16849555  1
  I  I55  1  0.16557869  0.00292656  0.49229686  1
  I  I56  1  0.17003860  -0.00257899  0.83704322  1
  I  I57  1  0.15836362  0.33215050  0.16884042  1
  I  I58  1  0.16027796  0.32823059  0.50079727  1
  I  I59  1  0.16893730  0.33327981  0.83181589  1
  I  I60  1  0.16402231  0.66520913  0.16301281  1
  I  I61  1  0.16789428  0.66673406  0.50027135  1
  I  I62  1  0.17403986  0.67079663  0.83412863  1
  I  I63  1  0.50327515  -0.00386523  0.16728737  1
  I  I64  1  0.50154994  -0.00341786  0.49816165  1
  I  I65  1  0.49628340  -0.00216781  0.83437297  1
  I  I66  1  0.50211338  0.33309214  0.16337264  1
  I  I67  1  0.50040278  0.33300932  0.50258114  1
  I  I68  1  0.50058541  0.33066220  0.83480607  1
  I  I69  1  0.50367761  0.67145404  0.16339594  1
  I  I70  1  0.50603186  0.67249173  0.50220710  1
  I  I71  1  0.49670827  0.67092072  0.83458521  1
  I  I72  1  0.83361638  -0.00007768  0.16992859  1
  I  I73  1  0.83297159  -0.00039720  0.49171543  1
  I  I74  1  0.83480148  -0.00011114  0.83910459  1
  I  I75  1  0.83834599  0.33225341  0.16938823  1
  I  I76  1  0.83683325  0.32965041  0.49633937  1
  I  I77  1  0.83106738  0.33298649  0.83248240  1
  I  I78  1  0.83342308  0.66779461  0.16899202  1
  I  I79  1  0.82788906  0.66995781  0.49685531  1
  I  I80  1  0.83142833  0.66701834  0.83366290  1
  I  I81  1  0.16278481  0.16846163  0.00320088  1
  I  I82  1  0.16311796  0.16818716  0.33224082  1
  I  I83  1  0.16294206  0.16167462  0.66405294  1
  I  I84  1  0.16207422  0.49313050  0.00420489  1
  I  I85  1  0.16183657  0.50341900  0.32904620  1
  I  I86  1  0.16769466  0.49980423  0.66657489  1
  I  I87  1  0.17183652  0.83467556  -0.00222171  1
  I  I88  1  0.17043336  0.83145214  0.33334215  1
  I  I89  1  0.17203698  0.83703691  0.66979399  1
  I  I90  1  0.49980641  0.15861274  -0.00251841  1
  I  I91  1  0.49911110  0.16499356  0.33346371  1
  I  I92  1  0.49957274  0.15768605  0.66974141  1
  I  I93  1  0.50118735  0.50291360  0.00038111  1
  I  I94  1  0.49998038  0.49906597  0.33288192  1
  I  I95  1  0.49999917  0.50045706  0.66666782  1
  I  I96  1  0.50012018  0.83635147  0.00015180  1
  I  I97  1  0.50509461  0.83289945  0.33318142  1
  I  I98  1  0.50040829  0.83868785  0.66667697  1
  I  I99  1  0.83715019  0.16515100  0.00370790  1
  I  I100  1  0.83685530  0.16476255  0.33220843  1
  I  I101  1  0.83693592  0.15852015  0.66297492  1
  I  I102  1  0.83636542  0.50141109  0.00533286  1
  I  I103  1  0.83744039  0.50207463  0.32916973  1
  I  I104  1  0.83212058  0.50117702  0.66620628  1
  I  I105  1  0.83060872  0.83346181  0.00329080  1
  I  I106  1  0.82575457  0.83406369  0.33230492  1
  I  I107  1  0.82980994  0.83970329  0.66315494  1
  I  I108  1  -0.00068850  0.16466426  0.16916685  1
  I  I109  1  -0.00094876  0.15913022  0.49505236  1
  I  I110  1  0.00001364  0.16422536  0.83410307  1
  I  I111  1  -0.00083502  0.50276718  0.16649059  1
  I  I112  1  -0.00004522  0.50750609  0.50147711  1
  I  I113  1  0.00022085  0.50245542  0.83142143  1
  I  I114  1  -0.00318671  0.83286706  0.16907161  1
  I  I115  1  -0.00334944  0.83562141  0.49486199  1
  I  I116  1  0.00226067  0.83407557  0.83615089  1
  I  I117  1  0.33053852  0.16931925  0.16946602  1
  I  I118  1  0.33101058  0.16435834  0.49550098  1
  I  I119  1  0.33626074  0.16124084  0.83450756  1
  I  I120  1  0.33029778  0.49633619  0.16566202  1
  I  I121  1  0.33305383  0.50012575  0.49734426  1
  I  I122  1  0.33323634  0.49894525  0.83682461  1
  I  I123  1  0.33558962  0.83330012  0.16741043  1
  I  I124  1  0.33575144  0.83518822  0.49739267  1
  I  I125  1  0.33499299  0.83755344  0.83530703  1
  I  I126  1  0.66990241  0.16844561  0.16979702  1
  I  I127  1  0.66985330  0.16351989  0.49504367  1
  I  I128  1  0.66307774  0.15681942  0.83487193  1
  I  I129  1  0.66989125  0.49777937  0.16661553  1
  I  I130  1  0.66691451  0.49525257  0.49766835  1
  I  I131  1  0.66654668  0.50188535  0.83540432  1
  I  I132  1  0.66756887  0.83336992  0.16452312  1
  I  I133  1  0.66714031  0.83913779  0.50010101  1
  I  I134  1  0.66356939  0.83699535  0.83472464  1
