# generated using pymatgen
data_Cs27Sn14Pb13I81
_symmetry_space_group_name_H-M   'P 1'
_cell_length_a   18.96619894
_cell_length_b   18.98544564
_cell_length_c   18.97697228
_cell_angle_alpha   89.99970053
_cell_angle_beta   89.99996483
_cell_angle_gamma   90.00157723
_symmetry_Int_Tables_number   1
_chemical_formula_structural   Cs27Sn14Pb13I81
_chemical_formula_sum   'Cs27 Sn14 Pb13 I81'
_cell_volume   6833.26117677
_cell_formula_units_Z   1
loop_
 _symmetry_equiv_pos_site_id
 _symmetry_equiv_pos_as_xyz
  1  'x, y, z'
loop_
 _atom_site_type_symbol
 _atom_site_label
 _atom_site_symmetry_multiplicity
 _atom_site_fract_x
 _atom_site_fract_y
 _atom_site_fract_z
 _atom_site_occupancy
  Cs  Cs0  1  -0.00049684  0.00111728  0.00045685  1
  Cs  Cs1  1  0.00211415  0.00227928  0.33674803  1
  Cs  Cs2  1  -0.00083075  0.00091534  0.66335959  1
  Cs  Cs3  1  0.00128884  0.33303580  -0.00004078  1
  Cs  Cs4  1  0.00138974  0.33104438  0.33296910  1
  Cs  Cs5  1  -0.00020103  0.33258128  0.66768227  1
  Cs  Cs6  1  -0.00469579  0.66507919  0.00034376  1
  Cs  Cs7  1  -0.00081203  0.66654042  0.33232259  1
  Cs  Cs8  1  -0.00068880  0.66435558  0.66718205  1
  Cs  Cs9  1  0.33389599  0.00002361  -0.00033576  1
  Cs  Cs10  1  0.33689169  -0.00166972  0.33384738  1
  Cs  Cs11  1  0.33286855  -0.00248446  0.66762126  1
  Cs  Cs12  1  0.33234431  0.33486853  -0.00030754  1
  Cs  Cs13  1  0.33276184  0.33247113  0.33084859  1
  Cs  Cs14  1  0.33367111  0.33383053  0.66880593  1
  Cs  Cs15  1  0.33227860  0.66373067  -0.00247354  1
  Cs  Cs16  1  0.33247342  0.66902400  0.33520525  1
  Cs  Cs17  1  0.33350358  0.66936324  0.66817283  1
  Cs  Cs18  1  0.66757328  -0.00446804  -0.00018577  1
  Cs  Cs19  1  0.66025873  -0.00040666  0.33137886  1
  Cs  Cs20  1  0.67089528  0.00154077  0.66933641  1
  Cs  Cs21  1  0.66528274  0.33271082  -0.00132142  1
  Cs  Cs22  1  0.66565575  0.33493706  0.33816014  1
  Cs  Cs23  1  0.66771256  0.33527653  0.66331302  1
  Cs  Cs24  1  0.67153711  0.67047946  0.00375529  1
  Cs  Cs25  1  0.66949111  0.66513089  0.33258249  1
  Cs  Cs26  1  0.66765967  0.66192387  0.66338399  1
  Sn  Sn27  1  0.49950782  0.83328582  0.83333001  1
  Sn  Sn28  1  0.16735453  0.50014205  0.16745320  1
  Sn  Sn29  1  0.49976075  0.50020289  0.83447369  1
  Sn  Sn30  1  0.83361649  0.16673017  0.16764891  1
  Sn  Sn31  1  0.16700846  0.49911283  0.49928293  1
  Sn  Sn32  1  0.83333657  0.83436170  0.49975458  1
  Sn  Sn33  1  0.16667879  0.83348980  0.16577255  1
  Sn  Sn34  1  0.49922227  0.49990922  0.16599079  1
  Sn  Sn35  1  0.16689542  0.83417778  0.83430163  1
  Sn  Sn36  1  0.16666379  0.16746111  0.49988385  1
  Sn  Sn37  1  0.16744823  0.16571163  0.83340552  1
  Sn  Sn38  1  0.49919107  0.16652183  0.83331951  1
  Sn  Sn39  1  0.83401441  0.16545586  0.49852202  1
  Sn  Sn40  1  0.16638612  0.16629433  0.16676043  1
  Pb  Pb41  1  0.83632247  0.49915323  0.49971825  1
  Pb  Pb42  1  0.49762810  0.83075191  0.16456238  1
  Pb  Pb43  1  0.16560531  0.83357405  0.50025221  1
  Pb  Pb44  1  0.49979907  0.16835098  0.16451890  1
  Pb  Pb45  1  0.49970217  0.16651901  0.50244318  1
  Pb  Pb46  1  0.83365955  0.49723204  0.16673762  1
  Pb  Pb47  1  0.16768156  0.50006715  0.83358165  1
  Pb  Pb48  1  0.83408016  0.83346099  0.83140244  1
  Pb  Pb49  1  0.49705462  0.49993996  0.49951916  1
  Pb  Pb50  1  0.83388279  0.16672314  0.83337550  1
  Pb  Pb51  1  0.83604109  0.83614374  0.16891311  1
  Pb  Pb52  1  0.50301875  0.83339205  0.50256657  1
  Pb  Pb53  1  0.82961570  0.49995167  0.83362226  1
  I  I54  1  0.16151838  0.00094725  0.16568454  1
  I  I55  1  0.16396137  0.00306240  0.49893394  1
  I  I56  1  0.17424989  0.00089201  0.83546409  1
  I  I57  1  0.16656096  0.33265723  0.16707354  1
  I  I58  1  0.16159241  0.33184033  0.49810124  1
  I  I59  1  0.17003983  0.33041460  0.83465451  1
  I  I60  1  0.17232662  0.66628036  0.16714329  1
  I  I61  1  0.16549738  0.66457385  0.49739032  1
  I  I62  1  0.17074310  0.66918192  0.83470661  1
  I  I63  1  0.50005177  -0.00003132  0.16518127  1
  I  I64  1  0.49472750  0.00009515  0.50092773  1
  I  I65  1  0.49510817  0.00018911  0.83161531  1
  I  I66  1  0.49375667  0.33611391  0.15999145  1
  I  I67  1  0.50497963  0.33324398  0.50425112  1
  I  I68  1  0.49518596  0.33311038  0.83697247  1
  I  I69  1  0.49435921  0.66286810  0.16106575  1
  I  I70  1  0.49968424  0.66654382  0.50338927  1
  I  I71  1  0.49423979  0.66681090  0.83617245  1
  I  I72  1  0.83888517  0.00391078  0.16700896  1
  I  I73  1  0.84129075  0.00185829  0.49849346  1
  I  I74  1  0.82767836  0.00025696  0.83477948  1
  I  I75  1  0.83972717  0.32945656  0.17269708  1
  I  I76  1  0.83503770  0.32972093  0.49680228  1
  I  I77  1  0.83430614  0.33292999  0.83050408  1
  I  I78  1  0.83374361  0.66684039  0.16772808  1
  I  I79  1  0.83458380  0.66880225  0.50316375  1
  I  I80  1  0.83571846  0.66692276  0.83005130  1
  I  I81  1  0.16636638  0.16692002  0.00031682  1
  I  I82  1  0.16120572  0.16801642  0.33300860  1
  I  I83  1  0.16638950  0.16705318  0.66674966  1
  I  I84  1  0.16914293  0.49710451  0.00281831  1
  I  I85  1  0.17186946  0.49691120  0.33208639  1
  I  I86  1  0.16708690  0.49687607  0.66464396  1
  I  I87  1  0.17066816  0.83680605  -0.00032627  1
  I  I88  1  0.16376971  0.83460788  0.33080437  1
  I  I89  1  0.16936803  0.83600951  0.66948217  1
  I  I90  1  0.49568184  0.16544352  -0.00361184  1
  I  I91  1  0.49828866  0.16936069  0.33314865  1
  I  I92  1  0.49583919  0.16943105  0.67088071  1
  I  I93  1  0.49192251  0.49864889  -0.00037080  1
  I  I94  1  0.49766133  0.49834725  0.33013697  1
  I  I95  1  0.49898652  0.49989720  0.66982171  1
  I  I96  1  0.49888474  0.83653857  -0.00371257  1
  I  I97  1  0.49895795  0.83152772  0.33299800  1
  I  I98  1  0.49127641  0.83114570  0.67111624  1
  I  I99  1  0.83769956  0.16864189  0.00265905  1
  I  I100  1  0.84340299  0.16378479  0.33382277  1
  I  I101  1  0.83656630  0.16334523  0.66373530  1
  I  I102  1  0.83931140  0.49806396  0.00039927  1
  I  I103  1  0.82732026  0.50269529  0.33329120  1
  I  I104  1  0.83421980  0.49787933  0.66634842  1
  I  I105  1  0.83137130  0.83432543  0.00026238  1
  I  I106  1  0.83663983  0.83486297  0.33653071  1
  I  I107  1  0.83578430  0.84125121  0.66375750  1
  I  I108  1  0.00237329  0.16871604  0.16494992  1
  I  I109  1  0.00152051  0.16677241  0.50172290  1
  I  I110  1  0.00380254  0.16168759  0.83314970  1
  I  I111  1  0.00383483  0.50157158  0.17113503  1
  I  I112  1  0.00428181  0.49849619  0.49421921  1
  I  I113  1  0.00037934  0.50004104  0.83287854  1
  I  I114  1  0.00437486  0.82770466  0.15934432  1
  I  I115  1  -0.00199740  0.83568813  0.50227911  1
  I  I116  1  0.00374943  0.83944607  0.83586144  1
  I  I117  1  0.32962003  0.16569211  0.16893013  1
  I  I118  1  0.32957032  0.17098936  0.49738658  1
  I  I119  1  0.33186233  0.16634395  0.83340282  1
  I  I120  1  0.33159583  0.49676326  0.16598562  1
  I  I121  1  0.32910636  0.49362017  0.49863463  1
  I  I122  1  0.33578209  0.49924974  0.83426237  1
  I  I123  1  0.32919956  0.83959375  0.16709336  1
  I  I124  1  0.33306183  0.83312997  0.49901735  1
  I  I125  1  0.33244107  0.83454893  0.83595758  1
  I  I126  1  0.66903085  0.16941451  0.16997331  1
  I  I127  1  0.66981994  0.16269101  0.49697088  1
  I  I128  1  0.66374910  0.16720037  0.83340537  1
  I  I129  1  0.66375663  0.49819524  0.16029290  1
  I  I130  1  0.66668938  0.49977276  0.50158910  1
  I  I131  1  0.66092184  0.49898548  0.83868833  1
  I  I132  1  0.66674072  0.83294010  0.16568223  1
  I  I133  1  0.67089285  0.84053303  0.50160313  1
  I  I134  1  0.66360548  0.83387642  0.83091539  1
