# generated using pymatgen
data_Cs27Sn14Pb13I81
_symmetry_space_group_name_H-M   'P 1'
_cell_length_a   18.98531230
_cell_length_b   18.97112763
_cell_length_c   18.97207193
_cell_angle_alpha   89.99654356
_cell_angle_beta   89.99926578
_cell_angle_gamma   90.00106322
_symmetry_Int_Tables_number   1
_chemical_formula_structural   Cs27Sn14Pb13I81
_chemical_formula_sum   'Cs27 Sn14 Pb13 I81'
_cell_volume   6833.22392456
_cell_formula_units_Z   1
loop_
 _symmetry_equiv_pos_site_id
 _symmetry_equiv_pos_as_xyz
  1  'x, y, z'
loop_
 _atom_site_type_symbol
 _atom_site_label
 _atom_site_symmetry_multiplicity
 _atom_site_fract_x
 _atom_site_fract_y
 _atom_site_fract_z
 _atom_site_occupancy
  Cs  Cs0  1  0.00083522  0.00072254  -0.00261125  1
  Cs  Cs1  1  0.00073542  -0.00031317  0.33155567  1
  Cs  Cs2  1  -0.00001593  -0.00052483  0.67024207  1
  Cs  Cs3  1  -0.00045743  0.33393488  0.00056822  1
  Cs  Cs4  1  -0.00341588  0.33635024  0.33480124  1
  Cs  Cs5  1  0.00103464  0.33345124  0.66557588  1
  Cs  Cs6  1  0.00114805  0.66603097  0.00056061  1
  Cs  Cs7  1  -0.00296217  0.66415655  0.33388684  1
  Cs  Cs8  1  0.00145594  0.66661588  0.66527392  1
  Cs  Cs9  1  0.33122335  0.00555357  0.00893332  1
  Cs  Cs10  1  0.33392131  -0.00028697  0.33153552  1
  Cs  Cs11  1  0.33173482  -0.00516226  0.66385791  1
  Cs  Cs12  1  0.33450996  0.32981424  -0.00196914  1
  Cs  Cs13  1  0.33337066  0.33316443  0.33504052  1
  Cs  Cs14  1  0.33531481  0.33277577  0.66658814  1
  Cs  Cs15  1  0.33204120  0.66612424  -0.00311870  1
  Cs  Cs16  1  0.33367614  0.66673934  0.33359510  1
  Cs  Cs17  1  0.33290054  0.66907027  0.66856196  1
  Cs  Cs18  1  0.66918171  -0.00006617  0.00061379  1
  Cs  Cs19  1  0.66475670  0.00017436  0.33311266  1
  Cs  Cs20  1  0.66952268  -0.00171857  0.66695721  1
  Cs  Cs21  1  0.66623743  0.33531350  -0.00145241  1
  Cs  Cs22  1  0.66896774  0.33360433  0.33325670  1
  Cs  Cs23  1  0.66362141  0.33227619  0.66915185  1
  Cs  Cs24  1  0.66793477  0.66476084  0.00108046  1
  Cs  Cs25  1  0.66791560  0.66733391  0.33306853  1
  Cs  Cs26  1  0.66489515  0.66941205  0.66621863  1
  Sn  Sn27  1  0.50005526  0.16636145  0.50008554  1
  Sn  Sn28  1  0.16789802  0.83278197  0.83297376  1
  Sn  Sn29  1  0.16593484  0.50030121  0.83398007  1
  Sn  Sn30  1  0.49996296  0.50022008  0.49940873  1
  Sn  Sn31  1  0.16655599  0.16580432  0.50008225  1
  Sn  Sn32  1  0.49902203  0.83366380  0.83337233  1
  Sn  Sn33  1  0.16712168  0.83394679  0.50036584  1
  Sn  Sn34  1  0.83340939  0.49933192  0.16586664  1
  Sn  Sn35  1  0.83426224  0.50014699  0.83350999  1
  Sn  Sn36  1  0.83339912  0.16664931  0.49937614  1
  Sn  Sn37  1  0.49979080  0.50004898  0.16735858  1
  Sn  Sn38  1  0.16684306  0.49994895  0.16594993  1
  Sn  Sn39  1  0.83340431  0.16729092  0.16731599  1
  Sn  Sn40  1  0.49926618  0.83337977  0.50053872  1
  Pb  Pb41  1  0.83344657  0.83334329  0.16662045  1
  Pb  Pb42  1  0.83358559  0.83613231  0.49990868  1
  Pb  Pb43  1  0.83072130  0.49824306  0.50038626  1
  Pb  Pb44  1  0.83331946  0.16922205  0.83351725  1
  Pb  Pb45  1  0.49972749  0.16287773  0.83110787  1
  Pb  Pb46  1  0.49991781  0.83119556  0.16671917  1
  Pb  Pb47  1  0.50212396  0.16919602  0.16879202  1
  Pb  Pb48  1  0.16857503  0.50038394  0.50037125  1
  Pb  Pb49  1  0.16691666  0.16649518  0.83127208  1
  Pb  Pb50  1  0.16443625  0.16948341  0.16938041  1
  Pb  Pb51  1  0.83377526  0.83071196  0.83327906  1
  Pb  Pb52  1  0.16666393  0.83116890  0.16675731  1
  Pb  Pb53  1  0.49954584  0.50141559  0.83339363  1
  I  I54  1  0.16444866  0.00031144  0.16430235  1
  I  I55  1  0.17072364  -0.00055596  0.50540995  1
  I  I56  1  0.17052211  -0.00341630  0.82942374  1
  I  I57  1  0.16905298  0.33772082  0.16219998  1
  I  I58  1  0.16762990  0.33123452  0.49910528  1
  I  I59  1  0.16187869  0.33661237  0.83579643  1
  I  I60  1  0.16363970  0.66261030  0.16856781  1
  I  I61  1  0.17230307  0.66913939  0.50097434  1
  I  I62  1  0.16646308  0.66636589  0.83056205  1
  I  I63  1  0.50247807  0.00022729  0.16677644  1
  I  I64  1  0.49996838  -0.00027240  0.50550981  1
  I  I65  1  0.49433876  -0.00518753  0.82720571  1
  I  I66  1  0.49806370  0.33758373  0.17171580  1
  I  I67  1  0.49977520  0.33330338  0.49468445  1
  I  I68  1  0.50060000  0.33348122  0.83173235  1
  I  I69  1  0.50342005  0.66265823  0.17332871  1
  I  I70  1  0.49506344  0.66708922  0.49985003  1
  I  I71  1  0.49916832  0.66913280  0.82630345  1
  I  I72  1  0.83247386  0.00349372  0.17276924  1
  I  I73  1  0.82856184  0.00431240  0.49389373  1
  I  I74  1  0.83322314  0.00000543  0.83375452  1
  I  I75  1  0.83343222  0.33486367  0.16813204  1
  I  I76  1  0.83466907  0.33022017  0.49850605  1
  I  I77  1  0.83864132  0.33735526  0.83448141  1
  I  I78  1  0.83304780  0.66253815  0.16266391  1
  I  I79  1  0.83304621  0.66646028  0.49912174  1
  I  I80  1  0.83413208  0.66266552  0.84004897  1
  I  I81  1  0.16389194  0.16368313  0.00031713  1
  I  I82  1  0.16988546  0.16198755  0.33757304  1
  I  I83  1  0.16454082  0.16890365  0.66261732  1
  I  I84  1  0.16703400  0.50621753  -0.00036428  1
  I  I85  1  0.16398732  0.49919738  0.33120347  1
  I  I86  1  0.16305160  0.50083548  0.66918863  1
  I  I87  1  0.17057476  0.82936420  -0.00333708  1
  I  I88  1  0.17172592  0.83649127  0.33676051  1
  I  I89  1  0.17080298  0.83068984  0.66628575  1
  I  I90  1  0.50246817  0.16703599  0.00027742  1
  I  I91  1  0.49770139  0.16181741  0.33746734  1
  I  I92  1  0.50281558  0.17453929  0.66194886  1
  I  I93  1  0.50135016  0.50278225  0.00251256  1
  I  I94  1  0.49996171  0.50150065  0.33375975  1
  I  I95  1  0.50015284  0.49784289  0.66392047  1
  I  I96  1  0.49618060  0.82875912  -0.00304857  1
  I  I97  1  0.49580195  0.83511433  0.33701652  1
  I  I98  1  0.49619555  0.83032659  0.66505204  1
  I  I99  1  0.83327243  0.16975456  0.00307945  1
  I  I100  1  0.83335317  0.17402661  0.33401832  1
  I  I101  1  0.83244403  0.16763590  0.66338648  1
  I  I102  1  0.83126231  0.49459273  0.00116813  1
  I  I103  1  0.83598229  0.49785554  0.33064870  1
  I  I104  1  0.83739692  0.49915366  0.66910811  1
  I  I105  1  0.83218260  0.83817584  -0.00026688  1
  I  I106  1  0.83346117  0.82734443  0.33360182  1
  I  I107  1  0.83239980  0.83257899  0.66652796  1
  I  I108  1  -0.00331905  0.17311066  0.17332527  1
  I  I109  1  0.00013831  0.16323000  0.49641154  1
  I  I110  1  0.00004678  0.16251476  0.82922971  1
  I  I111  1  -0.00031075  0.49664734  0.16216367  1
  I  I112  1  0.00002842  0.49976757  0.49780040  1
  I  I113  1  0.00083471  0.50491513  0.84040665  1
  I  I114  1  0.00026410  0.83037654  0.16784851  1
  I  I115  1  0.00344711  0.83665805  0.50448703  1
  I  I116  1  0.00354745  0.83112713  0.82815020  1
  I  I117  1  0.33326058  0.16820733  0.16767606  1
  I  I118  1  0.33368640  0.16675932  0.50165382  1
  I  I119  1  0.33329128  0.17474548  0.83247069  1
  I  I120  1  0.33334877  0.50261122  0.16776973  1
  I  I121  1  0.33651527  0.49571892  0.49624498  1
  I  I122  1  0.33063044  0.50263497  0.83573028  1
  I  I123  1  0.33329307  0.83102592  0.16733476  1
  I  I124  1  0.33374048  0.83718941  0.50414389  1
  I  I125  1  0.33248292  0.82421846  0.82598781  1
  I  I126  1  0.66999911  0.17323717  0.17315450  1
  I  I127  1  0.66624444  0.16794665  0.49578405  1
  I  I128  1  0.66661559  0.16750895  0.82994319  1
  I  I129  1  0.66712350  0.49645081  0.16681988  1
  I  I130  1  0.66267483  0.50095336  0.49676969  1
  I  I131  1  0.66844334  0.50050130  0.83621645  1
  I  I132  1  0.66646013  0.82995648  0.16714232  1
  I  I133  1  0.66330022  0.83282671  0.50406709  1
  I  I134  1  0.66380482  0.83194769  0.82744933  1
