# generated using pymatgen
data_Cs27Sn14Pb13I81
_symmetry_space_group_name_H-M   'P 1'
_cell_length_a   18.97054206
_cell_length_b   18.96952458
_cell_length_c   18.98772091
_cell_angle_alpha   89.99949831
_cell_angle_beta   90.00059594
_cell_angle_gamma   90.00249060
_symmetry_Int_Tables_number   1
_chemical_formula_structural   Cs27Sn14Pb13I81
_chemical_formula_sum   'Cs27 Sn14 Pb13 I81'
_cell_volume   6832.96233019
_cell_formula_units_Z   1
loop_
 _symmetry_equiv_pos_site_id
 _symmetry_equiv_pos_as_xyz
  1  'x, y, z'
loop_
 _atom_site_type_symbol
 _atom_site_label
 _atom_site_symmetry_multiplicity
 _atom_site_fract_x
 _atom_site_fract_y
 _atom_site_fract_z
 _atom_site_occupancy
  Cs  Cs0  1  -0.00216219  -0.00159148  -0.00145659  1
  Cs  Cs1  1  -0.00020888  -0.00021113  0.33289455  1
  Cs  Cs2  1  0.00156796  0.00239017  0.66838910  1
  Cs  Cs3  1  0.00706731  0.33518238  0.00098242  1
  Cs  Cs4  1  -0.00060361  0.33226975  0.33224656  1
  Cs  Cs5  1  0.00163902  0.33212973  0.66928196  1
  Cs  Cs6  1  -0.00168814  0.66662298  -0.00199803  1
  Cs  Cs7  1  -0.00201660  0.66770095  0.33477633  1
  Cs  Cs8  1  -0.00714293  0.66422279  0.66540198  1
  Cs  Cs9  1  0.33457488  -0.00136795  -0.00034268  1
  Cs  Cs10  1  0.33371013  -0.00152332  0.33403485  1
  Cs  Cs11  1  0.33463104  -0.00221441  0.66603586  1
  Cs  Cs12  1  0.32662900  0.34377297  0.00816964  1
  Cs  Cs13  1  0.33189903  0.33430250  0.32850287  1
  Cs  Cs14  1  0.33117732  0.33425185  0.66693051  1
  Cs  Cs15  1  0.33336618  0.66398579  0.00029839  1
  Cs  Cs16  1  0.33319263  0.66840867  0.33491815  1
  Cs  Cs17  1  0.33475030  0.66958760  0.66406018  1
  Cs  Cs18  1  0.66727153  0.00148844  -0.00154950  1
  Cs  Cs19  1  0.66622361  0.00129376  0.33279655  1
  Cs  Cs20  1  0.66359889  0.00275411  0.66762960  1
  Cs  Cs21  1  0.66441527  0.33259624  0.00246745  1
  Cs  Cs22  1  0.66751858  0.33192801  0.33211251  1
  Cs  Cs23  1  0.66715209  0.33173377  0.66581298  1
  Cs  Cs24  1  0.66817019  0.66469117  -0.00374512  1
  Cs  Cs25  1  0.66937365  0.66775169  0.33589759  1
  Cs  Cs26  1  0.67090881  0.66261758  0.66604788  1
  Sn  Sn27  1  0.49942050  0.83382656  0.83308885  1
  Sn  Sn28  1  0.49968884  0.83337331  0.16654141  1
  Sn  Sn29  1  0.16725029  0.50081079  0.50008156  1
  Sn  Sn30  1  0.49974004  0.16682231  0.83321715  1
  Sn  Sn31  1  0.83263865  0.16666381  0.83340611  1
  Sn  Sn32  1  0.49933999  0.49979768  0.49997367  1
  Sn  Sn33  1  0.16744878  0.83351334  0.16678503  1
  Sn  Sn34  1  0.83275551  0.16630128  0.50019008  1
  Sn  Sn35  1  0.49972739  0.83324575  0.50023084  1
  Sn  Sn36  1  0.83325093  0.16750116  0.16641910  1
  Sn  Sn37  1  0.83304087  0.49939406  0.16669556  1
  Sn  Sn38  1  0.16707283  0.83248499  0.50029516  1
  Sn  Sn39  1  0.50042235  0.16695796  0.50050533  1
  Sn  Sn40  1  0.16742609  0.83335631  0.83283242  1
  Pb  Pb41  1  0.16459341  0.50306566  0.16926646  1
  Pb  Pb42  1  0.50121343  0.16496203  0.16629006  1
  Pb  Pb43  1  0.83263916  0.83525058  0.83303260  1
  Pb  Pb44  1  0.83300326  0.83346751  0.16665670  1
  Pb  Pb45  1  0.83316516  0.49633196  0.83598234  1
  Pb  Pb46  1  0.83344276  0.49725486  0.49873016  1
  Pb  Pb47  1  0.16832392  0.16490302  0.83347848  1
  Pb  Pb48  1  0.16696238  0.50336714  0.83040112  1
  Pb  Pb49  1  0.49982754  0.49963169  0.83107178  1
  Pb  Pb50  1  0.16422477  0.16405474  0.16656222  1
  Pb  Pb51  1  0.16776826  0.16642521  0.49999308  1
  Pb  Pb52  1  0.50184520  0.50303995  0.16934773  1
  Pb  Pb53  1  0.83317583  0.83589759  0.50023781  1
  I  I54  1  0.16825431  -0.00439296  0.17122066  1
  I  I55  1  0.16893809  -0.00351943  0.49982664  1
  I  I56  1  0.16696968  -0.00375314  0.82934400  1
  I  I57  1  0.16699442  0.33380555  0.16810260  1
  I  I58  1  0.16905645  0.33587121  0.49926471  1
  I  I59  1  0.16519066  0.33355394  0.83153932  1
  I  I60  1  0.16831367  0.67104870  0.16490754  1
  I  I61  1  0.17469387  0.66825240  0.49948006  1
  I  I62  1  0.17371552  0.67173651  0.83681071  1
  I  I63  1  0.49896148  -0.00338528  0.17175604  1
  I  I64  1  0.50040650  -0.00067064  0.50033076  1
  I  I65  1  0.50074047  -0.00069006  0.82834972  1
  I  I66  1  0.50062053  0.33347999  0.16704514  1
  I  I67  1  0.50125752  0.33241838  0.50505257  1
  I  I68  1  0.50741305  0.32968152  0.82698369  1
  I  I69  1  0.49842382  0.67130480  0.16601154  1
  I  I70  1  0.49490955  0.66789815  0.49901473  1
  I  I71  1  0.49511121  0.67023106  0.83334800  1
  I  I72  1  0.83377289  0.00293245  0.16702899  1
  I  I73  1  0.82981817  0.00402231  0.49647863  1
  I  I74  1  0.83240641  0.00347156  0.83611444  1
  I  I75  1  0.83175631  0.33192981  0.16822591  1
  I  I76  1  0.82925798  0.32930854  0.50163417  1
  I  I77  1  0.82649100  0.32820383  0.82892350  1
  I  I78  1  0.83374533  0.66465381  0.16932083  1
  I  I79  1  0.83133419  0.66647767  0.49692740  1
  I  I80  1  0.83353792  0.66648764  0.83585467  1
  I  I81  1  0.16536003  0.16381181  -0.00004758  1
  I  I82  1  0.16534089  0.16337802  0.33354770  1
  I  I83  1  0.15962815  0.16504490  0.66652712  1
  I  I84  1  0.16433356  0.50046480  0.00025674  1
  I  I85  1  0.17044806  0.50588068  0.33688198  1
  I  I86  1  0.16950799  0.50453824  0.66243449  1
  I  I87  1  0.17187458  0.83677661  -0.00011612  1
  I  I88  1  0.17203156  0.83039673  0.33416048  1
  I  I89  1  0.17324689  0.83105129  0.66594432  1
  I  I90  1  0.50647903  0.15835806  -0.00289048  1
  I  I91  1  0.50443052  0.16470554  0.33634816  1
  I  I92  1  0.50917227  0.16064485  0.66581824  1
  I  I93  1  0.50241108  0.50027553  0.00031754  1
  I  I94  1  0.49696947  0.49890223  0.33749558  1
  I  I95  1  0.49787073  0.50470981  0.66258489  1
  I  I96  1  0.49496436  0.83954000  -0.00063840  1
  I  I97  1  0.49503182  0.83390363  0.33447282  1
  I  I98  1  0.49384266  0.83542862  0.66602455  1
  I  I99  1  0.82865955  0.16841766  -0.00029973  1
  I  I100  1  0.82958461  0.16951970  0.33367041  1
  I  I101  1  0.82883842  0.16394937  0.66646518  1
  I  I102  1  0.83325295  0.49701513  0.00373868  1
  I  I103  1  0.83311981  0.49404121  0.33114799  1
  I  I104  1  0.83385983  0.50003436  0.66649081  1
  I  I105  1  0.83395968  0.83585842  0.00002447  1
  I  I106  1  0.83326752  0.83691243  0.33338521  1
  I  I107  1  0.83523320  0.83400567  0.66655624  1
  I  I108  1  -0.00444907  0.16798086  0.16811236  1
  I  I109  1  -0.00256581  0.16613617  0.49980213  1
  I  I110  1  -0.00261169  0.16467696  0.83224049  1
  I  I111  1  -0.00304262  0.49648879  0.16980617  1
  I  I112  1  0.00250433  0.50545246  0.49796068  1
  I  I113  1  0.00002525  0.50087011  0.83034282  1
  I  I114  1  0.00281133  0.83407670  0.16772299  1
  I  I115  1  0.00330857  0.82979331  0.49865413  1
  I  I116  1  0.00291845  0.83479547  0.83418609  1
  I  I117  1  0.33351033  0.16699821  0.16754177  1
  I  I118  1  0.33722255  0.16509144  0.50581527  1
  I  I119  1  0.33743183  0.16192255  0.82442053  1
  I  I120  1  0.33331170  0.49836157  0.16570045  1
  I  I121  1  0.33413529  0.49989154  0.49998607  1
  I  I122  1  0.33339573  0.49326113  0.83703422  1
  I  I123  1  0.33375759  0.83412089  0.16790582  1
  I  I124  1  0.33432073  0.83506320  0.49962085  1
  I  I125  1  0.33445687  0.84001718  0.83247497  1
  I  I126  1  0.66960918  0.16642595  0.16776934  1
  I  I127  1  0.66554455  0.16583570  0.50009896  1
  I  I128  1  0.66606264  0.15963224  0.83200472  1
  I  I129  1  0.66949026  0.49756316  0.16973926  1
  I  I130  1  0.66375610  0.50379653  0.49857561  1
  I  I131  1  0.66655085  0.50701879  0.83055977  1
  I  I132  1  0.66357452  0.83413571  0.16806459  1
  I  I133  1  0.66287785  0.83063029  0.49918730  1
  I  I134  1  0.66285927  0.83556362  0.83356557  1
