# generated using pymatgen
data_Cs27Sn14Pb13I81
_symmetry_space_group_name_H-M   'P 1'
_cell_length_a   18.98025060
_cell_length_b   18.97553858
_cell_length_c   18.97118460
_cell_angle_alpha   90.00100535
_cell_angle_beta   90.00074141
_cell_angle_gamma   90.00013737
_symmetry_Int_Tables_number   1
_chemical_formula_structural   Cs27Sn14Pb13I81
_chemical_formula_sum   'Cs27 Sn14 Pb13 I81'
_cell_volume   6832.67090446
_cell_formula_units_Z   1
loop_
 _symmetry_equiv_pos_site_id
 _symmetry_equiv_pos_as_xyz
  1  'x, y, z'
loop_
 _atom_site_type_symbol
 _atom_site_label
 _atom_site_symmetry_multiplicity
 _atom_site_fract_x
 _atom_site_fract_y
 _atom_site_fract_z
 _atom_site_occupancy
  Cs  Cs0  1  -0.00055961  -0.00063989  0.00335573  1
  Cs  Cs1  1  0.00873250  0.00091262  0.32697189  1
  Cs  Cs2  1  -0.00005650  -0.00078596  0.66791186  1
  Cs  Cs3  1  0.00104819  0.33351774  0.00143056  1
  Cs  Cs4  1  -0.00062857  0.33491010  0.33209350  1
  Cs  Cs5  1  -0.00221557  0.33418559  0.66669566  1
  Cs  Cs6  1  -0.00089829  0.66674241  -0.00107864  1
  Cs  Cs7  1  0.00124645  0.66257119  0.33587207  1
  Cs  Cs8  1  -0.00264985  0.66619682  0.66602726  1
  Cs  Cs9  1  0.33470326  -0.00004974  -0.00104860  1
  Cs  Cs10  1  0.32566415  -0.00820374  0.34094127  1
  Cs  Cs11  1  0.33182939  0.00097383  0.66422508  1
  Cs  Cs12  1  0.33570055  0.33485966  -0.00249010  1
  Cs  Cs13  1  0.33325733  0.33110074  0.33420368  1
  Cs  Cs14  1  0.33771872  0.33300775  0.66834600  1
  Cs  Cs15  1  0.33354260  0.66543997  -0.00181250  1
  Cs  Cs16  1  0.33363853  0.67435025  0.33369905  1
  Cs  Cs17  1  0.33565276  0.66473986  0.66864496  1
  Cs  Cs18  1  0.66639809  -0.00089943  -0.00063778  1
  Cs  Cs19  1  0.66422426  -0.00362589  0.33004612  1
  Cs  Cs20  1  0.66708184  0.00251875  0.66956859  1
  Cs  Cs21  1  0.66501775  0.33168050  0.00124834  1
  Cs  Cs22  1  0.66845605  0.33427341  0.33312539  1
  Cs  Cs23  1  0.66732779  0.33274326  0.66571520  1
  Cs  Cs24  1  0.66716545  0.67061376  0.00123341  1
  Cs  Cs25  1  0.66402480  0.66657828  0.33355781  1
  Cs  Cs26  1  0.66917915  0.66539579  0.66511916  1
  Sn  Sn27  1  0.16642265  0.16604033  0.83338655  1
  Sn  Sn28  1  0.16712834  0.49975599  0.16754016  1
  Sn  Sn29  1  0.16732280  0.83416545  0.83326316  1
  Sn  Sn30  1  0.83349649  0.83419335  0.49953931  1
  Sn  Sn31  1  0.83311839  0.49913781  0.83352839  1
  Sn  Sn32  1  0.49980940  0.49913619  0.16679757  1
  Sn  Sn33  1  0.49949245  0.16692141  0.16675741  1
  Sn  Sn34  1  0.50001440  0.16595312  0.83395502  1
  Sn  Sn35  1  0.16650872  0.49951849  0.49967293  1
  Sn  Sn36  1  0.49922954  0.83413879  0.83310869  1
  Sn  Sn37  1  0.83311904  0.49975004  0.16657172  1
  Sn  Sn38  1  0.83335724  0.16598530  0.49988209  1
  Sn  Sn39  1  0.83364813  0.16758267  0.83307909  1
  Sn  Sn40  1  0.83385967  0.49967164  0.49996996  1
  Pb  Pb41  1  0.16661220  0.83068028  0.16398985  1
  Pb  Pb42  1  0.49989976  0.49988879  0.49707268  1
  Pb  Pb43  1  0.50208633  0.16659314  0.49969706  1
  Pb  Pb44  1  0.16961820  0.16884185  0.16449896  1
  Pb  Pb45  1  0.16467470  0.49970598  0.83309733  1
  Pb  Pb46  1  0.16413783  0.16905253  0.50230902  1
  Pb  Pb47  1  0.83338817  0.83392565  0.83210068  1
  Pb  Pb48  1  0.83355891  0.83078357  0.16990259  1
  Pb  Pb49  1  0.50229947  0.83351169  0.50313359  1
  Pb  Pb50  1  0.16439764  0.83093751  0.50265721  1
  Pb  Pb51  1  0.49984675  0.83396040  0.16463860  1
  Pb  Pb52  1  0.83169302  0.16820668  0.16665654  1
  Pb  Pb53  1  0.50289175  0.49983485  0.83514911  1
  I  I54  1  0.16796633  0.00026038  0.16768518  1
  I  I55  1  0.16477903  0.00007352  0.49920637  1
  I  I56  1  0.16476407  0.00088056  0.83273690  1
  I  I57  1  0.16285758  0.33709031  0.16724914  1
  I  I58  1  0.15945079  0.33696219  0.49836448  1
  I  I59  1  0.16853942  0.33083685  0.83371390  1
  I  I60  1  0.16769000  0.66208016  0.16803715  1
  I  I61  1  0.15932735  0.66299437  0.49829935  1
  I  I62  1  0.16963174  0.66842393  0.83369965  1
  I  I63  1  0.50379598  0.00326174  0.16209681  1
  I  I64  1  0.50301077  0.00011820  0.49498371  1
  I  I65  1  0.50308799  0.00160237  0.83931983  1
  I  I66  1  0.50091092  0.33401038  0.15948786  1
  I  I67  1  0.50244508  0.33338262  0.50570577  1
  I  I68  1  0.49772409  0.33043035  0.83536167  1
  I  I69  1  0.50151061  0.66355238  0.16556112  1
  I  I70  1  0.50355753  0.66649671  0.50096164  1
  I  I71  1  0.49662933  0.66871526  0.83449963  1
  I  I72  1  0.83008390  0.00018355  0.16593518  1
  I  I73  1  0.83015964  0.00091916  0.50991434  1
  I  I74  1  0.83269007  0.00318174  0.82797810  1
  I  I75  1  0.83495503  0.33696234  0.17001897  1
  I  I76  1  0.83643430  0.33432723  0.50183115  1
  I  I77  1  0.83354783  0.33295806  0.82870894  1
  I  I78  1  0.83051613  0.66157237  0.16366105  1
  I  I79  1  0.83696380  0.66485875  0.50113864  1
  I  I80  1  0.83381880  0.66409391  0.83256961  1
  I  I81  1  0.16051651  0.16592068  -0.00396344  1
  I  I82  1  0.16649266  0.16653727  0.33333911  1
  I  I83  1  0.17126727  0.16599179  0.67071991  1
  I  I84  1  0.16487063  0.50014153  0.00225968  1
  I  I85  1  0.15982790  0.49920277  0.33310621  1
  I  I86  1  0.15917819  0.50069492  0.66463318  1
  I  I87  1  0.16863029  0.83453425  -0.00412279  1
  I  I88  1  0.16565101  0.83395648  0.33363892  1
  I  I89  1  0.16986671  0.83467810  0.67045113  1
  I  I90  1  0.50280049  0.16795534  -0.00164055  1
  I  I91  1  0.50440200  0.17452976  0.33023689  1
  I  I92  1  0.49921519  0.16290308  0.67024253  1
  I  I93  1  0.49947456  0.49878568  0.00309686  1
  I  I94  1  0.50590587  0.49367424  0.32898694  1
  I  I95  1  0.50013861  0.50002957  0.66686945  1
  I  I96  1  0.49874689  0.83384586  -0.00359283  1
  I  I97  1  0.50207501  0.83278190  0.33337078  1
  I  I98  1  0.49645965  0.83929928  0.67119562  1
  I  I99  1  0.83442197  0.17178209  -0.00336980  1
  I  I100  1  0.83029309  0.16948036  0.33599719  1
  I  I101  1  0.83125485  0.17247506  0.66795678  1
  I  I102  1  0.83404062  0.49516013  -0.00011409  1
  I  I103  1  0.83383698  0.50004476  0.33375056  1
  I  I104  1  0.83828437  0.49986406  0.66613768  1
  I  I105  1  0.83286944  0.83143580  -0.00011197  1
  I  I106  1  0.83259644  0.83366538  0.33799812  1
  I  I107  1  0.83309497  0.82661085  0.66438489  1
  I  I108  1  0.00016367  0.16837419  0.16539413  1
  I  I109  1  -0.00421053  0.16664006  0.50628010  1
  I  I110  1  -0.00084414  0.16756213  0.82798793  1
  I  I111  1  -0.00069643  0.50095244  0.16747431  1
  I  I112  1  -0.00199734  0.50004518  0.49583271  1
  I  I113  1  -0.00340122  0.49721157  0.83651686  1
  I  I114  1  0.00002107  0.83275517  0.16209734  1
  I  I115  1  -0.00341759  0.83298269  0.50483259  1
  I  I116  1  0.00198851  0.83481417  0.83137039  1
  I  I117  1  0.33735453  0.17484879  0.15902531  1
  I  I118  1  0.33302502  0.16963521  0.50152864  1
  I  I119  1  0.33378509  0.16297400  0.83852590  1
  I  I120  1  0.33335081  0.49563243  0.16926354  1
  I  I121  1  0.33031433  0.50023801  0.49726411  1
  I  I122  1  0.33342215  0.49854301  0.83328890  1
  I  I123  1  0.33332613  0.82918372  0.16829774  1
  I  I124  1  0.33295848  0.83088630  0.49902440  1
  I  I125  1  0.33347860  0.83983600  0.83410095  1
  I  I126  1  0.66388296  0.17417735  0.15996148  1
  I  I127  1  0.67071530  0.17165571  0.50690610  1
  I  I128  1  0.66694839  0.16683737  0.83295643  1
  I  I129  1  0.66727196  0.49608670  0.16599669  1
  I  I130  1  0.67039187  0.49992701  0.50047723  1
  I  I131  1  0.67102793  0.49705306  0.83136160  1
  I  I132  1  0.66669763  0.82985654  0.16421790  1
  I  I133  1  0.67049508  0.82827619  0.50261418  1
  I  I134  1  0.66465428  0.83582352  0.83229921  1
