# generated using pymatgen
data_Cs27Sn14Pb13I81
_symmetry_space_group_name_H-M   'P 1'
_cell_length_a   18.97916736
_cell_length_b   18.97993527
_cell_length_c   18.96791191
_cell_angle_alpha   90.00059462
_cell_angle_beta   90.00178898
_cell_angle_gamma   89.99886974
_symmetry_Int_Tables_number   1
_chemical_formula_structural   Cs27Sn14Pb13I81
_chemical_formula_sum   'Cs27 Sn14 Pb13 I81'
_cell_volume   6832.68510636
_cell_formula_units_Z   1
loop_
 _symmetry_equiv_pos_site_id
 _symmetry_equiv_pos_as_xyz
  1  'x, y, z'
loop_
 _atom_site_type_symbol
 _atom_site_label
 _atom_site_symmetry_multiplicity
 _atom_site_fract_x
 _atom_site_fract_y
 _atom_site_fract_z
 _atom_site_occupancy
  Cs  Cs0  1  -0.00196269  -0.00257497  -0.00044935  1
  Cs  Cs1  1  0.00511796  0.01253206  0.33469097  1
  Cs  Cs2  1  0.00083127  -0.00056599  0.66597043  1
  Cs  Cs3  1  0.00429844  0.33483674  0.00506065  1
  Cs  Cs4  1  -0.00088003  0.32268064  0.32580146  1
  Cs  Cs5  1  -0.00291470  0.33550301  0.66720100  1
  Cs  Cs6  1  -0.00044260  0.66711430  0.00071975  1
  Cs  Cs7  1  -0.00148335  0.66539119  0.33748569  1
  Cs  Cs8  1  -0.00168077  0.66593249  0.66741270  1
  Cs  Cs9  1  0.33435972  -0.00036863  -0.00248071  1
  Cs  Cs10  1  0.33048429  -0.00102880  0.33334696  1
  Cs  Cs11  1  0.33371423  -0.00094299  0.66768165  1
  Cs  Cs12  1  0.32936571  0.33398130  -0.00069283  1
  Cs  Cs13  1  0.33336139  0.33236899  0.32983536  1
  Cs  Cs14  1  0.33771341  0.33685459  0.66926329  1
  Cs  Cs15  1  0.33140813  0.66637727  0.00245980  1
  Cs  Cs16  1  0.33697257  0.66896063  0.33492174  1
  Cs  Cs17  1  0.33259094  0.66641698  0.66557088  1
  Cs  Cs18  1  0.66781482  -0.00484279  -0.00118044  1
  Cs  Cs19  1  0.66717360  0.00080081  0.33100413  1
  Cs  Cs20  1  0.66526852  -0.00006254  0.66857990  1
  Cs  Cs21  1  0.66582770  0.33324364  -0.00211573  1
  Cs  Cs22  1  0.66884091  0.33383988  0.33342713  1
  Cs  Cs23  1  0.66572035  0.33370278  0.66631187  1
  Cs  Cs24  1  0.66892395  0.67069193  0.00751810  1
  Cs  Cs25  1  0.66396431  0.66557939  0.33108558  1
  Cs  Cs26  1  0.66791335  0.66536534  0.66614020  1
  Sn  Sn27  1  0.83456188  0.16775332  0.83294194  1
  Sn  Sn28  1  0.83341769  0.50045823  0.50047215  1
  Sn  Sn29  1  0.83230903  0.49932202  0.83300180  1
  Sn  Sn30  1  0.83263264  0.83325993  0.49997518  1
  Sn  Sn31  1  0.50017626  0.16654913  0.16735308  1
  Sn  Sn32  1  0.50102293  0.83350009  0.50088255  1
  Sn  Sn33  1  0.16737126  0.83375507  0.83395023  1
  Sn  Sn34  1  0.49928247  0.83166766  0.83261459  1
  Sn  Sn35  1  0.50111662  0.50174126  0.83301516  1
  Sn  Sn36  1  0.16543231  0.16610051  0.83263471  1
  Sn  Sn37  1  0.16646873  0.83301466  0.16628116  1
  Sn  Sn38  1  0.49986086  0.16660077  0.49898763  1
  Sn  Sn39  1  0.16634273  0.49933093  0.49973317  1
  Sn  Sn40  1  0.50009113  0.49998431  0.50074763  1
  Pb  Pb41  1  0.16882140  0.16456710  0.16378581  1
  Pb  Pb42  1  0.49869078  0.83507408  0.16678454  1
  Pb  Pb43  1  0.16652185  0.50054294  0.83201077  1
  Pb  Pb44  1  0.83118017  0.16691037  0.50191111  1
  Pb  Pb45  1  0.83648063  0.83356193  0.17094929  1
  Pb  Pb46  1  0.16936971  0.16952186  0.50265701  1
  Pb  Pb47  1  0.16676465  0.50257303  0.17016898  1
  Pb  Pb48  1  0.83322520  0.83265398  0.83178634  1
  Pb  Pb49  1  0.49998710  0.49801901  0.16634449  1
  Pb  Pb50  1  0.50010804  0.16670189  0.83296712  1
  Pb  Pb51  1  0.16655117  0.83203345  0.50054418  1
  Pb  Pb52  1  0.83329312  0.50011306  0.16682153  1
  Pb  Pb53  1  0.83076481  0.16658413  0.16313358  1
  I  I54  1  0.16811387  -0.00308597  0.16733724  1
  I  I55  1  0.16658093  0.00018745  0.49818040  1
  I  I56  1  0.16830080  -0.00095889  0.83596410  1
  I  I57  1  0.16756557  0.33300559  0.16597688  1
  I  I58  1  0.16647918  0.33733344  0.50334947  1
  I  I59  1  0.16770717  0.33156049  0.83008673  1
  I  I60  1  0.16887662  0.67012518  0.15775428  1
  I  I61  1  0.17100462  0.66414176  0.50260396  1
  I  I62  1  0.16848872  0.66943266  0.83492626  1
  I  I63  1  0.49850842  0.00276968  0.16986764  1
  I  I64  1  0.50430209  -0.00113361  0.50177567  1
  I  I65  1  0.49901257  -0.00228221  0.83003925  1
  I  I66  1  0.49906139  0.33016932  0.17006775  1
  I  I67  1  0.49964709  0.33459887  0.50172974  1
  I  I68  1  0.50052278  0.33569267  0.82972410  1
  I  I69  1  0.49840400  0.66688783  0.16857324  1
  I  I70  1  0.49979365  0.66644773  0.50495622  1
  I  I71  1  0.49870505  0.66688346  0.82473679  1
  I  I72  1  0.83219507  0.00000723  0.16586534  1
  I  I73  1  0.82845124  -0.00231954  0.50241996  1
  I  I74  1  0.83298984  0.00158552  0.83155635  1
  I  I75  1  0.83390419  0.33317883  0.17144844  1
  I  I76  1  0.83147577  0.33642647  0.50351536  1
  I  I77  1  0.83141234  0.33453301  0.82642096  1
  I  I78  1  0.83276522  0.66701858  0.16167892  1
  I  I79  1  0.82965851  0.66553492  0.50628925  1
  I  I80  1  0.83284746  0.66388075  0.82933253  1
  I  I81  1  0.16670951  0.16717766  -0.00414044  1
  I  I82  1  0.16594114  0.16586702  0.33353157  1
  I  I83  1  0.16590017  0.15821954  0.67026965  1
  I  I84  1  0.16741898  0.49758972  -0.00019314  1
  I  I85  1  0.16881365  0.50289985  0.33837066  1
  I  I86  1  0.16824130  0.50271111  0.66403918  1
  I  I87  1  0.17337056  0.83706627  -0.00215440  1
  I  I88  1  0.16771355  0.82963822  0.33190235  1
  I  I89  1  0.16902060  0.83618119  0.66939863  1
  I  I90  1  0.49947502  0.16622948  0.00130056  1
  I  I91  1  0.49970706  0.16674569  0.33519489  1
  I  I92  1  0.49999745  0.16708912  0.66427013  1
  I  I93  1  0.50421536  0.50224772  -0.00385180  1
  I  I94  1  0.50058177  0.50310151  0.33719483  1
  I  I95  1  0.50017712  0.49805825  0.66585106  1
  I  I96  1  0.49792470  0.83178784  -0.00326413  1
  I  I97  1  0.50139285  0.83029944  0.33682276  1
  I  I98  1  0.49713751  0.83501047  0.66637645  1
  I  I99  1  0.83449668  0.17224075  -0.00499852  1
  I  I100  1  0.83443103  0.16664966  0.33353085  1
  I  I101  1  0.83379982  0.16822014  0.66984579  1
  I  I102  1  0.82835861  0.49592719  -0.00385063  1
  I  I103  1  0.83103703  0.50552028  0.33753883  1
  I  I104  1  0.83180394  0.49982368  0.66614961  1
  I  I105  1  0.83044927  0.83355887  -0.00006419  1
  I  I106  1  0.82653059  0.82545491  0.33882468  1
  I  I107  1  0.83351158  0.83159250  0.66379914  1
  I  I108  1  0.00019830  0.16577122  0.16831111  1
  I  I109  1  0.00004434  0.16590878  0.49946816  1
  I  I110  1  0.00005546  0.16612550  0.83208671  1
  I  I111  1  0.00011051  0.50004672  0.16593189  1
  I  I112  1  -0.00134334  0.50820585  0.50608577  1
  I  I113  1  -0.00248829  0.49928829  0.82741111  1
  I  I114  1  0.00394113  0.83275429  0.15824735  1
  I  I115  1  -0.00228156  0.82651470  0.50120405  1
  I  I116  1  0.00234833  0.83450818  0.83485563  1
  I  I117  1  0.33636303  0.16663727  0.16931429  1
  I  I118  1  0.33750811  0.16491140  0.49960211  1
  I  I119  1  0.33176314  0.16543217  0.83308327  1
  I  I120  1  0.33343715  0.49868663  0.16598616  1
  I  I121  1  0.33516141  0.50079337  0.50484828  1
  I  I122  1  0.33609327  0.49965040  0.82808113  1
  I  I123  1  0.33091796  0.83461475  0.16682735  1
  I  I124  1  0.33633723  0.83202265  0.50107199  1
  I  I125  1  0.33421635  0.83454753  0.83059482  1
  I  I126  1  0.66307362  0.16570450  0.16985976  1
  I  I127  1  0.66300357  0.17034524  0.50027846  1
  I  I128  1  0.66841615  0.16796951  0.83261151  1
  I  I129  1  0.66648148  0.50041233  0.16973990  1
  I  I130  1  0.66594352  0.50048358  0.50487877  1
  I  I131  1  0.66613639  0.49776784  0.82460387  1
  I  I132  1  0.66667385  0.83494895  0.16386810  1
  I  I133  1  0.66495880  0.82931266  0.50612129  1
  I  I134  1  0.66385251  0.83442441  0.83013008  1
