# generated using pymatgen
data_Cs27Sn13Pb14I81
_symmetry_space_group_name_H-M   'P 1'
_cell_length_a   18.98729771
_cell_length_b   18.96030362
_cell_length_c   18.98729780
_cell_angle_alpha   89.99999982
_cell_angle_beta   90.00106706
_cell_angle_gamma   89.99999998
_symmetry_Int_Tables_number   1
_chemical_formula_structural   Cs27Sn13Pb14I81
_chemical_formula_sum   'Cs27 Sn13 Pb14 I81'
_cell_volume   6835.52080445
_cell_formula_units_Z   1
loop_
 _symmetry_equiv_pos_site_id
 _symmetry_equiv_pos_as_xyz
  1  'x, y, z'
loop_
 _atom_site_type_symbol
 _atom_site_label
 _atom_site_symmetry_multiplicity
 _atom_site_fract_x
 _atom_site_fract_y
 _atom_site_fract_z
 _atom_site_occupancy
  Cs  Cs0  1  -0.00123395  -0.00252326  0.00473884  1
  Cs  Cs1  1  -0.00083194  -0.00550363  0.33250123  1
  Cs  Cs2  1  0.00344981  -0.00284341  0.66321716  1
  Cs  Cs3  1  0.00025272  0.33329860  0.00007740  1
  Cs  Cs4  1  0.00013245  0.33236010  0.33346588  1
  Cs  Cs5  1  0.00012075  0.33391831  0.66654589  1
  Cs  Cs6  1  -0.00004704  0.66961853  -0.00450400  1
  Cs  Cs7  1  0.00033196  0.66745456  0.33366524  1
  Cs  Cs8  1  -0.00422033  0.66777278  0.67088691  1
  Cs  Cs9  1  0.33456734  -0.00252336  -0.00473880  1
  Cs  Cs10  1  0.32988365  -0.00284338  0.33678314  1
  Cs  Cs11  1  0.33416531  -0.00550365  0.66749865  1
  Cs  Cs12  1  0.33308062  0.33329857  -0.00007747  1
  Cs  Cs13  1  0.33321258  0.33391828  0.33345419  1
  Cs  Cs14  1  0.33320089  0.33236010  0.66653410  1
  Cs  Cs15  1  0.33338024  0.66961864  0.00450383  1
  Cs  Cs16  1  0.33755354  0.66777278  0.32911294  1
  Cs  Cs17  1  0.33300137  0.66745448  0.66633467  1
  Cs  Cs18  1  0.66666656  -0.00189830  -0.00000001  1
  Cs  Cs19  1  0.67140560  -0.00252347  0.33209945  1
  Cs  Cs20  1  0.66192805  -0.00252350  0.66790069  1
  Cs  Cs21  1  0.66666652  0.33172470  0.00000012  1
  Cs  Cs22  1  0.66674413  0.33329856  0.33358599  1
  Cs  Cs23  1  0.66658915  0.33329854  0.66641398  1
  Cs  Cs24  1  0.66666661  0.67175383  0.00000012  1
  Cs  Cs25  1  0.66216277  0.66961864  0.33328624  1
  Cs  Cs26  1  0.67117055  0.66961855  0.66671371  1
  Sn  Sn27  1  0.16563098  0.16754319  0.83398223  1
  Sn  Sn28  1  0.16779789  0.49895579  0.83345112  1
  Sn  Sn29  1  0.50064894  0.16754314  0.49896429  1
  Sn  Sn30  1  0.16553545  0.49895580  0.16654888  1
  Sn  Sn31  1  0.83394031  0.49926992  0.16727359  1
  Sn  Sn32  1  0.49890563  0.16738626  0.16776105  1
  Sn  Sn33  1  0.50011779  0.49895582  0.50113123  1
  Sn  Sn34  1  0.49939305  0.49926989  0.83272643  1
  Sn  Sn35  1  0.83321552  0.49895584  0.49886879  1
  Sn  Sn36  1  0.16770239  0.16754322  0.16601772  1
  Sn  Sn37  1  0.83442768  0.16738630  0.83223898  1
  Sn  Sn38  1  0.83268437  0.16754317  0.50103569  1
  Sn  Sn39  1  0.16666667  0.49927480  0.49999998  1
  Pb  Pb40  1  0.16662000  0.83346022  0.83337062  1
  Pb  Pb41  1  0.83344874  0.82922241  0.16678209  1
  Pb  Pb42  1  0.83374034  0.16814484  0.16707367  1
  Pb  Pb43  1  0.83333792  0.49860193  0.83332875  1
  Pb  Pb44  1  0.83353905  0.83782554  0.83312765  1
  Pb  Pb45  1  0.49999538  0.49860197  0.16667127  1
  Pb  Pb46  1  0.50003733  0.83346017  0.49995336  1
  Pb  Pb47  1  0.16666665  0.16795800  0.50000001  1
  Pb  Pb48  1  0.49959298  0.16814481  0.83292629  1
  Pb  Pb49  1  0.83329604  0.83346016  0.50004662  1
  Pb  Pb50  1  0.16671333  0.83346024  0.16662938  1
  Pb  Pb51  1  0.16666667  0.82909568  0.50000001  1
  Pb  Pb52  1  0.49988460  0.82922238  0.83321791  1
  Pb  Pb53  1  0.49979430  0.83782555  0.16687241  1
  I  I54  1  0.17067824  0.00397405  0.16172602  1
  I  I55  1  0.16666678  0.00028148  0.49999988  1
  I  I56  1  0.16265504  0.00397403  0.83827413  1
  I  I57  1  0.16668618  0.33422601  0.16543766  1
  I  I58  1  0.16666661  0.33671638  0.50000010  1
  I  I59  1  0.16664682  0.33422599  0.83456221  1
  I  I60  1  0.16282034  0.66242317  0.16662889  1
  I  I61  1  0.16666650  0.66005653  0.49999997  1
  I  I62  1  0.17051344  0.66242317  0.83337119  1
  I  I63  1  0.49488142  0.00614253  0.17178510  1
  I  I64  1  0.50494095  0.00397402  0.49598824  1
  I  I65  1  0.50022776  0.00029240  0.83356110  1
  I  I66  1  0.49823680  0.33071584  0.16843004  1
  I  I67  1  0.50122866  0.33422601  0.49998036  1
  I  I68  1  0.49779946  0.33619715  0.83113280  1
  I  I69  1  0.50033835  0.66640007  0.16632824  1
  I  I70  1  0.50003773  0.66242318  0.50384673  1
  I  I71  1  0.49470314  0.66069687  0.82803650  1
  I  I72  1  0.83310576  0.00029243  0.16643894  1
  I  I73  1  0.82839214  0.00397402  0.50401155  1
  I  I74  1  0.83845176  0.00614252  0.82821498  1
  I  I75  1  0.83553387  0.33619713  0.16886722  1
  I  I76  1  0.83210473  0.33422598  0.50001968  1
  I  I77  1  0.83509709  0.33071583  0.83156978  1
  I  I78  1  0.83862992  0.66069687  0.17196351  1
  I  I79  1  0.83329573  0.66242320  0.49615352  1
  I  I80  1  0.83299488  0.66640004  0.83367152  1
  I  I81  1  0.16666656  0.17530259  -0.00000001  1
  I  I82  1  0.16787176  0.17216395  0.33086167  1
  I  I83  1  0.16546174  0.17216380  0.66913834  1
  I  I84  1  0.16666679  0.49551505  -0.00000003  1
  I  I85  1  0.16565533  0.49544400  0.33314529  1
  I  I86  1  0.16767790  0.49544410  0.66685469  1
  I  I87  1  0.16666627  0.82866063  -0.00000001  1
  I  I88  1  0.16620984  0.83526330  0.33321000  1
  I  I89  1  0.16712387  0.83526351  0.66678999  1
  I  I90  1  0.49963960  0.16991025  0.00182411  1
  I  I91  1  0.50029349  0.17424777  0.33434069  1
  I  I92  1  0.50147679  0.17017593  0.66384162  1
  I  I93  1  0.49715716  0.49685540  -0.00210450  1
  I  I94  1  0.49805664  0.49776080  0.33621877  1
  I  I95  1  0.49677016  0.49367165  0.66542839  1
  I  I96  1  0.50036673  0.83268666  0.00004335  1
  I  I97  1  0.49950488  0.82672629  0.33345371  1
  I  I98  1  0.49927129  0.83861065  0.66654396  1
  I  I99  1  0.83369392  0.16991034  -0.00182408  1
  I  I100  1  0.83185652  0.17017600  0.33615835  1
  I  I101  1  0.83303965  0.17424762  0.66565927  1
  I  I102  1  0.83617617  0.49685546  0.00210453  1
  I  I103  1  0.83656318  0.49367163  0.33457157  1
  I  I104  1  0.83527674  0.49776075  0.66378126  1
  I  I105  1  0.83296709  0.83268659  -0.00004333  1
  I  I106  1  0.83406226  0.83861053  0.33345607  1
  I  I107  1  0.83382784  0.82672663  0.66654625  1
  I  I108  1  0.00282500  0.17017591  0.16519012  1
  I  I109  1  -0.00247167  0.17216362  0.50120496  1
  I  I110  1  0.00100737  0.17424747  0.83362666  1
  I  I111  1  0.00123827  0.49367182  0.16989659  1
  I  I112  1  -0.00018802  0.49544402  0.49898833  1
  I  I113  1  0.00288542  0.49776094  0.83139032  1
  I  I114  1  0.00012271  0.83861023  0.16739567  1
  I  I115  1  -0.00012330  0.83526383  0.49954342  1
  I  I116  1  0.00012040  0.82672626  0.83283778  1
  I  I117  1  0.33232597  0.17424783  0.16637314  1
  I  I118  1  0.33580501  0.17216375  0.49879501  1
  I  I119  1  0.33050830  0.17017602  0.83481011  1
  I  I120  1  0.33044792  0.49776059  0.16860992  1
  I  I121  1  0.33352137  0.49544409  0.50101169  1
  I  I122  1  0.33209503  0.49367157  0.83010331  1
  I  I123  1  0.33321294  0.82672645  0.16716144  1
  I  I124  1  0.33345662  0.83526360  0.50045689  1
  I  I125  1  0.33321059  0.83861057  0.83260477  1
  I  I126  1  0.66484257  0.16991018  0.16702690  1
  I  I127  1  0.66666665  0.17530296  0.49999994  1
  I  I128  1  0.66849077  0.16991042  0.83297321  1
  I  I129  1  0.66877115  0.49685543  0.16950947  1
  I  I130  1  0.66666670  0.49551491  0.49999997  1
  I  I131  1  0.66456210  0.49685538  0.83049047  1
  I  I132  1  0.66662331  0.83268670  0.16630016  1
  I  I133  1  0.66666666  0.82866035  0.49999972  1
  I  I134  1  0.66671002  0.83268669  0.83370016  1
