# generated using pymatgen
data_Cs27Sn13Pb14I81
_symmetry_space_group_name_H-M   'P 1'
_cell_length_a   18.98420748
_cell_length_b   18.98503385
_cell_length_c   18.96372682
_cell_angle_alpha   89.99810755
_cell_angle_beta   89.99995791
_cell_angle_gamma   89.99992102
_symmetry_Int_Tables_number   1
_chemical_formula_structural   Cs27Sn13Pb14I81
_chemical_formula_sum   'Cs27 Sn13 Pb14 I81'
_cell_volume   6834.82717723
_cell_formula_units_Z   1
loop_
 _symmetry_equiv_pos_site_id
 _symmetry_equiv_pos_as_xyz
  1  'x, y, z'
loop_
 _atom_site_type_symbol
 _atom_site_label
 _atom_site_symmetry_multiplicity
 _atom_site_fract_x
 _atom_site_fract_y
 _atom_site_fract_z
 _atom_site_occupancy
  Cs  Cs0  1  0.00030384  -0.00163373  -0.00040317  1
  Cs  Cs1  1  -0.00108100  0.00133573  0.33710667  1
  Cs  Cs2  1  0.00139942  0.00061127  0.66637321  1
  Cs  Cs3  1  -0.00116182  0.33320335  -0.00175694  1
  Cs  Cs4  1  -0.00915461  0.33141958  0.33353408  1
  Cs  Cs5  1  0.00306515  0.33285479  0.66885436  1
  Cs  Cs6  1  0.00103561  0.66831754  0.00118924  1
  Cs  Cs7  1  0.00041499  0.66579330  0.33045252  1
  Cs  Cs8  1  0.00073460  0.66665221  0.66780019  1
  Cs  Cs9  1  0.33306463  -0.00180207  -0.00041271  1
  Cs  Cs10  1  0.33331945  0.00419758  0.33370562  1
  Cs  Cs11  1  0.33330890  -0.00051414  0.66567823  1
  Cs  Cs12  1  0.33427767  0.33306380  -0.00069934  1
  Cs  Cs13  1  0.34265363  0.33152631  0.33388862  1
  Cs  Cs14  1  0.33049929  0.33318840  0.66747120  1
  Cs  Cs15  1  0.33196509  0.66852975  0.00185631  1
  Cs  Cs16  1  0.33152288  0.66348894  0.32800511  1
  Cs  Cs17  1  0.33336397  0.66719363  0.66805158  1
  Cs  Cs18  1  0.66618612  -0.00072932  0.00014760  1
  Cs  Cs19  1  0.66676015  0.00465392  0.33699528  1
  Cs  Cs20  1  0.66496637  -0.00570339  0.66291471  1
  Cs  Cs21  1  0.66663925  0.33134222  0.00280733  1
  Cs  Cs22  1  0.66467311  0.33542919  0.33121670  1
  Cs  Cs23  1  0.66615594  0.33685373  0.66646879  1
  Cs  Cs24  1  0.66690604  0.67012647  -0.00136165  1
  Cs  Cs25  1  0.66663240  0.66149229  0.34306636  1
  Cs  Cs26  1  0.66470141  0.66893793  0.66129358  1
  Sn  Sn27  1  0.16593010  0.83330247  0.83268330  1
  Sn  Sn28  1  0.49994173  0.49945083  0.83372717  1
  Sn  Sn29  1  0.16651539  0.50067321  0.50042188  1
  Sn  Sn30  1  0.83179536  0.83323459  0.16629100  1
  Sn  Sn31  1  0.83295793  0.16627123  0.83343761  1
  Sn  Sn32  1  0.16671232  0.83216099  0.50067943  1
  Sn  Sn33  1  0.16674511  0.16650654  0.83438390  1
  Sn  Sn34  1  0.50155689  0.83316727  0.16686283  1
  Sn  Sn35  1  0.50009968  0.16719487  0.83343770  1
  Sn  Sn36  1  0.83412528  0.83333712  0.83393692  1
  Sn  Sn37  1  0.83317053  0.50037796  0.83363325  1
  Sn  Sn38  1  0.16670536  0.50027761  0.83327076  1
  Sn  Sn39  1  0.16644375  0.16709346  0.16592992  1
  Pb  Pb40  1  0.16615671  0.83497343  0.16690402  1
  Pb  Pb41  1  0.83331396  0.50246104  0.16446746  1
  Pb  Pb42  1  0.49725344  0.50003527  0.50254253  1
  Pb  Pb43  1  0.83598799  0.49994415  0.50247977  1
  Pb  Pb44  1  0.50013215  0.16676000  0.50290165  1
  Pb  Pb45  1  0.83318333  0.16684738  0.50282028  1
  Pb  Pb46  1  0.16663074  0.16744438  0.50013636  1
  Pb  Pb47  1  0.49842880  0.16481009  0.16434554  1
  Pb  Pb48  1  0.50015065  0.50226337  0.16419284  1
  Pb  Pb49  1  0.83505463  0.16449245  0.16456178  1
  Pb  Pb50  1  0.83566361  0.83331099  0.50013397  1
  Pb  Pb51  1  0.49681126  0.83324062  0.49636290  1
  Pb  Pb52  1  0.16659099  0.49689272  0.16681091  1
  Pb  Pb53  1  0.49996953  0.83327217  0.83413788  1
  I  I54  1  0.16699196  0.00237878  0.15982877  1
  I  I55  1  0.16613320  -0.00249711  0.50422923  1
  I  I56  1  0.16466538  -0.00016075  0.83361727  1
  I  I57  1  0.16718040  0.32948115  0.15888839  1
  I  I58  1  0.16658878  0.33624922  0.50709539  1
  I  I59  1  0.16483079  0.33339529  0.83295614  1
  I  I60  1  0.16705330  0.66676645  0.16403269  1
  I  I61  1  0.16660311  0.66700815  0.50990535  1
  I  I62  1  0.16477837  0.66687094  0.82942840  1
  I  I63  1  0.50154276  -0.00297990  0.16149482  1
  I  I64  1  0.49646277  -0.00027619  0.50376531  1
  I  I65  1  0.49839274  0.00238662  0.83592798  1
  I  I66  1  0.49717581  0.33316739  0.16689762  1
  I  I67  1  0.49609223  0.33353146  0.49849988  1
  I  I68  1  0.49815295  0.33328724  0.83329153  1
  I  I69  1  0.50002447  0.67020618  0.16194104  1
  I  I70  1  0.50086036  0.66672689  0.50359421  1
  I  I71  1  0.49851446  0.66419357  0.83543766  1
  I  I72  1  0.83203638  -0.00351554  0.15825159  1
  I  I73  1  0.83737026  -0.00029638  0.50336551  1
  I  I74  1  0.83740062  -0.00042467  0.83738548  1
  I  I75  1  0.83601594  0.33308978  0.16497709  1
  I  I76  1  0.83800410  0.33351983  0.50239423  1
  I  I77  1  0.83725232  0.33331484  0.83148760  1
  I  I78  1  0.83346909  0.67071660  0.15850362  1
  I  I79  1  0.83288277  0.66676351  0.50280172  1
  I  I80  1  0.83734996  0.66709983  0.83756050  1
  I  I81  1  0.16667315  0.16527495  -0.00334847  1
  I  I82  1  0.16706590  0.16317231  0.33074371  1
  I  I83  1  0.16620589  0.16646616  0.67071874  1
  I  I84  1  0.16644353  0.50305593  -0.00419661  1
  I  I85  1  0.16682907  0.50632338  0.33630338  1
  I  I86  1  0.16645923  0.49914002  0.66964021  1
  I  I87  1  0.16582544  0.83140564  -0.00325932  1
  I  I88  1  0.16723664  0.83035247  0.33586692  1
  I  I89  1  0.16207070  0.83501897  0.66937479  1
  I  I90  1  0.50053306  0.17001241  -0.00436812  1
  I  I91  1  0.49547050  0.16439554  0.33281362  1
  I  I92  1  0.49534685  0.16856320  0.67214491  1
  I  I93  1  0.49567746  0.49622735  -0.00472546  1
  I  I94  1  0.49704620  0.50134004  0.33345529  1
  I  I95  1  0.50203787  0.49783088  0.67149313  1
  I  I96  1  0.49791934  0.83348344  0.00163393  1
  I  I97  1  0.50433355  0.83443130  0.32874837  1
  I  I98  1  0.50170342  0.83369407  0.66665522  1
  I  I99  1  0.83300114  0.16865013  -0.00466554  1
  I  I100  1  0.83796013  0.16353361  0.33280616  1
  I  I101  1  0.83862823  0.16355947  0.67258810  1
  I  I102  1  0.83806455  0.49775788  -0.00504453  1
  I  I103  1  0.83623215  0.50185080  0.33348228  1
  I  I104  1  0.83154083  0.50283600  0.67194747  1
  I  I105  1  0.83648485  0.83319565  -0.00238429  1
  I  I106  1  0.83252096  0.83432876  0.33037417  1
  I  I107  1  0.83571835  0.83376559  0.67059003  1
  I  I108  1  0.00312188  0.16407669  0.15950207  1
  I  I109  1  0.00048379  0.16555787  0.50200798  1
  I  I110  1  0.00076707  0.16810906  0.83656657  1
  I  I111  1  0.00021153  0.50326770  0.16347900  1
  I  I112  1  0.00411876  0.50401060  0.50740581  1
  I  I113  1  0.00069686  0.49820737  0.82987911  1
  I  I114  1  -0.00218105  0.83469411  0.16315030  1
  I  I115  1  0.00377472  0.83048345  0.50131107  1
  I  I116  1  0.00060533  0.83345823  0.83544130  1
  I  I117  1  0.33033528  0.16299687  0.15952751  1
  I  I118  1  0.33282214  0.16545158  0.50240423  1
  I  I119  1  0.33216007  0.16881680  0.83667925  1
  I  I120  1  0.33310474  0.50407822  0.16288834  1
  I  I121  1  0.32919002  0.50388937  0.50752874  1
  I  I122  1  0.33221053  0.49748031  0.82973995  1
  I  I123  1  0.33463673  0.83509030  0.16489298  1
  I  I124  1  0.32885867  0.83087762  0.50754805  1
  I  I125  1  0.33036406  0.83355008  0.83237919  1
  I  I126  1  0.66677528  0.16561737  0.16370896  1
  I  I127  1  0.66664681  0.16491909  0.50125818  1
  I  I128  1  0.66705818  0.16922030  0.83282649  1
  I  I129  1  0.66673610  0.49754836  0.16328580  1
  I  I130  1  0.66664760  0.50055066  0.50229049  1
  I  I131  1  0.66703463  0.49713601  0.83608912  1
  I  I132  1  0.66764876  0.83404449  0.15559065  1
  I  I133  1  0.66669504  0.83375421  0.50334996  1
  I  I134  1  0.66944251  0.83381867  0.83658476  1
