# generated using pymatgen
data_Cs27Sn14Pb13I81
_symmetry_space_group_name_H-M   'P 1'
_cell_length_a   18.95776145
_cell_length_b   18.96257732
_cell_length_c   18.96186862
_cell_angle_alpha   89.99995831
_cell_angle_beta   89.99952649
_cell_angle_gamma   90.00097928
_symmetry_Int_Tables_number   1
_chemical_formula_structural   Cs27Sn14Pb13I81
_chemical_formula_sum   'Cs27 Sn14 Pb13 I81'
_cell_volume   6816.56455553
_cell_formula_units_Z   1
loop_
 _symmetry_equiv_pos_site_id
 _symmetry_equiv_pos_as_xyz
  1  'x, y, z'
loop_
 _atom_site_type_symbol
 _atom_site_label
 _atom_site_symmetry_multiplicity
 _atom_site_fract_x
 _atom_site_fract_y
 _atom_site_fract_z
 _atom_site_occupancy
  Cs  Cs0  1  0.00065839  -0.00259835  -0.00140312  1
  Cs  Cs1  1  -0.00102463  0.00596837  0.33705410  1
  Cs  Cs2  1  -0.00172355  0.00593474  0.66689673  1
  Cs  Cs3  1  0.00162031  0.33308095  -0.00168546  1
  Cs  Cs4  1  -0.00022368  0.33161338  0.33844214  1
  Cs  Cs5  1  -0.00070704  0.33267202  0.66550401  1
  Cs  Cs6  1  -0.00082620  0.66824976  0.00097450  1
  Cs  Cs7  1  0.00132024  0.66508363  0.33088788  1
  Cs  Cs8  1  0.00025164  0.66470395  0.66798752  1
  Cs  Cs9  1  0.33229413  0.00098552  0.00083614  1
  Cs  Cs10  1  0.33396359  -0.00455612  0.32997148  1
  Cs  Cs11  1  0.33546080  -0.00321837  0.66771906  1
  Cs  Cs12  1  0.33527692  0.33171971  0.00186262  1
  Cs  Cs13  1  0.33277796  0.33141536  0.32923623  1
  Cs  Cs14  1  0.33371589  0.33559177  0.66900881  1
  Cs  Cs15  1  0.33261075  0.66622973  -0.00105953  1
  Cs  Cs16  1  0.32888730  0.67215817  0.33698921  1
  Cs  Cs17  1  0.33344547  0.66724659  0.66539090  1
  Cs  Cs18  1  0.66838685  -0.00156826  -0.00138517  1
  Cs  Cs19  1  0.66537832  0.00143735  0.33594073  1
  Cs  Cs20  1  0.66639694  0.00088276  0.66678974  1
  Cs  Cs21  1  0.66424617  0.33523783  0.00129220  1
  Cs  Cs22  1  0.66696387  0.33294556  0.33184310  1
  Cs  Cs23  1  0.66720064  0.33330551  0.66702839  1
  Cs  Cs24  1  0.66902341  0.66513505  0.00182796  1
  Cs  Cs25  1  0.66880131  0.66568705  0.33296784  1
  Cs  Cs26  1  0.66602374  0.66581525  0.66701420  1
  Sn  Sn27  1  0.83233707  0.16773047  0.83460329  1
  Sn  Sn28  1  0.50053619  0.49914721  0.49990671  1
  Sn  Sn29  1  0.83236866  0.50113890  0.50081133  1
  Sn  Sn30  1  0.49956527  0.83376565  0.83435123  1
  Sn  Sn31  1  0.83361858  0.83226399  0.50024703  1
  Sn  Sn32  1  0.50079726  0.16603419  0.83269094  1
  Sn  Sn33  1  0.16738225  0.83254092  0.83385212  1
  Sn  Sn34  1  0.16592141  0.50078370  0.83427252  1
  Sn  Sn35  1  0.49996778  0.83295290  0.16552982  1
  Sn  Sn36  1  0.16658273  0.50046823  0.16572445  1
  Sn  Sn37  1  0.49986876  0.16773023  0.50071531  1
  Sn  Sn38  1  0.83388297  0.49930608  0.83296751  1
  Sn  Sn39  1  0.83328752  0.16684512  0.16525137  1
  Sn  Sn40  1  0.16722573  0.83253544  0.16558896  1
  Pb  Pb41  1  0.16659320  0.49988624  0.50029930  1
  Pb  Pb42  1  0.16427854  0.16620797  0.16645596  1
  Pb  Pb43  1  0.50173819  0.16463292  0.16610425  1
  Pb  Pb44  1  0.50158061  0.83315765  0.50033145  1
  Pb  Pb45  1  0.83166861  0.16749304  0.50074191  1
  Pb  Pb46  1  0.17094879  0.16657041  0.50021860  1
  Pb  Pb47  1  0.16707193  0.16663577  0.83320922  1
  Pb  Pb48  1  0.83343823  0.83319570  0.83183284  1
  Pb  Pb49  1  0.83388859  0.83521519  0.16894401  1
  Pb  Pb50  1  0.49992675  0.50023170  0.83223880  1
  Pb  Pb51  1  0.16369602  0.83345905  0.50052318  1
  Pb  Pb52  1  0.49745044  0.50271666  0.16964554  1
  Pb  Pb53  1  0.83534529  0.49806228  0.16656603  1
  I  I54  1  0.16973665  -0.00358406  0.16250752  1
  I  I55  1  0.16360378  -0.00033945  0.49951025  1
  I  I56  1  0.16726998  -0.00311781  0.83760446  1
  I  I57  1  0.16488647  0.33615399  0.16316282  1
  I  I58  1  0.16134409  0.33364967  0.49949792  1
  I  I59  1  0.16550617  0.33648865  0.83628966  1
  I  I60  1  0.16925859  0.66739112  0.16293679  1
  I  I61  1  0.17102227  0.66664269  0.50002401  1
  I  I62  1  0.16643829  0.66667117  0.83674496  1
  I  I63  1  0.49421583  -0.00334972  0.16831679  1
  I  I64  1  0.50316986  0.00196631  0.50141932  1
  I  I65  1  0.50042356  -0.00000489  0.83043631  1
  I  I66  1  0.49886206  0.33345521  0.16578887  1
  I  I67  1  0.50600627  0.33333198  0.50576141  1
  I  I68  1  0.50115789  0.33101105  0.82974176  1
  I  I69  1  0.50045613  0.67063942  0.16139085  1
  I  I70  1  0.50273420  0.66437009  0.50048696  1
  I  I71  1  0.49925999  0.66931811  0.83438419  1
  I  I72  1  0.83419597  0.00294772  0.16263781  1
  I  I73  1  0.83215172  -0.00128829  0.49964317  1
  I  I74  1  0.83249188  0.00234585  0.83404946  1
  I  I75  1  0.83405188  0.33031033  0.16739990  1
  I  I76  1  0.83170877  0.33622844  0.50112495  1
  I  I77  1  0.83390657  0.33372102  0.83079755  1
  I  I78  1  0.83203112  0.66664600  0.16582738  1
  I  I79  1  0.82722029  0.66503655  0.50490160  1
  I  I80  1  0.83409539  0.66404312  0.82990468  1
  I  I81  1  0.16990189  0.16766031  -0.00022269  1
  I  I82  1  0.16373462  0.16725343  0.33307036  1
  I  I83  1  0.16038039  0.16651474  0.66713024  1
  I  I84  1  0.16082966  0.50447680  -0.00129341  1
  I  I85  1  0.16722391  0.50474183  0.33071005  1
  I  I86  1  0.16555828  0.50421874  0.66995675  1
  I  I87  1  0.17004160  0.82923283  -0.00048640  1
  I  I88  1  0.17093258  0.82903506  0.33021283  1
  I  I89  1  0.17118622  0.82884064  0.67030085  1
  I  I90  1  0.50224728  0.16418380  -0.00318674  1
  I  I91  1  0.50286292  0.16869272  0.33554428  1
  I  I92  1  0.50625527  0.16399896  0.66790094  1
  I  I93  1  0.50233800  0.49781463  0.00009825  1
  I  I94  1  0.50577826  0.49511699  0.33744995  1
  I  I95  1  0.49995130  0.50097918  0.66418495  1
  I  I96  1  0.49670913  0.83925995  -0.00118767  1
  I  I97  1  0.49660200  0.83345802  0.33129433  1
  I  I98  1  0.49698093  0.83472747  0.66951380  1
  I  I99  1  0.82786107  0.17078659  -0.00204530  1
  I  I100  1  0.83291757  0.16515065  0.33202120  1
  I  I101  1  0.83145461  0.16711073  0.66958336  1
  I  I102  1  0.83545922  0.49788130  -0.00302848  1
  I  I103  1  0.83116684  0.50175918  0.33602944  1
  I  I104  1  0.83563948  0.49805166  0.66727893  1
  I  I105  1  0.83266664  0.83227077  -0.00009900  1
  I  I106  1  0.83184969  0.82975215  0.33662148  1
  I  I107  1  0.83203583  0.83386033  0.66415139  1
  I  I108  1  -0.00366620  0.16459317  0.16178942  1
  I  I109  1  -0.00043062  0.16627878  0.49966684  1
  I  I110  1  -0.00294837  0.16682266  0.83630163  1
  I  I111  1  0.00326792  0.50659234  0.16665492  1
  I  I112  1  -0.00307073  0.50378385  0.50112554  1
  I  I113  1  -0.00043092  0.50006129  0.83083297  1
  I  I114  1  0.00314112  0.83053848  0.16277723  1
  I  I115  1  -0.00409563  0.82752875  0.49995084  1
  I  I116  1  0.00256742  0.83216819  0.83655702  1
  I  I117  1  0.33343934  0.16788376  0.16772976  1
  I  I118  1  0.33895678  0.17200767  0.50612220  1
  I  I119  1  0.33658756  0.16562898  0.82857047  1
  I  I120  1  0.32957452  0.49983310  0.16084519  1
  I  I121  1  0.33603832  0.49592428  0.50076415  1
  I  I122  1  0.33085626  0.50082096  0.83464973  1
  I  I123  1  0.33298517  0.83104036  0.16461559  1
  I  I124  1  0.33340502  0.83373800  0.49952898  1
  I  I125  1  0.33358532  0.83363601  0.83565916  1
  I  I126  1  0.66955928  0.16510513  0.16579662  1
  I  I127  1  0.66391643  0.16691838  0.50180655  1
  I  I128  1  0.66661520  0.16587241  0.83259424  1
  I  I129  1  0.66665724  0.50088970  0.16534585  1
  I  I130  1  0.66760848  0.50046258  0.50597042  1
  I  I131  1  0.66922611  0.49913946  0.82963964  1
  I  I132  1  0.66436414  0.83627073  0.16387520  1
  I  I133  1  0.66927250  0.83225980  0.50033301  1
  I  I134  1  0.66408058  0.83482091  0.83514593  1
