# generated using pymatgen
data_Cs27Sn14Pb13I81
_symmetry_space_group_name_H-M   'P 1'
_cell_length_a   18.96779121
_cell_length_b   18.98165379
_cell_length_c   18.97669595
_cell_angle_alpha   89.99963652
_cell_angle_beta   89.99746363
_cell_angle_gamma   90.00287417
_symmetry_Int_Tables_number   1
_chemical_formula_structural   Cs27Sn14Pb13I81
_chemical_formula_sum   'Cs27 Sn14 Pb13 I81'
_cell_volume   6832.37046484
_cell_formula_units_Z   1
loop_
 _symmetry_equiv_pos_site_id
 _symmetry_equiv_pos_as_xyz
  1  'x, y, z'
loop_
 _atom_site_type_symbol
 _atom_site_label
 _atom_site_symmetry_multiplicity
 _atom_site_fract_x
 _atom_site_fract_y
 _atom_site_fract_z
 _atom_site_occupancy
  Cs  Cs0  1  0.00366911  0.00373492  -0.00107175  1
  Cs  Cs1  1  -0.00182994  0.00071660  0.33541463  1
  Cs  Cs2  1  0.00133275  -0.00376991  0.66504820  1
  Cs  Cs3  1  -0.00020533  0.33079215  0.00087218  1
  Cs  Cs4  1  0.00130847  0.33338674  0.33388815  1
  Cs  Cs5  1  -0.00392647  0.33421840  0.66516966  1
  Cs  Cs6  1  0.00338531  0.66572108  0.00220659  1
  Cs  Cs7  1  -0.00923291  0.66802909  0.33984850  1
  Cs  Cs8  1  -0.00077416  0.67137502  0.65536272  1
  Cs  Cs9  1  0.33182240  -0.00058705  0.00093231  1
  Cs  Cs10  1  0.33608980  0.00649992  0.33118842  1
  Cs  Cs11  1  0.33226536  -0.00142273  0.66609870  1
  Cs  Cs12  1  0.33156001  0.33575722  0.00018387  1
  Cs  Cs13  1  0.33288057  0.33191818  0.33419138  1
  Cs  Cs14  1  0.33470951  0.33428230  0.66530256  1
  Cs  Cs15  1  0.33268617  0.66483968  -0.00212432  1
  Cs  Cs16  1  0.33416989  0.66252436  0.33160236  1
  Cs  Cs17  1  0.33540775  0.66704855  0.66886585  1
  Cs  Cs18  1  0.66573763  -0.00108486  0.00016339  1
  Cs  Cs19  1  0.66561888  -0.00005277  0.33068629  1
  Cs  Cs20  1  0.66660841  -0.00038867  0.66963381  1
  Cs  Cs21  1  0.66946164  0.33404758  -0.00410665  1
  Cs  Cs22  1  0.66556945  0.33014527  0.33325420  1
  Cs  Cs23  1  0.66721300  0.33311137  0.67156629  1
  Cs  Cs24  1  0.66771520  0.66719042  0.00190443  1
  Cs  Cs25  1  0.67298067  0.67019024  0.33262285  1
  Cs  Cs26  1  0.66357384  0.66724136  0.66627608  1
  Sn  Sn27  1  0.16677147  0.49930878  0.83347552  1
  Sn  Sn28  1  0.83386910  0.16677306  0.16729489  1
  Sn  Sn29  1  0.16604267  0.16673172  0.16601264  1
  Sn  Sn30  1  0.83328436  0.83285481  0.83392924  1
  Sn  Sn31  1  0.49982144  0.49997363  0.16645008  1
  Sn  Sn32  1  0.49936256  0.50004463  0.83371934  1
  Sn  Sn33  1  0.49878517  0.16664839  0.83373722  1
  Sn  Sn34  1  0.16680733  0.83291143  0.16724491  1
  Sn  Sn35  1  0.49944398  0.83294758  0.50006660  1
  Sn  Sn36  1  0.50077463  0.83316224  0.83305130  1
  Sn  Sn37  1  0.16767286  0.16773327  0.83361661  1
  Sn  Sn38  1  0.49997263  0.50072128  0.49985129  1
  Sn  Sn39  1  0.83314958  0.16679289  0.49933356  1
  Sn  Sn40  1  0.16713199  0.50038477  0.16623390  1
  Pb  Pb41  1  0.83413110  0.16511849  0.83363698  1
  Pb  Pb42  1  0.16477944  0.16677402  0.50051763  1
  Pb  Pb43  1  0.83445911  0.50282153  0.83334734  1
  Pb  Pb44  1  0.50165180  0.16663904  0.50264685  1
  Pb  Pb45  1  0.49824864  0.83097229  0.16639408  1
  Pb  Pb46  1  0.83002380  0.49772913  0.50006297  1
  Pb  Pb47  1  0.49963705  0.16904991  0.16411478  1
  Pb  Pb48  1  0.16992684  0.83337046  0.49650761  1
  Pb  Pb49  1  0.83051324  0.83556983  0.50195648  1
  Pb  Pb50  1  0.16870288  0.50000623  0.50016528  1
  Pb  Pb51  1  0.83583223  0.83576573  0.16443342  1
  Pb  Pb52  1  0.83395166  0.49783209  0.16642407  1
  Pb  Pb53  1  0.16712145  0.83278823  0.83437053  1
  I  I54  1  0.16260535  0.00133791  0.16160802  1
  I  I55  1  0.16906155  0.00007532  0.50124556  1
  I  I56  1  0.16924175  0.00241283  0.83830573  1
  I  I57  1  0.16659664  0.33332513  0.16206055  1
  I  I58  1  0.16907900  0.33333851  0.49618785  1
  I  I59  1  0.17499532  0.33325097  0.84176043  1
  I  I60  1  0.17384579  0.66522501  0.16016143  1
  I  I61  1  0.16390925  0.66669782  0.50126603  1
  I  I62  1  0.17117724  0.66375931  0.83954474  1
  I  I63  1  0.49874649  0.00020825  0.16689898  1
  I  I64  1  0.50162685  -0.00240306  0.50545846  1
  I  I65  1  0.50040585  -0.00020728  0.82849612  1
  I  I66  1  0.49511082  0.33698499  0.16773720  1
  I  I67  1  0.50125422  0.33613152  0.50100757  1
  I  I68  1  0.49633509  0.33404380  0.83315395  1
  I  I69  1  0.49370637  0.66296542  0.16197553  1
  I  I70  1  0.49890561  0.66612600  0.50625838  1
  I  I71  1  0.49950205  0.66594764  0.83227867  1
  I  I72  1  0.83780867  0.00369803  0.16940982  1
  I  I73  1  0.83129914  0.00303652  0.49629918  1
  I  I74  1  0.82798358  -0.00240568  0.83352628  1
  I  I75  1  0.83822182  0.32982004  0.16810529  1
  I  I76  1  0.83220958  0.32996801  0.49771293  1
  I  I77  1  0.82990465  0.33319384  0.83307093  1
  I  I78  1  0.83408444  0.66684456  0.16589112  1
  I  I79  1  0.83502660  0.66698710  0.50115681  1
  I  I80  1  0.82780773  0.67038150  0.83344462  1
  I  I81  1  0.16433027  0.16723566  0.00028740  1
  I  I82  1  0.16483829  0.16743054  0.32989105  1
  I  I83  1  0.16953054  0.17111779  0.67044032  1
  I  I84  1  0.17540147  0.49886315  0.00019339  1
  I  I85  1  0.17216795  0.49776799  0.32977568  1
  I  I86  1  0.17113520  0.49460789  0.67028800  1
  I  I87  1  0.16905979  0.83415497  0.00238763  1
  I  I88  1  0.16764939  0.83399290  0.32852893  1
  I  I89  1  0.16379693  0.83396366  0.66672941  1
  I  I90  1  0.50152413  0.16492143  -0.00400050  1
  I  I91  1  0.49863876  0.16679343  0.33309625  1
  I  I92  1  0.49704568  0.17066966  0.67078761  1
  I  I93  1  0.49558719  0.49984509  -0.00109444  1
  I  I94  1  0.49552273  0.50352001  0.33297161  1
  I  I95  1  0.49659916  0.50050528  0.66811602  1
  I  I96  1  0.50239229  0.83327054  -0.00317378  1
  I  I97  1  0.49737264  0.82882713  0.33557870  1
  I  I98  1  0.50333013  0.82906448  0.66832486  1
  I  I99  1  0.83552259  0.16550144  0.00217459  1
  I  I100  1  0.83840704  0.16677632  0.33219095  1
  I  I101  1  0.83126480  0.16507520  0.66521467  1
  I  I102  1  0.82711199  0.49755668  -0.00016905  1
  I  I103  1  0.83304479  0.50192017  0.33320495  1
  I  I104  1  0.83428481  0.49577919  0.66681275  1
  I  I105  1  0.82428606  0.83561040  -0.00308340  1
  I  I106  1  0.83297234  0.83308376  0.33325716  1
  I  I107  1  0.83336647  0.83665615  0.66982075  1
  I  I108  1  0.00170607  0.16846743  0.16357213  1
  I  I109  1  -0.00311033  0.16580996  0.50109715  1
  I  I110  1  0.00318389  0.16956745  0.83532448  1
  I  I111  1  0.00394314  0.50049449  0.15975394  1
  I  I112  1  -0.00010747  0.49950971  0.50027673  1
  I  I113  1  0.00392908  0.49454229  0.84104308  1
  I  I114  1  0.00384017  0.82829148  0.16268491  1
  I  I115  1  -0.00022738  0.83422796  0.50210114  1
  I  I116  1  -0.00158938  0.83612824  0.83686656  1
  I  I117  1  0.33023633  0.16488922  0.16415918  1
  I  I118  1  0.33370991  0.16635346  0.49752978  1
  I  I119  1  0.33323612  0.16516432  0.83849295  1
  I  I120  1  0.33287708  0.49780207  0.16550235  1
  I  I121  1  0.33715762  0.50196077  0.50075886  1
  I  I122  1  0.33453859  0.50108599  0.83442535  1
  I  I123  1  0.33035089  0.83915339  0.16402350  1
  I  I124  1  0.33759018  0.83073009  0.50975003  1
  I  I125  1  0.33645743  0.83322914  0.83075916  1
  I  I126  1  0.66862971  0.16829237  0.16869224  1
  I  I127  1  0.66932431  0.16690805  0.49457159  1
  I  I128  1  0.66417689  0.16913261  0.83288957  1
  I  I129  1  0.66350262  0.49861111  0.16521329  1
  I  I130  1  0.66166351  0.50396982  0.50136403  1
  I  I131  1  0.66315028  0.49643118  0.83348957  1
  I  I132  1  0.66650307  0.83358487  0.16804389  1
  I  I133  1  0.66271416  0.82864897  0.50149113  1
  I  I134  1  0.66431258  0.83486873  0.82997387  1
