# generated using pymatgen
data_Cs27Sn14Pb13I81
_symmetry_space_group_name_H-M   'P 1'
_cell_length_a   18.98256455
_cell_length_b   18.97357986
_cell_length_c   18.97252343
_cell_angle_alpha   90.00107240
_cell_angle_beta   89.99889858
_cell_angle_gamma   90.00008506
_symmetry_Int_Tables_number   1
_chemical_formula_structural   Cs27Sn14Pb13I81
_chemical_formula_sum   'Cs27 Sn14 Pb13 I81'
_cell_volume   6833.28072285
_cell_formula_units_Z   1
loop_
 _symmetry_equiv_pos_site_id
 _symmetry_equiv_pos_as_xyz
  1  'x, y, z'
loop_
 _atom_site_type_symbol
 _atom_site_label
 _atom_site_symmetry_multiplicity
 _atom_site_fract_x
 _atom_site_fract_y
 _atom_site_fract_z
 _atom_site_occupancy
  Cs  Cs0  1  0.00162855  0.00207525  -0.00215222  1
  Cs  Cs1  1  -0.00050160  0.00007051  0.33334709  1
  Cs  Cs2  1  -0.00284115  -0.00237118  0.67092245  1
  Cs  Cs3  1  -0.00099208  0.33317357  0.00005243  1
  Cs  Cs4  1  0.00551048  0.33051806  0.33066981  1
  Cs  Cs5  1  -0.00308385  0.33709293  0.66915127  1
  Cs  Cs6  1  0.00387775  0.66452568  0.00104321  1
  Cs  Cs7  1  -0.00150970  0.66877242  0.33535156  1
  Cs  Cs8  1  -0.00289404  0.66629571  0.66344026  1
  Cs  Cs9  1  0.33412436  -0.00125818  -0.00289464  1
  Cs  Cs10  1  0.33134079  0.00323837  0.33610943  1
  Cs  Cs11  1  0.33407779  -0.00226289  0.66761678  1
  Cs  Cs12  1  0.33406793  0.33458339  0.00142865  1
  Cs  Cs13  1  0.33306006  0.33097151  0.33814694  1
  Cs  Cs14  1  0.33516224  0.33305871  0.66106353  1
  Cs  Cs15  1  0.33336982  0.66637592  -0.00125092  1
  Cs  Cs16  1  0.33216820  0.66559162  0.33374156  1
  Cs  Cs17  1  0.33226229  0.66904624  0.66862427  1
  Cs  Cs18  1  0.66465343  -0.00017716  0.00113657  1
  Cs  Cs19  1  0.66948486  -0.00234949  0.33286907  1
  Cs  Cs20  1  0.66782581  0.00216049  0.66630958  1
  Cs  Cs21  1  0.66662419  0.33298447  -0.00096335  1
  Cs  Cs22  1  0.66303820  0.33156245  0.33106905  1
  Cs  Cs23  1  0.66684225  0.33410051  0.66796277  1
  Cs  Cs24  1  0.66225193  0.66669404  0.00386860  1
  Cs  Cs25  1  0.67096196  0.67094372  0.33324906  1
  Cs  Cs26  1  0.67223980  0.66495377  0.66188551  1
  Sn  Sn27  1  0.16698171  0.83290817  0.16734173  1
  Sn  Sn28  1  0.16747275  0.83338163  0.49910662  1
  Sn  Sn29  1  0.49905725  0.49920121  0.83376203  1
  Sn  Sn30  1  0.83260066  0.16738817  0.16747030  1
  Sn  Sn31  1  0.16704140  0.50071567  0.16619109  1
  Sn  Sn32  1  0.83348455  0.16729798  0.49903893  1
  Sn  Sn33  1  0.16778738  0.16799043  0.83327666  1
  Sn  Sn34  1  0.83328546  0.49924685  0.16662411  1
  Sn  Sn35  1  0.49975145  0.49922631  0.16621421  1
  Sn  Sn36  1  0.49937235  0.83322171  0.49971879  1
  Sn  Sn37  1  0.16764257  0.49874657  0.83388704  1
  Sn  Sn38  1  0.49883372  0.16751965  0.83402583  1
  Sn  Sn39  1  0.50043811  0.16719309  0.16597519  1
  Sn  Sn40  1  0.83285321  0.83279629  0.83430380  1
  Pb  Pb41  1  0.83295231  0.50207582  0.83572463  1
  Pb  Pb42  1  0.16437100  0.16447036  0.50344405  1
  Pb  Pb43  1  0.83332018  0.49687078  0.49650434  1
  Pb  Pb44  1  0.16671203  0.50188599  0.50022585  1
  Pb  Pb45  1  0.83273274  0.16582294  0.83424694  1
  Pb  Pb46  1  0.83372996  0.83511771  0.50158523  1
  Pb  Pb47  1  0.50148265  0.16497619  0.49997105  1
  Pb  Pb48  1  0.50209983  0.83275016  0.83153811  1
  Pb  Pb49  1  0.83563046  0.83371607  0.16486070  1
  Pb  Pb50  1  0.16547808  0.83258160  0.83341780  1
  Pb  Pb51  1  0.49764454  0.83355040  0.16845778  1
  Pb  Pb52  1  0.49998668  0.50219382  0.49981077  1
  Pb  Pb53  1  0.16716489  0.16710169  0.16511008  1
  I  I54  1  0.16571243  -0.00189714  0.16821620  1
  I  I55  1  0.16980083  -0.00335472  0.49442638  1
  I  I56  1  0.16839526  0.00193430  0.83382757  1
  I  I57  1  0.16525810  0.33628409  0.16323301  1
  I  I58  1  0.16522902  0.33308585  0.49741529  1
  I  I59  1  0.16814939  0.33412331  0.84024279  1
  I  I60  1  0.16620701  0.66518757  0.16392373  1
  I  I61  1  0.16894566  0.67004684  0.50099888  1
  I  I62  1  0.16998799  0.66365481  0.83537600  1
  I  I63  1  0.50405250  0.00306694  0.16317272  1
  I  I64  1  0.49661705  -0.00274410  0.50054183  1
  I  I65  1  0.49744275  0.00286622  0.83668058  1
  I  I66  1  0.49987730  0.33355997  0.16304173  1
  I  I67  1  0.50213519  0.33324673  0.50021976  1
  I  I68  1  0.49725195  0.33320066  0.83728520  1
  I  I69  1  0.50226972  0.66347021  0.16291687  1
  I  I70  1  0.49671408  0.67001229  0.50069707  1
  I  I71  1  0.49602628  0.66337882  0.83802769  1
  I  I72  1  0.82986740  0.00302859  0.16851834  1
  I  I73  1  0.83305850  0.00269494  0.49386519  1
  I  I74  1  0.83525280  -0.00180744  0.83418226  1
  I  I75  1  0.83501866  0.33315368  0.16950645  1
  I  I76  1  0.83204048  0.32918206  0.50226270  1
  I  I77  1  0.83450935  0.33362099  0.83069417  1
  I  I78  1  0.83062929  0.66396427  0.16299091  1
  I  I79  1  0.83326293  0.66671553  0.50073944  1
  I  I80  1  0.83488086  0.66934659  0.83320207  1
  I  I81  1  0.16460794  0.16424278  -0.00278207  1
  I  I82  1  0.16818850  0.16793593  0.33330735  1
  I  I83  1  0.17097090  0.17039089  0.67137880  1
  I  I84  1  0.16691630  0.50306256  0.00075076  1
  I  I85  1  0.16682096  0.50255613  0.32973714  1
  I  I86  1  0.17136940  0.49771110  0.67029334  1
  I  I87  1  0.16378553  0.83187734  0.00216991  1
  I  I88  1  0.16898023  0.82780773  0.33264919  1
  I  I89  1  0.16809722  0.83478157  0.66473549  1
  I  I90  1  0.50291277  0.16914467  0.00022531  1
  I  I91  1  0.50224846  0.17015849  0.33018849  1
  I  I92  1  0.49841954  0.16917834  0.66976872  1
  I  I93  1  0.49948476  0.49703207  0.00066031  1
  I  I94  1  0.49898104  0.49598753  0.32938735  1
  I  I95  1  0.49494066  0.49677146  0.67016262  1
  I  I96  1  0.49984753  0.83406784  0.00014662  1
  I  I97  1  0.49944764  0.83355273  0.33610665  1
  I  I98  1  0.49380976  0.83447779  0.66394063  1
  I  I99  1  0.83267042  0.16929671  0.00301943  1
  I  I100  1  0.82774532  0.16842693  0.33139547  1
  I  I101  1  0.83410341  0.16073317  0.66548007  1
  I  I102  1  0.83430417  0.49313211  0.00367347  1
  I  I103  1  0.83295291  0.50209487  0.32814961  1
  I  I104  1  0.83385893  0.50087757  0.66687683  1
  I  I105  1  0.83524144  0.83657962  -0.00233053  1
  I  I106  1  0.83264133  0.83199237  0.33302479  1
  I  I107  1  0.83576537  0.83582416  0.66920738  1
  I  I108  1  -0.00209488  0.16885765  0.16836375  1
  I  I109  1  -0.00314792  0.16371046  0.49352119  1
  I  I110  1  0.00199491  0.16790249  0.83357193  1
  I  I111  1  0.00062854  0.50017573  0.16250219  1
  I  I112  1  -0.00003499  0.50364414  0.50205165  1
  I  I113  1  0.00279148  0.49732050  0.83770747  1
  I  I114  1  0.00346787  0.82946268  0.17154392  1
  I  I115  1  0.00258419  0.83429634  0.49780399  1
  I  I116  1  -0.00195242  0.83549877  0.83168555  1
  I  I117  1  0.33613789  0.16869571  0.16395290  1
  I  I118  1  0.33320501  0.16594482  0.49783846  1
  I  I119  1  0.33420963  0.16794827  0.83951890  1
  I  I120  1  0.33342184  0.50115193  0.16183091  1
  I  I121  1  0.33333657  0.49809744  0.49531499  1
  I  I122  1  0.33327976  0.49777892  0.84205759  1
  I  I123  1  0.32981172  0.82948014  0.16636173  1
  I  I124  1  0.33251002  0.83422612  0.49745926  1
  I  I125  1  0.33345228  0.83440008  0.83349711  1
  I  I126  1  0.66625116  0.17347973  0.16451283  1
  I  I127  1  0.66922681  0.16221433  0.50059441  1
  I  I128  1  0.66370520  0.16917999  0.83392154  1
  I  I129  1  0.66589990  0.49528123  0.16217720  1
  I  I130  1  0.66668482  0.50508676  0.50222596  1
  I  I131  1  0.66352734  0.49673281  0.83706278  1
  I  I132  1  0.66653679  0.83083890  0.16791656  1
  I  I133  1  0.66491189  0.83439484  0.50244105  1
  I  I134  1  0.66929117  0.83516528  0.83140424  1
