# generated using pymatgen
data_Cs27Sn13Pb14I81
_symmetry_space_group_name_H-M   'P 1'
_cell_length_a   18.98399859
_cell_length_b   18.99154011
_cell_length_c   19.00154841
_cell_angle_alpha   90.00002420
_cell_angle_beta   89.99994088
_cell_angle_gamma   90.00085709
_symmetry_Int_Tables_number   1
_chemical_formula_structural   Cs27Sn13Pb14I81
_chemical_formula_sum   'Cs27 Sn13 Pb14 I81'
_cell_volume   6850.73029895
_cell_formula_units_Z   1
loop_
 _symmetry_equiv_pos_site_id
 _symmetry_equiv_pos_as_xyz
  1  'x, y, z'
loop_
 _atom_site_type_symbol
 _atom_site_label
 _atom_site_symmetry_multiplicity
 _atom_site_fract_x
 _atom_site_fract_y
 _atom_site_fract_z
 _atom_site_occupancy
  Cs  Cs0  1  0.00133092  0.00181488  -0.00024838  1
  Cs  Cs1  1  -0.00031885  -0.00181196  0.33542610  1
  Cs  Cs2  1  0.00126219  -0.00050205  0.66438175  1
  Cs  Cs3  1  -0.00010452  0.33297621  -0.00025678  1
  Cs  Cs4  1  -0.00107873  0.33512333  0.33236233  1
  Cs  Cs5  1  -0.00074699  0.33375375  0.66743603  1
  Cs  Cs6  1  -0.00063074  0.66495678  0.00121126  1
  Cs  Cs7  1  0.00018370  0.66493499  0.33382323  1
  Cs  Cs8  1  0.00061430  0.66425592  0.66589288  1
  Cs  Cs9  1  0.33042951  0.00374781  -0.00008758  1
  Cs  Cs10  1  0.33675178  -0.00051878  0.33447789  1
  Cs  Cs11  1  0.32847376  -0.00140568  0.66613735  1
  Cs  Cs12  1  0.33313034  0.33305524  0.00139858  1
  Cs  Cs13  1  0.33883097  0.33464016  0.33001682  1
  Cs  Cs14  1  0.33223139  0.33354267  0.66866439  1
  Cs  Cs15  1  0.33694617  0.66336191  0.00163683  1
  Cs  Cs16  1  0.33921321  0.66468612  0.33363836  1
  Cs  Cs17  1  0.33804595  0.66779579  0.66499761  1
  Cs  Cs18  1  0.66615650  -0.00710911  0.00199147  1
  Cs  Cs19  1  0.65914507  -0.00446684  0.33866155  1
  Cs  Cs20  1  0.66816510  -0.00486691  0.66018858  1
  Cs  Cs21  1  0.67108953  0.33275669  -0.00112223  1
  Cs  Cs22  1  0.66324490  0.33000245  0.33690921  1
  Cs  Cs23  1  0.66800311  0.33393171  0.66428786  1
  Cs  Cs24  1  0.66232588  0.67792579  -0.00169749  1
  Cs  Cs25  1  0.66000786  0.67478369  0.33113854  1
  Cs  Cs26  1  0.65628905  0.67007578  0.67042177  1
  Sn  Sn27  1  0.16613337  0.16709025  0.83341113  1
  Sn  Sn28  1  0.16596915  0.83389091  0.16597034  1
  Sn  Sn29  1  0.83323667  0.16692344  0.83386758  1
  Sn  Sn30  1  0.83395725  0.49967939  0.83342716  1
  Sn  Sn31  1  0.16595659  0.50013843  0.83272779  1
  Sn  Sn32  1  0.83342491  0.49944185  0.16649120  1
  Sn  Sn33  1  0.83380729  0.50021373  0.50017106  1
  Sn  Sn34  1  0.16552960  0.16614141  0.16706228  1
  Sn  Sn35  1  0.16621209  0.16816101  0.49943391  1
  Sn  Sn36  1  0.50096890  0.16687801  0.83337206  1
  Sn  Sn37  1  0.83402614  0.16708763  0.16643631  1
  Sn  Sn38  1  0.16589914  0.49878881  0.50057103  1
  Sn  Sn39  1  0.16596271  0.83265347  0.83448971  1
  Pb  Pb40  1  0.50036165  0.49760308  0.83362403  1
  Pb  Pb41  1  0.50002451  0.49958218  0.50015553  1
  Pb  Pb42  1  0.16642325  0.83262973  0.49976281  1
  Pb  Pb43  1  0.49606620  0.83377305  0.16624999  1
  Pb  Pb44  1  0.83583710  0.83348933  0.83317388  1
  Pb  Pb45  1  0.16561829  0.49966679  0.16667677  1
  Pb  Pb46  1  0.83527225  0.16805071  0.49982113  1
  Pb  Pb47  1  0.83567704  0.83416198  0.16668387  1
  Pb  Pb48  1  0.49955920  0.83354559  0.50033912  1
  Pb  Pb49  1  0.49644719  0.83682581  0.83346025  1
  Pb  Pb50  1  0.50477770  0.49944445  0.16615233  1
  Pb  Pb51  1  0.49684673  0.16702177  0.50303222  1
  Pb  Pb52  1  0.83386207  0.82948791  0.50012816  1
  Pb  Pb53  1  0.50076952  0.16688042  0.16426699  1
  I  I54  1  0.16159523  0.00196569  0.16237638  1
  I  I55  1  0.16740901  0.00291077  0.50369110  1
  I  I56  1  0.16754783  0.00176747  0.83345649  1
  I  I57  1  0.16496813  0.33025128  0.16372318  1
  I  I58  1  0.16275590  0.33331626  0.50482307  1
  I  I59  1  0.16655416  0.33248758  0.83257291  1
  I  I60  1  0.16431162  0.66842845  0.16282070  1
  I  I61  1  0.16196137  0.66297008  0.50353015  1
  I  I62  1  0.16044237  0.66554044  0.83315848  1
  I  I63  1  0.50465299  0.00029399  0.16591694  1
  I  I64  1  0.49839424  0.00058266  0.50043275  1
  I  I65  1  0.49998495  0.00451470  0.83444193  1
  I  I66  1  0.49191930  0.33298944  0.16659083  1
  I  I67  1  0.50071210  0.33317563  0.49978046  1
  I  I68  1  0.49304730  0.33008039  0.83358967  1
  I  I69  1  0.49895778  0.66675075  0.16656338  1
  I  I70  1  0.49766003  0.66633048  0.50074708  1
  I  I71  1  0.50045427  0.66693300  0.83283738  1
  I  I72  1  0.83671026  0.00396116  0.15887804  1
  I  I73  1  0.83473878  0.00026647  0.50046876  1
  I  I74  1  0.83467703  0.00388282  0.83943075  1
  I  I75  1  0.84113292  0.33270060  0.16442806  1
  I  I76  1  0.83681499  0.33633365  0.50077475  1
  I  I77  1  0.83855084  0.33307898  0.83414441  1
  I  I78  1  0.83632713  0.66360460  0.16635887  1
  I  I79  1  0.84368911  0.66080911  0.49997428  1
  I  I80  1  0.83946574  0.66302812  0.83370942  1
  I  I81  1  0.16691729  0.16573949  -0.00109474  1
  I  I82  1  0.16077070  0.16587929  0.33268442  1
  I  I83  1  0.16727156  0.16628755  0.66820514  1
  I  I84  1  0.16313416  0.49788793  -0.00300959  1
  I  I85  1  0.16169503  0.49730108  0.33576604  1
  I  I86  1  0.15933166  0.49652102  0.66786193  1
  I  I87  1  0.16554295  0.83789169  -0.00084104  1
  I  I88  1  0.16545049  0.83754172  0.33036357  1
  I  I89  1  0.16667133  0.83710178  0.66966985  1
  I  I90  1  0.49274680  0.16777691  -0.00334788  1
  I  I91  1  0.49978606  0.16613037  0.33343026  1
  I  I92  1  0.50005793  0.16806263  0.67088209  1
  I  I93  1  0.49533639  0.49905543  -0.00026625  1
  I  I94  1  0.49644604  0.50002276  0.33329188  1
  I  I95  1  0.50333365  0.49957680  0.66692805  1
  I  I96  1  0.50265051  0.83255451  -0.00035436  1
  I  I97  1  0.49827085  0.83337901  0.33307742  1
  I  I98  1  0.49742355  0.83286152  0.66735092  1
  I  I99  1  0.83946939  0.17552894  -0.00088945  1
  I  I100  1  0.84053098  0.17195161  0.33036247  1
  I  I101  1  0.83490132  0.17062950  0.66996789  1
  I  I102  1  0.83974641  0.49414722  -0.00097534  1
  I  I103  1  0.84072382  0.49530235  0.33326111  1
  I  I104  1  0.83964120  0.49448145  0.66777446  1
  I  I105  1  0.83238885  0.82773548  -0.00008865  1
  I  I106  1  0.83722682  0.83372019  0.33322701  1
  I  I107  1  0.83704419  0.83629477  0.66686788  1
  I  I108  1  0.00108812  0.16709402  0.16077829  1
  I  I109  1  0.00370134  0.16814875  0.50500144  1
  I  I110  1  0.00116843  0.16763766  0.83443005  1
  I  I111  1  -0.00250550  0.49860359  0.16610543  1
  I  I112  1  0.00092069  0.49588274  0.50193113  1
  I  I113  1  0.00071507  0.49534447  0.83257180  1
  I  I114  1  0.00357366  0.83570439  0.16188349  1
  I  I115  1  0.00067920  0.83600553  0.50020542  1
  I  I116  1  0.00404559  0.83819210  0.83684939  1
  I  I117  1  0.32975262  0.16231582  0.16574222  1
  I  I118  1  0.32800523  0.17222733  0.49930982  1
  I  I119  1  0.33068654  0.16607467  0.83286306  1
  I  I120  1  0.33314798  0.50104448  0.16729938  1
  I  I121  1  0.32945923  0.49736535  0.50572859  1
  I  I122  1  0.32954301  0.49957680  0.82827738  1
  I  I123  1  0.32796726  0.83987928  0.16222353  1
  I  I124  1  0.33236739  0.83141623  0.50016507  1
  I  I125  1  0.32816563  0.83233772  0.83656152  1
  I  I126  1  0.67070893  0.17354772  0.16115037  1
  I  I127  1  0.66688119  0.16817099  0.50003614  1
  I  I128  1  0.66841729  0.17443265  0.83911508  1
  I  I129  1  0.67300331  0.49140835  0.16637808  1
  I  I130  1  0.67032653  0.49890358  0.50127996  1
  I  I131  1  0.67063167  0.49415853  0.83229427  1
  I  I132  1  0.66667622  0.83215540  0.16757309  1
  I  I133  1  0.66677183  0.83316015  0.49973312  1
  I  I134  1  0.66653837  0.83220270  0.83254103  1
