# generated using pymatgen
data_Cs27Sn14Pb13I81
_symmetry_space_group_name_H-M   'P 1'
_cell_length_a   18.97405058
_cell_length_b   18.97507562
_cell_length_c   18.97807653
_cell_angle_alpha   89.99944557
_cell_angle_beta   89.99859007
_cell_angle_gamma   89.99876815
_symmetry_Int_Tables_number   1
_chemical_formula_structural   Cs27Sn14Pb13I81
_chemical_formula_sum   'Cs27 Sn14 Pb13 I81'
_cell_volume   6832.75364790
_cell_formula_units_Z   1
loop_
 _symmetry_equiv_pos_site_id
 _symmetry_equiv_pos_as_xyz
  1  'x, y, z'
loop_
 _atom_site_type_symbol
 _atom_site_label
 _atom_site_symmetry_multiplicity
 _atom_site_fract_x
 _atom_site_fract_y
 _atom_site_fract_z
 _atom_site_occupancy
  Cs  Cs0  1  0.00080672  -0.00506439  -0.00082951  1
  Cs  Cs1  1  0.00081104  0.00165749  0.33377692  1
  Cs  Cs2  1  0.00041816  0.00145256  0.66798580  1
  Cs  Cs3  1  -0.00235110  0.33307803  -0.00092342  1
  Cs  Cs4  1  0.00202129  0.33742431  0.33016422  1
  Cs  Cs5  1  0.00006240  0.33262568  0.66709549  1
  Cs  Cs6  1  -0.00243975  0.67368065  0.00536711  1
  Cs  Cs7  1  -0.00018375  0.66141134  0.32856282  1
  Cs  Cs8  1  0.00066728  0.66611914  0.66712771  1
  Cs  Cs9  1  0.33081776  0.00188602  0.00490125  1
  Cs  Cs10  1  0.33442260  0.00145492  0.33086558  1
  Cs  Cs11  1  0.33150124  -0.00167965  0.66626945  1
  Cs  Cs12  1  0.33483017  0.32775751  -0.00361488  1
  Cs  Cs13  1  0.32958350  0.33387369  0.32912277  1
  Cs  Cs14  1  0.33055899  0.33499114  0.67110935  1
  Cs  Cs15  1  0.33697541  0.67029906  -0.00077226  1
  Cs  Cs16  1  0.33585444  0.66532478  0.33682248  1
  Cs  Cs17  1  0.33443286  0.66643131  0.66436806  1
  Cs  Cs18  1  0.66818286  0.00007218  0.00037502  1
  Cs  Cs19  1  0.66492057  0.00211489  0.33865581  1
  Cs  Cs20  1  0.66742248  0.00072195  0.66220135  1
  Cs  Cs21  1  0.66718312  0.33365392  -0.00334120  1
  Cs  Cs22  1  0.66824784  0.33112669  0.33473070  1
  Cs  Cs23  1  0.66815202  0.33221047  0.66870509  1
  Cs  Cs24  1  0.66699978  0.66645317  0.00318743  1
  Cs  Cs25  1  0.66529298  0.66692194  0.33250387  1
  Cs  Cs26  1  0.66579900  0.66655539  0.66619799  1
  Sn  Sn27  1  0.83338179  0.16667805  0.16565782  1
  Sn  Sn28  1  0.83253639  0.50084191  0.50080617  1
  Sn  Sn29  1  0.83367555  0.83215669  0.50017082  1
  Sn  Sn30  1  0.50081070  0.50003718  0.49941570  1
  Sn  Sn31  1  0.50020044  0.83278754  0.16714956  1
  Sn  Sn32  1  0.50000963  0.83268088  0.50005721  1
  Sn  Sn33  1  0.16647856  0.83389528  0.50007011  1
  Sn  Sn34  1  0.16678130  0.16626750  0.50062600  1
  Sn  Sn35  1  0.83412752  0.16704045  0.83407633  1
  Sn  Sn36  1  0.50020621  0.83380957  0.83303034  1
  Sn  Sn37  1  0.49995571  0.50001023  0.16750761  1
  Sn  Sn38  1  0.16550858  0.16726656  0.83235530  1
  Sn  Sn39  1  0.83446438  0.50004745  0.83276647  1
  Sn  Sn40  1  0.16549831  0.50015051  0.83359673  1
  Pb  Pb41  1  0.83137959  0.49857605  0.16654125  1
  Pb  Pb42  1  0.50041154  0.50162884  0.83303356  1
  Pb  Pb43  1  0.16665485  0.50011297  0.50134349  1
  Pb  Pb44  1  0.16410349  0.16674442  0.16601386  1
  Pb  Pb45  1  0.49703320  0.16761813  0.50018562  1
  Pb  Pb46  1  0.83108178  0.83550243  0.16985902  1
  Pb  Pb47  1  0.50227207  0.16703291  0.16675966  1
  Pb  Pb48  1  0.16969613  0.50000985  0.16266233  1
  Pb  Pb49  1  0.16911089  0.83303485  0.17000027  1
  Pb  Pb50  1  0.83147201  0.83315314  0.83138715  1
  Pb  Pb51  1  0.16848963  0.83336028  0.83166770  1
  Pb  Pb52  1  0.50003406  0.16379129  0.83305180  1
  Pb  Pb53  1  0.83541209  0.16738642  0.50061523  1
  I  I54  1  0.16955780  -0.00007392  0.16318925  1
  I  I55  1  0.16676626  -0.00056310  0.50617573  1
  I  I56  1  0.16344684  0.00281720  0.83032105  1
  I  I57  1  0.17026962  0.33332775  0.17384217  1
  I  I58  1  0.16620774  0.33117243  0.50286279  1
  I  I59  1  0.16465053  0.33266780  0.82618018  1
  I  I60  1  0.16265082  0.66654351  0.16599944  1
  I  I61  1  0.16872941  0.66918888  0.50247174  1
  I  I62  1  0.16445823  0.66416498  0.83061242  1
  I  I63  1  0.50083606  -0.00312678  0.16838188  1
  I  I64  1  0.50325859  -0.00333962  0.49926730  1
  I  I65  1  0.50010739  -0.00426687  0.83167015  1
  I  I66  1  0.50099468  0.33645503  0.17206435  1
  I  I67  1  0.50483130  0.33704572  0.49547983  1
  I  I68  1  0.49932759  0.33340926  0.83370854  1
  I  I69  1  0.50106958  0.66723900  0.16793767  1
  I  I70  1  0.49828314  0.66768264  0.49966526  1
  I  I71  1  0.49927253  0.66950908  0.83189251  1
  I  I72  1  0.83170489  0.00312344  0.16098895  1
  I  I73  1  0.82963222  -0.00229867  0.49960520  1
  I  I74  1  0.83636804  0.00268216  0.83545776  1
  I  I75  1  0.83040604  0.33074887  0.16789225  1
  I  I76  1  0.82915234  0.33630574  0.50100840  1
  I  I77  1  0.83563396  0.33366854  0.83080353  1
  I  I78  1  0.83384948  0.66675783  0.16410143  1
  I  I79  1  0.83325579  0.66618796  0.50598779  1
  I  I80  1  0.83602140  0.66371398  0.82971776  1
  I  I81  1  0.16632806  0.17147243  -0.00363332  1
  I  I82  1  0.16628909  0.16148491  0.33601703  1
  I  I83  1  0.16103947  0.16611134  0.66746897  1
  I  I84  1  0.16223644  0.49252837  -0.00522931  1
  I  I85  1  0.16471216  0.49946123  0.33342211  1
  I  I86  1  0.16833653  0.49846203  0.66921385  1
  I  I87  1  0.16986719  0.83438743  -0.00007549  1
  I  I88  1  0.16839354  0.83964588  0.33848643  1
  I  I89  1  0.17040806  0.83461733  0.66339702  1
  I  I90  1  0.49590205  0.16610378  -0.00016706  1
  I  I91  1  0.50128785  0.16222779  0.33357342  1
  I  I92  1  0.50493628  0.16594758  0.66661239  1
  I  I93  1  0.49963928  0.50556784  0.00188564  1
  I  I94  1  0.50514961  0.50871894  0.33485459  1
  I  I95  1  0.50063836  0.50545999  0.66395544  1
  I  I96  1  0.50018259  0.82863396  0.00040487  1
  I  I97  1  0.49984402  0.82904780  0.33467376  1
  I  I98  1  0.49954162  0.82946222  0.66473731  1
  I  I99  1  0.83702191  0.17226701  -0.00195566  1
  I  I100  1  0.83291760  0.16543212  0.33210237  1
  I  I101  1  0.83563618  0.16768995  0.66930799  1
  I  I102  1  0.83471091  0.49632109  -0.00301899  1
  I  I103  1  0.83100783  0.50225559  0.33636701  1
  I  I104  1  0.83028201  0.49759464  0.66639575  1
  I  I105  1  0.83033227  0.83184242  0.00002569  1
  I  I106  1  0.83144104  0.82941795  0.33802069  1
  I  I107  1  0.82964939  0.83478386  0.66317481  1
  I  I108  1  -0.00357087  0.16789031  0.16655439  1
  I  I109  1  0.00300843  0.16163115  0.50186627  1
  I  I110  1  -0.00018054  0.17065682  0.83232381  1
  I  I111  1  -0.00021222  0.49748014  0.17038086  1
  I  I112  1  -0.00270679  0.50273125  0.50297800  1
  I  I113  1  -0.00105416  0.49521767  0.82538463  1
  I  I114  1  -0.00032407  0.83491870  0.16732864  1
  I  I115  1  -0.00021094  0.83425289  0.50265573  1
  I  I116  1  -0.00009187  0.83341962  0.83064492  1
  I  I117  1  0.33328698  0.16589971  0.16627644  1
  I  I118  1  0.32919122  0.16237150  0.50611809  1
  I  I119  1  0.33013827  0.17088896  0.82882351  1
  I  I120  1  0.33768315  0.50410836  0.17401088  1
  I  I121  1  0.33595468  0.50375151  0.49843520  1
  I  I122  1  0.33135030  0.49637300  0.83267718  1
  I  I123  1  0.33760687  0.83084972  0.16756797  1
  I  I124  1  0.33457065  0.83313659  0.50052963  1
  I  I125  1  0.33653520  0.83200409  0.83024127  1
  I  I126  1  0.66992976  0.16639180  0.16078278  1
  I  I127  1  0.66692338  0.16358943  0.50033133  1
  I  I128  1  0.66991779  0.17098640  0.83695601  1
  I  I129  1  0.66348235  0.50437769  0.16619249  1
  I  I130  1  0.66678593  0.50760265  0.50213504  1
  I  I131  1  0.66944945  0.49613856  0.83169204  1
  I  I132  1  0.66298088  0.82954992  0.16849961  1
  I  I133  1  0.66582705  0.82933763  0.50019922  1
  I  I134  1  0.66347918  0.83258003  0.83008929  1
