# generated using pymatgen
data_Cs27Sn13Pb14I81
_symmetry_space_group_name_H-M   'P 1'
_cell_length_a   18.97752893
_cell_length_b   18.96691953
_cell_length_c   18.98620979
_cell_angle_alpha   89.99985725
_cell_angle_beta   89.99902619
_cell_angle_gamma   89.99948321
_symmetry_Int_Tables_number   1
_chemical_formula_structural   Cs27Sn13Pb14I81
_chemical_formula_sum   'Cs27 Sn13 Pb14 I81'
_cell_volume   6833.99629641
_cell_formula_units_Z   1
loop_
 _symmetry_equiv_pos_site_id
 _symmetry_equiv_pos_as_xyz
  1  'x, y, z'
loop_
 _atom_site_type_symbol
 _atom_site_label
 _atom_site_symmetry_multiplicity
 _atom_site_fract_x
 _atom_site_fract_y
 _atom_site_fract_z
 _atom_site_occupancy
  Cs  Cs0  1  0.00067008  0.00746873  0.00098439  1
  Cs  Cs1  1  -0.00504339  0.00125272  0.33372488  1
  Cs  Cs2  1  -0.00126106  -0.00128548  0.66533052  1
  Cs  Cs3  1  0.00564759  0.32404988  0.00260042  1
  Cs  Cs4  1  0.00402238  0.33581898  0.32851066  1
  Cs  Cs5  1  0.00178666  0.33358444  0.66940019  1
  Cs  Cs6  1  -0.00121940  0.66645579  -0.00253695  1
  Cs  Cs7  1  -0.00098835  0.66483077  0.33554477  1
  Cs  Cs8  1  -0.00057591  0.66737826  0.66608604  1
  Cs  Cs9  1  0.33153814  -0.00360877  0.00102299  1
  Cs  Cs10  1  0.33460121  -0.00091329  0.33552812  1
  Cs  Cs11  1  0.33407668  -0.00129467  0.66393024  1
  Cs  Cs12  1  0.32911610  0.33124023  -0.00447066  1
  Cs  Cs13  1  0.33351307  0.33328886  0.33270526  1
  Cs  Cs14  1  0.33524001  0.33217423  0.67313156  1
  Cs  Cs15  1  0.33455571  0.66880529  -0.00193918  1
  Cs  Cs16  1  0.33374090  0.66680249  0.33417816  1
  Cs  Cs17  1  0.33293694  0.66719057  0.66648792  1
  Cs  Cs18  1  0.66928896  0.00012726  0.00448550  1
  Cs  Cs19  1  0.67238846  0.00175411  0.33270883  1
  Cs  Cs20  1  0.66681397  0.00736155  0.66373198  1
  Cs  Cs21  1  0.66565420  0.33520236  -0.00136616  1
  Cs  Cs22  1  0.66483321  0.33511881  0.33465125  1
  Cs  Cs23  1  0.66395891  0.32794735  0.66672562  1
  Cs  Cs24  1  0.66602561  0.66601179  0.00127525  1
  Cs  Cs25  1  0.66678051  0.66607237  0.33211557  1
  Cs  Cs26  1  0.66755613  0.66595438  0.66682957  1
  Sn  Sn27  1  0.83300506  0.83303238  0.83310029  1
  Sn  Sn28  1  0.16705930  0.83418980  0.49959399  1
  Sn  Sn29  1  0.50014756  0.49908071  0.16702514  1
  Sn  Sn30  1  0.16689218  0.16612174  0.49993576  1
  Sn  Sn31  1  0.16634372  0.83304051  0.83321121  1
  Sn  Sn32  1  0.50063274  0.50080295  0.49966386  1
  Sn  Sn33  1  0.83336020  0.50037128  0.83347997  1
  Sn  Sn34  1  0.50078953  0.83316069  0.83221144  1
  Sn  Sn35  1  0.49999882  0.83268884  0.50057738  1
  Sn  Sn36  1  0.49985149  0.16756998  0.16675958  1
  Sn  Sn37  1  0.83243556  0.50021920  0.50027101  1
  Sn  Sn38  1  0.16624932  0.83279360  0.16723892  1
  Sn  Sn39  1  0.83290761  0.50026295  0.16631637  1
  Pb  Pb40  1  0.50000109  0.16325498  0.83619716  1
  Pb  Pb41  1  0.83296959  0.83175880  0.50175831  1
  Pb  Pb42  1  0.83091372  0.16988723  0.16685462  1
  Pb  Pb43  1  0.49895423  0.83273983  0.16725153  1
  Pb  Pb44  1  0.83596536  0.83122448  0.16426968  1
  Pb  Pb45  1  0.49846314  0.16682578  0.49844131  1
  Pb  Pb46  1  0.83615317  0.17041563  0.49985838  1
  Pb  Pb47  1  0.16745212  0.50023764  0.50012996  1
  Pb  Pb48  1  0.16395490  0.50205965  0.83344629  1
  Pb  Pb49  1  0.16740546  0.50191762  0.16650668  1
  Pb  Pb50  1  0.16688839  0.16360187  0.83071526  1
  Pb  Pb51  1  0.16900201  0.16401269  0.16891880  1
  Pb  Pb52  1  0.83321336  0.16679686  0.83328979  1
  Pb  Pb53  1  0.50173797  0.50177060  0.83325961  1
  I  I54  1  0.16959144  -0.00406375  0.16304901  1
  I  I55  1  0.17317483  -0.00270188  0.50087178  1
  I  I56  1  0.16424363  -0.00504107  0.83643015  1
  I  I57  1  0.16431681  0.33317649  0.16903611  1
  I  I58  1  0.16531521  0.33111376  0.49784763  1
  I  I59  1  0.16506883  0.33303387  0.83190409  1
  I  I60  1  0.16913714  0.67024078  0.16937264  1
  I  I61  1  0.16775423  0.67015957  0.50098510  1
  I  I62  1  0.16901060  0.67099134  0.82969431  1
  I  I63  1  0.49544554  0.00136960  0.16561273  1
  I  I64  1  0.49631988  -0.00317294  0.50254122  1
  I  I65  1  0.50106237  -0.00526391  0.82807191  1
  I  I66  1  0.50425775  0.33524262  0.17356193  1
  I  I67  1  0.50259257  0.33655856  0.49706894  1
  I  I68  1  0.50208531  0.33346852  0.83055710  1
  I  I69  1  0.50297364  0.66389160  0.16791818  1
  I  I70  1  0.49754745  0.66691938  0.49777939  1
  I  I71  1  0.49717000  0.67020922  0.83442427  1
  I  I72  1  0.83239703  -0.00008860  0.16477613  1
  I  I73  1  0.83107019  -0.00004732  0.50200883  1
  I  I74  1  0.83464734  -0.00374336  0.83282211  1
  I  I75  1  0.83372242  0.33828527  0.16468488  1
  I  I76  1  0.82746241  0.33868131  0.50280893  1
  I  I77  1  0.83185701  0.33712043  0.83278088  1
  I  I78  1  0.82641468  0.66311899  0.16864181  1
  I  I79  1  0.83441762  0.66347654  0.49831569  1
  I  I80  1  0.83433094  0.66694131  0.83334718  1
  I  I81  1  0.16671309  0.16550696  0.00014424  1
  I  I82  1  0.16734347  0.16021939  0.33638075  1
  I  I83  1  0.16805278  0.16214067  0.66305130  1
  I  I84  1  0.16741733  0.50336966  0.00004218  1
  I  I85  1  0.16147306  0.50381273  0.33348747  1
  I  I86  1  0.16634554  0.50163082  0.66650812  1
  I  I87  1  0.16818501  0.83001732  -0.00079478  1
  I  I88  1  0.17314248  0.83580250  0.33467578  1
  I  I89  1  0.16754154  0.83653323  0.66638408  1
  I  I90  1  0.49982845  0.17269564  0.00382289  1
  I  I91  1  0.49805201  0.16620382  0.33076003  1
  I  I92  1  0.49863290  0.16874866  0.66652587  1
  I  I93  1  0.50439676  0.49923049  0.00266035  1
  I  I94  1  0.50727203  0.50273238  0.33381121  1
  I  I95  1  0.50300893  0.50339411  0.66371686  1
  I  I96  1  0.49823286  0.83303436  -0.00226829  1
  I  I97  1  0.49361834  0.83153714  0.33621675  1
  I  I98  1  0.49447282  0.82734731  0.66583068  1
  I  I99  1  0.83399075  0.16717450  0.00015887  1
  I  I100  1  0.83394650  0.16554791  0.33336084  1
  I  I101  1  0.83296542  0.16865447  0.66647880  1
  I  I102  1  0.82852286  0.50646876  0.00010024  1
  I  I103  1  0.82931806  0.49996969  0.33342256  1
  I  I104  1  0.83107905  0.50556298  0.66660594  1
  I  I105  1  0.83144858  0.82683600  -0.00388015  1
  I  I106  1  0.83392934  0.83138470  0.33334854  1
  I  I107  1  0.83800871  0.82612993  0.66978677  1
  I  I108  1  0.00023559  0.16736891  0.16669632  1
  I  I109  1  0.00377100  0.15854625  0.49998251  1
  I  I110  1  0.00015651  0.16584295  0.83396715  1
  I  I111  1  -0.00293460  0.50405423  0.16829576  1
  I  I112  1  -0.00274114  0.50083983  0.49953353  1
  I  I113  1  -0.00452531  0.50675763  0.83164628  1
  I  I114  1  0.00390190  0.83119429  0.16862037  1
  I  I115  1  0.00273585  0.83485260  0.50106679  1
  I  I116  1  0.00026151  0.82774603  0.83268291  1
  I  I117  1  0.33645971  0.17388949  0.16753770  1
  I  I118  1  0.33068831  0.16474338  0.49828464  1
  I  I119  1  0.33341048  0.16687495  0.83374500  1
  I  I120  1  0.33694480  0.49862780  0.17336988  1
  I  I121  1  0.33677187  0.50254098  0.49382450  1
  I  I122  1  0.33360386  0.50187991  0.83310380  1
  I  I123  1  0.33093895  0.83137408  0.16265303  1
  I  I124  1  0.33341679  0.83106638  0.50417523  1
  I  I125  1  0.33319990  0.83405099  0.83305088  1
  I  I126  1  0.66309327  0.16459676  0.16837322  1
  I  I127  1  0.66653361  0.16390703  0.49891277  1
  I  I128  1  0.66650409  0.16315470  0.83214143  1
  I  I129  1  0.66632560  0.49801333  0.16766406  1
  I  I130  1  0.66583252  0.50652719  0.49834106  1
  I  I131  1  0.66980484  0.50798597  0.83401253  1
  I  I132  1  0.66678088  0.83524368  0.16598871  1
  I  I133  1  0.66358312  0.83020393  0.50373966  1
  I  I134  1  0.66651558  0.82792692  0.82968039  1
