# generated using pymatgen
data_Cs27Sn13Pb14I81
_symmetry_space_group_name_H-M   'P 1'
_cell_length_a   18.98368787
_cell_length_b   18.97385014
_cell_length_c   18.97593734
_cell_angle_alpha   89.99960664
_cell_angle_beta   89.99923940
_cell_angle_gamma   89.99928388
_symmetry_Int_Tables_number   1
_chemical_formula_structural   Cs27Sn13Pb14I81
_chemical_formula_sum   'Cs27 Sn13 Pb14 I81'
_cell_volume   6835.01210411
_cell_formula_units_Z   1
loop_
 _symmetry_equiv_pos_site_id
 _symmetry_equiv_pos_as_xyz
  1  'x, y, z'
loop_
 _atom_site_type_symbol
 _atom_site_label
 _atom_site_symmetry_multiplicity
 _atom_site_fract_x
 _atom_site_fract_y
 _atom_site_fract_z
 _atom_site_occupancy
  Cs  Cs0  1  -0.00087366  0.00283523  0.00132823  1
  Cs  Cs1  1  -0.00057602  -0.00278001  0.33235648  1
  Cs  Cs2  1  -0.00442401  0.00191116  0.66801608  1
  Cs  Cs3  1  0.00281605  0.33160379  0.00085980  1
  Cs  Cs4  1  -0.00170564  0.33685727  0.33122683  1
  Cs  Cs5  1  -0.00017736  0.33388728  0.66773753  1
  Cs  Cs6  1  0.00124024  0.66562859  -0.00003821  1
  Cs  Cs7  1  -0.00101746  0.66717677  0.33383714  1
  Cs  Cs8  1  0.00157992  0.66591162  0.66583506  1
  Cs  Cs9  1  0.33446813  0.00417952  -0.00169932  1
  Cs  Cs10  1  0.33333775  -0.00242835  0.33494721  1
  Cs  Cs11  1  0.33438039  0.00107831  0.66597497  1
  Cs  Cs12  1  0.33288766  0.32699996  0.00731175  1
  Cs  Cs13  1  0.33527740  0.33091397  0.32949565  1
  Cs  Cs14  1  0.33248877  0.33636851  0.66604617  1
  Cs  Cs15  1  0.33396759  0.66664781  -0.00137511  1
  Cs  Cs16  1  0.33278605  0.66906596  0.33557376  1
  Cs  Cs17  1  0.33235439  0.66559640  0.66586395  1
  Cs  Cs18  1  0.66807017  -0.00041477  -0.00599711  1
  Cs  Cs19  1  0.66755960  0.00167444  0.33429481  1
  Cs  Cs20  1  0.67300938  0.00754621  0.67325547  1
  Cs  Cs21  1  0.66344255  0.33504340  0.00373609  1
  Cs  Cs22  1  0.66720824  0.33147417  0.33259907  1
  Cs  Cs23  1  0.66726049  0.32906241  0.66395221  1
  Cs  Cs24  1  0.66502370  0.66660357  -0.00165819  1
  Cs  Cs25  1  0.66746855  0.66556347  0.33295205  1
  Cs  Cs26  1  0.66606358  0.66706653  0.66916669  1
  Sn  Sn27  1  0.16755188  0.49992709  0.50039528  1
  Sn  Sn28  1  0.49928679  0.50018400  0.83256342  1
  Sn  Sn29  1  0.16672886  0.83300260  0.83301836  1
  Sn  Sn30  1  0.16657859  0.16673482  0.49991205  1
  Sn  Sn31  1  0.16696803  0.83309044  0.16634071  1
  Sn  Sn32  1  0.49919208  0.50101147  0.50065375  1
  Sn  Sn33  1  0.16714197  0.83345459  0.50055658  1
  Sn  Sn34  1  0.83309660  0.83378222  0.16669643  1
  Sn  Sn35  1  0.50000296  0.83307901  0.16714689  1
  Sn  Sn36  1  0.83336057  0.16603036  0.16688051  1
  Sn  Sn37  1  0.83345598  0.50026585  0.83315241  1
  Sn  Sn38  1  0.49989274  0.83292121  0.50008853  1
  Sn  Sn39  1  0.16725623  0.50070810  0.83301520  1
  Pb  Pb40  1  0.49976579  0.50218860  0.16746753  1
  Pb  Pb41  1  0.16687656  0.50203320  0.16702502  1
  Pb  Pb42  1  0.83605090  0.16673152  0.49783373  1
  Pb  Pb43  1  0.49799612  0.83200796  0.83247936  1
  Pb  Pb44  1  0.83356153  0.16972434  0.83587437  1
  Pb  Pb45  1  0.49805476  0.16642407  0.50007511  1
  Pb  Pb46  1  0.50231878  0.16302766  0.16690542  1
  Pb  Pb47  1  0.49968967  0.17022740  0.83307877  1
  Pb  Pb48  1  0.83334852  0.50042276  0.16443955  1
  Pb  Pb49  1  0.83293894  0.50023698  0.50208186  1
  Pb  Pb50  1  0.16519188  0.16371601  0.16924031  1
  Pb  Pb51  1  0.16676195  0.16692652  0.83111317  1
  Pb  Pb52  1  0.83270229  0.83325831  0.49850881  1
  Pb  Pb53  1  0.83594617  0.83153934  0.83570440  1
  I  I54  1  0.16855096  -0.00481155  0.16618128  1
  I  I55  1  0.17017648  -0.00191853  0.49834749  1
  I  I56  1  0.16649057  -0.00338132  0.83352953  1
  I  I57  1  0.16336602  0.33310079  0.16638385  1
  I  I58  1  0.16933735  0.33499283  0.50582922  1
  I  I59  1  0.16594651  0.33722810  0.82818540  1
  I  I60  1  0.16345297  0.67072288  0.17051883  1
  I  I61  1  0.17010901  0.66705454  0.50054487  1
  I  I62  1  0.16618690  0.66620624  0.82969581  1
  I  I63  1  0.49564222  -0.00522109  0.17328455  1
  I  I64  1  0.49389840  -0.00368890  0.49336813  1
  I  I65  1  0.49874865  -0.00035756  0.83371833  1
  I  I66  1  0.50285171  0.33323558  0.16615386  1
  I  I67  1  0.49591985  0.33687050  0.50519857  1
  I  I68  1  0.49735605  0.33906836  0.82699521  1
  I  I69  1  0.50191167  0.67053024  0.16779231  1
  I  I70  1  0.49178339  0.66682700  0.49929829  1
  I  I71  1  0.50133573  0.66358265  0.83295024  1
  I  I72  1  0.83508492  -0.00179372  0.16748935  1
  I  I73  1  0.83407804  -0.00016772  0.50188249  1
  I  I74  1  0.83472114  -0.00009410  0.83242421  1
  I  I75  1  0.83450858  0.33088587  0.16533151  1
  I  I76  1  0.83386655  0.33359011  0.49678705  1
  I  I77  1  0.83703496  0.33772764  0.83474522  1
  I  I78  1  0.83440678  0.67011053  0.16600163  1
  I  I79  1  0.83833147  0.66671625  0.49631585  1
  I  I80  1  0.83233529  0.66358655  0.83571467  1
  I  I81  1  0.16515388  0.16731386  0.00029352  1
  I  I82  1  0.16605069  0.16819601  0.33705424  1
  I  I83  1  0.16673470  0.16219788  0.66314829  1
  I  I84  1  0.16628358  0.50541622  -0.00332694  1
  I  I85  1  0.17088048  0.50077933  0.33716593  1
  I  I86  1  0.16648864  0.50481790  0.66641227  1
  I  I87  1  0.16574984  0.82711617  0.00001354  1
  I  I88  1  0.16666541  0.83326364  0.33390507  1
  I  I89  1  0.17156326  0.83155402  0.66562964  1
  I  I90  1  0.49903780  0.16720000  0.00023233  1
  I  I91  1  0.50033232  0.17231833  0.33341470  1
  I  I92  1  0.50109761  0.16086512  0.66635916  1
  I  I93  1  0.50014265  0.50194799  -0.00287059  1
  I  I94  1  0.49426496  0.50218480  0.33702396  1
  I  I95  1  0.49854453  0.50659107  0.66603136  1
  I  I96  1  0.49917789  0.83142558  0.00236040  1
  I  I97  1  0.49478756  0.82763230  0.33390116  1
  I  I98  1  0.49317766  0.82978757  0.66336903  1
  I  I99  1  0.83535113  0.16050672  0.00346853  1
  I  I100  1  0.83383059  0.16231276  0.32996842  1
  I  I101  1  0.83335937  0.16730279  0.66687359  1
  I  I102  1  0.83444666  0.50125649  -0.00361239  1
  I  I103  1  0.83400174  0.49950434  0.33320962  1
  I  I104  1  0.83503760  0.50107087  0.67005418  1
  I  I105  1  0.83285373  0.83597668  0.00396648  1
  I  I106  1  0.83855120  0.83528813  0.32990429  1
  I  I107  1  0.83382113  0.83206922  0.66708944  1
  I  I108  1  -0.00253846  0.16045315  0.16730939  1
  I  I109  1  0.00427346  0.16595466  0.50018636  1
  I  I110  1  0.00022080  0.16893502  0.83300504  1
  I  I111  1  0.00017370  0.50304883  0.16693037  1
  I  I112  1  0.00361946  0.50145712  0.50316417  1
  I  I113  1  0.00168930  0.50415358  0.83021255  1
  I  I114  1  0.00086162  0.83651935  0.16680985  1
  I  I115  1  0.00368412  0.83166885  0.49885094  1
  I  I116  1  0.00428607  0.82712318  0.83156791  1
  I  I117  1  0.33327490  0.16708316  0.16673898  1
  I  I118  1  0.32986496  0.16594786  0.49908358  1
  I  I119  1  0.33292034  0.16719411  0.83531323  1
  I  I120  1  0.33327560  0.50050712  0.16133877  1
  I  I121  1  0.33228451  0.50207148  0.50816450  1
  I  I122  1  0.33241400  0.50561735  0.82754279  1
  I  I123  1  0.33276039  0.83027049  0.16870695  1
  I  I124  1  0.33198833  0.83213345  0.49464475  1
  I  I125  1  0.32968469  0.82751494  0.83739739  1
  I  I126  1  0.67012959  0.16228787  0.16693335  1
  I  I127  1  0.66664192  0.16740270  0.49889747  1
  I  I128  1  0.66684161  0.16660718  0.83304661  1
  I  I129  1  0.66656134  0.50283458  0.16581471  1
  I  I130  1  0.66300851  0.50563208  0.50331270  1
  I  I131  1  0.66587425  0.50027833  0.83086066  1
  I  I132  1  0.66627425  0.83600600  0.17203949  1
  I  I133  1  0.66289074  0.82665258  0.49397777  1
  I  I134  1  0.66658767  0.83041741  0.83459615  1
