# generated using pymatgen
data_Cs27Sn14Pb13I81
_symmetry_space_group_name_H-M   'P 1'
_cell_length_a   18.97858307
_cell_length_b   18.97409843
_cell_length_c   18.97321673
_cell_angle_alpha   90.00210791
_cell_angle_beta   89.99946825
_cell_angle_gamma   89.99853699
_symmetry_Int_Tables_number   1
_chemical_formula_structural   Cs27Sn14Pb13I81
_chemical_formula_sum   'Cs27 Sn14 Pb13 I81'
_cell_volume   6832.28386021
_cell_formula_units_Z   1
loop_
 _symmetry_equiv_pos_site_id
 _symmetry_equiv_pos_as_xyz
  1  'x, y, z'
loop_
 _atom_site_type_symbol
 _atom_site_label
 _atom_site_symmetry_multiplicity
 _atom_site_fract_x
 _atom_site_fract_y
 _atom_site_fract_z
 _atom_site_occupancy
  Cs  Cs0  1  -0.00502774  0.00224834  0.00426896  1
  Cs  Cs1  1  -0.00264707  -0.00318172  0.33017486  1
  Cs  Cs2  1  0.00553070  0.00103868  0.66535236  1
  Cs  Cs3  1  0.00218757  0.33367987  0.00289663  1
  Cs  Cs4  1  0.00302183  0.33208424  0.33584847  1
  Cs  Cs5  1  0.00097974  0.33284085  0.66545756  1
  Cs  Cs6  1  0.00071015  0.66442657  -0.00367934  1
  Cs  Cs7  1  -0.00898101  0.67151153  0.33674860  1
  Cs  Cs8  1  0.00102603  0.66813824  0.66838463  1
  Cs  Cs9  1  0.33484892  -0.00031655  0.00208397  1
  Cs  Cs10  1  0.33283935  -0.00085647  0.33494189  1
  Cs  Cs11  1  0.33253036  0.00004175  0.66547554  1
  Cs  Cs12  1  0.33141425  0.33454797  0.01162049  1
  Cs  Cs13  1  0.33257058  0.33363059  0.33056543  1
  Cs  Cs14  1  0.33259919  0.33227385  0.66541784  1
  Cs  Cs15  1  0.33114793  0.66535003  -0.00033314  1
  Cs  Cs16  1  0.33527435  0.66683057  0.33150228  1
  Cs  Cs17  1  0.33330242  0.66790274  0.66842640  1
  Cs  Cs18  1  0.66991668  0.00448448  -0.00207564  1
  Cs  Cs19  1  0.66894027  -0.00333477  0.33108506  1
  Cs  Cs20  1  0.66334324  0.00302131  0.67073432  1
  Cs  Cs21  1  0.66642385  0.32906170  -0.00087528  1
  Cs  Cs22  1  0.66424833  0.33704059  0.33560739  1
  Cs  Cs23  1  0.66761892  0.33415697  0.66710354  1
  Cs  Cs24  1  0.66687524  0.66707182  -0.00205932  1
  Cs  Cs25  1  0.66891161  0.66647046  0.33273104  1
  Cs  Cs26  1  0.66632153  0.66451302  0.66793379  1
  Sn  Sn27  1  0.49891681  0.50017330  0.50088026  1
  Sn  Sn28  1  0.83285187  0.83298189  0.83279596  1
  Sn  Sn29  1  0.49948360  0.83317769  0.16620870  1
  Sn  Sn30  1  0.16718059  0.16694467  0.83341298  1
  Sn  Sn31  1  0.83324685  0.16631901  0.50014595  1
  Sn  Sn32  1  0.16695978  0.83291581  0.16657134  1
  Sn  Sn33  1  0.83309142  0.49975185  0.16554772  1
  Sn  Sn34  1  0.50015158  0.16686154  0.50015632  1
  Sn  Sn35  1  0.16748244  0.50019123  0.50024188  1
  Sn  Sn36  1  0.16675573  0.16727443  0.50073005  1
  Sn  Sn37  1  0.83266712  0.50031860  0.83416352  1
  Sn  Sn38  1  0.50020528  0.50012591  0.83297191  1
  Sn  Sn39  1  0.50061130  0.83270835  0.83354400  1
  Sn  Sn40  1  0.50000747  0.83301749  0.50018259  1
  Pb  Pb41  1  0.16418840  0.50267754  0.17002647  1
  Pb  Pb42  1  0.83046779  0.83580823  0.50303305  1
  Pb  Pb43  1  0.50153575  0.50206884  0.16637291  1
  Pb  Pb44  1  0.83314343  0.49865561  0.50098065  1
  Pb  Pb45  1  0.83536850  0.16722314  0.83147749  1
  Pb  Pb46  1  0.49778129  0.16740113  0.83185491  1
  Pb  Pb47  1  0.16725984  0.49802730  0.83166333  1
  Pb  Pb48  1  0.83314124  0.16971700  0.16949545  1
  Pb  Pb49  1  0.83261508  0.83161913  0.16404494  1
  Pb  Pb50  1  0.50022314  0.16389692  0.16969096  1
  Pb  Pb51  1  0.16708344  0.83538911  0.83524725  1
  Pb  Pb52  1  0.16860352  0.83322535  0.49840254  1
  Pb  Pb53  1  0.16670826  0.16455209  0.16749271  1
  I  I54  1  0.17050095  -0.00321093  0.16888949  1
  I  I55  1  0.16792186  0.00282859  0.50251506  1
  I  I56  1  0.16709016  0.00296467  0.82507367  1
  I  I57  1  0.16511674  0.33364346  0.16553469  1
  I  I58  1  0.17073753  0.33257378  0.50334202  1
  I  I59  1  0.16566290  0.33033764  0.82910593  1
  I  I60  1  0.17263371  0.66994503  0.16652597  1
  I  I61  1  0.17114607  0.66412283  0.49837804  1
  I  I62  1  0.16574185  0.66659934  0.83236559  1
  I  I63  1  0.49708255  -0.00458082  0.16575041  1
  I  I64  1  0.49973916  -0.00015706  0.49994207  1
  I  I65  1  0.50293851  -0.00294217  0.83239138  1
  I  I66  1  0.50119058  0.33366490  0.16668886  1
  I  I67  1  0.50017318  0.33387120  0.50527850  1
  I  I68  1  0.50484241  0.33659863  0.82666306  1
  I  I69  1  0.49731111  0.67012160  0.17199982  1
  I  I70  1  0.49503373  0.66627866  0.50071612  1
  I  I71  1  0.50352127  0.66700569  0.82787427  1
  I  I72  1  0.83392701  -0.00028040  0.16655312  1
  I  I73  1  0.83525804  0.00354054  0.50111585  1
  I  I74  1  0.82879372  -0.00233486  0.83170409  1
  I  I75  1  0.83303077  0.33734504  0.15910637  1
  I  I76  1  0.82935171  0.33076277  0.50165266  1
  I  I77  1  0.82878595  0.33648612  0.83498067  1
  I  I78  1  0.83332808  0.66398244  0.16795949  1
  I  I79  1  0.83450098  0.66678471  0.49768942  1
  I  I80  1  0.82975535  0.66610556  0.83614895  1
  I  I81  1  0.16598464  0.16486183  -0.00226781  1
  I  I82  1  0.16762919  0.17001974  0.33725528  1
  I  I83  1  0.16646513  0.16847707  0.66452093  1
  I  I84  1  0.16869222  0.49776131  0.00010691  1
  I  I85  1  0.17240834  0.49233503  0.33773575  1
  I  I86  1  0.16606573  0.49874330  0.66341844  1
  I  I87  1  0.17286273  0.83520641  0.00275696  1
  I  I88  1  0.17216536  0.83468338  0.33069058  1
  I  I89  1  0.16666354  0.83280682  0.66662186  1
  I  I90  1  0.49775100  0.16660890  -0.00010753  1
  I  I91  1  0.49657795  0.16872087  0.33859400  1
  I  I92  1  0.50116549  0.16216504  0.66315707  1
  I  I93  1  0.50234635  0.50522846  -0.00315779  1
  I  I94  1  0.49859721  0.49975269  0.33650777  1
  I  I95  1  0.50259299  0.50445428  0.66604366  1
  I  I96  1  0.49930894  0.82760349  -0.00112422  1
  I  I97  1  0.49432594  0.83468231  0.33407918  1
  I  I98  1  0.50455076  0.83319727  0.66669819  1
  I  I99  1  0.83602440  0.16442204  -0.00030321  1
  I  I100  1  0.83569066  0.16745049  0.33771259  1
  I  I101  1  0.83083008  0.16893944  0.66351549  1
  I  I102  1  0.82818077  0.50453595  -0.00174852  1
  I  I103  1  0.83367141  0.49824799  0.33218736  1
  I  I104  1  0.83151062  0.50240451  0.66950857  1
  I  I105  1  0.82806326  0.83309613  -0.00359979  1
  I  I106  1  0.83301366  0.83277820  0.33345616  1
  I  I107  1  0.82935236  0.82577152  0.67058918  1
  I  I108  1  -0.00003855  0.16264021  0.16940574  1
  I  I109  1  0.00111052  0.17308163  0.50401175  1
  I  I110  1  0.00292156  0.16577355  0.82538462  1
  I  I111  1  -0.00326716  0.50234043  0.16121832  1
  I  I112  1  0.00205758  0.49377642  0.49901128  1
  I  I113  1  -0.00261645  0.50351701  0.83485766  1
  I  I114  1  0.00168111  0.83288791  0.16656820  1
  I  I115  1  -0.00021585  0.83346141  0.49838001  1
  I  I116  1  -0.00238810  0.82983752  0.83546106  1
  I  I117  1  0.33343491  0.16916082  0.16769922  1
  I  I118  1  0.33347980  0.16656747  0.50430235  1
  I  I119  1  0.33041109  0.16506140  0.82512525  1
  I  I120  1  0.33333797  0.49932804  0.16484678  1
  I  I121  1  0.33495115  0.49572594  0.50485149  1
  I  I122  1  0.33655837  0.50484635  0.82917603  1
  I  I123  1  0.33493576  0.83343550  0.16576632  1
  I  I124  1  0.33711137  0.83732756  0.50482321  1
  I  I125  1  0.33689879  0.83025098  0.83091170  1
  I  I126  1  0.66669254  0.16332930  0.16770695  1
  I  I127  1  0.66544038  0.16701998  0.49955129  1
  I  I128  1  0.66645944  0.16578783  0.83107592  1
  I  I129  1  0.66920949  0.50324819  0.16913778  1
  I  I130  1  0.66360624  0.49915528  0.50036902  1
  I  I131  1  0.66600132  0.50407815  0.83024590  1
  I  I132  1  0.66363313  0.83176704  0.17045819  1
  I  I133  1  0.66213472  0.83154876  0.49399738  1
  I  I134  1  0.66519358  0.83033404  0.83418975  1
