# generated using pymatgen
data_Cs27Sn14Pb13I81
_symmetry_space_group_name_H-M   'P 1'
_cell_length_a   18.98247701
_cell_length_b   18.97264011
_cell_length_c   18.97163697
_cell_angle_alpha   90.00069412
_cell_angle_beta   89.99997863
_cell_angle_gamma   89.99829451
_symmetry_Int_Tables_number   1
_chemical_formula_structural   Cs27Sn14Pb13I81
_chemical_formula_sum   'Cs27 Sn14 Pb13 I81'
_cell_volume   6832.59150421
_cell_formula_units_Z   1
loop_
 _symmetry_equiv_pos_site_id
 _symmetry_equiv_pos_as_xyz
  1  'x, y, z'
loop_
 _atom_site_type_symbol
 _atom_site_label
 _atom_site_symmetry_multiplicity
 _atom_site_fract_x
 _atom_site_fract_y
 _atom_site_fract_z
 _atom_site_occupancy
  Cs  Cs0  1  0.00352019  -0.00215841  0.00228913  1
  Cs  Cs1  1  -0.00407300  0.00276541  0.33250647  1
  Cs  Cs2  1  0.00400973  -0.00185784  0.66372956  1
  Cs  Cs3  1  -0.00253529  0.33626662  -0.00087679  1
  Cs  Cs4  1  0.00107566  0.33240450  0.33273514  1
  Cs  Cs5  1  -0.00496015  0.33530477  0.67033653  1
  Cs  Cs6  1  -0.00144535  0.66615084  0.00061241  1
  Cs  Cs7  1  0.00064014  0.66546980  0.33295745  1
  Cs  Cs8  1  0.00285815  0.66675516  0.66432576  1
  Cs  Cs9  1  0.33346166  -0.00046175  -0.00096115  1
  Cs  Cs10  1  0.33461119  0.00360901  0.33147718  1
  Cs  Cs11  1  0.33063000  0.00153407  0.66964421  1
  Cs  Cs12  1  0.33427803  0.33332874  0.00079605  1
  Cs  Cs13  1  0.33328663  0.33365579  0.33359229  1
  Cs  Cs14  1  0.33335601  0.33096725  0.66510896  1
  Cs  Cs15  1  0.33460969  0.66698266  0.00135863  1
  Cs  Cs16  1  0.33534433  0.66265554  0.33810679  1
  Cs  Cs17  1  0.33146927  0.66666968  0.65980250  1
  Cs  Cs18  1  0.66352748  -0.00366241  0.00230771  1
  Cs  Cs19  1  0.66872442  0.00091214  0.33531913  1
  Cs  Cs20  1  0.66677439  -0.00016485  0.66152026  1
  Cs  Cs21  1  0.66899121  0.33425236  -0.00449895  1
  Cs  Cs22  1  0.66559503  0.33279305  0.33286675  1
  Cs  Cs23  1  0.67226057  0.33111515  0.67489686  1
  Cs  Cs24  1  0.66673855  0.66703085  -0.00018463  1
  Cs  Cs25  1  0.66380783  0.66618653  0.33447689  1
  Cs  Cs26  1  0.66642188  0.66797114  0.66844765  1
  Sn  Sn27  1  0.16708638  0.83296158  0.16681141  1
  Sn  Sn28  1  0.16719557  0.16694148  0.49919012  1
  Sn  Sn29  1  0.49986105  0.83386114  0.16643969  1
  Sn  Sn30  1  0.49848169  0.50105191  0.83356008  1
  Sn  Sn31  1  0.50044421  0.83224305  0.83390697  1
  Sn  Sn32  1  0.83374767  0.50076657  0.16780705  1
  Sn  Sn33  1  0.49951667  0.16613186  0.16713405  1
  Sn  Sn34  1  0.83292331  0.83341926  0.83411418  1
  Sn  Sn35  1  0.16744862  0.16690092  0.16709953  1
  Sn  Sn36  1  0.16818189  0.50012151  0.83410452  1
  Sn  Sn37  1  0.49939207  0.16689366  0.49926672  1
  Sn  Sn38  1  0.16621810  0.50011387  0.16609612  1
  Sn  Sn39  1  0.83310442  0.50017142  0.49868900  1
  Sn  Sn40  1  0.83308829  0.83227589  0.16604139  1
  Pb  Pb41  1  0.16679821  0.83616932  0.49653781  1
  Pb  Pb42  1  0.16523553  0.49777547  0.49961079  1
  Pb  Pb43  1  0.83354950  0.16897961  0.49981434  1
  Pb  Pb44  1  0.16653939  0.16922342  0.83412630  1
  Pb  Pb45  1  0.50237344  0.49715617  0.50327317  1
  Pb  Pb46  1  0.83349498  0.50209699  0.83407510  1
  Pb  Pb47  1  0.50015669  0.49981989  0.16543161  1
  Pb  Pb48  1  0.83331239  0.83110366  0.49953480  1
  Pb  Pb49  1  0.50005944  0.16585107  0.83388759  1
  Pb  Pb50  1  0.83348061  0.16201469  0.83379119  1
  Pb  Pb51  1  0.83315893  0.16658337  0.16622209  1
  Pb  Pb52  1  0.16716205  0.83102645  0.83524331  1
  Pb  Pb53  1  0.49982989  0.83553873  0.49996696  1
  I  I54  1  0.16652324  -0.00013729  0.17080860  1
  I  I55  1  0.16972854  0.00423811  0.49650970  1
  I  I56  1  0.16615618  -0.00027094  0.83334603  1
  I  I57  1  0.16668517  0.33352983  0.16685955  1
  I  I58  1  0.17033165  0.33012673  0.49330625  1
  I  I59  1  0.17176099  0.33733635  0.83910790  1
  I  I60  1  0.16487750  0.66638862  0.16045818  1
  I  I61  1  0.16455807  0.66633851  0.49992920  1
  I  I62  1  0.16675500  0.66313906  0.83952363  1
  I  I63  1  0.49742737  -0.00073328  0.16422065  1
  I  I64  1  0.49709634  0.00354621  0.50014578  1
  I  I65  1  0.50504511  -0.00336947  0.83524489  1
  I  I66  1  0.49651732  0.33085449  0.16886526  1
  I  I67  1  0.49576186  0.32962804  0.49284117  1
  I  I68  1  0.49646995  0.33576110  0.83365421  1
  I  I69  1  0.49865256  0.66943097  0.16303630  1
  I  I70  1  0.50156135  0.66638574  0.49782496  1
  I  I71  1  0.50122438  0.66749841  0.84078808  1
  I  I72  1  0.83569029  -0.00334950  0.16186074  1
  I  I73  1  0.83331573  0.00005414  0.50098371  1
  I  I74  1  0.82642067  -0.00578058  0.84057691  1
  I  I75  1  0.83673608  0.33640313  0.17049331  1
  I  I76  1  0.83375611  0.33680249  0.49394235  1
  I  I77  1  0.83249639  0.33388088  0.83286828  1
  I  I78  1  0.83667292  0.66696820  0.16626221  1
  I  I79  1  0.83453110  0.66330867  0.49802629  1
  I  I80  1  0.83119357  0.66963533  0.83636769  1
  I  I81  1  0.17144723  0.16428716  0.00407058  1
  I  I82  1  0.17113725  0.16846578  0.33132505  1
  I  I83  1  0.17114152  0.16839142  0.66395798  1
  I  I84  1  0.16381172  0.49759372  0.00188382  1
  I  I85  1  0.16385617  0.50161654  0.32979551  1
  I  I86  1  0.16794876  0.49854283  0.66910542  1
  I  I87  1  0.16636063  0.83858287  0.00389933  1
  I  I88  1  0.16628274  0.82689761  0.32783158  1
  I  I89  1  0.16535012  0.83351929  0.66676782  1
  I  I90  1  0.49498355  0.16499458  0.00325472  1
  I  I91  1  0.49615074  0.16162547  0.33169607  1
  I  I92  1  0.49581820  0.16785743  0.66418587  1
  I  I93  1  0.50114638  0.49879875  -0.00247218  1
  I  I94  1  0.49849148  0.50225387  0.33331563  1
  I  I95  1  0.49557580  0.50539396  0.67107385  1
  I  I96  1  0.50106171  0.83585582  0.00134950  1
  I  I97  1  0.50096324  0.83547591  0.32957851  1
  I  I98  1  0.50642461  0.83077913  0.67001863  1
  I  I99  1  0.83305158  0.17479804  0.00042564  1
  I  I100  1  0.83278616  0.16257657  0.33295117  1
  I  I101  1  0.83263714  0.16979721  0.66654830  1
  I  I102  1  0.83519571  0.50173209  0.00289066  1
  I  I103  1  0.83920175  0.50491349  0.33101766  1
  I  I104  1  0.83309920  0.49931520  0.66534456  1
  I  I105  1  0.83222474  0.82690206  0.00190109  1
  I  I106  1  0.83316765  0.83225545  0.32937163  1
  I  I107  1  0.82714236  0.83181362  0.66960022  1
  I  I108  1  0.00323172  0.16444259  0.17109770  1
  I  I109  1  0.00305754  0.16723061  0.49400360  1
  I  I110  1  0.00024364  0.16908715  0.83244906  1
  I  I111  1  0.00071975  0.50211834  0.16443752  1
  I  I112  1  -0.00257322  0.49775350  0.50067115  1
  I  I113  1  0.00208294  0.49983386  0.83471165  1
  I  I114  1  -0.00004902  0.83312835  0.16263805  1
  I  I115  1  0.00003868  0.83628883  0.50211043  1
  I  I116  1  -0.00229199  0.83166576  0.83817390  1
  I  I117  1  0.33303803  0.16406026  0.17019079  1
  I  I118  1  0.33326596  0.16779036  0.49461046  1
  I  I119  1  0.33333644  0.16298702  0.83280283  1
  I  I120  1  0.33063244  0.50155986  0.16362712  1
  I  I121  1  0.33344191  0.50049446  0.49857408  1
  I  I122  1  0.33323598  0.50455896  0.84016727  1
  I  I123  1  0.33364161  0.83512952  0.16193993  1
  I  I124  1  0.33331307  0.82930317  0.50159355  1
  I  I125  1  0.33630873  0.83237712  0.83853359  1
  I  I126  1  0.66348236  0.16332379  0.17058322  1
  I  I127  1  0.66374723  0.16665919  0.49543508  1
  I  I128  1  0.66636872  0.17471205  0.83294279  1
  I  I129  1  0.66917192  0.50272265  0.16815932  1
  I  I130  1  0.66986808  0.49872533  0.49324723  1
  I  I131  1  0.66462608  0.50088296  0.83332100  1
  I  I132  1  0.66646212  0.83346772  0.16232062  1
  I  I133  1  0.66657368  0.83647276  0.49604036  1
  I  I134  1  0.66580276  0.82690516  0.84260863  1
