# generated using pymatgen
data_Cs27Sn14Pb13I81
_symmetry_space_group_name_H-M   'P 1'
_cell_length_a   18.98406095
_cell_length_b   18.97081287
_cell_length_c   18.97089235
_cell_angle_alpha   90.00054246
_cell_angle_beta   89.99888335
_cell_angle_gamma   90.00070200
_symmetry_Int_Tables_number   1
_chemical_formula_structural   Cs27Sn14Pb13I81
_chemical_formula_sum   'Cs27 Sn14 Pb13 I81'
_cell_volume   6832.23536353
_cell_formula_units_Z   1
loop_
 _symmetry_equiv_pos_site_id
 _symmetry_equiv_pos_as_xyz
  1  'x, y, z'
loop_
 _atom_site_type_symbol
 _atom_site_label
 _atom_site_symmetry_multiplicity
 _atom_site_fract_x
 _atom_site_fract_y
 _atom_site_fract_z
 _atom_site_occupancy
  Cs  Cs0  1  -0.00007025  0.00008980  -0.00149714  1
  Cs  Cs1  1  0.00092579  0.00633780  0.33321669  1
  Cs  Cs2  1  0.00000657  -0.00239052  0.66738766  1
  Cs  Cs3  1  -0.00205751  0.33793549  -0.00081865  1
  Cs  Cs4  1  -0.00506656  0.32356729  0.33331752  1
  Cs  Cs5  1  -0.00340315  0.33504212  0.66807448  1
  Cs  Cs6  1  0.00117021  0.66285068  0.00141088  1
  Cs  Cs7  1  0.00337526  0.66755804  0.33213281  1
  Cs  Cs8  1  0.00182324  0.66811849  0.66697718  1
  Cs  Cs9  1  0.33471873  0.00049174  -0.00128796  1
  Cs  Cs10  1  0.33292554  0.00634587  0.33049560  1
  Cs  Cs11  1  0.33243741  -0.00257246  0.66852013  1
  Cs  Cs12  1  0.33280796  0.33655295  -0.00047842  1
  Cs  Cs13  1  0.33430991  0.32910870  0.33423468  1
  Cs  Cs14  1  0.33567274  0.33369813  0.66600743  1
  Cs  Cs15  1  0.33247161  0.66510094  0.00096059  1
  Cs  Cs16  1  0.33108815  0.66600575  0.33264198  1
  Cs  Cs17  1  0.33245754  0.66800088  0.66560968  1
  Cs  Cs18  1  0.66542723  -0.00077351  0.00043870  1
  Cs  Cs19  1  0.66656528  0.00416854  0.32265869  1
  Cs  Cs20  1  0.66771751  -0.00251858  0.67032891  1
  Cs  Cs21  1  0.66771955  0.33551941  -0.00009889  1
  Cs  Cs22  1  0.67335929  0.32898583  0.34368649  1
  Cs  Cs23  1  0.66615028  0.33510736  0.65962887  1
  Cs  Cs24  1  0.66635496  0.66697481  0.00394131  1
  Cs  Cs25  1  0.66872831  0.66563775  0.33130350  1
  Cs  Cs26  1  0.66548909  0.66787385  0.66516676  1
  Sn  Sn27  1  0.49954807  0.49973242  0.16686392  1
  Sn  Sn28  1  0.83319795  0.16597750  0.83322470  1
  Sn  Sn29  1  0.16666725  0.50022825  0.49868963  1
  Sn  Sn30  1  0.16659692  0.16624316  0.83324707  1
  Sn  Sn31  1  0.83313915  0.83330964  0.50025374  1
  Sn  Sn32  1  0.49991612  0.50046473  0.83384239  1
  Sn  Sn33  1  0.16692773  0.83302129  0.16657861  1
  Sn  Sn34  1  0.49999566  0.83302059  0.83298836  1
  Sn  Sn35  1  0.16760049  0.50042653  0.16839652  1
  Sn  Sn36  1  0.16656863  0.83376067  0.83367117  1
  Sn  Sn37  1  0.16693700  0.83285566  0.49954026  1
  Sn  Sn38  1  0.50016794  0.16678640  0.83330774  1
  Sn  Sn39  1  0.83341274  0.83356015  0.83290762  1
  Sn  Sn40  1  0.50004743  0.83344770  0.49986533  1
  Pb  Pb41  1  0.82997273  0.50078001  0.83319605  1
  Pb  Pb42  1  0.83354213  0.50005555  0.16701315  1
  Pb  Pb43  1  0.16675158  0.16640498  0.50285863  1
  Pb  Pb44  1  0.16675579  0.16729410  0.16376644  1
  Pb  Pb45  1  0.16832264  0.50024069  0.83310342  1
  Pb  Pb46  1  0.49992072  0.16312889  0.50241862  1
  Pb  Pb47  1  0.49814476  0.50210710  0.49957198  1
  Pb  Pb48  1  0.83325271  0.16653962  0.16345454  1
  Pb  Pb49  1  0.49774700  0.83177161  0.16671892  1
  Pb  Pb50  1  0.83330167  0.16316670  0.50282912  1
  Pb  Pb51  1  0.83629729  0.83328480  0.16649616  1
  Pb  Pb52  1  0.83666792  0.50289796  0.50003218  1
  Pb  Pb53  1  0.49995589  0.17030398  0.16428151  1
  I  I54  1  0.16592911  -0.00301169  0.16894955  1
  I  I55  1  0.16621950  -0.00415195  0.49837097  1
  I  I56  1  0.17030271  -0.00202849  0.83317842  1
  I  I57  1  0.17116098  0.33686871  0.16904274  1
  I  I58  1  0.16877840  0.33614261  0.49719376  1
  I  I59  1  0.16703549  0.33104017  0.83364274  1
  I  I60  1  0.16989845  0.66730506  0.16425087  1
  I  I61  1  0.16666532  0.66882683  0.50260770  1
  I  I62  1  0.16657406  0.67001753  0.83290024  1
  I  I63  1  0.49876279  0.00000040  0.16650262  1
  I  I64  1  0.49557293  -0.00527590  0.50633122  1
  I  I65  1  0.49939755  -0.00107562  0.82844145  1
  I  I66  1  0.49077285  0.33817625  0.15929272  1
  I  I67  1  0.49749806  0.33342712  0.50179155  1
  I  I68  1  0.49810184  0.33325807  0.83941544  1
  I  I69  1  0.49704232  0.66395879  0.15879484  1
  I  I70  1  0.50071566  0.67035536  0.50808972  1
  I  I71  1  0.49870065  0.66793257  0.83309667  1
  I  I72  1  0.83482665  -0.00046752  0.16873183  1
  I  I73  1  0.83811242  -0.00488327  0.50352072  1
  I  I74  1  0.83062436  -0.00140445  0.82970313  1
  I  I75  1  0.83655074  0.33333469  0.16328218  1
  I  I76  1  0.83450913  0.33309931  0.50091621  1
  I  I77  1  0.83564373  0.33047661  0.83570485  1
  I  I78  1  0.83186104  0.66697219  0.16231683  1
  I  I79  1  0.83146141  0.67108150  0.50874582  1
  I  I80  1  0.83526272  0.67058454  0.82972441  1
  I  I81  1  0.16726797  0.16172698  -0.00453247  1
  I  I82  1  0.16642618  0.16383285  0.33336044  1
  I  I83  1  0.16746870  0.16192465  0.67114815  1
  I  I84  1  0.16904757  0.50327792  0.00205723  1
  I  I85  1  0.17324181  0.51225313  0.33290388  1
  I  I86  1  0.16810896  0.50433148  0.66461849  1
  I  I87  1  0.16701383  0.83318698  -0.00122553  1
  I  I88  1  0.16674384  0.82694321  0.33403114  1
  I  I89  1  0.16673333  0.83306553  0.66712354  1
  I  I90  1  0.49932051  0.15943191  -0.00478174  1
  I  I91  1  0.49962131  0.16603932  0.33339731  1
  I  I92  1  0.49918204  0.17218003  0.67148646  1
  I  I93  1  0.49352910  0.50192203  -0.00121407  1
  I  I94  1  0.49592506  0.50489498  0.33071842  1
  I  I95  1  0.49832082  0.49854075  0.66944366  1
  I  I96  1  0.50002517  0.83544242  -0.00360545  1
  I  I97  1  0.49990950  0.82940290  0.33608110  1
  I  I98  1  0.49593788  0.83157691  0.66859368  1
  I  I99  1  0.83367121  0.15869639  -0.00519175  1
  I  I100  1  0.83355510  0.16625028  0.33371893  1
  I  I101  1  0.83370903  0.16467139  0.67112972  1
  I  I102  1  0.83827160  0.50151358  -0.00032500  1
  I  I103  1  0.82769616  0.50285830  0.33359429  1
  I  I104  1  0.83421850  0.49767928  0.66685848  1
  I  I105  1  0.83240069  0.83767811  -0.00375859  1
  I  I106  1  0.83283606  0.83009960  0.33649586  1
  I  I107  1  0.83726596  0.83657252  0.66806541  1
  I  I108  1  0.00034635  0.16817445  0.16399523  1
  I  I109  1  0.00013740  0.16600436  0.50277157  1
  I  I110  1  0.00022391  0.15845993  0.83309910  1
  I  I111  1  0.00394574  0.50538446  0.16844423  1
  I  I112  1  0.00479123  0.50643572  0.49638953  1
  I  I113  1  0.00008034  0.49918592  0.83409178  1
  I  I114  1  0.00460337  0.82654083  0.16467358  1
  I  I115  1  0.00101016  0.82908697  0.50447273  1
  I  I116  1  0.00082155  0.83998772  0.83081657  1
  I  I117  1  0.33327610  0.16381444  0.16310593  1
  I  I118  1  0.33323200  0.16408772  0.50376753  1
  I  I119  1  0.33347687  0.16265591  0.83351249  1
  I  I120  1  0.33234245  0.50531293  0.16428301  1
  I  I121  1  0.33025246  0.50782771  0.50081750  1
  I  I122  1  0.33625869  0.50071612  0.83433405  1
  I  I123  1  0.32960612  0.83082678  0.16486176  1
  I  I124  1  0.33250624  0.82890885  0.50542405  1
  I  I125  1  0.33319533  0.83544539  0.83101716  1
  I  I126  1  0.66638984  0.16642579  0.16357166  1
  I  I127  1  0.66662803  0.16819612  0.50275218  1
  I  I128  1  0.66631282  0.16217840  0.83409911  1
  I  I129  1  0.66333935  0.50136660  0.15873537  1
  I  I130  1  0.66656045  0.50120447  0.50041404  1
  I  I131  1  0.66179486  0.50098917  0.83917028  1
  I  I132  1  0.66650778  0.83161341  0.16633853  1
  I  I133  1  0.66638479  0.83326969  0.51072228  1
  I  I134  1  0.66608643  0.83571940  0.82651068  1
