# generated using pymatgen
data_Cs27Sn13Pb14I81
_symmetry_space_group_name_H-M   'P 1'
_cell_length_a   18.97617351
_cell_length_b   18.97730940
_cell_length_c   18.97837146
_cell_angle_alpha   89.99867634
_cell_angle_beta   89.99979306
_cell_angle_gamma   89.99953252
_symmetry_Int_Tables_number   1
_chemical_formula_structural   Cs27Sn13Pb14I81
_chemical_formula_sum   'Cs27 Sn13 Pb14 I81'
_cell_volume   6834.42880397
_cell_formula_units_Z   1
loop_
 _symmetry_equiv_pos_site_id
 _symmetry_equiv_pos_as_xyz
  1  'x, y, z'
loop_
 _atom_site_type_symbol
 _atom_site_label
 _atom_site_symmetry_multiplicity
 _atom_site_fract_x
 _atom_site_fract_y
 _atom_site_fract_z
 _atom_site_occupancy
  Cs  Cs0  1  0.00270112  -0.00454241  0.00016400  1
  Cs  Cs1  1  0.00342349  -0.00362891  0.33190637  1
  Cs  Cs2  1  0.00376990  -0.00256274  0.66685823  1
  Cs  Cs3  1  -0.00182542  0.33256231  -0.00065891  1
  Cs  Cs4  1  0.00099389  0.33444223  0.33614746  1
  Cs  Cs5  1  -0.00429504  0.33510311  0.66484651  1
  Cs  Cs6  1  -0.00322610  0.67205059  0.00154481  1
  Cs  Cs7  1  0.00945851  0.66917385  0.33677724  1
  Cs  Cs8  1  0.00340607  0.66715038  0.66302966  1
  Cs  Cs9  1  0.32725567  0.00422591  -0.00900553  1
  Cs  Cs10  1  0.33237348  -0.00043855  0.33358665  1
  Cs  Cs11  1  0.33158358  0.00330268  0.67404305  1
  Cs  Cs12  1  0.33044971  0.33315345  0.00063715  1
  Cs  Cs13  1  0.33314864  0.33332215  0.33075829  1
  Cs  Cs14  1  0.33511681  0.32964723  0.66958824  1
  Cs  Cs15  1  0.33587563  0.66323004  -0.00018336  1
  Cs  Cs16  1  0.33277709  0.66657119  0.33467292  1
  Cs  Cs17  1  0.33307141  0.66810136  0.66485964  1
  Cs  Cs18  1  0.66845746  -0.00268398  0.00034853  1
  Cs  Cs19  1  0.66669720  0.00053333  0.33375194  1
  Cs  Cs20  1  0.66436783  0.00118824  0.66585983  1
  Cs  Cs21  1  0.66872424  0.33532736  0.00194622  1
  Cs  Cs22  1  0.66737542  0.33194564  0.33305988  1
  Cs  Cs23  1  0.66924302  0.33164642  0.66481619  1
  Cs  Cs24  1  0.66715215  0.66610596  0.00049588  1
  Cs  Cs25  1  0.66515867  0.66754348  0.33255350  1
  Cs  Cs26  1  0.66628923  0.66638872  0.66672723  1
  Sn  Sn27  1  0.83344596  0.49946754  0.83394173  1
  Sn  Sn28  1  0.83292469  0.49960386  0.16661297  1
  Sn  Sn29  1  0.83234180  0.83314292  0.49983390  1
  Sn  Sn30  1  0.50055615  0.16641695  0.16634406  1
  Sn  Sn31  1  0.50008894  0.83365336  0.16694692  1
  Sn  Sn32  1  0.83265342  0.16716922  0.16589440  1
  Sn  Sn33  1  0.50090202  0.49987236  0.16698017  1
  Sn  Sn34  1  0.16678979  0.16716438  0.49978180  1
  Sn  Sn35  1  0.16610201  0.50004003  0.83361190  1
  Sn  Sn36  1  0.50107217  0.83293334  0.49940822  1
  Sn  Sn37  1  0.50026761  0.49978628  0.83329321  1
  Sn  Sn38  1  0.50054420  0.50017375  0.49979457  1
  Sn  Sn39  1  0.83290869  0.16695784  0.83405745  1
  Pb  Pb40  1  0.16665132  0.83029958  0.83342832  1
  Pb  Pb41  1  0.49859731  0.16635265  0.49800957  1
  Pb  Pb42  1  0.16608969  0.49997079  0.16461627  1
  Pb  Pb43  1  0.16592367  0.16693735  0.16799222  1
  Pb  Pb44  1  0.17062266  0.83321793  0.16646985  1
  Pb  Pb45  1  0.83154730  0.50178922  0.49939225  1
  Pb  Pb46  1  0.83166584  0.83298928  0.16862454  1
  Pb  Pb47  1  0.50242923  0.16921265  0.83625481  1
  Pb  Pb48  1  0.83482914  0.16444466  0.49942218  1
  Pb  Pb49  1  0.16344472  0.16904190  0.83161945  1
  Pb  Pb50  1  0.50009891  0.83126830  0.83339321  1
  Pb  Pb51  1  0.83309737  0.83291502  0.83095409  1
  Pb  Pb52  1  0.16822060  0.83544251  0.50010140  1
  Pb  Pb53  1  0.16986490  0.49797684  0.50225069  1
  I  I54  1  0.16576529  0.00017099  0.16776541  1
  I  I55  1  0.16726907  0.00283713  0.49994989  1
  I  I56  1  0.16627429  0.00056830  0.83157939  1
  I  I57  1  0.17277748  0.33348618  0.16822910  1
  I  I58  1  0.16632005  0.33079256  0.49941071  1
  I  I59  1  0.17064514  0.33673523  0.83267052  1
  I  I60  1  0.16520251  0.66638639  0.16696193  1
  I  I61  1  0.16507922  0.66654458  0.50156550  1
  I  I62  1  0.16511497  0.66192438  0.83208198  1
  I  I63  1  0.50505047  0.00014455  0.17437331  1
  I  I64  1  0.50247187  -0.00287791  0.49409581  1
  I  I65  1  0.50090398  0.00046656  0.83252002  1
  I  I66  1  0.50345255  0.33446398  0.16707994  1
  I  I67  1  0.49812486  0.33618066  0.49961378  1
  I  I68  1  0.49778998  0.33774682  0.83131619  1
  I  I69  1  0.50362350  0.66526808  0.16693535  1
  I  I70  1  0.50317274  0.66607885  0.49599812  1
  I  I71  1  0.50294230  0.66226622  0.83749219  1
  I  I72  1  0.82883695  0.00278754  0.16415383  1
  I  I73  1  0.82657022  -0.00309119  0.49992842  1
  I  I74  1  0.83323006  0.00292264  0.83704252  1
  I  I75  1  0.82468304  0.33386744  0.16290802  1
  I  I76  1  0.83321738  0.33341075  0.50059254  1
  I  I77  1  0.83289465  0.33477302  0.83618203  1
  I  I78  1  0.82808797  0.66342045  0.16145208  1
  I  I79  1  0.83088968  0.66944106  0.50046435  1
  I  I80  1  0.83237582  0.66267797  0.83765192  1
  I  I81  1  0.16942095  0.16745226  -0.00029232  1
  I  I82  1  0.16559521  0.16684525  0.33573805  1
  I  I83  1  0.16743365  0.16678114  0.66409450  1
  I  I84  1  0.17255473  0.49796985  -0.00329567  1
  I  I85  1  0.16652082  0.49984340  0.33354742  1
  I  I86  1  0.16489237  0.49904328  0.67008710  1
  I  I87  1  0.16648150  0.83514515  -0.00003199  1
  I  I88  1  0.16362127  0.83276679  0.33359870  1
  I  I89  1  0.16820326  0.83396779  0.66642513  1
  I  I90  1  0.50012905  0.16569605  0.00443767  1
  I  I91  1  0.50560712  0.17177206  0.32988965  1
  I  I92  1  0.49986546  0.16700975  0.66692229  1
  I  I93  1  0.50011871  0.50053047  0.00064794  1
  I  I94  1  0.50455505  0.50068506  0.33220292  1
  I  I95  1  0.49985421  0.50524284  0.66682701  1
  I  I96  1  0.50077247  0.83122103  0.00326839  1
  I  I97  1  0.50408253  0.82787129  0.33331685  1
  I  I98  1  0.50297237  0.82781029  0.66345758  1
  I  I99  1  0.82917339  0.17163228  0.00073652  1
  I  I100  1  0.83008399  0.17090993  0.32995334  1
  I  I101  1  0.83550259  0.17139599  0.66902392  1
  I  I102  1  0.82832179  0.49638882  -0.00002251  1
  I  I103  1  0.82693080  0.49557646  0.33011300  1
  I  I104  1  0.83173166  0.49670860  0.66949687  1
  I  I105  1  0.83224010  0.83316702  0.00025059  1
  I  I106  1  0.82992098  0.83393855  0.33621931  1
  I  I107  1  0.82662171  0.83322962  0.66319555  1
  I  I108  1  -0.00397548  0.17267573  0.16449195  1
  I  I109  1  0.00227249  0.16558636  0.49948472  1
  I  I110  1  -0.00419734  0.17288288  0.83889335  1
  I  I111  1  -0.00385456  0.49419513  0.16246175  1
  I  I112  1  -0.00002847  0.50176193  0.50020414  1
  I  I113  1  -0.00155349  0.49517984  0.83735503  1
  I  I114  1  -0.00032988  0.83316169  0.16917372  1
  I  I115  1  -0.00203463  0.83448053  0.50072716  1
  I  I116  1  -0.00039765  0.83147786  0.83034201  1
  I  I117  1  0.33652117  0.16793971  0.17001472  1
  I  I118  1  0.33110426  0.16660149  0.49841972  1
  I  I119  1  0.33341465  0.16761213  0.83336061  1
  I  I120  1  0.33712238  0.49999270  0.16606560  1
  I  I121  1  0.33811352  0.50613153  0.49814486  1
  I  I122  1  0.33469367  0.50199735  0.83318751  1
  I  I123  1  0.33917141  0.83092613  0.17488424  1
  I  I124  1  0.33729842  0.82846139  0.49482873  1
  I  I125  1  0.33366096  0.83258382  0.83155541  1
  I  I126  1  0.66660828  0.16860260  0.16480046  1
  I  I127  1  0.66663500  0.16756745  0.50156139  1
  I  I128  1  0.67015341  0.17272710  0.83232453  1
  I  I129  1  0.66552030  0.49951689  0.16215286  1
  I  I130  1  0.66315828  0.50053542  0.50348148  1
  I  I131  1  0.66674141  0.49713747  0.83461334  1
  I  I132  1  0.66335165  0.83206136  0.16916397  1
  I  I133  1  0.66505584  0.83025487  0.49673205  1
  I  I134  1  0.66659683  0.83085486  0.83359026  1
