# generated using pymatgen
data_Cs27Sn14Pb13I81
_symmetry_space_group_name_H-M   'P 1'
_cell_length_a   18.97370343
_cell_length_b   18.97852594
_cell_length_c   18.97354413
_cell_angle_alpha   90.00128848
_cell_angle_beta   90.00004483
_cell_angle_gamma   89.99881248
_symmetry_Int_Tables_number   1
_chemical_formula_structural   Cs27Sn14Pb13I81
_chemical_formula_sum   'Cs27 Sn14 Pb13 I81'
_cell_volume   6832.23895882
_cell_formula_units_Z   1
loop_
 _symmetry_equiv_pos_site_id
 _symmetry_equiv_pos_as_xyz
  1  'x, y, z'
loop_
 _atom_site_type_symbol
 _atom_site_label
 _atom_site_symmetry_multiplicity
 _atom_site_fract_x
 _atom_site_fract_y
 _atom_site_fract_z
 _atom_site_occupancy
  Cs  Cs0  1  -0.00112545  -0.00362625  -0.00113066  1
  Cs  Cs1  1  0.00004549  0.00123066  0.33448787  1
  Cs  Cs2  1  0.00199604  0.00233618  0.66745337  1
  Cs  Cs3  1  -0.00072157  0.33270077  0.00237027  1
  Cs  Cs4  1  -0.00126443  0.33454700  0.33456874  1
  Cs  Cs5  1  0.00202772  0.32734921  0.66319799  1
  Cs  Cs6  1  0.00003089  0.67323211  -0.00127413  1
  Cs  Cs7  1  0.00044967  0.66416111  0.33308594  1
  Cs  Cs8  1  0.00001842  0.67096716  0.66758117  1
  Cs  Cs9  1  0.33194307  -0.00152524  0.00615468  1
  Cs  Cs10  1  0.33773320  -0.00477988  0.32966719  1
  Cs  Cs11  1  0.33508380  0.00406984  0.66524614  1
  Cs  Cs12  1  0.33404993  0.33578237  -0.00098478  1
  Cs  Cs13  1  0.33295818  0.33432238  0.33215666  1
  Cs  Cs14  1  0.33226950  0.33443031  0.66839369  1
  Cs  Cs15  1  0.32780341  0.66299252  -0.00061155  1
  Cs  Cs16  1  0.33213889  0.66859426  0.33504914  1
  Cs  Cs17  1  0.33599739  0.66143212  0.66345696  1
  Cs  Cs18  1  0.66746580  0.00303519  -0.00081763  1
  Cs  Cs19  1  0.66235319  -0.00096372  0.33233363  1
  Cs  Cs20  1  0.66620811  -0.00133730  0.66845032  1
  Cs  Cs21  1  0.66613707  0.33127965  0.00005828  1
  Cs  Cs22  1  0.66933842  0.33528073  0.33284485  1
  Cs  Cs23  1  0.66647335  0.33254372  0.66700275  1
  Cs  Cs24  1  0.67101800  0.66320048  -0.00559399  1
  Cs  Cs25  1  0.66766337  0.66534028  0.33504926  1
  Cs  Cs26  1  0.66482921  0.66952671  0.66829630  1
  Sn  Sn27  1  0.83399434  0.49855559  0.83285237  1
  Sn  Sn28  1  0.49967315  0.49884005  0.49899672  1
  Sn  Sn29  1  0.49961635  0.50021815  0.16730716  1
  Sn  Sn30  1  0.50041368  0.16570090  0.83279893  1
  Sn  Sn31  1  0.16709845  0.50052073  0.49930329  1
  Sn  Sn32  1  0.16728309  0.49918559  0.16743774  1
  Sn  Sn33  1  0.83406810  0.83358576  0.49910417  1
  Sn  Sn34  1  0.16579927  0.16729313  0.16682968  1
  Sn  Sn35  1  0.50026049  0.16776116  0.50041422  1
  Sn  Sn36  1  0.49931100  0.83427779  0.83389131  1
  Sn  Sn37  1  0.83288635  0.83419177  0.16785781  1
  Sn  Sn38  1  0.16590489  0.83289838  0.50001159  1
  Sn  Sn39  1  0.83289543  0.16776764  0.83388684  1
  Sn  Sn40  1  0.83411379  0.16584459  0.16631057  1
  Pb  Pb41  1  0.16358776  0.49981661  0.83302723  1
  Pb  Pb42  1  0.16923628  0.16677275  0.49741490  1
  Pb  Pb43  1  0.49982289  0.83302659  0.50122162  1
  Pb  Pb44  1  0.50123653  0.49928555  0.83310772  1
  Pb  Pb45  1  0.83113296  0.16440412  0.49982057  1
  Pb  Pb46  1  0.16467832  0.83293878  0.16860427  1
  Pb  Pb47  1  0.83389061  0.49981598  0.16525109  1
  Pb  Pb48  1  0.50259691  0.82988696  0.16395130  1
  Pb  Pb49  1  0.83225145  0.83440152  0.83319556  1
  Pb  Pb50  1  0.16690846  0.16660498  0.83613188  1
  Pb  Pb51  1  0.17008041  0.83342053  0.83017491  1
  Pb  Pb52  1  0.50029126  0.16841113  0.16638230  1
  Pb  Pb53  1  0.83359681  0.50186817  0.50242236  1
  I  I54  1  0.16464979  0.00230618  0.16714182  1
  I  I55  1  0.16382708  -0.00224828  0.49947760  1
  I  I56  1  0.16181813  0.00005261  0.83307912  1
  I  I57  1  0.16427681  0.33417274  0.17210199  1
  I  I58  1  0.16926553  0.33617577  0.49796448  1
  I  I59  1  0.17059750  0.33326805  0.82900623  1
  I  I60  1  0.16956731  0.66368547  0.16866760  1
  I  I61  1  0.16897593  0.66545677  0.49432348  1
  I  I62  1  0.16531065  0.66654460  0.83875709  1
  I  I63  1  0.49758391  -0.00001542  0.16908161  1
  I  I64  1  0.50062952  0.00202867  0.50308326  1
  I  I65  1  0.50741228  0.00167417  0.82666781  1
  I  I66  1  0.50115456  0.33624273  0.16588168  1
  I  I67  1  0.49534637  0.33422158  0.50270318  1
  I  I68  1  0.50355890  0.33056108  0.83236234  1
  I  I69  1  0.49517956  0.66230010  0.17215103  1
  I  I70  1  0.49910450  0.66395148  0.49858940  1
  I  I71  1  0.50415133  0.66793977  0.83257088  1
  I  I72  1  0.83854167  0.00114677  0.16359763  1
  I  I73  1  0.83759009  -0.00343833  0.50115164  1
  I  I74  1  0.82971796  0.00304790  0.83508748  1
  I  I75  1  0.83357578  0.33079021  0.16309910  1
  I  I76  1  0.83472840  0.33316061  0.49855837  1
  I  I77  1  0.82646444  0.33169304  0.83929369  1
  I  I78  1  0.83237621  0.66863915  0.16781984  1
  I  I79  1  0.83180069  0.66973222  0.49598134  1
  I  I80  1  0.83052481  0.66542219  0.83387925  1
  I  I81  1  0.16765483  0.17307162  0.00416651  1
  I  I82  1  0.16101708  0.16889528  0.32977577  1
  I  I83  1  0.16447313  0.16693559  0.66628766  1
  I  I84  1  0.17145547  0.49573445  0.00324026  1
  I  I85  1  0.17050064  0.50016532  0.33334612  1
  I  I86  1  0.17136475  0.50462162  0.66320205  1
  I  I87  1  0.16529750  0.83229822  0.00030731  1
  I  I88  1  0.16653986  0.83173969  0.33649048  1
  I  I89  1  0.15864065  0.82697079  0.66219908  1
  I  I90  1  0.50223181  0.16472307  -0.00248256  1
  I  I91  1  0.49990571  0.16892635  0.33541396  1
  I  I92  1  0.50536092  0.16815976  0.66717334  1
  I  I93  1  0.49733145  0.50013902  0.00221906  1
  I  I94  1  0.49758590  0.49459617  0.33423976  1
  I  I95  1  0.49686101  0.49984309  0.66390265  1
  I  I96  1  0.50369778  0.83969849  -0.00339045  1
  I  I97  1  0.49962139  0.83608651  0.33316966  1
  I  I98  1  0.50358305  0.83256792  0.66896375  1
  I  I99  1  0.83058503  0.16506918  0.00010068  1
  I  I100  1  0.83538068  0.16459717  0.33047974  1
  I  I101  1  0.82997462  0.16907618  0.66922593  1
  I  I102  1  0.83085474  0.50117050  -0.00249427  1
  I  I103  1  0.83212619  0.49875542  0.33350530  1
  I  I104  1  0.83104890  0.49595193  0.66997728  1
  I  I105  1  0.83146113  0.83340099  0.00209240  1
  I  I106  1  0.83573314  0.83767170  0.33315948  1
  I  I107  1  0.83505562  0.83166131  0.66438660  1
  I  I108  1  -0.00098764  0.16898833  0.16183784  1
  I  I109  1  0.00001946  0.16823815  0.50241736  1
  I  I110  1  -0.00326153  0.17067397  0.83523372  1
  I  I111  1  0.00272601  0.49849460  0.17057229  1
  I  I112  1  0.00282381  0.50265499  0.49582310  1
  I  I113  1  -0.00423772  0.49516655  0.83451748  1
  I  I114  1  -0.00338185  0.83216723  0.16634095  1
  I  I115  1  -0.00006715  0.82719843  0.49657149  1
  I  I116  1  -0.00001181  0.83255002  0.83453241  1
  I  I117  1  0.33138710  0.16953514  0.16737745  1
  I  I118  1  0.33706677  0.16613114  0.50514514  1
  I  I119  1  0.33674913  0.16296746  0.82979547  1
  I  I120  1  0.33279662  0.49420651  0.16905951  1
  I  I121  1  0.33354218  0.50305400  0.49706502  1
  I  I122  1  0.33320626  0.50065082  0.83392057  1
  I  I123  1  0.33339679  0.83663760  0.16726471  1
  I  I124  1  0.33115647  0.83153846  0.50208599  1
  I  I125  1  0.33785595  0.83878878  0.83249431  1
  I  I126  1  0.66925972  0.16453221  0.16491988  1
  I  I127  1  0.66322056  0.17109226  0.49953083  1
  I  I128  1  0.66689341  0.16683947  0.83588092  1
  I  I129  1  0.66464554  0.49995963  0.16949699  1
  I  I130  1  0.66389410  0.49808344  0.49677426  1
  I  I131  1  0.66905853  0.49968242  0.83467798  1
  I  I132  1  0.67038392  0.83877745  0.17295705  1
  I  I133  1  0.66871943  0.83334612  0.49844716  1
  I  I134  1  0.66452360  0.83358838  0.83032306  1
