# generated using pymatgen
data_Cs27Sn14Pb13I81
_symmetry_space_group_name_H-M   'P 1'
_cell_length_a   18.98154268
_cell_length_b   18.96601557
_cell_length_c   18.98114749
_cell_angle_alpha   89.99923080
_cell_angle_beta   90.00266419
_cell_angle_gamma   90.00057103
_symmetry_Int_Tables_number   1
_chemical_formula_structural   Cs27Sn14Pb13I81
_chemical_formula_sum   'Cs27 Sn14 Pb13 I81'
_cell_volume   6833.29345385
_cell_formula_units_Z   1
loop_
 _symmetry_equiv_pos_site_id
 _symmetry_equiv_pos_as_xyz
  1  'x, y, z'
loop_
 _atom_site_type_symbol
 _atom_site_label
 _atom_site_symmetry_multiplicity
 _atom_site_fract_x
 _atom_site_fract_y
 _atom_site_fract_z
 _atom_site_occupancy
  Cs  Cs0  1  -0.00006929  0.00101489  -0.00108950  1
  Cs  Cs1  1  -0.00067783  -0.00068663  0.33460185  1
  Cs  Cs2  1  -0.00004596  0.00027554  0.66658956  1
  Cs  Cs3  1  0.00116381  0.34042417  -0.00071982  1
  Cs  Cs4  1  0.00125894  0.33820715  0.32920379  1
  Cs  Cs5  1  -0.00367864  0.33558360  0.67162011  1
  Cs  Cs6  1  0.00002963  0.66416951  0.00088276  1
  Cs  Cs7  1  -0.00004649  0.66375429  0.33652953  1
  Cs  Cs8  1  0.00486946  0.66362536  0.66209953  1
  Cs  Cs9  1  0.33287179  0.00049420  -0.00008746  1
  Cs  Cs10  1  0.33320972  0.00117013  0.33338291  1
  Cs  Cs11  1  0.33139101  0.00078686  0.66740306  1
  Cs  Cs12  1  0.32849807  0.33120949  0.00250248  1
  Cs  Cs13  1  0.33538220  0.33216949  0.33246633  1
  Cs  Cs14  1  0.33682324  0.33629440  0.66420810  1
  Cs  Cs15  1  0.33709463  0.66761534  -0.00406153  1
  Cs  Cs16  1  0.33081514  0.66961979  0.33619867  1
  Cs  Cs17  1  0.33194385  0.65876837  0.66861214  1
  Cs  Cs18  1  0.66699694  -0.00090105  0.00011962  1
  Cs  Cs19  1  0.66688325  -0.00013098  0.33302264  1
  Cs  Cs20  1  0.66863133  0.00077611  0.66589337  1
  Cs  Cs21  1  0.67091074  0.33098679  -0.00104314  1
  Cs  Cs22  1  0.66415660  0.33384434  0.33624719  1
  Cs  Cs23  1  0.66699442  0.33893252  0.66506092  1
  Cs  Cs24  1  0.66298505  0.66858321  0.00138795  1
  Cs  Cs25  1  0.66933941  0.66906984  0.33013099  1
  Cs  Cs26  1  0.66280249  0.66230809  0.66860813  1
  Sn  Sn27  1  0.49970241  0.83366880  0.16755631  1
  Sn  Sn28  1  0.83392600  0.83437791  0.16658939  1
  Sn  Sn29  1  0.16583599  0.83422095  0.83400560  1
  Sn  Sn30  1  0.16639934  0.83393881  0.16581168  1
  Sn  Sn31  1  0.50005032  0.49984885  0.16657323  1
  Sn  Sn32  1  0.83442981  0.16602293  0.49907379  1
  Sn  Sn33  1  0.16735075  0.16580028  0.83233975  1
  Sn  Sn34  1  0.49946618  0.16606755  0.83389435  1
  Sn  Sn35  1  0.50094438  0.16654292  0.16573460  1
  Sn  Sn36  1  0.50056876  0.83390383  0.49981092  1
  Sn  Sn37  1  0.83424787  0.83377283  0.83314726  1
  Sn  Sn38  1  0.83288674  0.16582809  0.16755566  1
  Sn  Sn39  1  0.16534906  0.16616721  0.50087397  1
  Sn  Sn40  1  0.83229633  0.83412251  0.50022412  1
  Pb  Pb41  1  0.16663493  0.49549480  0.49982639  1
  Pb  Pb42  1  0.16600253  0.16503314  0.16650737  1
  Pb  Pb43  1  0.16657763  0.83463497  0.50042023  1
  Pb  Pb44  1  0.83356901  0.16528431  0.83342429  1
  Pb  Pb45  1  0.50050163  0.16496806  0.49995712  1
  Pb  Pb46  1  0.50015669  0.50372737  0.49722977  1
  Pb  Pb47  1  0.16953584  0.50384816  0.16664050  1
  Pb  Pb48  1  0.83116037  0.49993427  0.16667526  1
  Pb  Pb49  1  0.83324499  0.49993481  0.49973178  1
  Pb  Pb50  1  0.49974308  0.83493841  0.83302086  1
  Pb  Pb51  1  0.83319867  0.50426900  0.83356432  1
  Pb  Pb52  1  0.50001255  0.49602752  0.83626524  1
  Pb  Pb53  1  0.16678358  0.49988611  0.83348141  1
  I  I54  1  0.17131680  -0.00324160  0.16525650  1
  I  I55  1  0.16556617  0.00248237  0.50120641  1
  I  I56  1  0.16707215  -0.00028936  0.83402033  1
  I  I57  1  0.16678050  0.33318303  0.16688529  1
  I  I58  1  0.16177081  0.32727836  0.50546220  1
  I  I59  1  0.17130834  0.32952191  0.82929531  1
  I  I60  1  0.16491418  0.67245198  0.16173380  1
  I  I61  1  0.16718573  0.66697159  0.49988181  1
  I  I62  1  0.16262415  0.67040732  0.83787244  1
  I  I63  1  0.50116538  -0.00051650  0.16656147  1
  I  I64  1  0.50172448  -0.00291998  0.49306331  1
  I  I65  1  0.49833976  0.00267782  0.84007364  1
  I  I66  1  0.50463161  0.33154048  0.16163580  1
  I  I67  1  0.49934669  0.33313803  0.49969615  1
  I  I68  1  0.49427203  0.32779930  0.83686697  1
  I  I69  1  0.50031594  0.66881642  0.17153901  1
  I  I70  1  0.50573051  0.67210654  0.49573192  1
  I  I71  1  0.50027302  0.66687187  0.83326770  1
  I  I72  1  0.82796650  -0.00111477  0.16754490  1
  I  I73  1  0.83302520  -0.00082162  0.49806481  1
  I  I74  1  0.83431277  -0.00310162  0.83435018  1
  I  I75  1  0.82895992  0.32959259  0.17117921  1
  I  I76  1  0.83725558  0.32938090  0.49503895  1
  I  I77  1  0.83330044  0.33301305  0.83361761  1
  I  I78  1  0.83260166  0.67074722  0.16697962  1
  I  I79  1  0.82927788  0.67083017  0.49848582  1
  I  I80  1  0.83820967  0.67292750  0.83454847  1
  I  I81  1  0.16887426  0.16336659  -0.00236119  1
  I  I82  1  0.16669838  0.16350352  0.33515405  1
  I  I83  1  0.16744127  0.15872748  0.66752642  1
  I  I84  1  0.16651450  0.49473092  0.00021273  1
  I  I85  1  0.16702162  0.50097089  0.33305260  1
  I  I86  1  0.16825217  0.50699477  0.66670986  1
  I  I87  1  0.16457203  0.83949034  0.00003660  1
  I  I88  1  0.16636497  0.83532979  0.33089921  1
  I  I89  1  0.16357478  0.83673629  0.66935822  1
  I  I90  1  0.49988634  0.16355217  0.00175492  1
  I  I91  1  0.50000921  0.16737836  0.33016910  1
  I  I92  1  0.49870170  0.16186727  0.66868256  1
  I  I93  1  0.50050997  0.50891570  0.00382171  1
  I  I94  1  0.50048046  0.49358499  0.32948795  1
  I  I95  1  0.49969849  0.50057165  0.66670714  1
  I  I96  1  0.50224762  0.83204491  0.00310889  1
  I  I97  1  0.50229881  0.83546459  0.33145209  1
  I  I98  1  0.50379843  0.83798373  0.66437826  1
  I  I99  1  0.83072849  0.16142790  0.00280868  1
  I  I100  1  0.83269815  0.15813210  0.33276989  1
  I  I101  1  0.83400385  0.16088821  0.66429270  1
  I  I102  1  0.83304213  0.49777455  0.00031095  1
  I  I103  1  0.83278762  0.50430931  0.33314361  1
  I  I104  1  0.83194715  0.49783398  0.66658853  1
  I  I105  1  0.83277627  0.83771068  0.00124607  1
  I  I106  1  0.83172132  0.83708070  0.33261967  1
  I  I107  1  0.83271993  0.83929536  0.66595874  1
  I  I108  1  -0.00288021  0.16002971  0.16789634  1
  I  I109  1  -0.00111370  0.15843130  0.49967780  1
  I  I110  1  0.00251345  0.16292705  0.83213738  1
  I  I111  1  0.00005318  0.49909055  0.16627101  1
  I  I112  1  -0.00005076  0.50662860  0.49880567  1
  I  I113  1  0.00007118  0.49431356  0.83490660  1
  I  I114  1  -0.00109806  0.83972829  0.16613880  1
  I  I115  1  -0.00290770  0.83589898  0.49729197  1
  I  I116  1  0.00025111  0.84020879  0.83715404  1
  I  I117  1  0.33595541  0.16501725  0.16627073  1
  I  I118  1  0.33167594  0.16363317  0.50045993  1
  I  I119  1  0.33276930  0.15967092  0.83405928  1
  I  I120  1  0.33739207  0.49711243  0.16660133  1
  I  I121  1  0.33355687  0.50143200  0.49926610  1
  I  I122  1  0.33351672  0.50633162  0.83399449  1
  I  I123  1  0.33438085  0.83399506  0.16714275  1
  I  I124  1  0.33541665  0.83614037  0.49464228  1
  I  I125  1  0.33081661  0.83638121  0.83737581  1
  I  I126  1  0.66612430  0.16171110  0.16624643  1
  I  I127  1  0.66943329  0.16331425  0.49872284  1
  I  I128  1  0.66466934  0.16383527  0.83577497  1
  I  I129  1  0.66345905  0.50540163  0.16671031  1
  I  I130  1  0.66652255  0.49478368  0.50052949  1
  I  I131  1  0.66638073  0.49969745  0.83321335  1
  I  I132  1  0.66665864  0.83338310  0.16703704  1
  I  I133  1  0.66772263  0.83938939  0.49628905  1
  I  I134  1  0.66898381  0.83588426  0.83592925  1
