# generated using pymatgen
data_Cs27Sn13Pb14I81
_symmetry_space_group_name_H-M   'P 1'
_cell_length_a   18.99377980
_cell_length_b   18.99780118
_cell_length_c   18.98251117
_cell_angle_alpha   90.00106918
_cell_angle_beta   89.99914176
_cell_angle_gamma   90.00037017
_symmetry_Int_Tables_number   1
_chemical_formula_structural   Cs27Sn13Pb14I81
_chemical_formula_sum   'Cs27 Sn13 Pb14 I81'
_cell_volume   6849.65031956
_cell_formula_units_Z   1
loop_
 _symmetry_equiv_pos_site_id
 _symmetry_equiv_pos_as_xyz
  1  'x, y, z'
loop_
 _atom_site_type_symbol
 _atom_site_label
 _atom_site_symmetry_multiplicity
 _atom_site_fract_x
 _atom_site_fract_y
 _atom_site_fract_z
 _atom_site_occupancy
  Cs  Cs0  1  -0.00208052  0.00078125  -0.00277640  1
  Cs  Cs1  1  0.00610082  0.00748652  0.33428706  1
  Cs  Cs2  1  0.00068217  -0.00112312  0.66747904  1
  Cs  Cs3  1  -0.00018089  0.33452848  -0.00193518  1
  Cs  Cs4  1  0.00680367  0.32277847  0.33950598  1
  Cs  Cs5  1  -0.00127246  0.33070524  0.66745932  1
  Cs  Cs6  1  -0.00293763  0.66569590  -0.00219013  1
  Cs  Cs7  1  0.00671046  0.66727502  0.33204293  1
  Cs  Cs8  1  -0.00178356  0.66892278  0.66930676  1
  Cs  Cs9  1  0.34457109  -0.00015374  0.00613189  1
  Cs  Cs10  1  0.32826385  -0.00095967  0.32776711  1
  Cs  Cs11  1  0.33709792  0.00030467  0.66674338  1
  Cs  Cs12  1  0.33453742  0.33381624  0.00038049  1
  Cs  Cs13  1  0.32332511  0.33570267  0.33438163  1
  Cs  Cs14  1  0.33612813  0.33428181  0.66666696  1
  Cs  Cs15  1  0.33487126  0.66653153  0.00243780  1
  Cs  Cs16  1  0.32319925  0.66668915  0.33281963  1
  Cs  Cs17  1  0.33394050  0.66614541  0.66528612  1
  Cs  Cs18  1  0.66078117  0.00088403  0.00294113  1
  Cs  Cs19  1  0.66672086  0.00181983  0.33300450  1
  Cs  Cs20  1  0.66379889  -0.00204566  0.66628806  1
  Cs  Cs21  1  0.66622809  0.33495589  0.00100759  1
  Cs  Cs22  1  0.66927651  0.33247995  0.33677684  1
  Cs  Cs23  1  0.66601440  0.33493101  0.66347928  1
  Cs  Cs24  1  0.66815350  0.66599691  0.00054066  1
  Cs  Cs25  1  0.66710072  0.66563182  0.33409947  1
  Cs  Cs26  1  0.66703545  0.66722327  0.66496862  1
  Sn  Sn27  1  0.50009226  0.16584056  0.49965374  1
  Sn  Sn28  1  0.50052719  0.50035678  0.83399315  1
  Sn  Sn29  1  0.83299407  0.50035447  0.16652551  1
  Sn  Sn30  1  0.83307321  0.49982385  0.83367534  1
  Sn  Sn31  1  0.83284071  0.83306394  0.49936260  1
  Sn  Sn32  1  0.50047188  0.83393886  0.49959510  1
  Sn  Sn33  1  0.50097756  0.50012654  0.16657147  1
  Sn  Sn34  1  0.83315818  0.16648008  0.83336989  1
  Sn  Sn35  1  0.16666280  0.16605969  0.83351360  1
  Sn  Sn36  1  0.83334543  0.83283198  0.16685230  1
  Sn  Sn37  1  0.16673278  0.83378093  0.83362588  1
  Sn  Sn38  1  0.16647035  0.50016839  0.83341449  1
  Sn  Sn39  1  0.83344097  0.83376729  0.83366383  1
  Pb  Pb40  1  0.50014507  0.50053442  0.49891022  1
  Pb  Pb41  1  0.16607931  0.50005185  0.50306652  1
  Pb  Pb42  1  0.16941045  0.16628483  0.50317305  1
  Pb  Pb43  1  0.16632593  0.83344966  0.50239422  1
  Pb  Pb44  1  0.50036401  0.83097227  0.83217560  1
  Pb  Pb45  1  0.50022440  0.17004620  0.16996178  1
  Pb  Pb46  1  0.50029945  0.16917136  0.83227196  1
  Pb  Pb47  1  0.83174260  0.16383141  0.50269864  1
  Pb  Pb48  1  0.50231517  0.83079503  0.16978156  1
  Pb  Pb49  1  0.83326249  0.16713831  0.16441862  1
  Pb  Pb50  1  0.16662494  0.16653121  0.16295685  1
  Pb  Pb51  1  0.83362149  0.50210615  0.49926606  1
  Pb  Pb52  1  0.16342943  0.83342852  0.16307309  1
  Pb  Pb53  1  0.16536484  0.49992852  0.16416907  1
  I  I54  1  0.16548769  -0.00027616  0.16470813  1
  I  I55  1  0.16445799  -0.00016357  0.50410766  1
  I  I56  1  0.15620245  -0.00029052  0.83153800  1
  I  I57  1  0.16562129  0.33358973  0.16501339  1
  I  I58  1  0.16925159  0.33301564  0.50180086  1
  I  I59  1  0.16316455  0.33383736  0.83302270  1
  I  I60  1  0.16994840  0.66661749  0.16543926  1
  I  I61  1  0.17055250  0.66700285  0.50264107  1
  I  I62  1  0.16266000  0.66651222  0.83257706  1
  I  I63  1  0.50089568  -0.00011696  0.16494239  1
  I  I64  1  0.50537935  -0.00098281  0.50447837  1
  I  I65  1  0.49956656  -0.00009366  0.83266062  1
  I  I66  1  0.50760888  0.33777380  0.16160593  1
  I  I67  1  0.49950817  0.33152017  0.50306675  1
  I  I68  1  0.50024052  0.33711337  0.83336513  1
  I  I69  1  0.50254120  0.66321942  0.16202723  1
  I  I70  1  0.50535738  0.66940113  0.50278878  1
  I  I71  1  0.50033558  0.66302875  0.83349688  1
  I  I72  1  0.83388262  -0.00313872  0.16471736  1
  I  I73  1  0.83118918  -0.00420054  0.50098185  1
  I  I74  1  0.84127545  -0.00102526  0.83198902  1
  I  I75  1  0.82838238  0.33702128  0.15906037  1
  I  I76  1  0.83078095  0.33304618  0.50130738  1
  I  I77  1  0.83604018  0.33440667  0.83768035  1
  I  I78  1  0.82882506  0.66644830  0.15991844  1
  I  I79  1  0.82546852  0.67032599  0.50764103  1
  I  I80  1  0.83576511  0.66681449  0.83306231  1
  I  I81  1  0.16211141  0.16851193  -0.00546490  1
  I  I82  1  0.16712154  0.16774823  0.33361205  1
  I  I83  1  0.16142277  0.16773262  0.67119006  1
  I  I84  1  0.16630079  0.50009066  -0.00454336  1
  I  I85  1  0.16865018  0.50015511  0.33281655  1
  I  I86  1  0.16715379  0.50060167  0.67228534  1
  I  I87  1  0.16119342  0.83151283  -0.00512943  1
  I  I88  1  0.16653253  0.83265856  0.33312445  1
  I  I89  1  0.15993518  0.83180609  0.67081370  1
  I  I90  1  0.49898696  0.16569150  0.00001845  1
  I  I91  1  0.50310478  0.16269551  0.33750484  1
  I  I92  1  0.50009257  0.16490992  0.66459566  1
  I  I93  1  0.50067069  0.50004687  -0.00150159  1
  I  I94  1  0.50842004  0.49978802  0.33006358  1
  I  I95  1  0.49997212  0.49985114  0.66941540  1
  I  I96  1  0.49936716  0.83436151  0.00022181  1
  I  I97  1  0.50703982  0.83540874  0.33748932  1
  I  I98  1  0.50577947  0.83366039  0.66445155  1
  I  I99  1  0.83677404  0.16296059  -0.00435595  1
  I  I100  1  0.83162786  0.16784074  0.33356389  1
  I  I101  1  0.83722897  0.16888280  0.67107782  1
  I  I102  1  0.83275035  0.50483892  -0.00207917  1
  I  I103  1  0.82415335  0.50607526  0.32961223  1
  I  I104  1  0.83289688  0.50073344  0.67045677  1
  I  I105  1  0.83914080  0.83137540  -0.00138674  1
  I  I106  1  0.82538585  0.82617622  0.33317495  1
  I  I107  1  0.83352022  0.83297187  0.66826958  1
  I  I108  1  -0.00030677  0.16890278  0.17034769  1
  I  I109  1  0.00006897  0.16668159  0.49863526  1
  I  I110  1  -0.00069189  0.17100443  0.83286794  1
  I  I111  1  -0.00389786  0.50624330  0.16015916  1
  I  I112  1  -0.00033125  0.50224859  0.50014993  1
  I  I113  1  -0.00101492  0.50048519  0.83640961  1
  I  I114  1  -0.00480422  0.82497923  0.17072705  1
  I  I115  1  -0.00342296  0.83057000  0.50047764  1
  I  I116  1  -0.00174531  0.82920567  0.83122424  1
  I  I117  1  0.33364571  0.16796511  0.16408446  1
  I  I118  1  0.33695785  0.16102271  0.50357391  1
  I  I119  1  0.33077033  0.16787389  0.83015005  1
  I  I120  1  0.33567841  0.49880800  0.16229533  1
  I  I121  1  0.33353219  0.50219123  0.50106462  1
  I  I122  1  0.33339242  0.49958512  0.83575944  1
  I  I123  1  0.33337503  0.83215276  0.16702967  1
  I  I124  1  0.33610566  0.83570965  0.50409365  1
  I  I125  1  0.33094508  0.83231824  0.82912005  1
  I  I126  1  0.66674241  0.16479164  0.16259299  1
  I  I127  1  0.66414393  0.16579490  0.50427972  1
  I  I128  1  0.66958815  0.16602251  0.83163888  1
  I  I129  1  0.66765620  0.50413038  0.15607316  1
  I  I130  1  0.66673026  0.49851919  0.50700044  1
  I  I131  1  0.66772131  0.50026035  0.83639124  1
  I  I132  1  0.67033590  0.83145364  0.15917242  1
  I  I133  1  0.66774724  0.83626113  0.50467028  1
  I  I134  1  0.67027221  0.83317682  0.83404132  1
