# generated using pymatgen
data_Cs27Sn14Pb13I81
_symmetry_space_group_name_H-M   'P 1'
_cell_length_a   18.96997059
_cell_length_b   18.97571385
_cell_length_c   18.98101679
_cell_angle_alpha   89.99900754
_cell_angle_beta   89.99958920
_cell_angle_gamma   90.00064696
_symmetry_Int_Tables_number   1
_chemical_formula_structural   Cs27Sn14Pb13I81
_chemical_formula_sum   'Cs27 Sn14 Pb13 I81'
_cell_volume   6832.57257847
_cell_formula_units_Z   1
loop_
 _symmetry_equiv_pos_site_id
 _symmetry_equiv_pos_as_xyz
  1  'x, y, z'
loop_
 _atom_site_type_symbol
 _atom_site_label
 _atom_site_symmetry_multiplicity
 _atom_site_fract_x
 _atom_site_fract_y
 _atom_site_fract_z
 _atom_site_occupancy
  Cs  Cs0  1  0.00355228  -0.00031068  -0.00069111  1
  Cs  Cs1  1  0.00049237  0.00206059  0.33629797  1
  Cs  Cs2  1  0.00186489  0.00020934  0.66467787  1
  Cs  Cs3  1  -0.00295033  0.33165635  0.00418020  1
  Cs  Cs4  1  -0.00022081  0.33160703  0.33251599  1
  Cs  Cs5  1  -0.00038656  0.33106953  0.66559120  1
  Cs  Cs6  1  0.00204767  0.66860089  -0.00399177  1
  Cs  Cs7  1  -0.00555443  0.66343500  0.33559029  1
  Cs  Cs8  1  0.00097347  0.66838035  0.66860982  1
  Cs  Cs9  1  0.32862487  -0.00437044  0.00360752  1
  Cs  Cs10  1  0.33535992  0.00115565  0.33389076  1
  Cs  Cs11  1  0.33319686  -0.00013033  0.66487898  1
  Cs  Cs12  1  0.33287754  0.34115745  -0.00140387  1
  Cs  Cs13  1  0.33108732  0.33620060  0.33438681  1
  Cs  Cs14  1  0.33564439  0.33890549  0.66719226  1
  Cs  Cs15  1  0.32696658  0.66445928  0.00503241  1
  Cs  Cs16  1  0.33700342  0.65863412  0.32754567  1
  Cs  Cs17  1  0.33032663  0.66081133  0.66817801  1
  Cs  Cs18  1  0.66609797  0.00079228  -0.00200209  1
  Cs  Cs19  1  0.66577169  -0.00034474  0.33514415  1
  Cs  Cs20  1  0.66534995  -0.00014266  0.66670090  1
  Cs  Cs21  1  0.66785406  0.33146278  -0.00486088  1
  Cs  Cs22  1  0.66824606  0.33190960  0.33409801  1
  Cs  Cs23  1  0.66463143  0.33106673  0.67054367  1
  Cs  Cs24  1  0.66717095  0.66804167  0.00253518  1
  Cs  Cs25  1  0.66795432  0.66755003  0.33083981  1
  Cs  Cs26  1  0.66754385  0.67028075  0.66605120  1
  Sn  Sn27  1  0.83295490  0.16741360  0.49960026  1
  Sn  Sn28  1  0.49992778  0.83338846  0.83296575  1
  Sn  Sn29  1  0.50074191  0.16658323  0.16702075  1
  Sn  Sn30  1  0.83261526  0.83306186  0.83407034  1
  Sn  Sn31  1  0.16855310  0.83349727  0.49951701  1
  Sn  Sn32  1  0.16717665  0.16594357  0.50122183  1
  Sn  Sn33  1  0.83298963  0.49976723  0.16631537  1
  Sn  Sn34  1  0.83315069  0.50084461  0.83308347  1
  Sn  Sn35  1  0.83297897  0.49867725  0.50063549  1
  Sn  Sn36  1  0.49833118  0.83356563  0.50072180  1
  Sn  Sn37  1  0.83341263  0.83413972  0.16555419  1
  Sn  Sn38  1  0.49996013  0.16605781  0.49943888  1
  Sn  Sn39  1  0.16703771  0.16669163  0.83269294  1
  Sn  Sn40  1  0.83219967  0.16597917  0.16750015  1
  Pb  Pb41  1  0.50176205  0.83516532  0.16693911  1
  Pb  Pb42  1  0.50233858  0.50353513  0.83341688  1
  Pb  Pb43  1  0.50267169  0.49672739  0.16663781  1
  Pb  Pb44  1  0.16420796  0.49984883  0.49996907  1
  Pb  Pb45  1  0.49722151  0.16458926  0.83364556  1
  Pb  Pb46  1  0.83459335  0.16604973  0.83337297  1
  Pb  Pb47  1  0.16691737  0.83475776  0.83132487  1
  Pb  Pb48  1  0.16388764  0.49711940  0.83317223  1
  Pb  Pb49  1  0.50273322  0.50009330  0.50012207  1
  Pb  Pb50  1  0.16388312  0.83339504  0.17044068  1
  Pb  Pb51  1  0.16705723  0.16669872  0.16725402  1
  Pb  Pb52  1  0.16387069  0.50004063  0.16674278  1
  Pb  Pb53  1  0.83301003  0.83378273  0.50018646  1
  I  I54  1  0.16141893  0.00017842  0.16384774  1
  I  I55  1  0.16288824  0.00145183  0.50361896  1
  I  I56  1  0.16191511  0.00257475  0.83066687  1
  I  I57  1  0.16393554  0.33290764  0.16833286  1
  I  I58  1  0.16782661  0.32965136  0.50278410  1
  I  I59  1  0.16550786  0.32927945  0.82605600  1
  I  I60  1  0.16561142  0.66697430  0.16767472  1
  I  I61  1  0.16783739  0.66964329  0.50049472  1
  I  I62  1  0.16680089  0.66673617  0.83133455  1
  I  I63  1  0.50789402  0.00311557  0.16886933  1
  I  I64  1  0.50303824  0.00092006  0.49989853  1
  I  I65  1  0.50935913  -0.00297082  0.83097045  1
  I  I66  1  0.50522955  0.32849565  0.17373833  1
  I  I67  1  0.49792396  0.32969761  0.49552732  1
  I  I68  1  0.50047537  0.33310535  0.83302511  1
  I  I69  1  0.50234683  0.66681493  0.16774122  1
  I  I70  1  0.49784616  0.67009184  0.50486181  1
  I  I71  1  0.50253002  0.67160635  0.82556109  1
  I  I72  1  0.82994063  0.00088126  0.16773075  1
  I  I73  1  0.83386486  0.00289153  0.49707222  1
  I  I74  1  0.83126301  -0.00277831  0.83575688  1
  I  I75  1  0.83048283  0.33261150  0.16746294  1
  I  I76  1  0.83439181  0.33186308  0.49696646  1
  I  I77  1  0.83674544  0.33525149  0.83524489  1
  I  I78  1  0.83461450  0.66668016  0.16810130  1
  I  I79  1  0.83369915  0.66492056  0.49735749  1
  I  I80  1  0.83009264  0.66723629  0.83543229  1
  I  I81  1  0.16353371  0.16633865  -0.00214451  1
  I  I82  1  0.16457577  0.16286006  0.33694007  1
  I  I83  1  0.16341106  0.16234817  0.66437518  1
  I  I84  1  0.16427937  0.49768873  -0.00025575  1
  I  I85  1  0.16316950  0.49801168  0.33365502  1
  I  I86  1  0.16164254  0.50116107  0.66650878  1
  I  I87  1  0.16773667  0.83551739  0.00001676  1
  I  I88  1  0.16972130  0.84276133  0.33822411  1
  I  I89  1  0.16308431  0.83717634  0.66338702  1
  I  I90  1  0.50649841  0.16560038  0.00255021  1
  I  I91  1  0.50090181  0.16030004  0.33498785  1
  I  I92  1  0.50416371  0.16429131  0.66342968  1
  I  I93  1  0.50340428  0.49787936  -0.00000369  1
  I  I94  1  0.50329750  0.50539503  0.33346867  1
  I  I95  1  0.50460265  0.49472432  0.66667072  1
  I  I96  1  0.50531411  0.83601916  -0.00230202  1
  I  I97  1  0.49881250  0.83678760  0.33647870  1
  I  I98  1  0.50487374  0.84005298  0.66562868  1
  I  I99  1  0.83096009  0.16911765  0.00269912  1
  I  I100  1  0.83515390  0.16889631  0.33399022  1
  I  I101  1  0.83167721  0.16908454  0.66370654  1
  I  I102  1  0.83326029  0.49954398  0.00032919  1
  I  I103  1  0.83408862  0.50007007  0.33327105  1
  I  I104  1  0.83379609  0.50035141  0.66646228  1
  I  I105  1  0.82801388  0.83090429  -0.00040739  1
  I  I106  1  0.83388600  0.83134215  0.33140805  1
  I  I107  1  0.83295962  0.83036811  0.66876593  1
  I  I108  1  -0.00349157  0.16817598  0.16979186  1
  I  I109  1  -0.00069255  0.16614622  0.49984195  1
  I  I110  1  0.00212765  0.16503173  0.82817419  1
  I  I111  1  -0.00537630  0.49547487  0.16800444  1
  I  I112  1  -0.00442910  0.49680807  0.49856859  1
  I  I113  1  -0.00471906  0.50753366  0.83323185  1
  I  I114  1  -0.00497336  0.83615498  0.16160281  1
  I  I115  1  0.00142999  0.83705414  0.49952961  1
  I  I116  1  -0.00297262  0.83037342  0.83560022  1
  I  I117  1  0.33639657  0.16374924  0.17026335  1
  I  I118  1  0.33373786  0.16009737  0.49937469  1
  I  I119  1  0.32990300  0.16304436  0.82853317  1
  I  I120  1  0.33376312  0.49880308  0.16639392  1
  I  I121  1  0.33346214  0.49774255  0.50049897  1
  I  I122  1  0.33323669  0.49993879  0.83299938  1
  I  I123  1  0.33348214  0.83650992  0.16313602  1
  I  I124  1  0.33426205  0.84480435  0.50674238  1
  I  I125  1  0.33598099  0.83871711  0.82995620  1
  I  I126  1  0.66846112  0.16658860  0.17487820  1
  I  I127  1  0.66703930  0.16598752  0.49503576  1
  I  I128  1  0.66662496  0.16835436  0.83120833  1
  I  I129  1  0.67139901  0.50285810  0.16804484  1
  I  I130  1  0.67122013  0.49654872  0.49906724  1
  I  I131  1  0.67116842  0.49826566  0.83333478  1
  I  I132  1  0.67049165  0.83146797  0.16835846  1
  I  I133  1  0.66456763  0.83675887  0.50096444  1
  I  I134  1  0.66789039  0.83102467  0.83019331  1
