# generated using pymatgen
data_Cs27Sn13Pb14I81
_symmetry_space_group_name_H-M   'P 1'
_cell_length_a   18.97491023
_cell_length_b   18.97990143
_cell_length_c   18.97557523
_cell_angle_alpha   89.99991689
_cell_angle_beta   89.99942002
_cell_angle_gamma   90.00014044
_symmetry_Int_Tables_number   1
_chemical_formula_structural   Cs27Sn13Pb14I81
_chemical_formula_sum   'Cs27 Sn13 Pb14 I81'
_cell_volume   6833.90020524
_cell_formula_units_Z   1
loop_
 _symmetry_equiv_pos_site_id
 _symmetry_equiv_pos_as_xyz
  1  'x, y, z'
loop_
 _atom_site_type_symbol
 _atom_site_label
 _atom_site_symmetry_multiplicity
 _atom_site_fract_x
 _atom_site_fract_y
 _atom_site_fract_z
 _atom_site_occupancy
  Cs  Cs0  1  -0.00273287  -0.00345116  0.01017362  1
  Cs  Cs1  1  -0.00116526  -0.00115205  0.32938977  1
  Cs  Cs2  1  0.00229502  0.00268101  0.66433953  1
  Cs  Cs3  1  -0.00024190  0.33665419  -0.00258643  1
  Cs  Cs4  1  -0.00187181  0.33515846  0.33535538  1
  Cs  Cs5  1  0.00059177  0.33239021  0.66675917  1
  Cs  Cs6  1  -0.00164543  0.66580863  0.00196732  1
  Cs  Cs7  1  0.00019792  0.66626466  0.33370836  1
  Cs  Cs8  1  0.00123204  0.66518482  0.66496222  1
  Cs  Cs9  1  0.33121815  0.00150108  0.00079196  1
  Cs  Cs10  1  0.33201178  0.00100619  0.33069358  1
  Cs  Cs11  1  0.33387663  0.00040536  0.66732702  1
  Cs  Cs12  1  0.33464297  0.33274927  -0.00085837  1
  Cs  Cs13  1  0.33727629  0.33556977  0.33206665  1
  Cs  Cs14  1  0.33150373  0.33212946  0.66741142  1
  Cs  Cs15  1  0.33241238  0.66641802  -0.00081573  1
  Cs  Cs16  1  0.33769056  0.66366721  0.33614790  1
  Cs  Cs17  1  0.33360291  0.66804286  0.66468083  1
  Cs  Cs18  1  0.67413656  -0.00523964  0.00242095  1
  Cs  Cs19  1  0.66927041  0.00273571  0.33265628  1
  Cs  Cs20  1  0.66514150  -0.00071282  0.66703114  1
  Cs  Cs21  1  0.66435463  0.33333140  -0.00009168  1
  Cs  Cs22  1  0.66520728  0.33270374  0.32988246  1
  Cs  Cs23  1  0.67048250  0.32837042  0.67030913  1
  Cs  Cs24  1  0.66896938  0.66945239  -0.00262667  1
  Cs  Cs25  1  0.66299676  0.66514078  0.33459276  1
  Cs  Cs26  1  0.66555929  0.67177311  0.66781633  1
  Sn  Sn27  1  0.16765648  0.16596478  0.50028789  1
  Sn  Sn28  1  0.49951178  0.83337502  0.16663479  1
  Sn  Sn29  1  0.16697891  0.16621278  0.83295517  1
  Sn  Sn30  1  0.83384965  0.50001797  0.16753135  1
  Sn  Sn31  1  0.49895108  0.16676701  0.50062197  1
  Sn  Sn32  1  0.16757394  0.50014175  0.83398679  1
  Sn  Sn33  1  0.16614553  0.83403477  0.50055877  1
  Sn  Sn34  1  0.16647869  0.83364555  0.83294453  1
  Sn  Sn35  1  0.49926304  0.16714873  0.83261837  1
  Sn  Sn36  1  0.83319947  0.50073835  0.49963687  1
  Sn  Sn37  1  0.83408685  0.83243107  0.50032722  1
  Sn  Sn38  1  0.16644285  0.49987295  0.16619780  1
  Sn  Sn39  1  0.49920559  0.49971704  0.83285337  1
  Pb  Pb40  1  0.83121911  0.83070349  0.16952761  1
  Pb  Pb41  1  0.50294771  0.49742943  0.50296066  1
  Pb  Pb42  1  0.16662082  0.16947237  0.16670301  1
  Pb  Pb43  1  0.49986428  0.16442676  0.16569573  1
  Pb  Pb44  1  0.83336870  0.50007339  0.83304682  1
  Pb  Pb45  1  0.83399316  0.16631259  0.83355906  1
  Pb  Pb46  1  0.16569342  0.49971448  0.50040769  1
  Pb  Pb47  1  0.49777408  0.83409923  0.83490977  1
  Pb  Pb48  1  0.83351491  0.16979053  0.16656008  1
  Pb  Pb49  1  0.16800967  0.83087126  0.16738945  1
  Pb  Pb50  1  0.50013307  0.50152227  0.16420481  1
  Pb  Pb51  1  0.49944784  0.83570762  0.49853167  1
  Pb  Pb52  1  0.83375478  0.16653433  0.50001721  1
  Pb  Pb53  1  0.83679994  0.83346383  0.83069673  1
  I  I54  1  0.16805904  -0.00022352  0.16404983  1
  I  I55  1  0.16491098  -0.00016131  0.50777076  1
  I  I56  1  0.17160047  0.00053173  0.82682274  1
  I  I57  1  0.16378876  0.33750642  0.16306736  1
  I  I58  1  0.16809120  0.33075612  0.50310323  1
  I  I59  1  0.17018171  0.33335786  0.83298097  1
  I  I60  1  0.16357871  0.66315419  0.16206681  1
  I  I61  1  0.16354132  0.66895982  0.50287413  1
  I  I62  1  0.17015491  0.66614858  0.83297569  1
  I  I63  1  0.49875708  -0.00301581  0.16603632  1
  I  I64  1  0.50074147  0.00342266  0.50652666  1
  I  I65  1  0.49535857  0.00328725  0.82991973  1
  I  I66  1  0.50083225  0.33345533  0.16813772  1
  I  I67  1  0.49384481  0.32974430  0.50009835  1
  I  I68  1  0.49253012  0.33311466  0.83078915  1
  I  I69  1  0.49917317  0.66894578  0.16619441  1
  I  I70  1  0.49845101  0.66665364  0.49998129  1
  I  I71  1  0.49611720  0.66445856  0.83622359  1
  I  I72  1  0.83178848  -0.00063489  0.16729487  1
  I  I73  1  0.83470360  -0.00272842  0.50131570  1
  I  I74  1  0.83044759  -0.00021514  0.83112795  1
  I  I75  1  0.83634150  0.33808442  0.17381356  1
  I  I76  1  0.83393212  0.33599393  0.49600906  1
  I  I77  1  0.83724061  0.33353777  0.83107426  1
  I  I78  1  0.83763852  0.66313144  0.16785670  1
  I  I79  1  0.83989109  0.66674056  0.49677147  1
  I  I80  1  0.83202248  0.66658478  0.83441377  1
  I  I81  1  0.17184384  0.16495307  -0.00363927  1
  I  I82  1  0.16990683  0.16284226  0.33679344  1
  I  I83  1  0.17013710  0.16808953  0.66695543  1
  I  I84  1  0.16427108  0.50006211  -0.00136127  1
  I  I85  1  0.16336087  0.50064281  0.33145000  1
  I  I86  1  0.16833155  0.49994505  0.66961134  1
  I  I87  1  0.17038211  0.83543137  -0.00266298  1
  I  I88  1  0.16374606  0.83701597  0.33665355  1
  I  I89  1  0.16397194  0.83144105  0.66658393  1
  I  I90  1  0.49402584  0.17114945  -0.00389316  1
  I  I91  1  0.49631942  0.16466132  0.33606607  1
  I  I92  1  0.49581985  0.16995387  0.66725505  1
  I  I93  1  0.49962045  0.49391428  -0.00356963  1
  I  I94  1  0.49801520  0.49938829  0.33344296  1
  I  I95  1  0.49320885  0.50040757  0.67060348  1
  I  I96  1  0.49795028  0.83310155  0.00237422  1
  I  I97  1  0.49813141  0.83308617  0.33106858  1
  I  I98  1  0.50222335  0.83142535  0.66671158  1
  I  I99  1  0.83265246  0.16802936  -0.00006937  1
  I  I100  1  0.83273215  0.16531962  0.33376986  1
  I  I101  1  0.83307363  0.17058515  0.66648593  1
  I  I102  1  0.83524116  0.49918099  0.00235899  1
  I  I103  1  0.84004715  0.50341039  0.33340251  1
  I  I104  1  0.83424542  0.50296579  0.66388582  1
  I  I105  1  0.83289782  0.83256737  0.00031660  1
  I  I106  1  0.84058026  0.83231176  0.33714425  1
  I  I107  1  0.83268102  0.82587453  0.66266111  1
  I  I108  1  0.00041996  0.16336938  0.16695904  1
  I  I109  1  0.00338662  0.16663068  0.50538453  1
  I  I110  1  0.00448087  0.16957081  0.82719354  1
  I  I111  1  0.00055217  0.50082453  0.16399833  1
  I  I112  1  -0.00228948  0.49931677  0.50051642  1
  I  I113  1  0.00344057  0.49899085  0.83431791  1
  I  I114  1  0.00002338  0.83366412  0.16465590  1
  I  I115  1  0.00128503  0.83483008  0.50386042  1
  I  I116  1  0.00520572  0.83205605  0.83332301  1
  I  I117  1  0.33321237  0.16907121  0.16836472  1
  I  I118  1  0.33214817  0.16140985  0.50449443  1
  I  I119  1  0.33238925  0.16841008  0.82858566  1
  I  I120  1  0.33084742  0.50142227  0.16398522  1
  I  I121  1  0.33346537  0.50275736  0.49680009  1
  I  I122  1  0.33169052  0.49883482  0.83900224  1
  I  I123  1  0.33538043  0.83068110  0.16824502  1
  I  I124  1  0.33006384  0.83493927  0.50284708  1
  I  I125  1  0.32955766  0.83186906  0.82720308  1
  I  I126  1  0.66637845  0.16808234  0.16785199  1
  I  I127  1  0.66393635  0.16714516  0.50441425  1
  I  I128  1  0.66302199  0.17350472  0.82843985  1
  I  I129  1  0.66913613  0.50155868  0.17004291  1
  I  I130  1  0.67058010  0.50498468  0.49450968  1
  I  I131  1  0.66381833  0.49430564  0.83335032  1
  I  I132  1  0.66384122  0.83202495  0.16638469  1
  I  I133  1  0.66886654  0.83031418  0.49681402  1
  I  I134  1  0.66652668  0.83231222  0.83389047  1
