# generated using pymatgen
data_Cs27Sn13Pb14I81
_symmetry_space_group_name_H-M   'P 1'
_cell_length_a   18.97451840
_cell_length_b   18.97543526
_cell_length_c   18.98023660
_cell_angle_alpha   90.00122605
_cell_angle_beta   89.99978080
_cell_angle_gamma   89.99860176
_symmetry_Int_Tables_number   1
_chemical_formula_structural   Cs27Sn13Pb14I81
_chemical_formula_sum   'Cs27 Sn13 Pb14 I81'
_cell_volume   6833.82935356
_cell_formula_units_Z   1
loop_
 _symmetry_equiv_pos_site_id
 _symmetry_equiv_pos_as_xyz
  1  'x, y, z'
loop_
 _atom_site_type_symbol
 _atom_site_label
 _atom_site_symmetry_multiplicity
 _atom_site_fract_x
 _atom_site_fract_y
 _atom_site_fract_z
 _atom_site_occupancy
  Cs  Cs0  1  0.00096896  -0.00019115  0.00099597  1
  Cs  Cs1  1  -0.00040711  -0.00277442  0.32866003  1
  Cs  Cs2  1  0.00008846  0.00159860  0.66828891  1
  Cs  Cs3  1  -0.00076800  0.33241099  -0.00123575  1
  Cs  Cs4  1  0.00016881  0.33425050  0.33643408  1
  Cs  Cs5  1  0.00088203  0.33331828  0.66590048  1
  Cs  Cs6  1  0.00180037  0.66804612  0.00195208  1
  Cs  Cs7  1  -0.00268010  0.66817484  0.33422403  1
  Cs  Cs8  1  -0.00214615  0.66455950  0.66292963  1
  Cs  Cs9  1  0.33067517  0.00020885  -0.00131258  1
  Cs  Cs10  1  0.33378345  -0.00224412  0.33660492  1
  Cs  Cs11  1  0.33349798  0.00132151  0.66407330  1
  Cs  Cs12  1  0.33302224  0.33559925  -0.00180108  1
  Cs  Cs13  1  0.33360707  0.33137108  0.33546393  1
  Cs  Cs14  1  0.33072797  0.33273687  0.66654521  1
  Cs  Cs15  1  0.33364367  0.66467465  0.00104771  1
  Cs  Cs16  1  0.33696801  0.66942415  0.33146168  1
  Cs  Cs17  1  0.33339691  0.66569065  0.66833973  1
  Cs  Cs18  1  0.66856367  0.00248966  -0.00220543  1
  Cs  Cs19  1  0.66726753  0.00325250  0.33007919  1
  Cs  Cs20  1  0.66740520  -0.00174736  0.67096610  1
  Cs  Cs21  1  0.66801286  0.33176701  0.00174670  1
  Cs  Cs22  1  0.66564600  0.33377630  0.33018283  1
  Cs  Cs23  1  0.66834615  0.33070589  0.66863462  1
  Cs  Cs24  1  0.66494249  0.66604144  -0.00327117  1
  Cs  Cs25  1  0.66259178  0.66438001  0.33669138  1
  Cs  Cs26  1  0.66712495  0.67100669  0.66489583  1
  Sn  Sn27  1  0.16697502  0.16764319  0.16625778  1
  Sn  Sn28  1  0.50025866  0.83310989  0.16683826  1
  Sn  Sn29  1  0.16605571  0.16616146  0.83398437  1
  Sn  Sn30  1  0.83339944  0.50020291  0.16599817  1
  Sn  Sn31  1  0.49973107  0.50011577  0.49985529  1
  Sn  Sn32  1  0.83337092  0.16653007  0.50044051  1
  Sn  Sn33  1  0.16659476  0.83362371  0.83219282  1
  Sn  Sn34  1  0.49991534  0.50059627  0.16726951  1
  Sn  Sn35  1  0.49923526  0.83263842  0.49932950  1
  Sn  Sn36  1  0.16666081  0.49912999  0.16693566  1
  Sn  Sn37  1  0.16690414  0.83310519  0.50096769  1
  Sn  Sn38  1  0.83341234  0.49963278  0.83388670  1
  Sn  Sn39  1  0.83442084  0.16758160  0.83261257  1
  Pb  Pb40  1  0.16889836  0.50238667  0.49736954  1
  Pb  Pb41  1  0.49716710  0.16690990  0.16654355  1
  Pb  Pb42  1  0.83105249  0.49829892  0.50002454  1
  Pb  Pb43  1  0.49741459  0.83332313  0.83324414  1
  Pb  Pb44  1  0.16829872  0.83317516  0.16674218  1
  Pb  Pb45  1  0.83268268  0.83585075  0.49987569  1
  Pb  Pb46  1  0.83601354  0.83332571  0.83351810  1
  Pb  Pb47  1  0.16490700  0.16470478  0.49998227  1
  Pb  Pb48  1  0.49968075  0.16676422  0.83338654  1
  Pb  Pb49  1  0.50238813  0.16636253  0.50002116  1
  Pb  Pb50  1  0.83558821  0.16863282  0.16621406  1
  Pb  Pb51  1  0.16460732  0.49989277  0.83496475  1
  Pb  Pb52  1  0.82986896  0.83031951  0.16665514  1
  Pb  Pb53  1  0.50262864  0.49992029  0.83331443  1
  I  I54  1  0.16778542  0.00207487  0.16531998  1
  I  I55  1  0.17298998  -0.00318964  0.49906090  1
  I  I56  1  0.16143908  0.00100935  0.83646537  1
  I  I57  1  0.16846770  0.33379005  0.16086906  1
  I  I58  1  0.16800866  0.33343962  0.50172767  1
  I  I59  1  0.16419519  0.33051883  0.83633241  1
  I  I60  1  0.16552018  0.66396896  0.16609557  1
  I  I61  1  0.16696859  0.67037535  0.50503504  1
  I  I62  1  0.16629578  0.66902021  0.83172660  1
  I  I63  1  0.49708464  -0.00287212  0.17195332  1
  I  I64  1  0.49637859  -0.00353066  0.49533036  1
  I  I65  1  0.50466584  -0.00016203  0.83388118  1
  I  I66  1  0.50194788  0.33699267  0.17094288  1
  I  I67  1  0.50235049  0.33622336  0.49413363  1
  I  I68  1  0.49570538  0.33357614  0.83303724  1
  I  I69  1  0.49792221  0.66545853  0.17079908  1
  I  I70  1  0.49745665  0.66705219  0.49475304  1
  I  I71  1  0.50004342  0.66659358  0.83402050  1
  I  I72  1  0.83348584  0.00022633  0.16633750  1
  I  I73  1  0.83232363  0.00360120  0.50695914  1
  I  I74  1  0.83486323  0.00326624  0.82900141  1
  I  I75  1  0.82815275  0.33678219  0.16540146  1
  I  I76  1  0.83275563  0.33060543  0.50170083  1
  I  I77  1  0.83865277  0.33260856  0.83337597  1
  I  I78  1  0.83989076  0.66188583  0.16166981  1
  I  I79  1  0.83484978  0.66657407  0.50018712  1
  I  I80  1  0.83352691  0.66371639  0.83825501  1
  I  I81  1  0.16129278  0.16391205  -0.00075637  1
  I  I82  1  0.16534671  0.16943373  0.33083986  1
  I  I83  1  0.16410603  0.16386280  0.66950482  1
  I  I84  1  0.17138986  0.50120574  0.00334129  1
  I  I85  1  0.16158248  0.49505382  0.32907946  1
  I  I86  1  0.16703405  0.49813929  0.66649190  1
  I  I87  1  0.16737152  0.83499277  -0.00194697  1
  I  I88  1  0.16945540  0.83363931  0.33541637  1
  I  I89  1  0.17218990  0.83926551  0.66671259  1
  I  I90  1  0.50412429  0.16617578  0.00022989  1
  I  I91  1  0.50098613  0.16670147  0.33324667  1
  I  I92  1  0.49656797  0.16733151  0.66648829  1
  I  I93  1  0.49820068  0.50452138  0.00355581  1
  I  I94  1  0.50188023  0.50442012  0.33201533  1
  I  I95  1  0.50194226  0.50506870  0.66365053  1
  I  I96  1  0.49848934  0.82770078  0.00294312  1
  I  I97  1  0.49304896  0.82820318  0.33383065  1
  I  I98  1  0.49836267  0.82869293  0.66333639  1
  I  I99  1  0.83576281  0.16917471  -0.00291055  1
  I  I100  1  0.83389432  0.16737193  0.33501265  1
  I  I101  1  0.83846448  0.17259634  0.66835296  1
  I  I102  1  0.83130806  0.49408139  0.00060517  1
  I  I103  1  0.83446361  0.49812415  0.33047201  1
  I  I104  1  0.83236922  0.49734841  0.66913504  1
  I  I105  1  0.83353544  0.83731252  0.00009683  1
  I  I106  1  0.83998775  0.83551214  0.33328655  1
  I  I107  1  0.82934398  0.82894350  0.66672666  1
  I  I108  1  0.00349539  0.17047343  0.16543817  1
  I  I109  1  -0.00279976  0.16665954  0.50171778  1
  I  I110  1  0.00022661  0.16654182  0.83351226  1
  I  I111  1  0.00010803  0.49501878  0.16141889  1
  I  I112  1  -0.00003363  0.50118464  0.49842117  1
  I  I113  1  -0.00330910  0.49855557  0.83857983  1
  I  I114  1  0.00024115  0.83237064  0.16739486  1
  I  I115  1  0.00271857  0.83515349  0.50384783  1
  I  I116  1  0.00407088  0.83500327  0.82876108  1
  I  I117  1  0.32917257  0.17174677  0.16100634  1
  I  I118  1  0.33319652  0.16785910  0.50037182  1
  I  I119  1  0.32930440  0.16270508  0.83748152  1
  I  I120  1  0.33368709  0.50059660  0.17043799  1
  I  I121  1  0.33692870  0.50043598  0.49492115  1
  I  I122  1  0.33307898  0.49938211  0.83470859  1
  I  I123  1  0.33604508  0.82736888  0.16788623  1
  I  I124  1  0.33380104  0.83098157  0.49942512  1
  I  I125  1  0.32939866  0.83929583  0.83274621  1
  I  I126  1  0.66685297  0.16677529  0.16618179  1
  I  I127  1  0.67022551  0.16581181  0.50600655  1
  I  I128  1  0.67037142  0.17038471  0.82995272  1
  I  I129  1  0.66625722  0.50433124  0.16690798  1
  I  I130  1  0.66326007  0.50653041  0.49382707  1
  I  I131  1  0.67060187  0.49353635  0.83904318  1
  I  I132  1  0.66180117  0.82936527  0.17364038  1
  I  I133  1  0.66309555  0.82959990  0.49541586  1
  I  I134  1  0.66671399  0.83415375  0.83310133  1
