# generated using pymatgen
data_Cs27Sn13Pb14I81
_symmetry_space_group_name_H-M   'P 1'
_cell_length_a   18.98377597
_cell_length_b   18.98377594
_cell_length_c   18.96511324
_cell_angle_alpha   89.99789843
_cell_angle_beta   90.00210152
_cell_angle_gamma   90.00078962
_symmetry_Int_Tables_number   1
_chemical_formula_structural   Cs27Sn13Pb14I81
_chemical_formula_sum   'Cs27 Sn13 Pb14 I81'
_cell_volume   6834.71860840
_cell_formula_units_Z   1
loop_
 _symmetry_equiv_pos_site_id
 _symmetry_equiv_pos_as_xyz
  1  'x, y, z'
loop_
 _atom_site_type_symbol
 _atom_site_label
 _atom_site_symmetry_multiplicity
 _atom_site_fract_x
 _atom_site_fract_y
 _atom_site_fract_z
 _atom_site_occupancy
  Cs  Cs0  1  -0.00220611  0.00165369  -0.00034295  1
  Cs  Cs1  1  0.00433805  -0.00233096  0.33223214  1
  Cs  Cs2  1  0.00017864  -0.00046822  0.66692880  1
  Cs  Cs3  1  0.00162927  0.33441249  0.00392141  1
  Cs  Cs4  1  -0.00457114  0.33392766  0.32953782  1
  Cs  Cs5  1  0.00197056  0.33242186  0.66691417  1
  Cs  Cs6  1  0.00265691  0.66400953  -0.00072546  1
  Cs  Cs7  1  -0.00269014  0.66935690  0.33744804  1
  Cs  Cs8  1  -0.00200000  0.66866658  0.66295200  1
  Cs  Cs9  1  0.33276558  -0.00172528  0.00154488  1
  Cs  Cs10  1  0.33342331  -0.00218316  0.32678553  1
  Cs  Cs11  1  0.33380854  0.00118229  0.66644347  1
  Cs  Cs12  1  0.32823449  0.33843216  0.00071794  1
  Cs  Cs13  1  0.33637027  0.33029646  0.33370546  1
  Cs  Cs14  1  0.33315131  0.33351536  0.66698124  1
  Cs  Cs15  1  0.33225429  0.66503743  0.00392136  1
  Cs  Cs16  1  0.33273909  0.67123777  0.32953793  1
  Cs  Cs17  1  0.33424465  0.66469602  0.66691416  1
  Cs  Cs18  1  0.66893136  -0.00226478  -0.00120439  1
  Cs  Cs19  1  0.66168345  0.00498318  0.32829559  1
  Cs  Cs20  1  0.66622780  0.00043894  0.66831293  1
  Cs  Cs21  1  0.66839178  0.33390106  0.00154485  1
  Cs  Cs22  1  0.66884994  0.33324327  0.32678549  1
  Cs  Cs23  1  0.66548436  0.33285805  0.66644345  1
  Cs  Cs24  1  0.66501285  0.66887275  -0.00034283  1
  Cs  Cs25  1  0.66899772  0.66232858  0.33223260  1
  Cs  Cs26  1  0.66713491  0.66648805  0.66692878  1
  Sn  Sn27  1  0.16747596  0.49919066  0.50045525  1
  Sn  Sn28  1  0.49884265  0.83319611  0.83238849  1
  Sn  Sn29  1  0.49912067  0.50073242  0.50079433  1
  Sn  Sn30  1  0.49973048  0.16693619  0.83297618  1
  Sn  Sn31  1  0.50018786  0.83265742  0.50085325  1
  Sn  Sn32  1  0.83400928  0.16647884  0.50085324  1
  Sn  Sn33  1  0.83339966  0.83326696  0.16682986  1
  Sn  Sn34  1  0.16593428  0.16754601  0.50079429  1
  Sn  Sn35  1  0.83347057  0.16782399  0.83238846  1
  Sn  Sn36  1  0.83274849  0.49923166  0.83266239  1
  Sn  Sn37  1  0.16672000  0.16579377  0.83259042  1
  Sn  Sn38  1  0.50087294  0.49994667  0.83259040  1
  Sn  Sn39  1  0.16743499  0.83391815  0.83266238  1
  Pb  Pb40  1  0.83347892  0.16502906  0.16637893  1
  Pb  Pb41  1  0.83334257  0.50242437  0.16347580  1
  Pb  Pb42  1  0.16880411  0.83381291  0.50196117  1
  Pb  Pb43  1  0.83285376  0.49786260  0.50196117  1
  Pb  Pb44  1  0.49973497  0.16693167  0.50138402  1
  Pb  Pb45  1  0.16424231  0.83332412  0.16347579  1
  Pb  Pb46  1  0.50163764  0.83318775  0.16637904  1
  Pb  Pb47  1  0.16664160  0.16681926  0.16689821  1
  Pb  Pb48  1  0.16670671  0.49995996  0.17135207  1
  Pb  Pb49  1  0.83332897  0.83333768  0.83401855  1
  Pb  Pb50  1  0.49981717  0.16684950  0.16243798  1
  Pb  Pb51  1  0.16676897  0.49989769  0.83180963  1
  Pb  Pb52  1  0.49984745  0.50002510  0.16689821  1
  Pb  Pb53  1  0.83024819  0.83641851  0.49792056  1
  I  I54  1  0.16660658  -0.00006083  0.17052790  1
  I  I55  1  0.16343517  0.00307088  0.50332702  1
  I  I56  1  0.16891094  0.00126049  0.82834508  1
  I  I57  1  0.16556886  0.33331113  0.15949791  1
  I  I58  1  0.16907785  0.33245826  0.50766369  1
  I  I59  1  0.16876759  0.33045183  0.83095760  1
  I  I60  1  0.16590852  0.66681126  0.16413693  1
  I  I61  1  0.16890791  0.66446482  0.50260602  1
  I  I62  1  0.16882373  0.66876212  0.83228005  1
  I  I63  1  0.50125761  -0.00016175  0.16866650  1
  I  I64  1  0.50146228  -0.00202260  0.50520078  1
  I  I65  1  0.50030747  -0.00007460  0.82925000  1
  I  I66  1  0.50197090  0.33346184  0.16871657  1
  I  I67  1  0.49848902  0.33593940  0.50554702  1
  I  I68  1  0.50131958  0.33350573  0.82877885  1
  I  I69  1  0.50164507  0.66669600  0.16180536  1
  I  I70  1  0.49524464  0.66602670  0.50891775  1
  I  I71  1  0.50109562  0.66659757  0.82953383  1
  I  I72  1  0.83185928  -0.00232081  0.16263777  1
  I  I73  1  0.83823796  0.00405724  0.50818447  1
  I  I74  1  0.83117247  0.00294994  0.83193973  1
  I  I75  1  0.83286175  0.33334100  0.16777953  1
  I  I76  1  0.83245321  0.32994006  0.50279470  1
  I  I77  1  0.82965492  0.33226839  0.82973355  1
  I  I78  1  0.83207435  0.66978387  0.16497443  1
  I  I79  1  0.83606177  0.66663683  0.50031820  1
  I  I80  1  0.83015724  0.66438305  0.83583137  1
  I  I81  1  0.16635954  0.16244752  -0.00416136  1
  I  I82  1  0.16138641  0.17104085  0.33732604  1
  I  I83  1  0.16561031  0.16651345  0.66781571  1
  I  I84  1  0.16650210  0.50016442  -0.00042847  1
  I  I85  1  0.17279795  0.49386865  0.33939277  1
  I  I86  1  0.16869392  0.49797307  0.66412208  1
  I  I87  1  0.17321393  0.83875838  -0.00496406  1
  I  I88  1  0.16794539  0.83366821  0.33361060  1
  I  I89  1  0.16695906  0.83581055  0.67017412  1
  I  I90  1  0.50142164  0.16524550  -0.00646211  1
  I  I91  1  0.50077131  0.16589497  0.33367515  1
  I  I92  1  0.50051830  0.16614835  0.67012307  1
  I  I93  1  0.50421916  0.50030667  -0.00416136  1
  I  I94  1  0.49562591  0.50528047  0.33732604  1
  I  I95  1  0.50015308  0.50105646  0.66781570  1
  I  I96  1  0.49799103  0.83376313  -0.00398232  1
  I  I97  1  0.50157867  0.82907287  0.33647030  1
  I  I98  1  0.49770003  0.83259012  0.66839367  1
  I  I99  1  0.83290360  0.16867528  -0.00398235  1
  I  I100  1  0.83759399  0.16508826  0.33647028  1
  I  I101  1  0.83407639  0.16896671  0.66839362  1
  I  I102  1  0.82790852  0.49345254  -0.00496405  1
  I  I103  1  0.83299821  0.49872119  0.33361058  1
  I  I104  1  0.83085611  0.49970791  0.67017415  1
  I  I105  1  0.83145191  0.83521559  0.00143215  1
  I  I106  1  0.83208010  0.83458599  0.33062698  1
  I  I107  1  0.83447594  0.83219040  0.66664365  1
  I  I108  1  -0.00002934  0.16502116  0.16180569  1
  I  I109  1  0.00064000  0.17142215  0.50891788  1
  I  I110  1  0.00006907  0.16557085  0.82953364  1
  I  I111  1  -0.00014469  0.50075757  0.16413715  1
  I  I112  1  0.00220188  0.49775876  0.50260608  1
  I  I113  1  -0.00209543  0.49784307  0.83227992  1
  I  I114  1  -0.00311718  0.83459310  0.16497500  1
  I  I115  1  0.00002984  0.83060487  0.50031830  1
  I  I116  1  0.00228362  0.83650955  0.83583099  1
  I  I117  1  0.33320478  0.16469649  0.16871601  1
  I  I118  1  0.33072729  0.16817763  0.50554712  1
  I  I119  1  0.33316094  0.16534688  0.82877908  1
  I  I120  1  0.33335553  0.50109762  0.15949797  1
  I  I121  1  0.33420842  0.49758886  0.50766350  1
  I  I122  1  0.33621478  0.49789907  0.83095774  1
  I  I123  1  0.33332572  0.83380454  0.16777960  1
  I  I124  1  0.33672658  0.83421341  0.50279457  1
  I  I125  1  0.33439828  0.83701202  0.82973358  1
  I  I126  1  0.66682839  0.16540871  0.16866690  1
  I  I127  1  0.66868923  0.16520437  0.50520060  1
  I  I128  1  0.66674129  0.16635955  0.82924994  1
  I  I129  1  0.66672755  0.50006087  0.17052763  1
  I  I130  1  0.66359585  0.50323153  0.50332717  1
  I  I131  1  0.66540614  0.49775567  0.82834505  1
  I  I132  1  0.66898753  0.83480703  0.16263683  1
  I  I133  1  0.66260949  0.82842875  0.50818434  1
  I  I134  1  0.66371670  0.83549385  0.83194013  1
