# generated using pymatgen
data_Cs27Sn13Pb14I81
_symmetry_space_group_name_H-M   'P 1'
_cell_length_a   19.24045666
_cell_length_b   19.27196898
_cell_length_c   19.27311647
_cell_angle_alpha   89.99919665
_cell_angle_beta   90.00703307
_cell_angle_gamma   89.99513573
_symmetry_Int_Tables_number   1
_chemical_formula_structural   Cs27Sn13Pb14I81
_chemical_formula_sum   'Cs27 Sn13 Pb14 I81'
_cell_volume   7146.50010522
_cell_formula_units_Z   1
loop_
 _symmetry_equiv_pos_site_id
 _symmetry_equiv_pos_as_xyz
  1  'x, y, z'
loop_
 _atom_site_type_symbol
 _atom_site_label
 _atom_site_symmetry_multiplicity
 _atom_site_fract_x
 _atom_site_fract_y
 _atom_site_fract_z
 _atom_site_occupancy
  Cs  Cs0  1  -0.00353546  -0.02136612  0.00013692  1
  Cs  Cs1  1  -0.01448066  -0.01614519  0.33634792  1
  Cs  Cs2  1  0.02227786  -0.00125767  0.66599595  1
  Cs  Cs3  1  -0.00138753  0.34238104  0.01096651  1
  Cs  Cs4  1  0.00148069  0.34947950  0.31828065  1
  Cs  Cs5  1  0.00568238  0.35863125  0.66263331  1
  Cs  Cs6  1  -0.00571218  0.67488009  0.01258691  1
  Cs  Cs7  1  -0.00600257  0.66226950  0.30961275  1
  Cs  Cs8  1  0.00814804  0.65142205  0.65659735  1
  Cs  Cs9  1  0.31870732  0.01905312  -0.01762103  1
  Cs  Cs10  1  0.35497820  0.01125803  0.35310479  1
  Cs  Cs11  1  0.30110295  0.00201342  0.65847377  1
  Cs  Cs12  1  0.32296851  0.34906123  0.03279959  1
  Cs  Cs13  1  0.33197441  0.30051953  0.30431795  1
  Cs  Cs14  1  0.33571975  0.34263036  0.65155062  1
  Cs  Cs15  1  0.34369415  0.65108577  0.01973124  1
  Cs  Cs16  1  0.36520826  0.67510630  0.31701425  1
  Cs  Cs17  1  0.30462714  0.66840012  0.65918551  1
  Cs  Cs18  1  0.67453794  0.00033894  -0.01441826  1
  Cs  Cs19  1  0.65507945  -0.00109757  0.33349327  1
  Cs  Cs20  1  0.67761492  0.00236727  0.69759295  1
  Cs  Cs21  1  0.68173260  0.32133725  -0.02378116  1
  Cs  Cs22  1  0.66503050  0.32942732  0.37349441  1
  Cs  Cs23  1  0.65631706  0.33543877  0.68453950  1
  Cs  Cs24  1  0.66858130  0.67921292  -0.01592080  1
  Cs  Cs25  1  0.65084351  0.67027077  0.35743993  1
  Cs  Cs26  1  0.65824176  0.65664110  0.68803731  1
  Sn  Sn27  1  0.82751870  0.49883456  0.16453623  1
  Sn  Sn28  1  0.83090483  0.83484422  0.16850622  1
  Sn  Sn29  1  0.16597197  0.49942920  0.49769252  1
  Sn  Sn30  1  0.16708446  0.83467836  0.16678763  1
  Sn  Sn31  1  0.49743581  0.83630235  0.83305210  1
  Sn  Sn32  1  0.49892445  0.16434128  0.83332476  1
  Sn  Sn33  1  0.16897448  0.49876064  0.83364475  1
  Sn  Sn34  1  0.83476902  0.83151039  0.82891868  1
  Sn  Sn35  1  0.83369907  0.16633006  0.16895477  1
  Sn  Sn36  1  0.83792722  0.16720175  0.83128814  1
  Sn  Sn37  1  0.83317325  0.83457058  0.50204908  1
  Sn  Sn38  1  0.83599968  0.16194189  0.50077818  1
  Sn  Sn39  1  0.83607409  0.50112737  0.83575304  1
  Pb  Pb40  1  0.50521260  0.16615688  0.50569647  1
  Pb  Pb41  1  0.16450767  0.50418844  0.16933774  1
  Pb  Pb42  1  0.50448635  0.83390993  0.50684223  1
  Pb  Pb43  1  0.16733222  0.83042057  0.83552302  1
  Pb  Pb44  1  0.50737066  0.16408709  0.16264000  1
  Pb  Pb45  1  0.50236572  0.83715693  0.16271922  1
  Pb  Pb46  1  0.49728476  0.49974086  0.83361992  1
  Pb  Pb47  1  0.16220286  0.16992260  0.49834442  1
  Pb  Pb48  1  0.49546613  0.50048120  0.50160969  1
  Pb  Pb49  1  0.83283278  0.50138970  0.49828118  1
  Pb  Pb50  1  0.16054750  0.16098124  0.16599631  1
  Pb  Pb51  1  0.16476242  0.17055616  0.83310757  1
  Pb  Pb52  1  0.16306591  0.83189041  0.49407315  1
  Pb  Pb53  1  0.50857330  0.49747612  0.16465150  1
  I  I54  1  0.14759040  -0.00437706  0.15647993  1
  I  I55  1  0.18392883  -0.00005458  0.48911304  1
  I  I56  1  0.16915376  -0.00076468  0.83866364  1
  I  I57  1  0.17777946  0.33549127  0.17041115  1
  I  I58  1  0.16338547  0.33561251  0.52561250  1
  I  I59  1  0.15047520  0.33558826  0.82042415  1
  I  I60  1  0.14286475  0.66882616  0.16104450  1
  I  I61  1  0.15852134  0.66581946  0.52084100  1
  I  I62  1  0.15414793  0.66580557  0.81700497  1
  I  I63  1  0.49048512  0.00049229  0.19364915  1
  I  I64  1  0.49689278  -0.00016296  0.48932952  1
  I  I65  1  0.53044104  -0.00123110  0.83783171  1
  I  I66  1  0.47980413  0.33291900  0.16435975  1
  I  I67  1  0.51103046  0.33387069  0.51470385  1
  I  I68  1  0.51363791  0.33165606  0.82912799  1
  I  I69  1  0.49774187  0.66568636  0.16083170  1
  I  I70  1  0.50760602  0.66721045  0.50106633  1
  I  I71  1  0.51374658  0.66777367  0.83844669  1
  I  I72  1  0.84981295  0.00039888  0.15798080  1
  I  I73  1  0.83101701  -0.00166088  0.49151342  1
  I  I74  1  0.81734397  0.00007213  0.84324111  1
  I  I75  1  0.83033327  0.33398751  0.15148643  1
  I  I76  1  0.83292998  0.32977888  0.49331901  1
  I  I77  1  0.83041612  0.33295014  0.83975479  1
  I  I78  1  0.85237417  0.66502939  0.15916875  1
  I  I79  1  0.83587049  0.67092190  0.49707020  1
  I  I80  1  0.82729657  0.66661507  0.84215317  1
  I  I81  1  0.17986751  0.18108205  -0.00091284  1
  I  I82  1  0.16606711  0.19037664  0.33282308  1
  I  I83  1  0.16635664  0.14884211  0.66688620  1
  I  I84  1  0.17938424  0.49570148  -0.00125542  1
  I  I85  1  0.14736543  0.50195855  0.33800066  1
  I  I86  1  0.14838507  0.50262050  0.66971692  1
  I  I87  1  0.14420837  0.82875550  0.00018090  1
  I  I88  1  0.13513323  0.82513187  0.32955009  1
  I  I89  1  0.18019430  0.84253157  0.66740747  1
  I  I90  1  0.51573875  0.15694642  -0.00346611  1
  I  I91  1  0.48735377  0.17885467  0.33380874  1
  I  I92  1  0.52548725  0.16415303  0.67122284  1
  I  I93  1  0.46563060  0.49361119  -0.00164070  1
  I  I94  1  0.50073568  0.51352543  0.33194014  1
  I  I95  1  0.52842749  0.49830476  0.66763627  1
  I  I96  1  0.52319364  0.83639140  -0.00121566  1
  I  I97  1  0.49138770  0.82701438  0.33225493  1
  I  I98  1  0.52398692  0.83573556  0.67263561  1
  I  I99  1  0.81468819  0.16464496  0.00025320  1
  I  I100  1  0.85204111  0.16272275  0.33077965  1
  I  I101  1  0.81321416  0.16293205  0.66629846  1
  I  I102  1  0.85521174  0.49748315  -0.00144977  1
  I  I103  1  0.84621830  0.49619951  0.32924514  1
  I  I104  1  0.82863483  0.49999110  0.66842486  1
  I  I105  1  0.83072496  0.83639514  -0.00029902  1
  I  I106  1  0.85942503  0.83186546  0.33290377  1
  I  I107  1  0.80867913  0.83860161  0.66552625  1
  I  I108  1  -0.00213556  0.18944925  0.15194135  1
  I  I109  1  -0.00280273  0.14691228  0.51589510  1
  I  I110  1  -0.00306646  0.14831771  0.83520000  1
  I  I111  1  -0.00053870  0.48287035  0.16561873  1
  I  I112  1  -0.00021046  0.49557552  0.50814570  1
  I  I113  1  -0.00239798  0.49772004  0.82908728  1
  I  I114  1  -0.00688113  0.83319995  0.15613315  1
  I  I115  1  -0.00105430  0.85077794  0.52572745  1
  I  I116  1  -0.00318455  0.85226577  0.82423868  1
  I  I117  1  0.33276118  0.16121852  0.15435100  1
  I  I118  1  0.33413365  0.17238205  0.50486266  1
  I  I119  1  0.33868352  0.14485839  0.82742799  1
  I  I120  1  0.33213533  0.51189542  0.17582199  1
  I  I121  1  0.33137573  0.50577824  0.53847568  1
  I  I122  1  0.33084595  0.50516168  0.80141850  1
  I  I123  1  0.32862120  0.80780640  0.15698481  1
  I  I124  1  0.33345677  0.82343477  0.49619604  1
  I  I125  1  0.33760345  0.84858457  0.84974891  1
  I  I126  1  0.67129221  0.15343008  0.18819247  1
  I  I127  1  0.66926250  0.15728767  0.46971247  1
  I  I128  1  0.67165461  0.17478532  0.83425011  1
  I  I129  1  0.67079491  0.51421330  0.13739559  1
  I  I130  1  0.66636909  0.50168352  0.48279368  1
  I  I131  1  0.66842524  0.50088655  0.84962050  1
  I  I132  1  0.66942259  0.83375123  0.18692146  1
  I  I133  1  0.66967067  0.83887192  0.46382248  1
  I  I134  1  0.67349627  0.82466443  0.83821068  1
