# generated using pymatgen
data_Cs27Sn13Pb14I81
_symmetry_space_group_name_H-M   'P 1'
_cell_length_a   18.97375693
_cell_length_b   18.97798607
_cell_length_c   18.97858559
_cell_angle_alpha   90.00069988
_cell_angle_beta   90.00045220
_cell_angle_gamma   89.99920050
_symmetry_Int_Tables_number   1
_chemical_formula_structural   Cs27Sn13Pb14I81
_chemical_formula_sum   'Cs27 Sn13 Pb14 I81'
_cell_volume   6833.87921932
_cell_formula_units_Z   1
loop_
 _symmetry_equiv_pos_site_id
 _symmetry_equiv_pos_as_xyz
  1  'x, y, z'
loop_
 _atom_site_type_symbol
 _atom_site_label
 _atom_site_symmetry_multiplicity
 _atom_site_fract_x
 _atom_site_fract_y
 _atom_site_fract_z
 _atom_site_occupancy
  Cs  Cs0  1  -0.00254686  -0.00271285  0.00106438  1
  Cs  Cs1  1  0.00011922  -0.00163900  0.33214353  1
  Cs  Cs2  1  0.00163906  0.00062600  0.66678531  1
  Cs  Cs3  1  0.00358527  0.33541844  -0.00336157  1
  Cs  Cs4  1  -0.00657281  0.33216111  0.33522310  1
  Cs  Cs5  1  0.00060868  0.33340603  0.66718865  1
  Cs  Cs6  1  -0.00182864  0.66936241  0.00032170  1
  Cs  Cs7  1  0.00301234  0.67037205  0.33034127  1
  Cs  Cs8  1  -0.00261851  0.66611635  0.66826340  1
  Cs  Cs9  1  0.33492485  0.00202357  0.00059328  1
  Cs  Cs10  1  0.33304446  -0.00077347  0.33367953  1
  Cs  Cs11  1  0.33293211  0.00029226  0.66643204  1
  Cs  Cs12  1  0.33103392  0.33428265  0.00194589  1
  Cs  Cs13  1  0.33466886  0.33519248  0.33134988  1
  Cs  Cs14  1  0.32924139  0.33203545  0.66669384  1
  Cs  Cs15  1  0.33676531  0.66349104  -0.00245313  1
  Cs  Cs16  1  0.33135512  0.66544133  0.33400237  1
  Cs  Cs17  1  0.33483530  0.66694504  0.66640568  1
  Cs  Cs18  1  0.66675642  0.00003779  -0.00221383  1
  Cs  Cs19  1  0.66576745  0.00129516  0.33296729  1
  Cs  Cs20  1  0.66560629  -0.00262381  0.66911363  1
  Cs  Cs21  1  0.66724586  0.33765520  0.00269451  1
  Cs  Cs22  1  0.67097807  0.33414759  0.33301886  1
  Cs  Cs23  1  0.67061314  0.33294082  0.66385809  1
  Cs  Cs24  1  0.66453820  0.65863042  0.00001915  1
  Cs  Cs25  1  0.66689028  0.66483959  0.33383511  1
  Cs  Cs26  1  0.66692347  0.66934218  0.66802521  1
  Sn  Sn27  1  0.16676497  0.49907769  0.16778066  1
  Sn  Sn28  1  0.50059982  0.83336373  0.49904945  1
  Sn  Sn29  1  0.49949316  0.16599062  0.16677146  1
  Sn  Sn30  1  0.16696935  0.16709773  0.16701696  1
  Sn  Sn31  1  0.16708406  0.49995600  0.49919702  1
  Sn  Sn32  1  0.16624183  0.83355430  0.83324604  1
  Sn  Sn33  1  0.49981957  0.16679900  0.49990662  1
  Sn  Sn34  1  0.49927128  0.49984544  0.50012382  1
  Sn  Sn35  1  0.50001217  0.83377267  0.16729808  1
  Sn  Sn36  1  0.50076636  0.16678841  0.83341676  1
  Sn  Sn37  1  0.83394304  0.83424330  0.83259395  1
  Sn  Sn38  1  0.83258180  0.16606156  0.83351164  1
  Sn  Sn39  1  0.83279797  0.83365170  0.50030076  1
  Pb  Pb40  1  0.16699643  0.83160223  0.50163678  1
  Pb  Pb41  1  0.83351811  0.50272567  0.49997451  1
  Pb  Pb42  1  0.83301544  0.16658588  0.16418072  1
  Pb  Pb43  1  0.50050511  0.83471522  0.83340696  1
  Pb  Pb44  1  0.49995219  0.49614975  0.83017160  1
  Pb  Pb45  1  0.16855044  0.16865306  0.49758191  1
  Pb  Pb46  1  0.16922482  0.83335690  0.16462332  1
  Pb  Pb47  1  0.49861587  0.49960060  0.16880279  1
  Pb  Pb48  1  0.16676096  0.50250529  0.83322859  1
  Pb  Pb49  1  0.83700857  0.49999361  0.16688806  1
  Pb  Pb50  1  0.16667781  0.16483562  0.83538350  1
  Pb  Pb51  1  0.83014362  0.83341554  0.16631929  1
  Pb  Pb52  1  0.83322240  0.50004850  0.83321822  1
  Pb  Pb53  1  0.83110122  0.16409773  0.50207521  1
  I  I54  1  0.17024263  0.00245820  0.16374279  1
  I  I55  1  0.16767293  -0.00008913  0.49975348  1
  I  I56  1  0.16595362  -0.00286427  0.83412932  1
  I  I57  1  0.17420123  0.33280621  0.16833266  1
  I  I58  1  0.17259472  0.33674183  0.50027052  1
  I  I59  1  0.16639789  0.33313886  0.83232145  1
  I  I60  1  0.16811360  0.66431661  0.16974549  1
  I  I61  1  0.17305502  0.66372681  0.49406258  1
  I  I62  1  0.16119313  0.67034555  0.83493510  1
  I  I63  1  0.49441362  0.00112009  0.17103617  1
  I  I64  1  0.50451701  -0.00007588  0.49939203  1
  I  I65  1  0.50041124  0.00282931  0.82994579  1
  I  I66  1  0.49767150  0.33013366  0.16628785  1
  I  I67  1  0.49445553  0.33279811  0.50092565  1
  I  I68  1  0.50459508  0.32797922  0.83590820  1
  I  I69  1  0.49894935  0.66903780  0.17037562  1
  I  I70  1  0.49986679  0.66762717  0.49533157  1
  I  I71  1  0.50008826  0.66665662  0.83423007  1
  I  I72  1  0.83845785  -0.00007029  0.16849023  1
  I  I73  1  0.82820629  -0.00387411  0.50207183  1
  I  I74  1  0.83264949  -0.00072654  0.82961075  1
  I  I75  1  0.82794707  0.33305633  0.16530172  1
  I  I76  1  0.83253247  0.33315964  0.50172840  1
  I  I77  1  0.82838694  0.32988367  0.83434735  1
  I  I78  1  0.83259499  0.66702636  0.16412907  1
  I  I79  1  0.82687255  0.67061389  0.50715984  1
  I  I80  1  0.83755016  0.67038812  0.82928101  1
  I  I81  1  0.17349377  0.17243301  0.00317855  1
  I  I82  1  0.17288977  0.16591651  0.32953863  1
  I  I83  1  0.16814428  0.16771059  0.66668937  1
  I  I84  1  0.16698285  0.49628471  0.00292784  1
  I  I85  1  0.17264339  0.49802782  0.33348610  1
  I  I86  1  0.17123655  0.50217441  0.66361545  1
  I  I87  1  0.16201712  0.83248862  -0.00301268  1
  I  I88  1  0.16437664  0.83424375  0.33324076  1
  I  I89  1  0.16773827  0.83245337  0.66943573  1
  I  I90  1  0.49964755  0.15996382  0.00063440  1
  I  I91  1  0.49449080  0.16491198  0.33334533  1
  I  I92  1  0.50445279  0.16586052  0.66623984  1
  I  I93  1  0.49844314  0.50187818  0.00017504  1
  I  I94  1  0.49782602  0.49741415  0.33684254  1
  I  I95  1  0.49377884  0.50316150  0.66194528  1
  I  I96  1  0.49830135  0.83880076  0.00220671  1
  I  I97  1  0.50393551  0.83801746  0.33463485  1
  I  I98  1  0.50060305  0.83385549  0.66384171  1
  I  I99  1  0.82747192  0.15872344  -0.00375588  1
  I  I100  1  0.83303807  0.16569082  0.33341533  1
  I  I101  1  0.82829447  0.16446422  0.67009054  1
  I  I102  1  0.83382600  0.50275614  -0.00007922  1
  I  I103  1  0.83048806  0.50099076  0.33374282  1
  I  I104  1  0.83550126  0.49820142  0.66642401  1
  I  I105  1  0.83689864  0.83768407  -0.00331583  1
  I  I106  1  0.83059026  0.83177970  0.33620207  1
  I  I107  1  0.83051337  0.83637525  0.66688059  1
  I  I108  1  0.00297008  0.17133504  0.16417643  1
  I  I109  1  -0.00004688  0.16711861  0.50039497  1
  I  I110  1  -0.00249611  0.16376878  0.83537746  1
  I  I111  1  0.00524486  0.49442493  0.17323190  1
  I  I112  1  0.00308488  0.50217255  0.49611097  1
  I  I113  1  0.00017865  0.49585364  0.83136707  1
  I  I114  1  0.00016377  0.83302949  0.16828549  1
  I  I115  1  -0.00235416  0.83079075  0.50344204  1
  I  I116  1  -0.00127932  0.83855321  0.82840275  1
  I  I117  1  0.33492010  0.16658216  0.16434453  1
  I  I118  1  0.33749877  0.16117231  0.50515271  1
  I  I119  1  0.33629035  0.16420735  0.83166288  1
  I  I120  1  0.33076418  0.49892673  0.16870135  1
  I  I121  1  0.33438322  0.50225727  0.49643753  1
  I  I122  1  0.33345014  0.50218431  0.83423792  1
  I  I123  1  0.33703467  0.83552075  0.17137124  1
  I  I124  1  0.33672731  0.83493033  0.49850698  1
  I  I125  1  0.33198301  0.83436802  0.83348253  1
  I  I126  1  0.66288286  0.16182215  0.16857015  1
  I  I127  1  0.66223720  0.17156176  0.49489390  1
  I  I128  1  0.66571488  0.15941167  0.83381984  1
  I  I129  1  0.66631907  0.50034034  0.16685945  1
  I  I130  1  0.66336623  0.49801461  0.50072506  1
  I  I131  1  0.66632612  0.50520618  0.83259129  1
  I  I132  1  0.66208544  0.84044101  0.16674475  1
  I  I133  1  0.66505584  0.83198070  0.50289974  1
  I  I134  1  0.66912357  0.83682546  0.83115079  1
