# generated using pymatgen
data_Cs27Sn13Pb14I81
_symmetry_space_group_name_H-M   'P 1'
_cell_length_a   18.99902675
_cell_length_b   18.99091577
_cell_length_c   18.98641543
_cell_angle_alpha   89.99995034
_cell_angle_beta   89.99991952
_cell_angle_gamma   89.99951863
_symmetry_Int_Tables_number   1
_chemical_formula_structural   Cs27Sn13Pb14I81
_chemical_formula_sum   'Cs27 Sn13 Pb14 I81'
_cell_volume   6850.46798201
_cell_formula_units_Z   1
loop_
 _symmetry_equiv_pos_site_id
 _symmetry_equiv_pos_as_xyz
  1  'x, y, z'
loop_
 _atom_site_type_symbol
 _atom_site_label
 _atom_site_symmetry_multiplicity
 _atom_site_fract_x
 _atom_site_fract_y
 _atom_site_fract_z
 _atom_site_occupancy
  Cs  Cs0  1  0.00046255  0.00060632  -0.00278677  1
  Cs  Cs1  1  0.00201996  0.00258631  0.33201272  1
  Cs  Cs2  1  -0.00071366  0.00001782  0.67306858  1
  Cs  Cs3  1  -0.00106547  0.33372100  0.00148787  1
  Cs  Cs4  1  0.00080561  0.33052806  0.33227230  1
  Cs  Cs5  1  0.00022330  0.33182334  0.66400226  1
  Cs  Cs6  1  0.00053352  0.66554310  0.00219564  1
  Cs  Cs7  1  0.00128725  0.66806526  0.33298508  1
  Cs  Cs8  1  -0.00271476  0.66951693  0.66200123  1
  Cs  Cs9  1  0.33922485  -0.00169544  -0.00639839  1
  Cs  Cs10  1  0.33428508  0.00118778  0.33243458  1
  Cs  Cs11  1  0.33646285  0.00020477  0.67544953  1
  Cs  Cs12  1  0.33374723  0.33649139  -0.00007219  1
  Cs  Cs13  1  0.33172910  0.33075674  0.33608573  1
  Cs  Cs14  1  0.33588317  0.33397118  0.66368142  1
  Cs  Cs15  1  0.33352260  0.66421000  -0.00004054  1
  Cs  Cs16  1  0.33073582  0.66850546  0.33453785  1
  Cs  Cs17  1  0.33379978  0.66489222  0.66584097  1
  Cs  Cs18  1  0.65927982  -0.00074737  -0.00561287  1
  Cs  Cs19  1  0.65977453  0.00032709  0.33379210  1
  Cs  Cs20  1  0.66244322  -0.00851349  0.67265314  1
  Cs  Cs21  1  0.66802552  0.33623103  -0.00007191  1
  Cs  Cs22  1  0.66779958  0.33040869  0.33419331  1
  Cs  Cs23  1  0.66351518  0.33191557  0.66537305  1
  Cs  Cs24  1  0.66545703  0.66182378  0.00113568  1
  Cs  Cs25  1  0.66795990  0.67078967  0.33919688  1
  Cs  Cs26  1  0.66956355  0.67395212  0.65668695  1
  Sn  Sn27  1  0.16583323  0.83388122  0.16697403  1
  Sn  Sn28  1  0.50006219  0.49984128  0.16722056  1
  Sn  Sn29  1  0.16633075  0.83527105  0.49928402  1
  Sn  Sn30  1  0.16559135  0.16491481  0.49942077  1
  Sn  Sn31  1  0.50054633  0.50015517  0.83388365  1
  Sn  Sn32  1  0.83389400  0.16592808  0.16703857  1
  Sn  Sn33  1  0.16602013  0.49980714  0.83383445  1
  Sn  Sn34  1  0.16621082  0.16629982  0.16666271  1
  Sn  Sn35  1  0.83399469  0.16612746  0.49945543  1
  Sn  Sn36  1  0.83343858  0.49995192  0.83344629  1
  Sn  Sn37  1  0.16667030  0.49983957  0.16618578  1
  Sn  Sn38  1  0.83332211  0.50018156  0.16657980  1
  Sn  Sn39  1  0.83396918  0.83392606  0.16649534  1
  Pb  Pb40  1  0.83569408  0.83691975  0.49723900  1
  Pb  Pb41  1  0.16648858  0.49968113  0.49953265  1
  Pb  Pb42  1  0.49979343  0.16646427  0.49989521  1
  Pb  Pb43  1  0.50017780  0.50002101  0.49956349  1
  Pb  Pb44  1  0.16642925  0.83053943  0.83389448  1
  Pb  Pb45  1  0.49969209  0.83063829  0.16676788  1
  Pb  Pb46  1  0.83335598  0.16871258  0.83388025  1
  Pb  Pb47  1  0.50005345  0.82951257  0.83360326  1
  Pb  Pb48  1  0.16659764  0.16924261  0.83374417  1
  Pb  Pb49  1  0.83363597  0.83037689  0.83651329  1
  Pb  Pb50  1  0.50014622  0.16959447  0.83353022  1
  Pb  Pb51  1  0.49636195  0.83361722  0.49961326  1
  Pb  Pb52  1  0.49992034  0.16907992  0.16659952  1
  Pb  Pb53  1  0.83349797  0.49780391  0.49925940  1
  I  I54  1  0.15801185  0.00025575  0.17327871  1
  I  I55  1  0.16257693  0.00070843  0.48871061  1
  I  I56  1  0.16739318  -0.00004526  0.83569768  1
  I  I57  1  0.16449850  0.33378022  0.16678278  1
  I  I58  1  0.16367906  0.33029938  0.49668746  1
  I  I59  1  0.16683302  0.33753761  0.83824703  1
  I  I60  1  0.16450507  0.66600682  0.16684691  1
  I  I61  1  0.16778441  0.66884133  0.49633777  1
  I  I62  1  0.16753385  0.66225786  0.83836235  1
  I  I63  1  0.50013744  -0.00007648  0.16789912  1
  I  I64  1  0.50296859  0.00003327  0.49868012  1
  I  I65  1  0.49969619  -0.00041103  0.83219941  1
  I  I66  1  0.49954544  0.33740275  0.16165506  1
  I  I67  1  0.49643601  0.33330605  0.50097952  1
  I  I68  1  0.49943320  0.33817944  0.83852807  1
  I  I69  1  0.49910389  0.66233435  0.16093800  1
  I  I70  1  0.49886976  0.66672982  0.50050743  1
  I  I71  1  0.49785008  0.66145042  0.84054637  1
  I  I72  1  0.84303293  0.00053789  0.17287967  1
  I  I73  1  0.83611551  0.00450009  0.49342333  1
  I  I74  1  0.83334805  -0.00012313  0.83370509  1
  I  I75  1  0.83587977  0.33394298  0.16631835  1
  I  I76  1  0.84095567  0.33022329  0.49387097  1
  I  I77  1  0.83370245  0.33731416  0.84051773  1
  I  I78  1  0.83645606  0.66568788  0.16099549  1
  I  I79  1  0.83383751  0.66714498  0.50055228  1
  I  I80  1  0.83411149  0.66181245  0.83933185  1
  I  I81  1  0.16133462  0.16560923  0.00385743  1
  I  I82  1  0.16309574  0.17000764  0.33183674  1
  I  I83  1  0.16212308  0.16414037  0.66345630  1
  I  I84  1  0.16702593  0.49987523  0.00197728  1
  I  I85  1  0.16604211  0.50018367  0.32952647  1
  I  I86  1  0.16832401  0.49981168  0.66950911  1
  I  I87  1  0.16289573  0.83474809  0.00389891  1
  I  I88  1  0.16313883  0.82969538  0.33143518  1
  I  I89  1  0.16758925  0.83625754  0.66387589  1
  I  I90  1  0.49938591  0.16474365  0.00041024  1
  I  I91  1  0.50001411  0.17181433  0.33306180  1
  I  I92  1  0.49873863  0.17158720  0.66655102  1
  I  I93  1  0.49945062  0.49961647  0.00085589  1
  I  I94  1  0.49905715  0.49959843  0.32954658  1
  I  I95  1  0.49761425  0.49867916  0.67011336  1
  I  I96  1  0.49718172  0.83607370  0.00039100  1
  I  I97  1  0.50248967  0.82844304  0.33293335  1
  I  I98  1  0.49923149  0.83025414  0.66660225  1
  I  I99  1  0.83909806  0.16683758  0.00404659  1
  I  I100  1  0.83817079  0.17133605  0.33142866  1
  I  I101  1  0.83946263  0.17132711  0.66370366  1
  I  I102  1  0.83349685  0.49797919  0.00192195  1
  I  I103  1  0.83453878  0.50178786  0.32912141  1
  I  I104  1  0.83353102  0.49720007  0.66950820  1
  I  I105  1  0.84150282  0.83762199  0.00486615  1
  I  I106  1  0.83522046  0.82424905  0.32926949  1
  I  I107  1  0.83413441  0.83189037  0.66639130  1
  I  I108  1  0.00041012  0.17271588  0.17077760  1
  I  I109  1  0.00104090  0.16571016  0.49421385  1
  I  I110  1  0.00006149  0.17117188  0.83284236  1
  I  I111  1  0.00016043  0.49979948  0.16106146  1
  I  I112  1  0.00012537  0.50182193  0.50251794  1
  I  I113  1  0.00004111  0.49934067  0.84155978  1
  I  I114  1  0.00091748  0.82720077  0.17006830  1
  I  I115  1  0.00343027  0.83202996  0.49732978  1
  I  I116  1  0.00010612  0.82953692  0.83112297  1
  I  I117  1  0.32962802  0.16792275  0.17162043  1
  I  I118  1  0.32935436  0.16510080  0.49414186  1
  I  I119  1  0.33301846  0.16976315  0.83293888  1
  I  I120  1  0.33204294  0.50007828  0.16085115  1
  I  I121  1  0.33305069  0.49815804  0.50011933  1
  I  I122  1  0.33296094  0.49991996  0.84063367  1
  I  I123  1  0.32953562  0.83236620  0.17083816  1
  I  I124  1  0.32815522  0.83738851  0.49145535  1
  I  I125  1  0.33300597  0.83103822  0.83457422  1
  I  I126  1  0.67029671  0.16797119  0.17127434  1
  I  I127  1  0.67011852  0.17173182  0.49341810  1
  I  I128  1  0.66696489  0.17037852  0.83359211  1
  I  I129  1  0.66776480  0.49904169  0.16000638  1
  I  I130  1  0.66690121  0.49742533  0.49963867  1
  I  I131  1  0.66699794  0.49817992  0.84305055  1
  I  I132  1  0.66992591  0.83266507  0.16574854  1
  I  I133  1  0.66709332  0.83290388  0.49951093  1
  I  I134  1  0.66693119  0.83219095  0.83429626  1
