# generated using pymatgen
data_Cs27Sn13Pb14I81
_symmetry_space_group_name_H-M   'P 1'
_cell_length_a   18.98973719
_cell_length_b   18.98543423
_cell_length_c   18.99847840
_cell_angle_alpha   89.99737710
_cell_angle_beta   90.00050970
_cell_angle_gamma   90.00310740
_symmetry_Int_Tables_number   1
_chemical_formula_structural   Cs27Sn13Pb14I81
_chemical_formula_sum   'Cs27 Sn13 Pb14 I81'
_cell_volume   6849.49112378
_cell_formula_units_Z   1
loop_
 _symmetry_equiv_pos_site_id
 _symmetry_equiv_pos_as_xyz
  1  'x, y, z'
loop_
 _atom_site_type_symbol
 _atom_site_label
 _atom_site_symmetry_multiplicity
 _atom_site_fract_x
 _atom_site_fract_y
 _atom_site_fract_z
 _atom_site_occupancy
  Cs  Cs0  1  0.00096800  0.00003447  0.00132132  1
  Cs  Cs1  1  0.00233088  0.00061723  0.32916634  1
  Cs  Cs2  1  0.00256222  -0.00212985  0.66740172  1
  Cs  Cs3  1  -0.00255083  0.33314032  -0.00138116  1
  Cs  Cs4  1  -0.01024431  0.34014087  0.33315883  1
  Cs  Cs5  1  -0.00005141  0.33756063  0.66900191  1
  Cs  Cs6  1  0.00272924  0.66899423  0.00021506  1
  Cs  Cs7  1  -0.00170531  0.66113800  0.33450638  1
  Cs  Cs8  1  -0.00134968  0.66486577  0.66369499  1
  Cs  Cs9  1  0.33112564  0.00168214  0.00017630  1
  Cs  Cs10  1  0.33130091  0.00021484  0.33434520  1
  Cs  Cs11  1  0.33193387  0.00136909  0.66478628  1
  Cs  Cs12  1  0.33391447  0.33193370  -0.00226900  1
  Cs  Cs13  1  0.33383532  0.33330899  0.33298101  1
  Cs  Cs14  1  0.33562877  0.33386544  0.66769807  1
  Cs  Cs15  1  0.33563827  0.66512108  0.00426084  1
  Cs  Cs16  1  0.33565039  0.66467709  0.32717323  1
  Cs  Cs17  1  0.33250328  0.66246964  0.66711749  1
  Cs  Cs18  1  0.66697614  -0.00127183  -0.00189108  1
  Cs  Cs19  1  0.66769890  0.00133839  0.34395440  1
  Cs  Cs20  1  0.66691852  -0.00744911  0.66065982  1
  Cs  Cs21  1  0.66712349  0.33284434  -0.00119128  1
  Cs  Cs22  1  0.67700616  0.33303457  0.33466797  1
  Cs  Cs23  1  0.66290476  0.33238776  0.66782060  1
  Cs  Cs24  1  0.66127395  0.66944505  -0.00013100  1
  Cs  Cs25  1  0.66425659  0.66550053  0.33178936  1
  Cs  Cs26  1  0.66806672  0.67307507  0.66717841  1
  Sn  Sn27  1  0.16707961  0.83387739  0.83337364  1
  Sn  Sn28  1  0.16690264  0.83360149  0.49967335  1
  Sn  Sn29  1  0.49989422  0.49958797  0.50068298  1
  Sn  Sn30  1  0.49987075  0.16640194  0.16636658  1
  Sn  Sn31  1  0.16706382  0.16690699  0.16687482  1
  Sn  Sn32  1  0.83308722  0.16659673  0.83300154  1
  Sn  Sn33  1  0.50031286  0.16666670  0.83380632  1
  Sn  Sn34  1  0.83372554  0.83385989  0.16657191  1
  Sn  Sn35  1  0.83214085  0.49983910  0.83364463  1
  Sn  Sn36  1  0.16571382  0.83411089  0.16679962  1
  Sn  Sn37  1  0.50113330  0.49935265  0.83243321  1
  Sn  Sn38  1  0.16629604  0.16691155  0.49970337  1
  Sn  Sn39  1  0.16657110  0.16602923  0.83327987  1
  Pb  Pb40  1  0.83028190  0.50009318  0.50302557  1
  Pb  Pb41  1  0.49975649  0.83676491  0.16671586  1
  Pb  Pb42  1  0.83570723  0.83341639  0.83482155  1
  Pb  Pb43  1  0.83330943  0.16489368  0.16460089  1
  Pb  Pb44  1  0.16652975  0.49913442  0.16664970  1
  Pb  Pb45  1  0.49808915  0.16813269  0.50005518  1
  Pb  Pb46  1  0.83309588  0.50296614  0.16336825  1
  Pb  Pb47  1  0.49701044  0.83066193  0.49992467  1
  Pb  Pb48  1  0.49721788  0.83377468  0.83330196  1
  Pb  Pb49  1  0.16852324  0.49963446  0.49993213  1
  Pb  Pb50  1  0.83663100  0.16656162  0.50334321  1
  Pb  Pb51  1  0.50012123  0.49659137  0.16615787  1
  Pb  Pb52  1  0.16700847  0.49968717  0.83354236  1
  Pb  Pb53  1  0.83628611  0.83335778  0.49702918  1
  I  I54  1  0.16680669  0.00051167  0.16563337  1
  I  I55  1  0.16796328  0.00044278  0.50104182  1
  I  I56  1  0.16642226  0.00152644  0.83364025  1
  I  I57  1  0.17212193  0.32893798  0.16459134  1
  I  I58  1  0.16926227  0.32994112  0.50232782  1
  I  I59  1  0.16689384  0.32960180  0.83340970  1
  I  I60  1  0.16297947  0.67030811  0.16602528  1
  I  I61  1  0.16783208  0.66986572  0.50080071  1
  I  I62  1  0.16609003  0.66961951  0.83349697  1
  I  I63  1  0.49643963  0.00439730  0.15849727  1
  I  I64  1  0.50125637  0.00021019  0.50039249  1
  I  I65  1  0.50148238  0.00371769  0.83836731  1
  I  I66  1  0.49160397  0.32894906  0.16371417  1
  I  I67  1  0.49509631  0.33576180  0.50341915  1
  I  I68  1  0.49740276  0.33211520  0.83339259  1
  I  I69  1  0.49869339  0.66668573  0.16612735  1
  I  I70  1  0.49802980  0.66287148  0.50794715  1
  I  I71  1  0.50352376  0.66369240  0.82913830  1
  I  I72  1  0.83757657  -0.00263675  0.16215037  1
  I  I73  1  0.82822223  0.00004303  0.50371117  1
  I  I74  1  0.83209461  0.00297970  0.83569609  1
  I  I75  1  0.83406162  0.33310196  0.16798723  1
  I  I76  1  0.83769920  0.33327145  0.49559383  1
  I  I77  1  0.83616991  0.33225329  0.83435525  1
  I  I78  1  0.84253856  0.67058268  0.16501011  1
  I  I79  1  0.83672184  0.66668673  0.50279827  1
  I  I80  1  0.82955040  0.66419178  0.83493005  1
  I  I81  1  0.16785493  0.16091709  -0.00066804  1
  I  I82  1  0.17435060  0.15886199  0.33256057  1
  I  I83  1  0.16689610  0.16046048  0.66780660  1
  I  I84  1  0.16921917  0.50183725  -0.00022126  1
  I  I85  1  0.17033513  0.50016949  0.33338236  1
  I  I86  1  0.16484528  0.50111313  0.66697054  1
  I  I87  1  0.16257432  0.83941189  0.00019060  1
  I  I88  1  0.16360348  0.84082782  0.33277347  1
  I  I89  1  0.16843918  0.84032844  0.66706050  1
  I  I90  1  0.49396412  0.17199656  -0.00163247  1
  I  I91  1  0.49311181  0.16679415  0.33075132  1
  I  I92  1  0.49770466  0.16999149  0.67001533  1
  I  I93  1  0.50316096  0.49817534  -0.00352231  1
  I  I94  1  0.49524530  0.50082685  0.33567192  1
  I  I95  1  0.50153227  0.49296080  0.66867768  1
  I  I96  1  0.49711874  0.82757236  -0.00005840  1
  I  I97  1  0.49825731  0.83212349  0.33319929  1
  I  I98  1  0.49841820  0.83774617  0.66679455  1
  I  I99  1  0.83821884  0.16992222  -0.00347453  1
  I  I100  1  0.83235839  0.16564008  0.33330744  1
  I  I101  1  0.83241715  0.17010103  0.67166916  1
  I  I102  1  0.82739778  0.49449076  -0.00421378  1
  I  I103  1  0.83267792  0.50063895  0.33333178  1
  I  I104  1  0.83422536  0.49625381  0.67086695  1
  I  I105  1  0.84177240  0.83365983  0.00232964  1
  I  I106  1  0.83921775  0.83500269  0.32939749  1
  I  I107  1  0.83500455  0.83265516  0.66678825  1
  I  I108  1  0.00332636  0.16333292  0.16498277  1
  I  I109  1  0.00499691  0.16230738  0.49861548  1
  I  I110  1  0.00113047  0.16706537  0.83365116  1
  I  I111  1  -0.00027361  0.49527388  0.16527845  1
  I  I112  1  -0.00018479  0.50045751  0.50094774  1
  I  I113  1  -0.00222650  0.49620548  0.83478253  1
  I  I114  1  0.00253996  0.84009773  0.16539827  1
  I  I115  1  0.00464597  0.83712784  0.50424896  1
  I  I116  1  0.00386545  0.83748523  0.83202346  1
  I  I117  1  0.33177956  0.16178286  0.16125386  1
  I  I118  1  0.32986405  0.16314909  0.50446775  1
  I  I119  1  0.33273806  0.16722025  0.83426187  1
  I  I120  1  0.33354161  0.50551157  0.16387422  1
  I  I121  1  0.33600552  0.49971146  0.50938124  1
  I  I122  1  0.33633240  0.49666001  0.82963518  1
  I  I123  1  0.32953223  0.83467120  0.16644924  1
  I  I124  1  0.32877837  0.83862632  0.49775618  1
  I  I125  1  0.32889299  0.83733795  0.83658237  1
  I  I126  1  0.66411849  0.16626219  0.16014893  1
  I  I127  1  0.66668623  0.16862868  0.49843586  1
  I  I128  1  0.66592057  0.17335070  0.84040660  1
  I  I129  1  0.66652879  0.50121639  0.16938062  1
  I  I130  1  0.66264101  0.49767885  0.50126492  1
  I  I131  1  0.66593246  0.49063141  0.83019581  1
  I  I132  1  0.66916255  0.83284747  0.16314596  1
  I  I133  1  0.66672920  0.83245553  0.49872982  1
  I  I134  1  0.66673392  0.83547421  0.83585846  1
