# generated using pymatgen
data_Cs27Sn13Pb14I81
_symmetry_space_group_name_H-M   'P 1'
_cell_length_a   18.97357983
_cell_length_b   18.97358237
_cell_length_c   18.98306474
_cell_angle_alpha   90.00221150
_cell_angle_beta   90.00008133
_cell_angle_gamma   89.99982749
_symmetry_Int_Tables_number   1
_chemical_formula_structural   Cs27Sn13Pb14I81
_chemical_formula_sum   'Cs27 Sn13 Pb14 I81'
_cell_volume   6833.84217128
_cell_formula_units_Z   1
loop_
 _symmetry_equiv_pos_site_id
 _symmetry_equiv_pos_as_xyz
  1  'x, y, z'
loop_
 _atom_site_type_symbol
 _atom_site_label
 _atom_site_symmetry_multiplicity
 _atom_site_fract_x
 _atom_site_fract_y
 _atom_site_fract_z
 _atom_site_occupancy
  Cs  Cs0  1  -0.00071175  0.00242010  -0.00021557  1
  Cs  Cs1  1  -0.00408207  0.00015575  0.33772920  1
  Cs  Cs2  1  0.00119061  -0.00292981  0.66393045  1
  Cs  Cs3  1  0.00022685  0.33294882  -0.00176758  1
  Cs  Cs4  1  0.00094117  0.33141553  0.33241150  1
  Cs  Cs5  1  0.00306273  0.33675622  0.67000933  1
  Cs  Cs6  1  -0.00234298  0.66603526  0.00066133  1
  Cs  Cs7  1  0.00119981  0.66815056  0.33455357  1
  Cs  Cs8  1  -0.00062465  0.66597086  0.66594192  1
  Cs  Cs9  1  0.33718727  -0.00441999  -0.00173414  1
  Cs  Cs10  1  0.33160797  -0.00258035  0.33042256  1
  Cs  Cs11  1  0.33496117  -0.00169369  0.67074901  1
  Cs  Cs12  1  0.33139942  0.33242106  0.00092383  1
  Cs  Cs13  1  0.33379479  0.33615575  0.33379308  1
  Cs  Cs14  1  0.33310744  0.33232912  0.66567571  1
  Cs  Cs15  1  0.33547673  0.67351514  0.00774604  1
  Cs  Cs16  1  0.33701813  0.66655745  0.32432448  1
  Cs  Cs17  1  0.33294667  0.66858216  0.66704550  1
  Cs  Cs18  1  0.66501136  -0.00066508  -0.00009614  1
  Cs  Cs19  1  0.67234170  0.00304914  0.33688717  1
  Cs  Cs20  1  0.66286846  0.00099925  0.66359217  1
  Cs  Cs21  1  0.67051878  0.33238097  -0.00250022  1
  Cs  Cs22  1  0.66443266  0.33102768  0.33573568  1
  Cs  Cs23  1  0.66082301  0.33489348  0.66634441  1
  Cs  Cs24  1  0.66939718  0.66804313  0.00035432  1
  Cs  Cs25  1  0.66326866  0.66593343  0.33348380  1
  Cs  Cs26  1  0.66876841  0.66339791  0.66535481  1
  Sn  Sn27  1  0.83396741  0.49955452  0.49867373  1
  Sn  Sn28  1  0.49970899  0.83318848  0.50007141  1
  Sn  Sn29  1  0.16756959  0.16677273  0.16644026  1
  Sn  Sn30  1  0.83357607  0.50032238  0.16814021  1
  Sn  Sn31  1  0.83361436  0.83264386  0.16619266  1
  Sn  Sn32  1  0.16663794  0.16722542  0.50036588  1
  Sn  Sn33  1  0.16610231  0.49950325  0.50035997  1
  Sn  Sn34  1  0.16827360  0.49989600  0.83324262  1
  Sn  Sn35  1  0.83374985  0.16548103  0.83273698  1
  Sn  Sn36  1  0.83365601  0.83473591  0.83351160  1
  Sn  Sn37  1  0.49929969  0.16705149  0.16656917  1
  Sn  Sn38  1  0.16600032  0.16709694  0.83317721  1
  Sn  Sn39  1  0.49812569  0.50023156  0.83392843  1
  Pb  Pb40  1  0.50287477  0.83580868  0.16855735  1
  Pb  Pb41  1  0.49940779  0.16815850  0.83484167  1
  Pb  Pb42  1  0.16893097  0.83247536  0.49994781  1
  Pb  Pb43  1  0.49888409  0.50135784  0.50140462  1
  Pb  Pb44  1  0.83376779  0.16676481  0.16521463  1
  Pb  Pb45  1  0.83406889  0.49980628  0.83314019  1
  Pb  Pb46  1  0.83198984  0.83113532  0.50012385  1
  Pb  Pb47  1  0.50269820  0.83075934  0.83193882  1
  Pb  Pb48  1  0.16458147  0.83294049  0.83346155  1
  Pb  Pb49  1  0.49689678  0.16489858  0.49788799  1
  Pb  Pb50  1  0.16484269  0.49838982  0.16647185  1
  Pb  Pb51  1  0.16382918  0.83644492  0.16661896  1
  Pb  Pb52  1  0.83540323  0.16941070  0.50326310  1
  Pb  Pb53  1  0.50261866  0.49801645  0.16415435  1
  I  I54  1  0.16860867  0.00491531  0.16596769  1
  I  I55  1  0.16791397  0.00311525  0.50075728  1
  I  I56  1  0.16361992  0.00348476  0.83251245  1
  I  I57  1  0.16631024  0.33008706  0.16598909  1
  I  I58  1  0.16270342  0.33354395  0.50134823  1
  I  I59  1  0.16327429  0.33277030  0.83280632  1
  I  I60  1  0.16687421  0.66655112  0.16706533  1
  I  I61  1  0.16237691  0.66283436  0.50655661  1
  I  I62  1  0.16728228  0.66308786  0.82670223  1
  I  I63  1  0.49665633  0.00341135  0.16504361  1
  I  I64  1  0.50145319  -0.00258118  0.50040980  1
  I  I65  1  0.49886207  -0.00006847  0.83337307  1
  I  I66  1  0.49826195  0.33034816  0.16718566  1
  I  I67  1  0.50256129  0.33334540  0.50005440  1
  I  I68  1  0.50297891  0.33607722  0.83230952  1
  I  I69  1  0.49971674  0.66668770  0.16676028  1
  I  I70  1  0.50050937  0.66888973  0.50136028  1
  I  I71  1  0.49628981  0.66293691  0.83240154  1
  I  I72  1  0.83325342  -0.00197624  0.16335297  1
  I  I73  1  0.83371791  0.00022222  0.49772561  1
  I  I74  1  0.83839747  0.00049128  0.83974072  1
  I  I75  1  0.83378080  0.33551609  0.16757544  1
  I  I76  1  0.83345829  0.33726648  0.49491893  1
  I  I77  1  0.83511854  0.33130985  0.83489582  1
  I  I78  1  0.83320933  0.66639563  0.16288361  1
  I  I79  1  0.83907248  0.66322058  0.50220714  1
  I  I80  1  0.83253494  0.66834667  0.83460040  1
  I  I81  1  0.16479005  0.17152947  -0.00098223  1
  I  I82  1  0.17111373  0.17085054  0.33353151  1
  I  I83  1  0.16100692  0.17155205  0.66733306  1
  I  I84  1  0.16677025  0.49435637  -0.00285823  1
  I  I85  1  0.16315591  0.49526947  0.33603574  1
  I  I86  1  0.16336760  0.49177085  0.66681574  1
  I  I87  1  0.16833670  0.83252712  -0.00000786  1
  I  I88  1  0.16460792  0.83416690  0.33332437  1
  I  I89  1  0.16423023  0.83733880  0.66669969  1
  I  I90  1  0.49570131  0.16744242  0.00256314  1
  I  I91  1  0.49721908  0.16690062  0.33010175  1
  I  I92  1  0.50088422  0.16650378  0.66663928  1
  I  I93  1  0.49612494  0.49919010  -0.00356209  1
  I  I94  1  0.49909380  0.50071237  0.33311451  1
  I  I95  1  0.50301800  0.49910458  0.66936077  1
  I  I96  1  0.49995033  0.83321993  0.00015014  1
  I  I97  1  0.50121571  0.83155569  0.33590819  1
  I  I98  1  0.50220183  0.83404591  0.66440136  1
  I  I99  1  0.83870041  0.16888396  -0.00264928  1
  I  I100  1  0.83414994  0.16433493  0.33359003  1
  I  I101  1  0.83762052  0.16235975  0.67110213  1
  I  I102  1  0.83301092  0.50053069  0.00162099  1
  I  I103  1  0.83850487  0.50525176  0.33340962  1
  I  I104  1  0.83447928  0.50018736  0.66481663  1
  I  I105  1  0.83326946  0.83034917  -0.00014548  1
  I  I106  1  0.83175178  0.83168479  0.33095574  1
  I  I107  1  0.83235102  0.83506433  0.66914161  1
  I  I108  1  0.00273875  0.16709780  0.16713689  1
  I  I109  1  0.00355906  0.16670014  0.49426950  1
  I  I110  1  0.00110409  0.16980003  0.83663568  1
  I  I111  1  -0.00323846  0.50061455  0.16477427  1
  I  I112  1  0.00063680  0.49735030  0.50313602  1
  I  I113  1  0.00258040  0.49787569  0.83219254  1
  I  I114  1  -0.00412433  0.83086428  0.16367535  1
  I  I115  1  -0.00002925  0.83472622  0.49958662  1
  I  I116  1  -0.00363489  0.83240211  0.83587806  1
  I  I117  1  0.33195928  0.16808704  0.16482943  1
  I  I118  1  0.32882913  0.17351431  0.50544638  1
  I  I119  1  0.32979659  0.17017256  0.83152647  1
  I  I120  1  0.33325654  0.50020125  0.16884815  1
  I  I121  1  0.32976256  0.49601655  0.50379959  1
  I  I122  1  0.33144747  0.49263294  0.82642373  1
  I  I123  1  0.33355901  0.83238137  0.16808107  1
  I  I124  1  0.33631751  0.83264868  0.50095856  1
  I  I125  1  0.33352089  0.83553899  0.83166908  1
  I  I126  1  0.66522791  0.16664647  0.16372665  1
  I  I127  1  0.66668606  0.16717865  0.49911998  1
  I  I128  1  0.66905046  0.16615096  0.83742619  1
  I  I129  1  0.67065823  0.50084156  0.16965939  1
  I  I130  1  0.66885856  0.50299380  0.49946006  1
  I  I131  1  0.66553185  0.49985391  0.83333152  1
  I  I132  1  0.67051212  0.83148537  0.16227625  1
  I  I133  1  0.66447222  0.83141824  0.50028324  1
  I  I134  1  0.67067223  0.83697264  0.83714138  1
