# generated using pymatgen
data_Cs27Sn13Pb14I81
_symmetry_space_group_name_H-M   'P 1'
_cell_length_a   18.99759474
_cell_length_b   18.97918742
_cell_length_c   18.99864982
_cell_angle_alpha   89.99965370
_cell_angle_beta   90.00018182
_cell_angle_gamma   89.99957338
_symmetry_Int_Tables_number   1
_chemical_formula_structural   Cs27Sn13Pb14I81
_chemical_formula_sum   'Cs27 Sn13 Pb14 I81'
_cell_volume   6850.13249157
_cell_formula_units_Z   1
loop_
 _symmetry_equiv_pos_site_id
 _symmetry_equiv_pos_as_xyz
  1  'x, y, z'
loop_
 _atom_site_type_symbol
 _atom_site_label
 _atom_site_symmetry_multiplicity
 _atom_site_fract_x
 _atom_site_fract_y
 _atom_site_fract_z
 _atom_site_occupancy
  Cs  Cs0  1  0.00072365  -0.00326442  -0.00066385  1
  Cs  Cs1  1  -0.00062731  0.00282690  0.33280186  1
  Cs  Cs2  1  -0.00322876  -0.00150126  0.66824110  1
  Cs  Cs3  1  -0.00011055  0.32869473  0.00256683  1
  Cs  Cs4  1  0.00047233  0.32350244  0.33330869  1
  Cs  Cs5  1  0.00570401  0.33538888  0.66434872  1
  Cs  Cs6  1  -0.00092859  0.66904646  0.00153305  1
  Cs  Cs7  1  0.00133171  0.66691122  0.33316009  1
  Cs  Cs8  1  -0.00111097  0.66642084  0.66586275  1
  Cs  Cs9  1  0.33217245  0.00158066  0.00014853  1
  Cs  Cs10  1  0.33691185  0.00326143  0.33502258  1
  Cs  Cs11  1  0.33964219  0.00352708  0.66524865  1
  Cs  Cs12  1  0.34171094  0.32662762  -0.00717383  1
  Cs  Cs13  1  0.32994234  0.32426124  0.33323361  1
  Cs  Cs14  1  0.32481741  0.33170993  0.67484719  1
  Cs  Cs15  1  0.33363326  0.66649373  0.00106273  1
  Cs  Cs16  1  0.33122012  0.66819716  0.33436959  1
  Cs  Cs17  1  0.33268639  0.66368995  0.66435691  1
  Cs  Cs18  1  0.66728473  -0.00270146  -0.00272953  1
  Cs  Cs19  1  0.66461537  0.00445995  0.33862588  1
  Cs  Cs20  1  0.66668464  0.00046948  0.66472460  1
  Cs  Cs21  1  0.65909279  0.33646595  0.00735444  1
  Cs  Cs22  1  0.66667745  0.33066136  0.32558384  1
  Cs  Cs23  1  0.66651843  0.33404361  0.66740834  1
  Cs  Cs24  1  0.66683893  0.66556052  0.00073610  1
  Cs  Cs25  1  0.66544450  0.66516783  0.33548642  1
  Cs  Cs26  1  0.66789079  0.66687901  0.66460512  1
  Sn  Sn27  1  0.16708154  0.83280756  0.83291340  1
  Sn  Sn28  1  0.16686079  0.50038113  0.16643234  1
  Sn  Sn29  1  0.83421749  0.83245111  0.49984179  1
  Sn  Sn30  1  0.83286244  0.83286604  0.16726928  1
  Sn  Sn31  1  0.16680956  0.83252656  0.16691972  1
  Sn  Sn32  1  0.50005949  0.83250870  0.83387304  1
  Sn  Sn33  1  0.16587170  0.83303765  0.50006672  1
  Sn  Sn34  1  0.50012025  0.83264135  0.16616124  1
  Sn  Sn35  1  0.83356712  0.49989673  0.83315992  1
  Sn  Sn36  1  0.83322568  0.83278699  0.83317236  1
  Sn  Sn37  1  0.83315457  0.16752226  0.83343002  1
  Sn  Sn38  1  0.83245936  0.50073112  0.50012895  1
  Sn  Sn39  1  0.50013852  0.49983019  0.49983322  1
  Pb  Pb40  1  0.16644307  0.16315861  0.50037669  1
  Pb  Pb41  1  0.50015563  0.16354104  0.16658252  1
  Pb  Pb42  1  0.50037428  0.17134301  0.50052289  1
  Pb  Pb43  1  0.16668104  0.16619778  0.16625373  1
  Pb  Pb44  1  0.50017462  0.83237261  0.50004472  1
  Pb  Pb45  1  0.50211857  0.50245009  0.83152246  1
  Pb  Pb46  1  0.83318009  0.16354850  0.16380821  1
  Pb  Pb47  1  0.49712407  0.50222607  0.16895789  1
  Pb  Pb48  1  0.83512325  0.50181891  0.16717734  1
  Pb  Pb49  1  0.83318600  0.16728225  0.50237366  1
  Pb  Pb50  1  0.50293630  0.16422144  0.83315434  1
  Pb  Pb51  1  0.16425020  0.50215740  0.83587933  1
  Pb  Pb52  1  0.16411973  0.16383049  0.83334757  1
  Pb  Pb53  1  0.16603373  0.50159270  0.49795684  1
  I  I54  1  0.16595506  -0.00481789  0.16593623  1
  I  I55  1  0.16032645  -0.00594117  0.49683033  1
  I  I56  1  0.16366797  -0.00541194  0.83688817  1
  I  I57  1  0.16348111  0.33622087  0.16948993  1
  I  I58  1  0.16621462  0.33363186  0.49663852  1
  I  I59  1  0.16502811  0.33354620  0.83505592  1
  I  I60  1  0.16563206  0.67018460  0.16662458  1
  I  I61  1  0.16436055  0.67048807  0.50164857  1
  I  I62  1  0.16312817  0.67112599  0.83181075  1
  I  I63  1  0.49715195  -0.00556871  0.16389810  1
  I  I64  1  0.49919733  -0.00019797  0.49925455  1
  I  I65  1  0.50133855  -0.00486397  0.83621292  1
  I  I66  1  0.49868518  0.33376691  0.16824455  1
  I  I67  1  0.50954316  0.33889334  0.49872308  1
  I  I68  1  0.50118245  0.33360181  0.83193591  1
  I  I69  1  0.50241645  0.67079165  0.16229233  1
  I  I70  1  0.50293402  0.66506750  0.50043117  1
  I  I71  1  0.50298492  0.67094356  0.83737394  1
  I  I72  1  0.83694798  -0.00568000  0.16706492  1
  I  I73  1  0.83755034  -0.00368487  0.50024587  1
  I  I74  1  0.83391492  -0.00301833  0.83419370  1
  I  I75  1  0.83651330  0.33343608  0.16673196  1
  I  I76  1  0.82931627  0.33709061  0.50505163  1
  I  I77  1  0.83444219  0.33423035  0.82608104  1
  I  I78  1  0.83252258  0.67086591  0.16146713  1
  I  I79  1  0.83354372  0.66840408  0.50545683  1
  I  I80  1  0.83353597  0.66875623  0.83232347  1
  I  I81  1  0.16432165  0.16302855  -0.00017561  1
  I  I82  1  0.16550190  0.16471021  0.33319473  1
  I  I83  1  0.16616504  0.16668183  0.66693983  1
  I  I84  1  0.16395707  0.51005294  0.00323400  1
  I  I85  1  0.16469314  0.51068407  0.33057936  1
  I  I86  1  0.16832262  0.50172938  0.66665948  1
  I  I87  1  0.16313676  0.83050957  0.00012007  1
  I  I88  1  0.16365476  0.82883376  0.33293670  1
  I  I89  1  0.16204275  0.83366746  0.66687382  1
  I  I90  1  0.50073125  0.16930588  -0.00023369  1
  I  I91  1  0.50057276  0.16238454  0.33350170  1
  I  I92  1  0.50128789  0.16003054  0.66694327  1
  I  I93  1  0.50124137  0.49959181  0.00011197  1
  I  I94  1  0.50917503  0.50610613  0.33640001  1
  I  I95  1  0.50201281  0.50591374  0.66378868  1
  I  I96  1  0.50137311  0.83308784  -0.00022896  1
  I  I97  1  0.49962773  0.83106072  0.33092235  1
  I  I98  1  0.50088681  0.83219248  0.66922456  1
  I  I99  1  0.83476607  0.16477280  -0.00402529  1
  I  I100  1  0.83365205  0.16586367  0.33328233  1
  I  I101  1  0.83300602  0.15783135  0.66991888  1
  I  I102  1  0.83608441  0.50325601  -0.00271560  1
  I  I103  1  0.83076192  0.50783041  0.33640462  1
  I  I104  1  0.83015359  0.50706141  0.66674741  1
  I  I105  1  0.83550509  0.83381403  -0.00082361  1
  I  I106  1  0.83646586  0.82777867  0.33379971  1
  I  I107  1  0.83588783  0.83344494  0.66733085  1
  I  I108  1  -0.00015173  0.16393652  0.16671884  1
  I  I109  1  -0.00031409  0.17027475  0.49997101  1
  I  I110  1  -0.00372575  0.16217576  0.83319262  1
  I  I111  1  0.00256469  0.50989437  0.16729945  1
  I  I112  1  -0.00334475  0.50400057  0.50438875  1
  I  I113  1  -0.00399089  0.50402436  0.82600597  1
  I  I114  1  -0.00006108  0.83020780  0.16391467  1
  I  I115  1  -0.00128221  0.82807751  0.50077374  1
  I  I116  1  -0.00110340  0.83383489  0.83537763  1
  I  I117  1  0.33328535  0.16425404  0.16667531  1
  I  I118  1  0.33343469  0.16459868  0.49957468  1
  I  I119  1  0.33346305  0.16520726  0.83341487  1
  I  I120  1  0.32979853  0.51070858  0.16913683  1
  I  I121  1  0.33509205  0.50548005  0.49692832  1
  I  I122  1  0.33320040  0.50276686  0.83151341  1
  I  I123  1  0.33268190  0.82920407  0.16381436  1
  I  I124  1  0.33092312  0.83090285  0.49979298  1
  I  I125  1  0.33302243  0.83267545  0.83651999  1
  I  I126  1  0.66685172  0.16613230  0.16640516  1
  I  I127  1  0.66698564  0.15806296  0.50121718  1
  I  I128  1  0.67070628  0.16126954  0.83239621  1
  I  I129  1  0.66670845  0.50182526  0.16483043  1
  I  I130  1  0.66857732  0.50937003  0.50439626  1
  I  I131  1  0.67057707  0.50456890  0.83282779  1
  I  I132  1  0.66731477  0.83372986  0.16211743  1
  I  I133  1  0.66979194  0.83169672  0.50069287  1
  I  I134  1  0.66815270  0.83392543  0.83625499  1
