# generated using pymatgen
data_Cs27Sn13Pb14I81
_symmetry_space_group_name_H-M   'P 1'
_cell_length_a   19.28377686
_cell_length_b   19.27677387
_cell_length_c   19.29758869
_cell_angle_alpha   89.97474291
_cell_angle_beta   89.99187032
_cell_angle_gamma   89.99889517
_symmetry_Int_Tables_number   1
_chemical_formula_structural   Cs27Sn13Pb14I81
_chemical_formula_sum   'Cs27 Sn13 Pb14 I81'
_cell_volume   7173.47268622
_cell_formula_units_Z   1
loop_
 _symmetry_equiv_pos_site_id
 _symmetry_equiv_pos_as_xyz
  1  'x, y, z'
loop_
 _atom_site_type_symbol
 _atom_site_label
 _atom_site_symmetry_multiplicity
 _atom_site_fract_x
 _atom_site_fract_y
 _atom_site_fract_z
 _atom_site_occupancy
  Cs  Cs0  1  -0.01302489  0.01374582  0.01541864  1
  Cs  Cs1  1  -0.01255542  -0.00187857  0.31717484  1
  Cs  Cs2  1  -0.01038055  0.00499722  0.66862839  1
  Cs  Cs3  1  -0.00054897  0.30566816  0.00671625  1
  Cs  Cs4  1  0.00875425  0.35821417  0.31276099  1
  Cs  Cs5  1  0.00500867  0.32428256  0.66158272  1
  Cs  Cs6  1  0.01644218  0.66488956  -0.00554661  1
  Cs  Cs7  1  0.02055946  0.65431316  0.32098830  1
  Cs  Cs8  1  0.01304573  0.66473474  0.68969442  1
  Cs  Cs9  1  0.33186417  0.02420837  -0.01205916  1
  Cs  Cs10  1  0.34409226  -0.03032200  0.33945735  1
  Cs  Cs11  1  0.32929146  0.02028194  0.67900525  1
  Cs  Cs12  1  0.36526498  0.32008818  0.00960173  1
  Cs  Cs13  1  0.35195012  0.35228354  0.34649419  1
  Cs  Cs14  1  0.33312999  0.30031615  0.63861608  1
  Cs  Cs15  1  0.31011109  0.67062443  0.00008844  1
  Cs  Cs16  1  0.31738111  0.66246575  0.33496960  1
  Cs  Cs17  1  0.32863723  0.68632298  0.68276448  1
  Cs  Cs18  1  0.69023365  -0.00055725  -0.00403491  1
  Cs  Cs19  1  0.68384168  -0.01153525  0.33727684  1
  Cs  Cs20  1  0.69035869  -0.00347133  0.65841206  1
  Cs  Cs21  1  0.64402405  0.34783634  0.00693403  1
  Cs  Cs22  1  0.64151931  0.33214415  0.31955994  1
  Cs  Cs23  1  0.67631477  0.36954085  0.66248341  1
  Cs  Cs24  1  0.67583201  0.66336635  -0.03099752  1
  Cs  Cs25  1  0.67289422  0.70831310  0.34720922  1
  Cs  Cs26  1  0.67319101  0.63988295  0.67282961  1
  Sn  Sn27  1  0.49653997  0.83336593  0.50239186  1
  Sn  Sn28  1  0.16529373  0.16353060  0.17096852  1
  Sn  Sn29  1  0.49797885  0.83179543  0.16397951  1
  Sn  Sn30  1  0.83504365  0.16777805  0.49852427  1
  Sn  Sn31  1  0.16626020  0.83557588  0.50003107  1
  Sn  Sn32  1  0.16729655  0.49581139  0.83211271  1
  Sn  Sn33  1  0.83141738  0.50156618  0.16785197  1
  Sn  Sn34  1  0.83136290  0.17270653  0.17165719  1
  Sn  Sn35  1  0.16823120  0.83783472  0.16822366  1
  Sn  Sn36  1  0.16600138  0.83670043  0.83310967  1
  Sn  Sn37  1  0.83431272  0.83587661  0.83286035  1
  Sn  Sn38  1  0.83972886  0.83230942  0.50325611  1
  Sn  Sn39  1  0.83245486  0.16704027  0.83038530  1
  Pb  Pb40  1  0.49975817  0.83533737  0.83414002  1
  Pb  Pb41  1  0.83266544  0.82927217  0.16573409  1
  Pb  Pb42  1  0.83656104  0.49597799  0.83689487  1
  Pb  Pb43  1  0.49191537  0.50316262  0.83418249  1
  Pb  Pb44  1  0.16440945  0.16885100  0.83447461  1
  Pb  Pb45  1  0.50381991  0.16139523  0.49757073  1
  Pb  Pb46  1  0.50055287  0.50674941  0.50101431  1
  Pb  Pb47  1  0.16311150  0.15862115  0.49545196  1
  Pb  Pb48  1  0.50283685  0.50812846  0.16782168  1
  Pb  Pb49  1  0.50545156  0.16355160  0.83138923  1
  Pb  Pb50  1  0.83550738  0.50056174  0.49606452  1
  Pb  Pb51  1  0.16636900  0.50280759  0.50358406  1
  Pb  Pb52  1  0.50049592  0.16037476  0.16914538  1
  Pb  Pb53  1  0.16856188  0.49707189  0.16290637  1
  I  I54  1  0.15139357  -0.00356303  0.15798161  1
  I  I55  1  0.18633446  -0.00405061  0.53289472  1
  I  I56  1  0.18210562  -0.00386689  0.81817780  1
  I  I57  1  0.14086917  0.32913637  0.15413205  1
  I  I58  1  0.16037038  0.33251563  0.51266461  1
  I  I59  1  0.14369518  0.33984478  0.84578628  1
  I  I60  1  0.18126790  0.66824544  0.18394477  1
  I  I61  1  0.16033967  0.66953382  0.46527560  1
  I  I62  1  0.15225410  0.67496077  0.83906925  1
  I  I63  1  0.51168950  -0.00240100  0.18386908  1
  I  I64  1  0.47911778  -0.00303138  0.48661905  1
  I  I65  1  0.46383367  -0.00082628  0.83648445  1
  I  I66  1  0.49483147  0.33139291  0.16188366  1
  I  I67  1  0.49906275  0.33298182  0.51029593  1
  I  I68  1  0.50344076  0.33375548  0.84946657  1
  I  I69  1  0.47416867  0.66951372  0.18458573  1
  I  I70  1  0.52296816  0.67124212  0.48476416  1
  I  I71  1  0.53377507  0.66869904  0.82676425  1
  I  I72  1  0.82502204  0.00035084  0.16331871  1
  I  I73  1  0.83134027  -0.00253061  0.48854575  1
  I  I74  1  0.85200240  -0.00198870  0.84776259  1
  I  I75  1  0.86911605  0.32933037  0.16504978  1
  I  I76  1  0.83657046  0.32724618  0.52865048  1
  I  I77  1  0.83852917  0.32846644  0.81160687  1
  I  I78  1  0.82113650  0.66174618  0.16969836  1
  I  I79  1  0.81366751  0.67197678  0.50873593  1
  I  I80  1  0.81470215  0.66872608  0.82163978  1
  I  I81  1  0.14902476  0.14800510  -0.00184906  1
  I  I82  1  0.14440352  0.15257280  0.32890919  1
  I  I83  1  0.17815390  0.17798835  0.66849629  1
  I  I84  1  0.16441800  0.52673278  -0.00122736  1
  I  I85  1  0.16882573  0.48915471  0.33118173  1
  I  I86  1  0.16026863  0.52119641  0.67076328  1
  I  I87  1  0.16448132  0.81978329  0.00117351  1
  I  I88  1  0.16678043  0.85817288  0.33561586  1
  I  I89  1  0.16473173  0.80189206  0.66105855  1
  I  I90  1  0.50224476  0.16481420  0.00004672  1
  I  I91  1  0.49661624  0.19170833  0.33297202  1
  I  I92  1  0.47919597  0.15960650  0.66580995  1
  I  I93  1  0.50918850  0.50414366  0.00104896  1
  I  I94  1  0.50567541  0.48308199  0.33301108  1
  I  I95  1  0.51521625  0.50544916  0.66885493  1
  I  I96  1  0.49969951  0.82949019  0.00452347  1
  I  I97  1  0.50011765  0.83528531  0.33449196  1
  I  I98  1  0.48603314  0.82926654  0.66438622  1
  I  I99  1  0.84747668  0.16202519  -0.00220807  1
  I  I100  1  0.84444827  0.15678549  0.33309522  1
  I  I101  1  0.82961525  0.13959694  0.66880137  1
  I  I102  1  0.82352767  0.49803351  0.00277671  1
  I  I103  1  0.84357850  0.48682347  0.33011418  1
  I  I104  1  0.82937483  0.50419736  0.66751561  1
  I  I105  1  0.83038941  0.83536967  -0.00169865  1
  I  I106  1  0.83304437  0.83737582  0.33440073  1
  I  I107  1  0.83795871  0.85953285  0.66615308  1
  I  I108  1  -0.00308843  0.15051083  0.16325407  1
  I  I109  1  -0.00203732  0.15260964  0.52199740  1
  I  I110  1  -0.00149114  0.16578161  0.81473749  1
  I  I111  1  0.00160144  0.51958969  0.17210359  1
  I  I112  1  -0.00000846  0.50785425  0.49414489  1
  I  I113  1  0.00088647  0.51876744  0.83599446  1
  I  I114  1  0.00078534  0.82429469  0.17918164  1
  I  I115  1  0.00028832  0.84930826  0.49802728  1
  I  I116  1  -0.00176675  0.82739782  0.82156280  1
  I  I117  1  0.32905156  0.16128496  0.14224609  1
  I  I118  1  0.32999990  0.17252607  0.48263418  1
  I  I119  1  0.33215473  0.18166066  0.84421399  1
  I  I120  1  0.33461224  0.47868119  0.16223330  1
  I  I121  1  0.33364931  0.49786316  0.48819900  1
  I  I122  1  0.33069047  0.54298811  0.83661035  1
  I  I123  1  0.33020507  0.85244100  0.17529407  1
  I  I124  1  0.33161342  0.81306699  0.48928989  1
  I  I125  1  0.33105612  0.80909162  0.84267698  1
  I  I126  1  0.67001021  0.19275493  0.16114371  1
  I  I127  1  0.66999780  0.14576279  0.49097564  1
  I  I128  1  0.66876547  0.13093862  0.84089727  1
  I  I129  1  0.66912844  0.46698673  0.16824055  1
  I  I130  1  0.66888222  0.49548532  0.50330345  1
  I  I131  1  0.66767264  0.48992176  0.83709179  1
  I  I132  1  0.66466353  0.82991659  0.18155680  1
  I  I133  1  0.66461872  0.85390137  0.49312720  1
  I  I134  1  0.66879427  0.85861259  0.83962171  1
