# generated using pymatgen
data_Cs27Sn14Pb13I81
_symmetry_space_group_name_H-M   'P 1'
_cell_length_a   18.97028103
_cell_length_b   18.97435952
_cell_length_c   18.98308053
_cell_angle_alpha   89.99910228
_cell_angle_beta   89.99981320
_cell_angle_gamma   90.00118421
_symmetry_Int_Tables_number   1
_chemical_formula_structural   Cs27Sn14Pb13I81
_chemical_formula_sum   'Cs27 Sn14 Pb13 I81'
_cell_volume   6832.93956585
_cell_formula_units_Z   1
loop_
 _symmetry_equiv_pos_site_id
 _symmetry_equiv_pos_as_xyz
  1  'x, y, z'
loop_
 _atom_site_type_symbol
 _atom_site_label
 _atom_site_symmetry_multiplicity
 _atom_site_fract_x
 _atom_site_fract_y
 _atom_site_fract_z
 _atom_site_occupancy
  Cs  Cs0  1  0.00064985  -0.00163972  0.00313083  1
  Cs  Cs1  1  0.00060040  -0.00025824  0.33293342  1
  Cs  Cs2  1  -0.00134356  0.00376988  0.66347726  1
  Cs  Cs3  1  -0.00424933  0.33499540  -0.00633200  1
  Cs  Cs4  1  0.00088567  0.33304444  0.33336073  1
  Cs  Cs5  1  0.00087190  0.33132450  0.67028351  1
  Cs  Cs6  1  0.00252213  0.66624790  -0.00311928  1
  Cs  Cs7  1  -0.00318938  0.66681118  0.33565115  1
  Cs  Cs8  1  -0.00044821  0.66466077  0.66492176  1
  Cs  Cs9  1  0.33130036  -0.00250394  0.00203211  1
  Cs  Cs10  1  0.33158423  0.00274917  0.33173039  1
  Cs  Cs11  1  0.33531541  -0.00083497  0.66704718  1
  Cs  Cs12  1  0.33390061  0.33501402  0.00582616  1
  Cs  Cs13  1  0.33451626  0.33352231  0.33439498  1
  Cs  Cs14  1  0.33095986  0.33508738  0.66304058  1
  Cs  Cs15  1  0.33333102  0.66797794  -0.00256859  1
  Cs  Cs16  1  0.33519537  0.66471361  0.33353840  1
  Cs  Cs17  1  0.33344924  0.66570746  0.66831671  1
  Cs  Cs18  1  0.66721303  -0.00015036  -0.00372369  1
  Cs  Cs19  1  0.66768057  -0.00152108  0.33297439  1
  Cs  Cs20  1  0.66611110  0.00184214  0.67214297  1
  Cs  Cs21  1  0.67059671  0.33152993  -0.00289721  1
  Cs  Cs22  1  0.66467945  0.33460792  0.33174277  1
  Cs  Cs23  1  0.66740307  0.32905229  0.67199189  1
  Cs  Cs24  1  0.66460828  0.66845502  0.00414703  1
  Cs  Cs25  1  0.66754469  0.66685553  0.33211199  1
  Cs  Cs26  1  0.66548923  0.66867288  0.66206749  1
  Sn  Sn27  1  0.83281848  0.83399876  0.16583888  1
  Sn  Sn28  1  0.83358550  0.83279495  0.83411633  1
  Sn  Sn29  1  0.16756300  0.83314626  0.49979241  1
  Sn  Sn30  1  0.16711472  0.50025609  0.49907100  1
  Sn  Sn31  1  0.49926118  0.50084736  0.16671541  1
  Sn  Sn32  1  0.50034216  0.83300739  0.16759836  1
  Sn  Sn33  1  0.83335340  0.16601971  0.16772731  1
  Sn  Sn34  1  0.50013029  0.49988453  0.83322765  1
  Sn  Sn35  1  0.16694671  0.50020486  0.16744204  1
  Sn  Sn36  1  0.49899010  0.83295158  0.49900885  1
  Sn  Sn37  1  0.83361627  0.16688587  0.49887942  1
  Sn  Sn38  1  0.49954624  0.50062951  0.50012311  1
  Sn  Sn39  1  0.16602270  0.16669238  0.50057636  1
  Sn  Sn40  1  0.16749760  0.16632686  0.83311729  1
  Pb  Pb41  1  0.83064103  0.50296897  0.83317585  1
  Pb  Pb42  1  0.16445726  0.16919771  0.16706412  1
  Pb  Pb43  1  0.49970804  0.16644074  0.49989650  1
  Pb  Pb44  1  0.83520900  0.16471753  0.83353739  1
  Pb  Pb45  1  0.50243032  0.16635692  0.16660682  1
  Pb  Pb46  1  0.16670625  0.83100977  0.16880542  1
  Pb  Pb47  1  0.16465326  0.83530315  0.83039204  1
  Pb  Pb48  1  0.83332113  0.50046689  0.16678983  1
  Pb  Pb49  1  0.83274767  0.83514865  0.49948470  1
  Pb  Pb50  1  0.49681933  0.16904414  0.83351275  1
  Pb  Pb51  1  0.83300126  0.49707434  0.50013956  1
  Pb  Pb52  1  0.50132495  0.83164810  0.83324741  1
  Pb  Pb53  1  0.16852907  0.49841944  0.83309095  1
  I  I54  1  0.16888380  -0.00008622  0.16733999  1
  I  I55  1  0.16602401  0.00020464  0.50460076  1
  I  I56  1  0.16578293  0.00317827  0.82774694  1
  I  I57  1  0.17249493  0.33693081  0.17254170  1
  I  I58  1  0.16709240  0.33378175  0.50005610  1
  I  I59  1  0.16556671  0.33066381  0.82685568  1
  I  I60  1  0.16616730  0.66308460  0.17158864  1
  I  I61  1  0.17096405  0.66614318  0.49538280  1
  I  I62  1  0.16555541  0.66665912  0.83270990  1
  I  I63  1  0.50224738  -0.00358050  0.17219373  1
  I  I64  1  0.49731584  -0.00326294  0.49480224  1
  I  I65  1  0.50128850  -0.00031014  0.83264532  1
  I  I66  1  0.49688860  0.33685844  0.16864311  1
  I  I67  1  0.49698508  0.33665243  0.49845433  1
  I  I68  1  0.50107846  0.33738637  0.83236045  1
  I  I69  1  0.50304767  0.66643708  0.16808376  1
  I  I70  1  0.49326163  0.66632851  0.49989248  1
  I  I71  1  0.49938450  0.66360860  0.83297341  1
  I  I72  1  0.82852407  -0.00092986  0.16722364  1
  I  I73  1  0.83834524  0.00287791  0.49858486  1
  I  I74  1  0.83183142  -0.00282805  0.83412522  1
  I  I75  1  0.83396055  0.33095059  0.17120356  1
  I  I76  1  0.83722991  0.32909655  0.49442484  1
  I  I77  1  0.83281796  0.33309752  0.83385198  1
  I  I78  1  0.83116884  0.66977472  0.16329756  1
  I  I79  1  0.83628920  0.66681552  0.50001027  1
  I  I80  1  0.83493585  0.67066249  0.83980285  1
  I  I81  1  0.16505174  0.16946254  -0.00180925  1
  I  I82  1  0.16410752  0.16563136  0.33654217  1
  I  I83  1  0.16009305  0.16918888  0.66410233  1
  I  I84  1  0.17054784  0.49776011  0.00252985  1
  I  I85  1  0.17436002  0.49745795  0.33474611  1
  I  I86  1  0.17087376  0.50116263  0.66320418  1
  I  I87  1  0.16853461  0.83395357  0.00016475  1
  I  I88  1  0.16507918  0.83866760  0.33694851  1
  I  I89  1  0.17096336  0.82803691  0.66210862  1
  I  I90  1  0.49998911  0.16756278  0.00012281  1
  I  I91  1  0.49675389  0.17106819  0.33335898  1
  I  I92  1  0.50615315  0.16612729  0.66645041  1
  I  I93  1  0.49581908  0.50385441  0.00156408  1
  I  I94  1  0.49563291  0.50397206  0.33351795  1
  I  I95  1  0.49593772  0.50388252  0.66495900  1
  I  I96  1  0.50335815  0.82867051  0.00300028  1
  I  I97  1  0.50302640  0.82529743  0.33336955  1
  I  I98  1  0.49812429  0.82917975  0.66355410  1
  I  I99  1  0.83421840  0.16529623  0.00259757  1
  I  I100  1  0.83903454  0.16092092  0.33353662  1
  I  I101  1  0.83557345  0.16547821  0.66422592  1
  I  I102  1  0.83445867  0.49397308  0.00017475  1
  I  I103  1  0.82999960  0.50349572  0.33343503  1
  I  I104  1  0.83326043  0.50049911  0.66652542  1
  I  I105  1  0.82716640  0.83932717  0.00190405  1
  I  I106  1  0.83179947  0.83575710  0.33080376  1
  I  I107  1  0.83331718  0.83500562  0.66794328  1
  I  I108  1  -0.00328608  0.16105649  0.16900769  1
  I  I109  1  0.00121614  0.16587656  0.50009279  1
  I  I110  1  0.00282240  0.16844482  0.83001455  1
  I  I111  1  0.00273619  0.49928525  0.17283030  1
  I  I112  1  0.00346811  0.50322111  0.49494818  1
  I  I113  1  0.00025739  0.49911022  0.83382226  1
  I  I114  1  -0.00258374  0.83621099  0.16487270  1
  I  I115  1  0.00247544  0.83115276  0.50028907  1
  I  I116  1  -0.00315277  0.83386377  0.83968295  1
  I  I117  1  0.33307962  0.16489011  0.16676827  1
  I  I118  1  0.33004118  0.16735877  0.50416736  1
  I  I119  1  0.32917414  0.16577066  0.82433029  1
  I  I120  1  0.33455139  0.50404538  0.16755989  1
  I  I121  1  0.33325680  0.49811159  0.49913956  1
  I  I122  1  0.33645175  0.50066751  0.83306023  1
  I  I123  1  0.33621498  0.83057167  0.16888518  1
  I  I124  1  0.33374446  0.83459062  0.49516934  1
  I  I125  1  0.33327645  0.83413936  0.83559019  1
  I  I126  1  0.67050218  0.16782383  0.17278984  1
  I  I127  1  0.66922303  0.16623234  0.49593641  1
  I  I128  1  0.66688442  0.16747427  0.83229167  1
  I  I129  1  0.66327279  0.50100620  0.16846871  1
  I  I130  1  0.66292391  0.50490348  0.49796918  1
  I  I131  1  0.66247225  0.49862650  0.83348639  1
  I  I132  1  0.66599421  0.83057129  0.16945599  1
  I  I133  1  0.66378356  0.82884481  0.49893161  1
  I  I134  1  0.66931875  0.83408893  0.83226173  1
