# generated using pymatgen
data_Cs27Sn14Pb13I81
_symmetry_space_group_name_H-M   'P 1'
_cell_length_a   18.97487310
_cell_length_b   18.97050312
_cell_length_c   18.98055841
_cell_angle_alpha   90.00120291
_cell_angle_beta   89.99844791
_cell_angle_gamma   90.00086940
_symmetry_Int_Tables_number   1
_chemical_formula_structural   Cs27Sn14Pb13I81
_chemical_formula_sum   'Cs27 Sn14 Pb13 I81'
_cell_volume   6832.29663989
_cell_formula_units_Z   1
loop_
 _symmetry_equiv_pos_site_id
 _symmetry_equiv_pos_as_xyz
  1  'x, y, z'
loop_
 _atom_site_type_symbol
 _atom_site_label
 _atom_site_symmetry_multiplicity
 _atom_site_fract_x
 _atom_site_fract_y
 _atom_site_fract_z
 _atom_site_occupancy
  Cs  Cs0  1  -0.00309527  0.00164464  0.00333265  1
  Cs  Cs1  1  -0.00136899  0.00239362  0.33289809  1
  Cs  Cs2  1  0.00064118  0.00209294  0.66441274  1
  Cs  Cs3  1  0.00054713  0.33392719  -0.00090136  1
  Cs  Cs4  1  0.00133287  0.33038621  0.33119937  1
  Cs  Cs5  1  -0.00155463  0.33331205  0.66796321  1
  Cs  Cs6  1  0.00051955  0.66551631  0.00071245  1
  Cs  Cs7  1  0.00108256  0.66710033  0.33319639  1
  Cs  Cs8  1  0.00098716  0.66469483  0.66689346  1
  Cs  Cs9  1  0.33577169  -0.00001964  -0.00292722  1
  Cs  Cs10  1  0.33133285  -0.00041905  0.33578316  1
  Cs  Cs11  1  0.33599143  0.00068744  0.66659894  1
  Cs  Cs12  1  0.33521255  0.33564745  0.00034300  1
  Cs  Cs13  1  0.34082862  0.32742118  0.33315427  1
  Cs  Cs14  1  0.33409423  0.33045174  0.66738883  1
  Cs  Cs15  1  0.33125401  0.66519664  0.00097259  1
  Cs  Cs16  1  0.33354362  0.66757537  0.33201566  1
  Cs  Cs17  1  0.32983832  0.66859023  0.66816363  1
  Cs  Cs18  1  0.66875058  -0.00007330  -0.00172540  1
  Cs  Cs19  1  0.67231138  -0.00167309  0.33109537  1
  Cs  Cs20  1  0.66500413  -0.00000776  0.66950450  1
  Cs  Cs21  1  0.66128288  0.33127736  0.00403003  1
  Cs  Cs22  1  0.65627175  0.33719415  0.33235075  1
  Cs  Cs23  1  0.66939012  0.33485088  0.66311689  1
  Cs  Cs24  1  0.67026102  0.66955613  -0.00239353  1
  Cs  Cs25  1  0.66306690  0.66480626  0.33488468  1
  Cs  Cs26  1  0.67115762  0.66491943  0.66731758  1
  Sn  Sn27  1  0.16593058  0.50034923  0.16729647  1
  Sn  Sn28  1  0.83365910  0.83373342  0.50028288  1
  Sn  Sn29  1  0.16728897  0.49982417  0.83315133  1
  Sn  Sn30  1  0.49946832  0.50043925  0.83290011  1
  Sn  Sn31  1  0.16668912  0.49999097  0.49952854  1
  Sn  Sn32  1  0.49914320  0.83312671  0.16703952  1
  Sn  Sn33  1  0.83350517  0.16636987  0.50056353  1
  Sn  Sn34  1  0.16586830  0.16663082  0.83344431  1
  Sn  Sn35  1  0.16655058  0.83273493  0.49984195  1
  Sn  Sn36  1  0.16726974  0.83283142  0.16679869  1
  Sn  Sn37  1  0.83408441  0.16687895  0.83272709  1
  Sn  Sn38  1  0.16631354  0.83375114  0.83351634  1
  Sn  Sn39  1  0.49981433  0.83314066  0.49951165  1
  Sn  Sn40  1  0.83405042  0.50000708  0.16691815  1
  Pb  Pb41  1  0.49907752  0.50235398  0.16488890  1
  Pb  Pb42  1  0.50319846  0.16365094  0.50008823  1
  Pb  Pb43  1  0.49803383  0.83141109  0.83325334  1
  Pb  Pb44  1  0.16530938  0.16663617  0.50187351  1
  Pb  Pb45  1  0.16691991  0.16651884  0.16407313  1
  Pb  Pb46  1  0.50011733  0.16910846  0.83313117  1
  Pb  Pb47  1  0.83376131  0.83144503  0.16889533  1
  Pb  Pb48  1  0.49687368  0.50247915  0.50231595  1
  Pb  Pb49  1  0.83374497  0.49777783  0.83517826  1
  Pb  Pb50  1  0.83556454  0.49978759  0.49781062  1
  Pb  Pb51  1  0.49974631  0.16271454  0.16669309  1
  Pb  Pb52  1  0.83616740  0.83531306  0.83100251  1
  Pb  Pb53  1  0.83341628  0.16952190  0.16704999  1
  I  I54  1  0.17040452  -0.00378527  0.16767419  1
  I  I55  1  0.16818411  -0.00360765  0.50002559  1
  I  I56  1  0.16228490  -0.00075093  0.83262466  1
  I  I57  1  0.16137339  0.33679799  0.16622250  1
  I  I58  1  0.16314953  0.33614342  0.50094602  1
  I  I59  1  0.16613224  0.33434679  0.83313170  1
  I  I60  1  0.16633125  0.66697686  0.16271831  1
  I  I61  1  0.16434277  0.66798255  0.50433498  1
  I  I62  1  0.17140324  0.66650244  0.83311845  1
  I  I63  1  0.49363191  -0.00543324  0.16932998  1
  I  I64  1  0.49228485  -0.00461918  0.49807440  1
  I  I65  1  0.49878109  -0.00029926  0.83386120  1
  I  I66  1  0.50071341  0.33381402  0.16499876  1
  I  I67  1  0.50023978  0.33364902  0.50103168  1
  I  I68  1  0.49276221  0.33689992  0.83480106  1
  I  I69  1  0.49737713  0.67000651  0.17094310  1
  I  I70  1  0.50465878  0.67052739  0.49624727  1
  I  I71  1  0.49311703  0.66378908  0.83368295  1
  I  I72  1  0.83269412  -0.00016484  0.16518686  1
  I  I73  1  0.83593592  -0.00113186  0.50304668  1
  I  I74  1  0.83834465  0.00324321  0.83311370  1
  I  I75  1  0.84172938  0.33721938  0.16688007  1
  I  I76  1  0.83738453  0.33096270  0.50422014  1
  I  I77  1  0.84043373  0.33015829  0.82633276  1
  I  I78  1  0.83662783  0.66382235  0.16683842  1
  I  I79  1  0.83270575  0.66945469  0.49800785  1
  I  I80  1  0.83335981  0.66655563  0.83263897  1
  I  I81  1  0.15990148  0.16648143  -0.00435361  1
  I  I82  1  0.16429095  0.16676531  0.33345486  1
  I  I83  1  0.16447610  0.16692907  0.67010338  1
  I  I84  1  0.16637485  0.50291392  -0.00026610  1
  I  I85  1  0.15999255  0.50933858  0.33307777  1
  I  I86  1  0.17042945  0.50377737  0.66714477  1
  I  I87  1  0.17167179  0.83029230  0.00017659  1
  I  I88  1  0.16732165  0.82634235  0.33380026  1
  I  I89  1  0.16625171  0.83024608  0.66624115  1
  I  I90  1  0.50261352  0.16461957  -0.00037553  1
  I  I91  1  0.50139969  0.17195326  0.33357473  1
  I  I92  1  0.49757254  0.16385029  0.66669701  1
  I  I93  1  0.49370793  0.50173557  -0.00267017  1
  I  I94  1  0.50048946  0.49876173  0.33340832  1
  I  I95  1  0.49442441  0.50201828  0.66987435  1
  I  I96  1  0.49444977  0.83111171  0.00238651  1
  I  I97  1  0.49454554  0.83225838  0.33379410  1
  I  I98  1  0.49862805  0.83230166  0.66392609  1
  I  I99  1  0.83821719  0.16856398  -0.00279652  1
  I  I100  1  0.83456933  0.16110706  0.33636330  1
  I  I101  1  0.83841400  0.16332671  0.66676994  1
  I  I102  1  0.83973044  0.49996562  0.00272507  1
  I  I103  1  0.83985933  0.49984123  0.33031024  1
  I  I104  1  0.83366661  0.50140878  0.66650177  1
  I  I105  1  0.83241982  0.83426848  0.00000966  1
  I  I106  1  0.83830889  0.83940251  0.33687473  1
  I  I107  1  0.83277117  0.83311939  0.66282027  1
  I  I108  1  0.00012988  0.16214746  0.16775486  1
  I  I109  1  -0.00255229  0.16041542  0.50235560  1
  I  I110  1  0.00116468  0.16849814  0.82930487  1
  I  I111  1  0.00259347  0.50578909  0.16389463  1
  I  I112  1  0.00373559  0.50638963  0.50574114  1
  I  I113  1  0.00371555  0.50200500  0.83199058  1
  I  I114  1  0.00344463  0.83111751  0.16652601  1
  I  I115  1  0.00138497  0.83355174  0.50056008  1
  I  I116  1  0.00466924  0.82700897  0.83438019  1
  I  I117  1  0.33304254  0.17227250  0.16458906  1
  I  I118  1  0.33332181  0.16646394  0.50147957  1
  I  I119  1  0.32998578  0.16484503  0.83386862  1
  I  I120  1  0.32969222  0.50313088  0.16664793  1
  I  I121  1  0.32859555  0.50567046  0.49576209  1
  I  I122  1  0.33024808  0.49871645  0.83568684  1
  I  I123  1  0.33132983  0.82743556  0.17087041  1
  I  I124  1  0.33179904  0.82801007  0.49945439  1
  I  I125  1  0.32926673  0.83710749  0.82903382  1
  I  I126  1  0.66688561  0.16816096  0.16359765  1
  I  I127  1  0.67122972  0.16266424  0.50751345  1
  I  I128  1  0.66974515  0.16817182  0.82946807  1
  I  I129  1  0.66834469  0.50049619  0.16466256  1
  I  I130  1  0.66659301  0.50082732  0.50029190  1
  I  I131  1  0.66471069  0.49921628  0.83574157  1
  I  I132  1  0.66447572  0.83119739  0.17162460  1
  I  I133  1  0.66672164  0.83849528  0.49465715  1
  I  I134  1  0.66681840  0.83285783  0.83378191  1
