# generated using pymatgen
data_Cs27Sn14Pb13I81
_symmetry_space_group_name_H-M   'P 1'
_cell_length_a   18.97875816
_cell_length_b   18.97947034
_cell_length_c   18.96778164
_cell_angle_alpha   89.99959611
_cell_angle_beta   89.99941556
_cell_angle_gamma   89.99989828
_symmetry_Int_Tables_number   1
_chemical_formula_structural   Cs27Sn14Pb13I81
_chemical_formula_sum   'Cs27 Sn14 Pb13 I81'
_cell_volume   6832.32350045
_cell_formula_units_Z   1
loop_
 _symmetry_equiv_pos_site_id
 _symmetry_equiv_pos_as_xyz
  1  'x, y, z'
loop_
 _atom_site_type_symbol
 _atom_site_label
 _atom_site_symmetry_multiplicity
 _atom_site_fract_x
 _atom_site_fract_y
 _atom_site_fract_z
 _atom_site_occupancy
  Cs  Cs0  1  -0.00134770  -0.00158188  0.00304306  1
  Cs  Cs1  1  -0.00015319  0.00127543  0.33218675  1
  Cs  Cs2  1  0.00565267  -0.00633709  0.66584032  1
  Cs  Cs3  1  -0.00257613  0.33510553  0.00015149  1
  Cs  Cs4  1  -0.00295536  0.33150867  0.33275376  1
  Cs  Cs5  1  0.00201317  0.33274261  0.66700360  1
  Cs  Cs6  1  0.00025149  0.66530771  0.00235682  1
  Cs  Cs7  1  -0.00098861  0.66843638  0.32883666  1
  Cs  Cs8  1  0.00591712  0.67479734  0.66892307  1
  Cs  Cs9  1  0.33892341  0.00307456  -0.00437565  1
  Cs  Cs10  1  0.33153128  0.00157306  0.33211700  1
  Cs  Cs11  1  0.32744989  -0.00378389  0.67527392  1
  Cs  Cs12  1  0.33648139  0.33173867  -0.00222966  1
  Cs  Cs13  1  0.33524549  0.33381406  0.33595901  1
  Cs  Cs14  1  0.32234236  0.33369831  0.66461797  1
  Cs  Cs15  1  0.33278192  0.66534535  0.00185122  1
  Cs  Cs16  1  0.33668423  0.66541669  0.33537791  1
  Cs  Cs17  1  0.32899325  0.67084429  0.65835409  1
  Cs  Cs18  1  0.66327581  0.00176671  -0.00219716  1
  Cs  Cs19  1  0.66750954  0.00386134  0.33358870  1
  Cs  Cs20  1  0.66518435  -0.00675385  0.66737543  1
  Cs  Cs21  1  0.66700222  0.33421278  0.00000027  1
  Cs  Cs22  1  0.66763005  0.33227800  0.33385253  1
  Cs  Cs23  1  0.66943751  0.33424959  0.66467459  1
  Cs  Cs24  1  0.66743050  0.66367297  0.00047918  1
  Cs  Cs25  1  0.66506051  0.66535661  0.33412297  1
  Cs  Cs26  1  0.66405819  0.67240165  0.66525885  1
  Sn  Sn27  1  0.83337838  0.49984794  0.50064133  1
  Sn  Sn28  1  0.83312718  0.16707335  0.83284109  1
  Sn  Sn29  1  0.16725663  0.83348644  0.16654919  1
  Sn  Sn30  1  0.83246343  0.49940735  0.83267324  1
  Sn  Sn31  1  0.83377749  0.16666460  0.16631206  1
  Sn  Sn32  1  0.16615161  0.16710867  0.16653421  1
  Sn  Sn33  1  0.83231338  0.16728618  0.50081884  1
  Sn  Sn34  1  0.16693851  0.49940384  0.16667709  1
  Sn  Sn35  1  0.50029264  0.83269356  0.16681411  1
  Sn  Sn36  1  0.83307524  0.49987390  0.16677560  1
  Sn  Sn37  1  0.50041711  0.16666153  0.50101687  1
  Sn  Sn38  1  0.50053737  0.49973463  0.83301533  1
  Sn  Sn39  1  0.83248945  0.83344544  0.16666905  1
  Sn  Sn40  1  0.50031016  0.50053419  0.16600152  1
  Pb  Pb41  1  0.16588408  0.16662202  0.49798941  1
  Pb  Pb42  1  0.50025535  0.16722780  0.16761007  1
  Pb  Pb43  1  0.83327793  0.83350038  0.49762068  1
  Pb  Pb44  1  0.50231151  0.16944623  0.82979267  1
  Pb  Pb45  1  0.83322848  0.83285833  0.83593819  1
  Pb  Pb46  1  0.16643755  0.50004564  0.83534398  1
  Pb  Pb47  1  0.50190648  0.49837887  0.50054233  1
  Pb  Pb48  1  0.16310841  0.49998230  0.49725767  1
  Pb  Pb49  1  0.16352356  0.16689283  0.83633729  1
  Pb  Pb50  1  0.50013669  0.83003590  0.83563686  1
  Pb  Pb51  1  0.16672599  0.83341202  0.49711000  1
  Pb  Pb52  1  0.50008757  0.83652779  0.49758653  1
  Pb  Pb53  1  0.16679488  0.83310948  0.83659282  1
  I  I54  1  0.16182642  0.00012205  0.16795136  1
  I  I55  1  0.16366370  0.00029964  0.49524896  1
  I  I56  1  0.16519945  0.00023476  0.83591628  1
  I  I57  1  0.16214250  0.33367388  0.16693864  1
  I  I58  1  0.16915318  0.33332820  0.49576917  1
  I  I59  1  0.16876013  0.33342777  0.83713789  1
  I  I60  1  0.16256289  0.66627969  0.16627200  1
  I  I61  1  0.16568455  0.66640971  0.49747022  1
  I  I62  1  0.16272857  0.66630887  0.83700129  1
  I  I63  1  0.50029609  -0.00208116  0.17021331  1
  I  I64  1  0.50960575  0.00415189  0.49543963  1
  I  I65  1  0.50125808  0.00020414  0.83472589  1
  I  I66  1  0.50058805  0.33645725  0.16484625  1
  I  I67  1  0.50404256  0.33070786  0.49405602  1
  I  I68  1  0.50333809  0.33699833  0.84458302  1
  I  I69  1  0.50077866  0.66552734  0.16383847  1
  I  I70  1  0.50155660  0.66652777  0.50041537  1
  I  I71  1  0.50922418  0.66201868  0.83639468  1
  I  I72  1  0.83665486  0.00086120  0.16742761  1
  I  I73  1  0.83006185  0.00356777  0.49768696  1
  I  I74  1  0.83414670  0.00300941  0.83502330  1
  I  I75  1  0.83564858  0.33371713  0.16702204  1
  I  I76  1  0.82975154  0.33296446  0.49333425  1
  I  I77  1  0.83024024  0.33407153  0.83960709  1
  I  I78  1  0.83577053  0.66541327  0.16669932  1
  I  I79  1  0.83305382  0.66347902  0.49758378  1
  I  I80  1  0.82999255  0.66288644  0.83509035  1
  I  I81  1  0.16226485  0.16667157  0.00499229  1
  I  I82  1  0.16003199  0.16630629  0.32905344  1
  I  I83  1  0.16652583  0.16686157  0.66681093  1
  I  I84  1  0.16112561  0.50089313  0.00465982  1
  I  I85  1  0.16748052  0.50030870  0.32818162  1
  I  I86  1  0.16752907  0.49964179  0.66655515  1
  I  I87  1  0.16425187  0.83222861  0.00553627  1
  I  I88  1  0.16465742  0.83341027  0.32795064  1
  I  I89  1  0.16642561  0.83350936  0.66680631  1
  I  I90  1  0.49967597  0.16429551  -0.00014312  1
  I  I91  1  0.50666593  0.16854896  0.33495654  1
  I  I92  1  0.50814945  0.16924987  0.66249545  1
  I  I93  1  0.50492158  0.50281364  0.00217382  1
  I  I94  1  0.50057262  0.50283245  0.33001343  1
  I  I95  1  0.50769427  0.49644508  0.66948440  1
  I  I96  1  0.50039817  0.83421270  0.00466816  1
  I  I97  1  0.50043297  0.82537586  0.32863523  1
  I  I98  1  0.50075073  0.83242819  0.66671127  1
  I  I99  1  0.83831619  0.16931385  0.00137427  1
  I  I100  1  0.83363103  0.16905204  0.33202827  1
  I  I101  1  0.82700984  0.17706160  0.66637354  1
  I  I102  1  0.83333181  0.49791711  0.00185238  1
  I  I103  1  0.83370139  0.49757142  0.33142265  1
  I  I104  1  0.82666742  0.48982136  0.66709091  1
  I  I105  1  0.83458933  0.83316645  0.00494487  1
  I  I106  1  0.83446791  0.83283305  0.32850153  1
  I  I107  1  0.83337410  0.83315853  0.66674184  1
  I  I108  1  -0.00190036  0.16665198  0.16851655  1
  I  I109  1  -0.00406157  0.17134695  0.49944306  1
  I  I110  1  -0.00488972  0.17447095  0.83025674  1
  I  I111  1  -0.00145495  0.50189793  0.16707868  1
  I  I112  1  -0.00521341  0.49181460  0.49899079  1
  I  I113  1  -0.00386983  0.49559596  0.83559413  1
  I  I114  1  -0.00054999  0.83111046  0.16681510  1
  I  I115  1  -0.00032061  0.83480308  0.49706668  1
  I  I116  1  -0.00033484  0.83153269  0.83597536  1
  I  I117  1  0.33107854  0.16647180  0.17037551  1
  I  I118  1  0.33562558  0.16753220  0.49404651  1
  I  I119  1  0.33345981  0.16749401  0.83372019  1
  I  I120  1  0.33381326  0.50261073  0.16224144  1
  I  I121  1  0.33333584  0.49786011  0.49885277  1
  I  I122  1  0.33628329  0.50000714  0.84134305  1
  I  I123  1  0.33324350  0.83001566  0.16726495  1
  I  I124  1  0.33357772  0.83382964  0.49583372  1
  I  I125  1  0.33362668  0.83341172  0.83684208  1
  I  I126  1  0.67013263  0.16674406  0.16590527  1
  I  I127  1  0.66917700  0.17090088  0.49417619  1
  I  I128  1  0.67061443  0.16896340  0.84183691  1
  I  I129  1  0.66788009  0.50218676  0.16639013  1
  I  I130  1  0.67022217  0.49710639  0.49271921  1
  I  I131  1  0.66824870  0.49602684  0.84145567  1
  I  I132  1  0.66728599  0.83027522  0.16699705  1
  I  I133  1  0.66679569  0.83185618  0.49530120  1
  I  I134  1  0.66677839  0.83570402  0.83750130  1
