# generated using pymatgen
data_Cs27Sn13Pb14I81
_symmetry_space_group_name_H-M   'P 1'
_cell_length_a   18.97628180
_cell_length_b   18.96973662
_cell_length_c   18.98582369
_cell_angle_alpha   90.00056277
_cell_angle_beta   89.99960685
_cell_angle_gamma   90.00022228
_symmetry_Int_Tables_number   1
_chemical_formula_structural   Cs27Sn13Pb14I81
_chemical_formula_sum   'Cs27 Sn13 Pb14 I81'
_cell_volume   6834.42316983
_cell_formula_units_Z   1
loop_
 _symmetry_equiv_pos_site_id
 _symmetry_equiv_pos_as_xyz
  1  'x, y, z'
loop_
 _atom_site_type_symbol
 _atom_site_label
 _atom_site_symmetry_multiplicity
 _atom_site_fract_x
 _atom_site_fract_y
 _atom_site_fract_z
 _atom_site_occupancy
  Cs  Cs0  1  -0.00101978  0.00137949  -0.00364970  1
  Cs  Cs1  1  0.00015254  -0.00011036  0.33479606  1
  Cs  Cs2  1  -0.00005438  -0.00231618  0.66841384  1
  Cs  Cs3  1  0.00201581  0.33289302  0.00404328  1
  Cs  Cs4  1  0.00405149  0.33072602  0.33146168  1
  Cs  Cs5  1  0.00158902  0.33528034  0.66403341  1
  Cs  Cs6  1  -0.00048010  0.66621447  0.00022141  1
  Cs  Cs7  1  -0.00220118  0.66701857  0.33304854  1
  Cs  Cs8  1  -0.00166766  0.66888948  0.66694678  1
  Cs  Cs9  1  0.33563005  -0.00096775  0.00051610  1
  Cs  Cs10  1  0.33574582  0.00240526  0.33159550  1
  Cs  Cs11  1  0.33122372  -0.00086813  0.66722448  1
  Cs  Cs12  1  0.33062651  0.33517448  -0.00310458  1
  Cs  Cs13  1  0.32512009  0.32669164  0.34102722  1
  Cs  Cs14  1  0.34123141  0.33767652  0.66257936  1
  Cs  Cs15  1  0.33308530  0.66620281  -0.00056270  1
  Cs  Cs16  1  0.33451966  0.66810552  0.33224125  1
  Cs  Cs17  1  0.33425830  0.66449901  0.66782238  1
  Cs  Cs18  1  0.66534951  0.00850533  -0.00125354  1
  Cs  Cs19  1  0.66452093  -0.00025086  0.33082400  1
  Cs  Cs20  1  0.66785802  0.00049627  0.66930190  1
  Cs  Cs21  1  0.66605361  0.32770388  -0.00151340  1
  Cs  Cs22  1  0.66769032  0.33434871  0.33397780  1
  Cs  Cs23  1  0.65923251  0.33340589  0.66752339  1
  Cs  Cs24  1  0.66799623  0.66735059  0.00415311  1
  Cs  Cs25  1  0.66812026  0.66701427  0.33146345  1
  Cs  Cs26  1  0.66818481  0.66695709  0.66602793  1
  Sn  Sn27  1  0.83399344  0.83328426  0.16704517  1
  Sn  Sn28  1  0.16690139  0.83313257  0.49982195  1
  Sn  Sn29  1  0.83221138  0.50066711  0.16650966  1
  Sn  Sn30  1  0.83336447  0.49990797  0.83364113  1
  Sn  Sn31  1  0.83312227  0.83343973  0.49918346  1
  Sn  Sn32  1  0.83333421  0.49975050  0.49990360  1
  Sn  Sn33  1  0.16678791  0.16648844  0.83282712  1
  Sn  Sn34  1  0.50030683  0.83309879  0.50093687  1
  Sn  Sn35  1  0.83315870  0.16645444  0.50004930  1
  Sn  Sn36  1  0.49974788  0.83298027  0.83291770  1
  Sn  Sn37  1  0.16751243  0.83380826  0.83343481  1
  Sn  Sn38  1  0.16568364  0.83312698  0.16652485  1
  Sn  Sn39  1  0.50019990  0.49959243  0.16709228  1
  Pb  Pb40  1  0.16463787  0.50240075  0.50000685  1
  Pb  Pb41  1  0.83317838  0.83237321  0.83384508  1
  Pb  Pb42  1  0.50234300  0.16392029  0.49995976  1
  Pb  Pb43  1  0.49725575  0.16431114  0.83319638  1
  Pb  Pb44  1  0.49979144  0.17085446  0.16681168  1
  Pb  Pb45  1  0.50240717  0.50246908  0.83540603  1
  Pb  Pb46  1  0.16655487  0.16355366  0.16439798  1
  Pb  Pb47  1  0.16478056  0.16419248  0.50225306  1
  Pb  Pb48  1  0.83539363  0.16995493  0.83075615  1
  Pb  Pb49  1  0.16493905  0.50036925  0.83313504  1
  Pb  Pb50  1  0.50041133  0.83250746  0.16647060  1
  Pb  Pb51  1  0.83330409  0.16667185  0.16874779  1
  Pb  Pb52  1  0.50208622  0.50229310  0.49767199  1
  Pb  Pb53  1  0.16653370  0.50189694  0.16684483  1
  I  I54  1  0.16081415  -0.00525537  0.16978307  1
  I  I55  1  0.16319147  -0.00466709  0.49824406  1
  I  I56  1  0.16845533  -0.00276687  0.83292648  1
  I  I57  1  0.16591125  0.33327431  0.16402174  1
  I  I58  1  0.16426041  0.33309192  0.50162802  1
  I  I59  1  0.16161447  0.33085640  0.83453890  1
  I  I60  1  0.16403186  0.67083227  0.16423599  1
  I  I61  1  0.16368486  0.67150827  0.50304744  1
  I  I62  1  0.16880924  0.67060148  0.83309796  1
  I  I63  1  0.50047336  -0.00029640  0.16644448  1
  I  I64  1  0.50206974  -0.00493145  0.50213865  1
  I  I65  1  0.50101830  -0.00431415  0.83101614  1
  I  I66  1  0.51088771  0.33860388  0.16514096  1
  I  I67  1  0.50176337  0.33360750  0.49916482  1
  I  I68  1  0.49918340  0.33365177  0.83481856  1
  I  I69  1  0.50365315  0.66490723  0.16685800  1
  I  I70  1  0.50182142  0.67081836  0.50330917  1
  I  I71  1  0.49316639  0.67046631  0.82920165  1
  I  I72  1  0.83734790  -0.00351093  0.17129512  1
  I  I73  1  0.83421085  -0.00218058  0.49591106  1
  I  I74  1  0.83162886  0.00000356  0.83317687  1
  I  I75  1  0.82898540  0.33693264  0.16722060  1
  I  I76  1  0.83392933  0.33430855  0.50011763  1
  I  I77  1  0.83550691  0.33781509  0.83517653  1
  I  I78  1  0.83386433  0.66717055  0.17121542  1
  I  I79  1  0.83389127  0.66774867  0.49913899  1
  I  I80  1  0.83527428  0.66450963  0.82953713  1
  I  I81  1  0.16471882  0.16035214  -0.00342337  1
  I  I82  1  0.16555582  0.16651974  0.33369159  1
  I  I83  1  0.16346013  0.15818294  0.66968832  1
  I  I84  1  0.16296539  0.50341093  0.00002297  1
  I  I85  1  0.16461608  0.50185671  0.33333534  1
  I  I86  1  0.16256626  0.50369862  0.66663426  1
  I  I87  1  0.16629896  0.83602511  -0.00021787  1
  I  I88  1  0.16465400  0.83065808  0.33368797  1
  I  I89  1  0.16549806  0.83686585  0.66650002  1
  I  I90  1  0.50175290  0.16231065  -0.00024449  1
  I  I91  1  0.50014115  0.16220575  0.33357815  1
  I  I92  1  0.50133665  0.16897134  0.66660274  1
  I  I93  1  0.50676805  0.50489742  0.00297646  1
  I  I94  1  0.50761930  0.50552623  0.33020556  1
  I  I95  1  0.50193421  0.49989453  0.66648402  1
  I  I96  1  0.49608190  0.83060419  -0.00218889  1
  I  I97  1  0.49895019  0.83138548  0.33588024  1
  I  I98  1  0.49800478  0.83281060  0.66608171  1
  I  I99  1  0.83415316  0.16600678  -0.00022652  1
  I  I100  1  0.83464344  0.16847216  0.33677816  1
  I  I101  1  0.83499984  0.16242598  0.66307739  1
  I  I102  1  0.83098329  0.50742983  0.00115653  1
  I  I103  1  0.82930254  0.50317622  0.33335582  1
  I  I104  1  0.83623399  0.50271153  0.66559578  1
  I  I105  1  0.83654758  0.82690036  0.00272948  1
  I  I106  1  0.83603495  0.82908766  0.33431393  1
  I  I107  1  0.83548247  0.83167325  0.66376294  1
  I  I108  1  -0.00013941  0.17061289  0.16666467  1
  I  I109  1  -0.00335324  0.16482621  0.50031884  1
  I  I110  1  0.00271798  0.15679751  0.83264070  1
  I  I111  1  -0.00378065  0.50289960  0.16701739  1
  I  I112  1  -0.00461372  0.50305342  0.49728638  1
  I  I113  1  -0.00346658  0.50409275  0.83527191  1
  I  I114  1  -0.00089217  0.82775443  0.16961248  1
  I  I115  1  -0.00085539  0.83274756  0.49998597  1
  I  I116  1  0.00255762  0.83486931  0.83120723  1
  I  I117  1  0.33307588  0.16514799  0.16744885  1
  I  I118  1  0.33317124  0.16556736  0.50031768  1
  I  I119  1  0.32938311  0.16323380  0.83348696  1
  I  I120  1  0.33587865  0.50484958  0.16428263  1
  I  I121  1  0.33366250  0.50169425  0.49881663  1
  I  I122  1  0.33355965  0.49925061  0.83617264  1
  I  I123  1  0.33090509  0.83129097  0.16860748  1
  I  I124  1  0.33285976  0.83319057  0.50033963  1
  I  I125  1  0.33236243  0.83639966  0.83074375  1
  I  I126  1  0.66695046  0.15979063  0.16554946  1
  I  I127  1  0.67075599  0.16486553  0.50059204  1
  I  I128  1  0.66674489  0.16557964  0.83299255  1
  I  I129  1  0.66920773  0.50844059  0.16749969  1
  I  I130  1  0.67093328  0.50372243  0.50198833  1
  I  I131  1  0.67051133  0.50314368  0.83003833  1
  I  I132  1  0.66970433  0.82970166  0.17076391  1
  I  I133  1  0.66804310  0.83234238  0.49997925  1
  I  I134  1  0.66458889  0.82936359  0.82958089  1
