# generated using pymatgen
data_Cs27Sn13Pb14I81
_symmetry_space_group_name_H-M   'P 1'
_cell_length_a   18.97416826
_cell_length_b   18.98283403
_cell_length_c   18.97205547
_cell_angle_alpha   89.99909109
_cell_angle_beta   89.99818778
_cell_angle_gamma   90.00114162
_symmetry_Int_Tables_number   1
_chemical_formula_structural   Cs27Sn13Pb14I81
_chemical_formula_sum   'Cs27 Sn13 Pb14 I81'
_cell_volume   6833.42108780
_cell_formula_units_Z   1
loop_
 _symmetry_equiv_pos_site_id
 _symmetry_equiv_pos_as_xyz
  1  'x, y, z'
loop_
 _atom_site_type_symbol
 _atom_site_label
 _atom_site_symmetry_multiplicity
 _atom_site_fract_x
 _atom_site_fract_y
 _atom_site_fract_z
 _atom_site_occupancy
  Cs  Cs0  1  0.00280769  0.00011265  0.01037367  1
  Cs  Cs1  1  -0.00125495  0.00262566  0.33160138  1
  Cs  Cs2  1  -0.00046294  -0.00119535  0.66500693  1
  Cs  Cs3  1  0.00180941  0.33554934  0.01184335  1
  Cs  Cs4  1  -0.00113527  0.33248844  0.32956452  1
  Cs  Cs5  1  -0.00034754  0.33356257  0.66509714  1
  Cs  Cs6  1  0.00544225  0.66519546  0.00292870  1
  Cs  Cs7  1  -0.00305074  0.66479968  0.33229943  1
  Cs  Cs8  1  -0.00039572  0.66750753  0.66753157  1
  Cs  Cs9  1  0.33171128  -0.00148091  0.00119343  1
  Cs  Cs10  1  0.33481835  -0.00016578  0.33238486  1
  Cs  Cs11  1  0.33162812  0.00243363  0.66637240  1
  Cs  Cs12  1  0.33484249  0.33368189  0.00065476  1
  Cs  Cs13  1  0.33451121  0.33230768  0.33454477  1
  Cs  Cs14  1  0.33302714  0.33204004  0.66554449  1
  Cs  Cs15  1  0.32708091  0.66746491  -0.00219920  1
  Cs  Cs16  1  0.34008022  0.67054081  0.33668117  1
  Cs  Cs17  1  0.33271613  0.66625504  0.66604144  1
  Cs  Cs18  1  0.66744082  -0.00024248  -0.00437666  1
  Cs  Cs19  1  0.66650442  -0.00275753  0.33093479  1
  Cs  Cs20  1  0.67039610  0.00101077  0.67122119  1
  Cs  Cs21  1  0.66471969  0.33315135  -0.00298959  1
  Cs  Cs22  1  0.66591875  0.33400279  0.33291761  1
  Cs  Cs23  1  0.66823143  0.33337380  0.66966956  1
  Cs  Cs24  1  0.66745115  0.66590253  -0.00156018  1
  Cs  Cs25  1  0.66394514  0.66893036  0.33226618  1
  Cs  Cs26  1  0.66753921  0.66606040  0.66672201  1
  Sn  Sn27  1  0.49996681  0.49966807  0.16559430  1
  Sn  Sn28  1  0.16590629  0.50003325  0.50030942  1
  Sn  Sn29  1  0.50015936  0.50090803  0.83391906  1
  Sn  Sn30  1  0.83403596  0.50068349  0.50085524  1
  Sn  Sn31  1  0.16583459  0.16701589  0.83286654  1
  Sn  Sn32  1  0.50000315  0.16664743  0.49968227  1
  Sn  Sn33  1  0.16733390  0.16672520  0.50105583  1
  Sn  Sn34  1  0.83410344  0.83243328  0.50083281  1
  Sn  Sn35  1  0.83325225  0.50064829  0.83272886  1
  Sn  Sn36  1  0.16585625  0.83329563  0.50044382  1
  Sn  Sn37  1  0.50013308  0.83238066  0.83277552  1
  Sn  Sn38  1  0.83327570  0.83233628  0.83278912  1
  Sn  Sn39  1  0.50009427  0.16723013  0.16740932  1
  Pb  Pb40  1  0.50078158  0.83594063  0.50243415  1
  Pb  Pb41  1  0.49850002  0.16683346  0.83324528  1
  Pb  Pb42  1  0.16580350  0.83525374  0.83162051  1
  Pb  Pb43  1  0.82983157  0.16673599  0.16645386  1
  Pb  Pb44  1  0.83322584  0.83294462  0.16628237  1
  Pb  Pb45  1  0.16617085  0.49802674  0.83161145  1
  Pb  Pb46  1  0.16677622  0.83307201  0.17058163  1
  Pb  Pb47  1  0.83691570  0.16698501  0.83353078  1
  Pb  Pb48  1  0.16904093  0.16679382  0.16748469  1
  Pb  Pb49  1  0.16995774  0.50024762  0.17042512  1
  Pb  Pb50  1  0.50062928  0.49841547  0.50066806  1
  Pb  Pb51  1  0.83089288  0.50019672  0.16655712  1
  Pb  Pb52  1  0.50013087  0.83317032  0.16332335  1
  Pb  Pb53  1  0.83356252  0.16668600  0.50002565  1
  I  I54  1  0.16955277  0.00019296  0.16678141  1
  I  I55  1  0.16725273  0.00029819  0.50450028  1
  I  I56  1  0.16941890  0.00288968  0.82616977  1
  I  I57  1  0.16545108  0.33348665  0.16827976  1
  I  I58  1  0.16771361  0.33305824  0.50425423  1
  I  I59  1  0.16905733  0.33046462  0.82536114  1
  I  I60  1  0.16946953  0.66642611  0.16497229  1
  I  I61  1  0.16292499  0.66657821  0.50007942  1
  I  I62  1  0.16872029  0.66661399  0.83155637  1
  I  I63  1  0.49872267  0.00276126  0.17071037  1
  I  I64  1  0.49535433  0.00362417  0.49607006  1
  I  I65  1  0.50339471  -0.00207681  0.83188147  1
  I  I66  1  0.49967664  0.33346139  0.16491542  1
  I  I67  1  0.49553755  0.33062067  0.50084430  1
  I  I68  1  0.50322490  0.33600317  0.83379468  1
  I  I69  1  0.50088529  0.66365220  0.16650347  1
  I  I70  1  0.49632669  0.66672656  0.49717966  1
  I  I71  1  0.50322371  0.66567719  0.83749166  1
  I  I72  1  0.83173563  -0.00022344  0.16717529  1
  I  I73  1  0.83559025  -0.00314469  0.50475800  1
  I  I74  1  0.82747319  -0.00327428  0.82719773  1
  I  I75  1  0.83506582  0.33371337  0.16737864  1
  I  I76  1  0.83528780  0.33652246  0.50436262  1
  I  I77  1  0.82749945  0.33688802  0.82732974  1
  I  I78  1  0.82941498  0.66644968  0.16892087  1
  I  I79  1  0.84073083  0.66642311  0.50396880  1
  I  I80  1  0.82759998  0.66633787  0.82753243  1
  I  I81  1  0.16791256  0.16624027  -0.00232159  1
  I  I82  1  0.16903680  0.16633142  0.33721683  1
  I  I83  1  0.17398032  0.16678607  0.66442536  1
  I  I84  1  0.16438649  0.49687452  -0.00000915  1
  I  I85  1  0.16112047  0.49638825  0.33868859  1
  I  I86  1  0.16875430  0.50067462  0.66316463  1
  I  I87  1  0.16699313  0.83688171  -0.00032538  1
  I  I88  1  0.16212867  0.83673004  0.33920363  1
  I  I89  1  0.16615045  0.83254623  0.66318224  1
  I  I90  1  0.49819179  0.16820881  0.00193782  1
  I  I91  1  0.49428349  0.17209077  0.33400649  1
  I  I92  1  0.49638412  0.16702188  0.66438509  1
  I  I93  1  0.50587196  0.49662766  -0.00129711  1
  I  I94  1  0.49880590  0.49593814  0.33186930  1
  I  I95  1  0.50086615  0.50167989  0.66941109  1
  I  I96  1  0.50628342  0.83545233  -0.00460346  1
  I  I97  1  0.49934009  0.83201147  0.33367086  1
  I  I98  1  0.50099310  0.82840028  0.67007686  1
  I  I99  1  0.83413440  0.16617296  -0.00042608  1
  I  I100  1  0.83705371  0.16668773  0.33372722  1
  I  I101  1  0.82755317  0.16712433  0.66668197  1
  I  I102  1  0.83042026  0.50353319  -0.00356044  1
  I  I103  1  0.83621404  0.50300049  0.33683232  1
  I  I104  1  0.83040012  0.50348777  0.66649579  1
  I  I105  1  0.82727735  0.83007064  -0.00403852  1
  I  I106  1  0.83753557  0.83009680  0.33713981  1
  I  I107  1  0.83285584  0.82941173  0.66629527  1
  I  I108  1  0.00031601  0.16601732  0.16655666  1
  I  I109  1  0.00321977  0.16640370  0.50508213  1
  I  I110  1  0.00427609  0.16608299  0.82279773  1
  I  I111  1  0.00007168  0.49988929  0.16433324  1
  I  I112  1  -0.00038929  0.49880515  0.50610500  1
  I  I113  1  -0.00310637  0.50368872  0.82904329  1
  I  I114  1  -0.00000667  0.83422988  0.16145109  1
  I  I115  1  -0.00025358  0.83463076  0.50626573  1
  I  I116  1  -0.00328143  0.82958669  0.82937468  1
  I  I117  1  0.33680662  0.17111254  0.16858470  1
  I  I118  1  0.33247422  0.16736007  0.50031715  1
  I  I119  1  0.33087378  0.16656463  0.83007344  1
  I  I120  1  0.33773806  0.49514709  0.16117712  1
  I  I121  1  0.33115974  0.50094972  0.49972269  1
  I  I122  1  0.33605217  0.50220847  0.83532441  1
  I  I123  1  0.33374596  0.83354138  0.16650310  1
  I  I124  1  0.33103659  0.83145654  0.50142143  1
  I  I125  1  0.33548268  0.83087234  0.83236410  1
  I  I126  1  0.66170222  0.17083319  0.17295898  1
  I  I127  1  0.66395522  0.16752290  0.49582185  1
  I  I128  1  0.66673090  0.16618964  0.83333750  1
  I  I129  1  0.66296981  0.49503264  0.16798915  1
  I  I130  1  0.66943507  0.50311958  0.50063766  1
  I  I131  1  0.66645518  0.50238268  0.83080898  1
  I  I132  1  0.66642512  0.83479162  0.17326707  1
  I  I133  1  0.66968298  0.82935936  0.50163993  1
  I  I134  1  0.66704484  0.83113754  0.82746602  1
