# generated using pymatgen
data_Cs27Sn14Pb13I81
_symmetry_space_group_name_H-M   'P 1'
_cell_length_a   18.97432416
_cell_length_b   18.97572177
_cell_length_c   18.97495637
_cell_angle_alpha   89.99872279
_cell_angle_beta   89.99877577
_cell_angle_gamma   89.99812369
_symmetry_Int_Tables_number   1
_chemical_formula_structural   Cs27Sn14Pb13I81
_chemical_formula_sum   'Cs27 Sn14 Pb13 I81'
_cell_volume   6831.96142005
_cell_formula_units_Z   1
loop_
 _symmetry_equiv_pos_site_id
 _symmetry_equiv_pos_as_xyz
  1  'x, y, z'
loop_
 _atom_site_type_symbol
 _atom_site_label
 _atom_site_symmetry_multiplicity
 _atom_site_fract_x
 _atom_site_fract_y
 _atom_site_fract_z
 _atom_site_occupancy
  Cs  Cs0  1  0.00214516  -0.00207743  -0.00089555  1
  Cs  Cs1  1  -0.00068373  0.00357212  0.33510437  1
  Cs  Cs2  1  -0.00036172  -0.00021264  0.66580919  1
  Cs  Cs3  1  0.00005226  0.33422587  0.00096916  1
  Cs  Cs4  1  -0.00028255  0.32893229  0.33192355  1
  Cs  Cs5  1  0.00335725  0.33247211  0.66571424  1
  Cs  Cs6  1  0.00041441  0.66691336  -0.00118552  1
  Cs  Cs7  1  -0.00362367  0.66702218  0.33102160  1
  Cs  Cs8  1  -0.00075785  0.66707054  0.67089838  1
  Cs  Cs9  1  0.33357654  0.00180166  0.00415956  1
  Cs  Cs10  1  0.33261724  -0.00549709  0.33493753  1
  Cs  Cs11  1  0.33943944  0.00135410  0.66476735  1
  Cs  Cs12  1  0.33333250  0.32968647  -0.00149975  1
  Cs  Cs13  1  0.33127522  0.34034308  0.33613847  1
  Cs  Cs14  1  0.33033536  0.33529086  0.66559250  1
  Cs  Cs15  1  0.32894760  0.66984055  0.00361383  1
  Cs  Cs16  1  0.33795823  0.66796526  0.33237381  1
  Cs  Cs17  1  0.33265305  0.66359390  0.66584494  1
  Cs  Cs18  1  0.66315515  0.00597782  -0.00144568  1
  Cs  Cs19  1  0.66871748  0.00144590  0.33372459  1
  Cs  Cs20  1  0.66331007  -0.00250075  0.66689982  1
  Cs  Cs21  1  0.66505987  0.33098764  -0.00160893  1
  Cs  Cs22  1  0.66870905  0.33508587  0.32894498  1
  Cs  Cs23  1  0.66664426  0.33382929  0.67041798  1
  Cs  Cs24  1  0.66958537  0.66525745  -0.00085523  1
  Cs  Cs25  1  0.66677890  0.66521177  0.33422314  1
  Cs  Cs26  1  0.66808832  0.66824769  0.66574212  1
  Sn  Sn27  1  0.83295906  0.49910773  0.83323799  1
  Sn  Sn28  1  0.83403309  0.50055858  0.16658505  1
  Sn  Sn29  1  0.83295439  0.83314205  0.16709675  1
  Sn  Sn30  1  0.83445174  0.16723710  0.83297031  1
  Sn  Sn31  1  0.16580068  0.16644749  0.83363690  1
  Sn  Sn32  1  0.16660973  0.16735703  0.16633108  1
  Sn  Sn33  1  0.50029500  0.50140918  0.83357978  1
  Sn  Sn34  1  0.16627219  0.83286432  0.50040865  1
  Sn  Sn35  1  0.49989503  0.83197205  0.83322983  1
  Sn  Sn36  1  0.16596146  0.49940130  0.16663809  1
  Sn  Sn37  1  0.50041574  0.16688605  0.49943022  1
  Sn  Sn38  1  0.83356232  0.50024718  0.50013035  1
  Sn  Sn39  1  0.83364970  0.83264477  0.49927599  1
  Sn  Sn40  1  0.50012351  0.83386559  0.50078319  1
  Pb  Pb41  1  0.83155983  0.16661175  0.50224134  1
  Pb  Pb42  1  0.83187976  0.83330882  0.83333444  1
  Pb  Pb43  1  0.49683653  0.16682539  0.17010730  1
  Pb  Pb44  1  0.83484391  0.16666264  0.16437691  1
  Pb  Pb45  1  0.16643842  0.49849144  0.83518817  1
  Pb  Pb46  1  0.16965131  0.83590100  0.83116735  1
  Pb  Pb47  1  0.50035235  0.50002917  0.16376023  1
  Pb  Pb48  1  0.16377026  0.50252295  0.49746199  1
  Pb  Pb49  1  0.50227668  0.50044467  0.50193605  1
  Pb  Pb50  1  0.16868334  0.16496449  0.49989846  1
  Pb  Pb51  1  0.49970891  0.16685855  0.83196893  1
  Pb  Pb52  1  0.16427521  0.83326633  0.16864568  1
  Pb  Pb53  1  0.50310614  0.83331248  0.16686207  1
  I  I54  1  0.16560490  0.00232182  0.16366045  1
  I  I55  1  0.16199484  -0.00303253  0.49811881  1
  I  I56  1  0.16095407  0.00370503  0.83971685  1
  I  I57  1  0.16031450  0.33363636  0.16365116  1
  I  I58  1  0.16803719  0.33353016  0.50113870  1
  I  I59  1  0.16777336  0.33044267  0.83366725  1
  I  I60  1  0.16385761  0.66418898  0.16766696  1
  I  I61  1  0.17264717  0.67034002  0.49905999  1
  I  I62  1  0.16485152  0.66680516  0.83427301  1
  I  I63  1  0.50065320  -0.00003605  0.16092654  1
  I  I64  1  0.50180596  -0.00210521  0.50670808  1
  I  I65  1  0.50107754  -0.00213749  0.82952998  1
  I  I66  1  0.50518113  0.33341388  0.16663189  1
  I  I67  1  0.50065741  0.33155087  0.50277076  1
  I  I68  1  0.50247340  0.33558338  0.83187642  1
  I  I69  1  0.49468495  0.66666283  0.17032167  1
  I  I70  1  0.49908088  0.66982347  0.50239913  1
  I  I71  1  0.50692716  0.66662163  0.82711055  1
  I  I72  1  0.83441583  -0.00241871  0.17125255  1
  I  I73  1  0.83422352  -0.00319162  0.49670177  1
  I  I74  1  0.83489483  0.00214844  0.83316876  1
  I  I75  1  0.83542866  0.33646114  0.16957822  1
  I  I76  1  0.83083916  0.33614393  0.49762996  1
  I  I77  1  0.83006141  0.33479906  0.83350643  1
  I  I78  1  0.83878146  0.66540231  0.16542072  1
  I  I79  1  0.83107595  0.66733642  0.50085543  1
  I  I80  1  0.83037487  0.66389978  0.83333799  1
  I  I81  1  0.16305636  0.17006405  -0.00020985  1
  I  I82  1  0.16767524  0.16935599  0.33083615  1
  I  I83  1  0.16436267  0.16518214  0.66905257  1
  I  I84  1  0.16080336  0.49971963  0.00306000  1
  I  I85  1  0.16168923  0.49273941  0.32964423  1
  I  I86  1  0.16610511  0.49856121  0.66658729  1
  I  I87  1  0.16670195  0.83260418  0.00007117  1
  I  I88  1  0.17149402  0.83531105  0.33656387  1
  I  I89  1  0.16048684  0.83495753  0.66322161  1
  I  I90  1  0.50141932  0.16574946  -0.00016293  1
  I  I91  1  0.50079726  0.15848492  0.33774248  1
  I  I92  1  0.49877530  0.16360644  0.66436615  1
  I  I93  1  0.50655958  0.50438429  -0.00427403  1
  I  I94  1  0.50045667  0.49985489  0.33342775  1
  I  I95  1  0.50591607  0.50087020  0.66985260  1
  I  I96  1  0.50223121  0.82979071  -0.00286726  1
  I  I97  1  0.49807491  0.83760305  0.33684399  1
  I  I98  1  0.50313500  0.83439655  0.66552683  1
  I  I99  1  0.83292082  0.16986361  -0.00358923  1
  I  I100  1  0.83369971  0.16852365  0.33338336  1
  I  I101  1  0.83862149  0.17071279  0.67017915  1
  I  I102  1  0.83324732  0.50081217  -0.00001887  1
  I  I103  1  0.83704662  0.50544663  0.33310674  1
  I  I104  1  0.82779315  0.50091547  0.66711478  1
  I  I105  1  0.83264548  0.82971221  0.00210505  1
  I  I106  1  0.83126368  0.82574283  0.33461100  1
  I  I107  1  0.83381030  0.83058280  0.66375638  1
  I  I108  1  0.00273480  0.16792677  0.16622597  1
  I  I109  1  -0.00005342  0.16504335  0.49970300  1
  I  I110  1  -0.00052231  0.17225329  0.83550518  1
  I  I111  1  -0.00161882  0.50036828  0.16468771  1
  I  I112  1  -0.00440296  0.50476015  0.50580828  1
  I  I113  1  -0.00330648  0.49786589  0.83190200  1
  I  I114  1  -0.00362774  0.83162132  0.17162304  1
  I  I115  1  -0.00149095  0.82967567  0.49505326  1
  I  I116  1  0.00001377  0.83205668  0.83190096  1
  I  I117  1  0.32895147  0.17148641  0.15808344  1
  I  I118  1  0.33644309  0.16029712  0.50263328  1
  I  I119  1  0.33105656  0.16614803  0.83597838  1
  I  I120  1  0.33048538  0.49536382  0.16526329  1
  I  I121  1  0.33326445  0.50031698  0.50017222  1
  I  I122  1  0.33573185  0.50182058  0.83361903  1
  I  I123  1  0.33320107  0.83312603  0.16779397  1
  I  I124  1  0.33437082  0.83954579  0.50411153  1
  I  I125  1  0.33755425  0.82852620  0.82752289  1
  I  I126  1  0.66685112  0.16662582  0.16500862  1
  I  I127  1  0.66402229  0.16002300  0.50384788  1
  I  I128  1  0.66872312  0.16794847  0.83162837  1
  I  I129  1  0.67043687  0.50474326  0.16901986  1
  I  I130  1  0.67044737  0.50525301  0.49584832  1
  I  I131  1  0.66835129  0.49755803  0.83477659  1
  I  I132  1  0.67102300  0.82638018  0.17190838  1
  I  I133  1  0.66697707  0.83324168  0.50067891  1
  I  I134  1  0.66411240  0.83440066  0.82747102  1
