# generated using pymatgen
data_Cs27Sn14Pb13I81
_symmetry_space_group_name_H-M   'P 1'
_cell_length_a   18.97253509
_cell_length_b   18.97270751
_cell_length_c   18.98130793
_cell_angle_alpha   90.00105289
_cell_angle_beta   90.00032903
_cell_angle_gamma   90.00081031
_symmetry_Int_Tables_number   1
_chemical_formula_structural   Cs27Sn14Pb13I81
_chemical_formula_sum   'Cs27 Sn14 Pb13 I81'
_cell_volume   6832.51841080
_cell_formula_units_Z   1
loop_
 _symmetry_equiv_pos_site_id
 _symmetry_equiv_pos_as_xyz
  1  'x, y, z'
loop_
 _atom_site_type_symbol
 _atom_site_label
 _atom_site_symmetry_multiplicity
 _atom_site_fract_x
 _atom_site_fract_y
 _atom_site_fract_z
 _atom_site_occupancy
  Cs  Cs0  1  0.00683533  -0.00931221  -0.00050033  1
  Cs  Cs1  1  0.00087902  -0.00066778  0.33129927  1
  Cs  Cs2  1  0.00171166  -0.00069208  0.66896035  1
  Cs  Cs3  1  -0.00241390  0.33393436  0.00065044  1
  Cs  Cs4  1  -0.00208642  0.33566866  0.33424368  1
  Cs  Cs5  1  -0.00119225  0.33407530  0.66588844  1
  Cs  Cs6  1  0.00015181  0.67159815  0.00045400  1
  Cs  Cs7  1  -0.00009205  0.66312259  0.33614984  1
  Cs  Cs8  1  -0.00000793  0.66555158  0.66485111  1
  Cs  Cs9  1  0.32260745  0.00016884  0.00366188  1
  Cs  Cs10  1  0.34147212  0.00751999  0.32718893  1
  Cs  Cs11  1  0.33500251  0.00342475  0.66642535  1
  Cs  Cs12  1  0.33716548  0.33376241  0.00165993  1
  Cs  Cs13  1  0.33415602  0.32616318  0.33118400  1
  Cs  Cs14  1  0.33122205  0.33276554  0.66734921  1
  Cs  Cs15  1  0.33646082  0.66489724  0.00255859  1
  Cs  Cs16  1  0.33434895  0.66817257  0.33500196  1
  Cs  Cs17  1  0.33411475  0.66513732  0.66576814  1
  Cs  Cs18  1  0.66880923  -0.00200795  -0.00317137  1
  Cs  Cs19  1  0.66026694  -0.00213801  0.33328193  1
  Cs  Cs20  1  0.66530980  -0.00033282  0.66749782  1
  Cs  Cs21  1  0.66566206  0.33367644  -0.00217090  1
  Cs  Cs22  1  0.67112552  0.33275272  0.33190616  1
  Cs  Cs23  1  0.66868341  0.33332770  0.66927495  1
  Cs  Cs24  1  0.66385957  0.66896360  0.00084799  1
  Cs  Cs25  1  0.66505255  0.66947758  0.33424899  1
  Cs  Cs26  1  0.66603375  0.66686865  0.66684896  1
  Sn  Sn27  1  0.16691369  0.50046777  0.49977002  1
  Sn  Sn28  1  0.83417697  0.83345049  0.50019617  1
  Sn  Sn29  1  0.50049776  0.16538285  0.83333148  1
  Sn  Sn30  1  0.83343989  0.16616335  0.50004224  1
  Sn  Sn31  1  0.16561311  0.49989526  0.83351150  1
  Sn  Sn32  1  0.49963603  0.83456885  0.83321808  1
  Sn  Sn33  1  0.83403422  0.49966034  0.16639505  1
  Sn  Sn34  1  0.83318401  0.50001654  0.50007852  1
  Sn  Sn35  1  0.50004780  0.49941792  0.49979691  1
  Sn  Sn36  1  0.16572352  0.49995458  0.16691644  1
  Sn  Sn37  1  0.16656724  0.83329370  0.49980167  1
  Sn  Sn38  1  0.83316806  0.16697503  0.83381706  1
  Sn  Sn39  1  0.83409156  0.49983663  0.83359008  1
  Sn  Sn40  1  0.83344815  0.16691971  0.16603185  1
  Pb  Pb41  1  0.16924511  0.83035655  0.83080354  1
  Pb  Pb42  1  0.49992911  0.83343147  0.16351302  1
  Pb  Pb43  1  0.16583660  0.16904404  0.83333238  1
  Pb  Pb44  1  0.16359940  0.16931038  0.16665395  1
  Pb  Pb45  1  0.50052993  0.49989197  0.16979071  1
  Pb  Pb46  1  0.83243185  0.83308744  0.83116294  1
  Pb  Pb47  1  0.83333057  0.83305225  0.16957563  1
  Pb  Pb48  1  0.16442777  0.16662218  0.49992417  1
  Pb  Pb49  1  0.50310357  0.16680130  0.16336839  1
  Pb  Pb50  1  0.50029271  0.49957528  0.83175054  1
  Pb  Pb51  1  0.16657831  0.83050336  0.17019595  1
  Pb  Pb52  1  0.50266892  0.16927170  0.50203014  1
  Pb  Pb53  1  0.49946687  0.83179935  0.50126616  1
  I  I54  1  0.16580394  -0.00006092  0.16711909  1
  I  I55  1  0.16017247  -0.00291995  0.50265786  1
  I  I56  1  0.16474247  -0.00021623  0.83157333  1
  I  I57  1  0.16497969  0.33783660  0.17060615  1
  I  I58  1  0.16566688  0.33738407  0.50047867  1
  I  I59  1  0.16710825  0.33764342  0.82868111  1
  I  I60  1  0.15850219  0.66211286  0.16428090  1
  I  I61  1  0.16099937  0.66430945  0.50052683  1
  I  I62  1  0.16139442  0.66214143  0.83394786  1
  I  I63  1  0.50265774  0.00035597  0.17206363  1
  I  I64  1  0.50054195  0.00030474  0.50035073  1
  I  I65  1  0.50896481  0.00090601  0.83061158  1
  I  I66  1  0.49731093  0.33351256  0.16424846  1
  I  I67  1  0.49885285  0.33731791  0.50294721  1
  I  I68  1  0.50282014  0.33118879  0.83151003  1
  I  I69  1  0.50306043  0.66616854  0.16347291  1
  I  I70  1  0.50503924  0.66368657  0.50388688  1
  I  I71  1  0.50009040  0.66797880  0.83005137  1
  I  I72  1  0.83088028  0.00317372  0.16655495  1
  I  I73  1  0.83801000  0.00028395  0.50129115  1
  I  I74  1  0.82932460  0.00288245  0.83217441  1
  I  I75  1  0.83671406  0.33462977  0.17119233  1
  I  I76  1  0.83291323  0.33467340  0.50039900  1
  I  I77  1  0.83105133  0.33417253  0.82903670  1
  I  I78  1  0.83720358  0.66286564  0.16643616  1
  I  I79  1  0.83386536  0.66484045  0.50057503  1
  I  I80  1  0.83493642  0.66324716  0.83239533  1
  I  I81  1  0.16564537  0.16851697  -0.00011518  1
  I  I82  1  0.16534994  0.16892839  0.33342799  1
  I  I83  1  0.16410749  0.17035398  0.66662385  1
  I  I84  1  0.15972864  0.49796585  -0.00021121  1
  I  I85  1  0.16216249  0.50414122  0.33431325  1
  I  I86  1  0.16375458  0.50303256  0.66583326  1
  I  I87  1  0.16859192  0.83211690  -0.00006073  1
  I  I88  1  0.16097798  0.82558767  0.33802979  1
  I  I89  1  0.16164417  0.82554672  0.66320130  1
  I  I90  1  0.50679065  0.16638072  -0.00445259  1
  I  I91  1  0.50040414  0.16786924  0.33334864  1
  I  I92  1  0.50689902  0.16459139  0.66974726  1
  I  I93  1  0.49940429  0.50056926  -0.00008829  1
  I  I94  1  0.50164588  0.50189910  0.33777927  1
  I  I95  1  0.50122051  0.50039121  0.66394125  1
  I  I96  1  0.50311997  0.83361864  -0.00463979  1
  I  I97  1  0.50052379  0.83083949  0.33371178  1
  I  I98  1  0.50158054  0.83558939  0.66902073  1
  I  I99  1  0.82775140  0.17714243  -0.00073137  1
  I  I100  1  0.83582535  0.17214390  0.33388490  1
  I  I101  1  0.82957886  0.17116233  0.66677421  1
  I  I102  1  0.83942754  0.49232284  -0.00048143  1
  I  I103  1  0.83556100  0.49728641  0.33442557  1
  I  I104  1  0.83510983  0.49769872  0.66604367  1
  I  I105  1  0.83037820  0.83251443  -0.00012748  1
  I  I106  1  0.83630599  0.83111334  0.33789510  1
  I  I107  1  0.83563176  0.83102635  0.66303954  1
  I  I108  1  -0.00469184  0.16983110  0.16516281  1
  I  I109  1  -0.00451037  0.17249132  0.50339221  1
  I  I110  1  -0.00404477  0.17067766  0.83170965  1
  I  I111  1  -0.00126547  0.49588743  0.17114986  1
  I  I112  1  -0.00109410  0.50032829  0.50025233  1
  I  I113  1  -0.00149453  0.49486073  0.82840783  1
  I  I114  1  -0.00012072  0.83639670  0.16222512  1
  I  I115  1  -0.00097223  0.82683327  0.50132478  1
  I  I116  1  0.00031430  0.83556718  0.83399638  1
  I  I117  1  0.33335919  0.16769479  0.16584910  1
  I  I118  1  0.33359430  0.16785083  0.50248736  1
  I  I119  1  0.33586777  0.16535358  0.83116943  1
  I  I120  1  0.33020681  0.50238337  0.16553304  1
  I  I121  1  0.33202540  0.50650456  0.50203200  1
  I  I122  1  0.33088051  0.50062761  0.83157874  1
  I  I123  1  0.33304313  0.83025858  0.16908587  1
  I  I124  1  0.33057728  0.82355156  0.50313799  1
  I  I125  1  0.33673525  0.83763716  0.82955849  1
  I  I126  1  0.67128524  0.17562964  0.17041654  1
  I  I127  1  0.67128781  0.16736996  0.49822245  1
  I  I128  1  0.66867556  0.17006966  0.83232949  1
  I  I129  1  0.67060237  0.49594133  0.16627305  1
  I  I130  1  0.66886023  0.50018406  0.50131843  1
  I  I131  1  0.66990466  0.49897089  0.83204116  1
  I  I132  1  0.66703523  0.82941324  0.17052886  1
  I  I133  1  0.66947464  0.83108439  0.50126739  1
  I  I134  1  0.66461503  0.83120331  0.82912281  1
