# generated using pymatgen
data_Cs27Sn13Pb14I81
_symmetry_space_group_name_H-M   'P 1'
_cell_length_a   18.98223844
_cell_length_b   18.99847478
_cell_length_c   18.99300909
_cell_angle_alpha   90.00071089
_cell_angle_beta   90.00040817
_cell_angle_gamma   89.99974210
_symmetry_Int_Tables_number   1
_chemical_formula_structural   Cs27Sn13Pb14I81
_chemical_formula_sum   'Cs27 Sn13 Pb14 I81'
_cell_volume   6849.51683304
_cell_formula_units_Z   1
loop_
 _symmetry_equiv_pos_site_id
 _symmetry_equiv_pos_as_xyz
  1  'x, y, z'
loop_
 _atom_site_type_symbol
 _atom_site_label
 _atom_site_symmetry_multiplicity
 _atom_site_fract_x
 _atom_site_fract_y
 _atom_site_fract_z
 _atom_site_occupancy
  Cs  Cs0  1  0.00152390  0.00014741  0.00292000  1
  Cs  Cs1  1  -0.00062523  0.00090771  0.33219385  1
  Cs  Cs2  1  0.00007740  -0.00434367  0.66374960  1
  Cs  Cs3  1  -0.00054194  0.33481657  0.00215853  1
  Cs  Cs4  1  -0.00015102  0.33512473  0.33184590  1
  Cs  Cs5  1  0.00339864  0.33817242  0.66668713  1
  Cs  Cs6  1  -0.00102084  0.66573479  0.00067993  1
  Cs  Cs7  1  0.00070834  0.66401167  0.33125923  1
  Cs  Cs8  1  -0.00176727  0.66663253  0.66702845  1
  Cs  Cs9  1  0.33160871  -0.00145939  -0.00050470  1
  Cs  Cs10  1  0.33302124  -0.00395444  0.33047532  1
  Cs  Cs11  1  0.33273431  0.00108666  0.66922025  1
  Cs  Cs12  1  0.33298887  0.33264546  -0.00026896  1
  Cs  Cs13  1  0.33411487  0.33690388  0.33401916  1
  Cs  Cs14  1  0.33290419  0.33337673  0.66531888  1
  Cs  Cs15  1  0.33462304  0.66838420  0.00043835  1
  Cs  Cs16  1  0.34328940  0.66633011  0.33233446  1
  Cs  Cs17  1  0.33197773  0.66553576  0.66788885  1
  Cs  Cs18  1  0.67044675  0.00775704  -0.00282109  1
  Cs  Cs19  1  0.67002028  -0.00011703  0.34438363  1
  Cs  Cs20  1  0.67054484  0.00442544  0.65712661  1
  Cs  Cs21  1  0.66834231  0.33062205  -0.00106948  1
  Cs  Cs22  1  0.66576978  0.33323978  0.33366678  1
  Cs  Cs23  1  0.66531426  0.32236525  0.66993847  1
  Cs  Cs24  1  0.66640701  0.66472002  0.00001149  1
  Cs  Cs25  1  0.65938299  0.66739628  0.33327299  1
  Cs  Cs26  1  0.67238951  0.67256493  0.66861272  1
  Sn  Sn27  1  0.16667445  0.16669750  0.83333016  1
  Sn  Sn28  1  0.83376309  0.50124422  0.16779378  1
  Sn  Sn29  1  0.16661981  0.49975882  0.16607714  1
  Sn  Sn30  1  0.83295443  0.49996883  0.49930112  1
  Sn  Sn31  1  0.16789237  0.16764772  0.16692699  1
  Sn  Sn32  1  0.83311632  0.83249980  0.16642229  1
  Sn  Sn33  1  0.49899736  0.16634181  0.16691262  1
  Sn  Sn34  1  0.16757654  0.50028512  0.83445226  1
  Sn  Sn35  1  0.16673186  0.16590493  0.49959638  1
  Sn  Sn36  1  0.16714578  0.83304060  0.83267010  1
  Sn  Sn37  1  0.16696121  0.83327952  0.50014795  1
  Sn  Sn38  1  0.49929784  0.50073637  0.83314697  1
  Sn  Sn39  1  0.49979844  0.83315870  0.83351908  1
  Pb  Pb40  1  0.50316103  0.83623577  0.16402189  1
  Pb  Pb41  1  0.49676682  0.16671522  0.49718670  1
  Pb  Pb42  1  0.83650491  0.16947356  0.49987706  1
  Pb  Pb43  1  0.83315543  0.49995037  0.83362217  1
  Pb  Pb44  1  0.83363692  0.16717048  0.16684792  1
  Pb  Pb45  1  0.83683471  0.16648370  0.83307779  1
  Pb  Pb46  1  0.16592250  0.83283099  0.16663678  1
  Pb  Pb47  1  0.50341922  0.50005462  0.50374675  1
  Pb  Pb48  1  0.83590799  0.83102608  0.49748803  1
  Pb  Pb49  1  0.49731970  0.83320858  0.50298706  1
  Pb  Pb50  1  0.50009874  0.49843992  0.16459031  1
  Pb  Pb51  1  0.83339458  0.83344382  0.83527262  1
  Pb  Pb52  1  0.49778974  0.16621917  0.83478250  1
  Pb  Pb53  1  0.16604141  0.50049628  0.49973210  1
  I  I54  1  0.16761811  0.00253685  0.16401330  1
  I  I55  1  0.16619377  0.00039725  0.50356087  1
  I  I56  1  0.17023318  -0.00016373  0.83361389  1
  I  I57  1  0.16392708  0.33352341  0.16328823  1
  I  I58  1  0.16414556  0.33103582  0.50239416  1
  I  I59  1  0.16952705  0.33379135  0.83388700  1
  I  I60  1  0.16243512  0.66379777  0.16306341  1
  I  I61  1  0.16313057  0.66897588  0.50483347  1
  I  I62  1  0.16990212  0.66639466  0.83319202  1
  I  I63  1  0.49153334  0.00342429  0.16315219  1
  I  I64  1  0.50345066  0.00003410  0.50186966  1
  I  I65  1  0.49374499  -0.00257779  0.83698459  1
  I  I66  1  0.49885626  0.33078163  0.16297603  1
  I  I67  1  0.49783592  0.33337695  0.50278557  1
  I  I68  1  0.49642348  0.33572553  0.83506601  1
  I  I69  1  0.49767109  0.66674937  0.16703842  1
  I  I70  1  0.49606282  0.66658221  0.49574047  1
  I  I71  1  0.49016872  0.66646122  0.83470491  1
  I  I72  1  0.83550311  -0.00200672  0.16350664  1
  I  I73  1  0.83245458  -0.00009720  0.49873659  1
  I  I74  1  0.83282947  -0.00017746  0.83773910  1
  I  I75  1  0.83621893  0.33646085  0.16946158  1
  I  I76  1  0.83662238  0.33687732  0.49249988  1
  I  I77  1  0.83212883  0.33358775  0.83604905  1
  I  I78  1  0.84136918  0.66505072  0.16866211  1
  I  I79  1  0.83842947  0.66364546  0.49903859  1
  I  I80  1  0.83863422  0.66652753  0.83197796  1
  I  I81  1  0.17017932  0.16718577  0.00019401  1
  I  I82  1  0.16941288  0.16687862  0.33252597  1
  I  I83  1  0.16488008  0.16709271  0.66741895  1
  I  I84  1  0.16373271  0.49672210  -0.00011795  1
  I  I85  1  0.16255088  0.49598174  0.33048250  1
  I  I86  1  0.16779511  0.49719877  0.66953883  1
  I  I87  1  0.16846165  0.83553202  -0.00285318  1
  I  I88  1  0.16177304  0.83770491  0.33534210  1
  I  I89  1  0.16933754  0.83668188  0.66798601  1
  I  I90  1  0.49359626  0.16725139  0.00248681  1
  I  I91  1  0.49418458  0.16833751  0.32933360  1
  I  I92  1  0.49995850  0.16741633  0.66680361  1
  I  I93  1  0.49901326  0.50288244  -0.00311231  1
  I  I94  1  0.49697352  0.49849419  0.33320896  1
  I  I95  1  0.49151961  0.50227675  0.67156211  1
  I  I96  1  0.49024911  0.82906382  -0.00339606  1
  I  I97  1  0.49913949  0.83422348  0.33315500  1
  I  I98  1  0.49810232  0.82920637  0.67116082  1
  I  I99  1  0.83502843  0.16889976  0.00037289  1
  I  I100  1  0.83608676  0.16425492  0.33315357  1
  I  I101  1  0.83258688  0.16890662  0.66634195  1
  I  I102  1  0.83622295  0.50295281  0.00299251  1
  I  I103  1  0.84238608  0.50256654  0.33149316  1
  I  I104  1  0.83636963  0.49966731  0.66462543  1
  I  I105  1  0.83742430  0.82620821  0.00291243  1
  I  I106  1  0.83660538  0.83248231  0.32986133  1
  I  I107  1  0.83264881  0.83135909  0.66646965  1
  I  I108  1  0.00365130  0.16788103  0.16562447  1
  I  I109  1  0.00467389  0.16252531  0.49720633  1
  I  I110  1  0.00591897  0.16783641  0.83820977  1
  I  I111  1  0.00133957  0.49742323  0.16395110  1
  I  I112  1  -0.00171674  0.49911710  0.49993438  1
  I  I113  1  0.00347556  0.49957250  0.83437802  1
  I  I114  1  -0.00180643  0.83335339  0.16439213  1
  I  I115  1  0.00372254  0.83788830  0.50799869  1
  I  I116  1  0.00383166  0.83284136  0.83044753  1
  I  I117  1  0.33050153  0.17221928  0.16572970  1
  I  I118  1  0.32848663  0.16523421  0.50385601  1
  I  I119  1  0.32915742  0.16709891  0.83205647  1
  I  I120  1  0.33022775  0.49707390  0.16423592  1
  I  I121  1  0.33333485  0.49967981  0.49747838  1
  I  I122  1  0.33094858  0.50041327  0.83905169  1
  I  I123  1  0.33340225  0.83135597  0.16891763  1
  I  I124  1  0.32895734  0.83604425  0.49930528  1
  I  I125  1  0.33123862  0.83255638  0.83074116  1
  I  I126  1  0.66430341  0.16724318  0.16309962  1
  I  I127  1  0.66669493  0.16713821  0.49882804  1
  I  I128  1  0.66611426  0.16835971  0.83712618  1
  I  I129  1  0.66947016  0.50184046  0.16861777  1
  I  I130  1  0.67104262  0.50135307  0.49113225  1
  I  I131  1  0.66372967  0.50600700  0.83397063  1
  I  I132  1  0.67051716  0.82609801  0.16428391  1
  I  I133  1  0.66689643  0.83290038  0.50112297  1
  I  I134  1  0.66365175  0.82546261  0.83779271  1
