# generated using pymatgen
data_Cs27Sn14Pb13I81
_symmetry_space_group_name_H-M   'P 1'
_cell_length_a   18.96763638
_cell_length_b   18.97825213
_cell_length_c   18.98142178
_cell_angle_alpha   90.00199137
_cell_angle_beta   90.00040036
_cell_angle_gamma   89.99799548
_symmetry_Int_Tables_number   1
_chemical_formula_structural   Cs27Sn14Pb13I81
_chemical_formula_sum   'Cs27 Sn14 Pb13 I81'
_cell_volume   6832.79146862
_cell_formula_units_Z   1
loop_
 _symmetry_equiv_pos_site_id
 _symmetry_equiv_pos_as_xyz
  1  'x, y, z'
loop_
 _atom_site_type_symbol
 _atom_site_label
 _atom_site_symmetry_multiplicity
 _atom_site_fract_x
 _atom_site_fract_y
 _atom_site_fract_z
 _atom_site_occupancy
  Cs  Cs0  1  0.00462444  0.00575724  0.00696264  1
  Cs  Cs1  1  -0.00206809  0.00002460  0.32850263  1
  Cs  Cs2  1  0.00018210  -0.00105500  0.66648374  1
  Cs  Cs3  1  -0.00425020  0.33255748  0.00785855  1
  Cs  Cs4  1  0.00527522  0.33509784  0.32669862  1
  Cs  Cs5  1  0.00367282  0.33170736  0.66662104  1
  Cs  Cs6  1  -0.00235496  0.66214842  0.00033509  1
  Cs  Cs7  1  0.00334299  0.66621289  0.33119906  1
  Cs  Cs8  1  -0.00257408  0.66895125  0.66764366  1
  Cs  Cs9  1  0.33176386  -0.00494690  0.00088501  1
  Cs  Cs10  1  0.33275843  -0.00315171  0.33193345  1
  Cs  Cs11  1  0.33211262  0.00098325  0.66793745  1
  Cs  Cs12  1  0.33649668  0.33268908  -0.00592428  1
  Cs  Cs13  1  0.33437434  0.33661894  0.33738769  1
  Cs  Cs14  1  0.33301425  0.33364215  0.66692356  1
  Cs  Cs15  1  0.33368139  0.67136204  -0.00040627  1
  Cs  Cs16  1  0.33108011  0.66672026  0.33157962  1
  Cs  Cs17  1  0.33309467  0.66592076  0.66714283  1
  Cs  Cs18  1  0.66472604  -0.00111364  -0.00048837  1
  Cs  Cs19  1  0.66808951  0.00124090  0.33552053  1
  Cs  Cs20  1  0.66801790  0.00004910  0.66521427  1
  Cs  Cs21  1  0.66819490  0.33377696  0.00040054  1
  Cs  Cs22  1  0.66505629  0.33173303  0.33363051  1
  Cs  Cs23  1  0.66471828  0.33304837  0.66649533  1
  Cs  Cs24  1  0.66857004  0.66801763  -0.00402241  1
  Cs  Cs25  1  0.66592509  0.66766557  0.33718656  1
  Cs  Cs26  1  0.67034142  0.66767360  0.66660908  1
  Sn  Sn27  1  0.16731075  0.83350951  0.50096988  1
  Sn  Sn28  1  0.83298574  0.16820884  0.50076184  1
  Sn  Sn29  1  0.50010930  0.16730640  0.16676187  1
  Sn  Sn30  1  0.83260905  0.16669287  0.83243027  1
  Sn  Sn31  1  0.16706344  0.50067412  0.83314519  1
  Sn  Sn32  1  0.50092581  0.16710566  0.83323673  1
  Sn  Sn33  1  0.83307929  0.49851022  0.50011062  1
  Sn  Sn34  1  0.16648473  0.83245102  0.83243391  1
  Sn  Sn35  1  0.50065635  0.50017990  0.50021969  1
  Sn  Sn36  1  0.83263877  0.83294842  0.16652010  1
  Sn  Sn37  1  0.49962662  0.49972695  0.83324127  1
  Sn  Sn38  1  0.50018729  0.49960163  0.16645103  1
  Sn  Sn39  1  0.49913920  0.83331001  0.50050552  1
  Sn  Sn40  1  0.50036156  0.16651389  0.50010604  1
  Pb  Pb41  1  0.17069327  0.16715769  0.16690670  1
  Pb  Pb42  1  0.16437154  0.83302360  0.16657831  1
  Pb  Pb43  1  0.49887465  0.83343834  0.83097926  1
  Pb  Pb44  1  0.16673238  0.16707308  0.83325165  1
  Pb  Pb45  1  0.83046186  0.50179473  0.16959053  1
  Pb  Pb46  1  0.83086888  0.16561234  0.16721098  1
  Pb  Pb47  1  0.83354727  0.83362139  0.49901273  1
  Pb  Pb48  1  0.50153621  0.83304209  0.16909133  1
  Pb  Pb49  1  0.83308503  0.49775925  0.83126504  1
  Pb  Pb50  1  0.83633324  0.83644820  0.83562859  1
  Pb  Pb51  1  0.16667747  0.50186315  0.50183408  1
  Pb  Pb52  1  0.16656886  0.16442130  0.49984180  1
  Pb  Pb53  1  0.16991127  0.49990759  0.16333164  1
  I  I54  1  0.16840164  -0.00023634  0.16409977  1
  I  I55  1  0.17118009  -0.00366146  0.50669074  1
  I  I56  1  0.16687878  -0.00241088  0.82938261  1
  I  I57  1  0.16062378  0.33368331  0.16559791  1
  I  I58  1  0.16900571  0.33353181  0.50202436  1
  I  I59  1  0.17066833  0.33606335  0.83239397  1
  I  I60  1  0.16892775  0.66657395  0.16887673  1
  I  I61  1  0.17087130  0.66980804  0.50184756  1
  I  I62  1  0.17346154  0.66632221  0.82931404  1
  I  I63  1  0.50207343  0.00267329  0.16661309  1
  I  I64  1  0.50058878  0.00105098  0.49977970  1
  I  I65  1  0.50195471  0.00306218  0.83335664  1
  I  I66  1  0.50078884  0.33323734  0.17071438  1
  I  I67  1  0.50453062  0.33335644  0.49964090  1
  I  I68  1  0.49705290  0.33348186  0.82978917  1
  I  I69  1  0.50136101  0.66374182  0.16702305  1
  I  I70  1  0.50075932  0.66567971  0.49948072  1
  I  I71  1  0.49717551  0.66373091  0.83370360  1
  I  I72  1  0.83138283  -0.00193177  0.16962960  1
  I  I73  1  0.82919899  0.00282115  0.50191149  1
  I  I74  1  0.82646875  0.00400512  0.82585452  1
  I  I75  1  0.83505649  0.33339115  0.16480382  1
  I  I76  1  0.82338923  0.33265411  0.50374588  1
  I  I77  1  0.83301102  0.32986728  0.83254533  1
  I  I78  1  0.83140941  0.66919606  0.16914017  1
  I  I79  1  0.82869599  0.66456625  0.49816454  1
  I  I80  1  0.83112240  0.66658838  0.83274250  1
  I  I81  1  0.16508588  0.16300118  -0.00029402  1
  I  I82  1  0.16506321  0.16326695  0.33359569  1
  I  I83  1  0.17074570  0.16710989  0.66666262  1
  I  I84  1  0.17135282  0.50683262  -0.00470219  1
  I  I85  1  0.16686432  0.50208875  0.33343913  1
  I  I86  1  0.17384309  0.50139100  0.66959348  1
  I  I87  1  0.16643636  0.83062502  -0.00302024  1
  I  I88  1  0.17036123  0.83417964  0.33621830  1
  I  I89  1  0.17080124  0.83014153  0.66642315  1
  I  I90  1  0.50353671  0.17376688  -0.00097155  1
  I  I91  1  0.50375540  0.16850805  0.33460919  1
  I  I92  1  0.50334582  0.16900671  0.66638284  1
  I  I93  1  0.49489185  0.49275823  -0.00081740  1
  I  I94  1  0.50497629  0.49735842  0.33456423  1
  I  I95  1  0.49899488  0.49723581  0.66638678  1
  I  I96  1  0.49894597  0.83404254  -0.00011896  1
  I  I97  1  0.49523837  0.83358453  0.33735913  1
  I  I98  1  0.49954123  0.83356469  0.66275904  1
  I  I99  1  0.82984645  0.16390757  -0.00234900  1
  I  I100  1  0.82809194  0.16715280  0.33653232  1
  I  I101  1  0.82452996  0.16863342  0.66573291  1
  I  I102  1  0.83350541  0.50010247  -0.00005892  1
  I  I103  1  0.82756451  0.49468511  0.33761352  1
  I  I104  1  0.82653256  0.50067431  0.66339644  1
  I  I105  1  0.83225775  0.83426255  0.00280103  1
  I  I106  1  0.83358432  0.83567388  0.33169256  1
  I  I107  1  0.83253879  0.83241872  0.66668311  1
  I  I108  1  -0.00042736  0.16362783  0.16601461  1
  I  I109  1  -0.00351791  0.16883848  0.50618560  1
  I  I110  1  -0.00285709  0.16499407  0.82713271  1
  I  I111  1  -0.00024097  0.50218071  0.16712637  1
  I  I112  1  -0.00263981  0.49774252  0.50269015  1
  I  I113  1  0.00224176  0.50369805  0.82941173  1
  I  I114  1  -0.00312684  0.83541426  0.17003781  1
  I  I115  1  0.00239021  0.83294664  0.50247513  1
  I  I116  1  0.00393629  0.82754092  0.82514695  1
  I  I117  1  0.33911377  0.16819880  0.16645012  1
  I  I118  1  0.33730958  0.16969492  0.50118722  1
  I  I119  1  0.33694918  0.16802522  0.83224845  1
  I  I120  1  0.33814759  0.49716384  0.17413332  1
  I  I121  1  0.33704819  0.49725774  0.49844657  1
  I  I122  1  0.33548546  0.49748004  0.83116913  1
  I  I123  1  0.33352691  0.83437162  0.16598043  1
  I  I124  1  0.33461185  0.83369406  0.50247818  1
  I  I125  1  0.33084370  0.83447055  0.83221884  1
  I  I126  1  0.66280882  0.16988339  0.16724526  1
  I  I127  1  0.66500532  0.16463295  0.50062800  1
  I  I128  1  0.66478613  0.17184566  0.83227111  1
  I  I129  1  0.66241935  0.49593209  0.16181754  1
  I  I130  1  0.66443711  0.50217637  0.50198420  1
  I  I131  1  0.66317627  0.49753352  0.83476005  1
  I  I132  1  0.66878788  0.83423799  0.16979395  1
  I  I133  1  0.66396477  0.83334370  0.49751650  1
  I  I134  1  0.66684273  0.83102094  0.83274335  1
