# generated using pymatgen
data_Cs27Sn13Pb14I81
_symmetry_space_group_name_H-M   'P 1'
_cell_length_a   18.97992199
_cell_length_b   18.97570916
_cell_length_c   18.97570921
_cell_angle_alpha   89.99708729
_cell_angle_beta   89.99880198
_cell_angle_gamma   90.00119811
_symmetry_Int_Tables_number   1
_chemical_formula_structural   Cs27Sn13Pb14I81
_chemical_formula_sum   'Cs27 Sn13 Pb14 I81'
_cell_volume   6834.24359029
_cell_formula_units_Z   1
loop_
 _symmetry_equiv_pos_site_id
 _symmetry_equiv_pos_as_xyz
  1  'x, y, z'
loop_
 _atom_site_type_symbol
 _atom_site_label
 _atom_site_symmetry_multiplicity
 _atom_site_fract_x
 _atom_site_fract_y
 _atom_site_fract_z
 _atom_site_occupancy
  Cs  Cs0  1  0.00059440  0.00075708  0.00086124  1
  Cs  Cs1  1  0.00309885  0.00175078  0.33470810  1
  Cs  Cs2  1  -0.00000009  -0.00163778  0.66502884  1
  Cs  Cs3  1  0.00000004  0.33489922  0.00156589  1
  Cs  Cs4  1  -0.00067753  0.33295846  0.33261956  1
  Cs  Cs5  1  -0.00059444  0.33419468  0.66742363  1
  Cs  Cs6  1  0.00067752  0.66595301  -0.00037485  1
  Cs  Cs7  1  0.00000004  0.66646493  0.33313156  1
  Cs  Cs8  1  -0.00309883  0.66804138  0.66841748  1
  Cs  Cs9  1  0.33518265  -0.00164409  -0.00131444  1
  Cs  Cs10  1  0.32964316  0.00081892  0.33437338  1
  Cs  Cs11  1  0.33254274  -0.00045639  0.66636315  1
  Cs  Cs12  1  0.34112891  0.33066063  -0.00535970  1
  Cs  Cs13  1  0.33082281  0.33585933  0.33373453  1
  Cs  Cs14  1  0.33725502  0.33528371  0.66934899  1
  Cs  Cs15  1  0.33064479  0.66908520  0.00233417  1
  Cs  Cs16  1  0.33477892  0.66506968  0.33120149  1
  Cs  Cs17  1  0.33327941  0.66586953  0.66660680  1
  Cs  Cs18  1  0.66274503  0.00268251  0.00195033  1
  Cs  Cs19  1  0.66672056  -0.00005971  0.33253621  1
  Cs  Cs20  1  0.66745715  -0.00030362  0.66621035  1
  Cs  Cs21  1  0.65887107  0.32797355  -0.00267283  1
  Cs  Cs22  1  0.66935523  0.33566742  0.33575194  1
  Cs  Cs23  1  0.66481736  0.33201879  0.66502263  1
  Cs  Cs24  1  0.66917726  0.66706783  0.00252603  1
  Cs  Cs25  1  0.66522104  0.66453498  0.33173619  1
  Cs  Cs26  1  0.67035694  0.66770674  0.66748562  1
  Sn  Sn27  1  0.50000002  0.83400730  0.50067397  1
  Sn  Sn28  1  0.50047737  0.16565818  0.49975567  1
  Sn  Sn29  1  0.16588192  0.50050971  0.16721061  1
  Sn  Sn30  1  0.83437846  0.83298313  0.16691325  1
  Sn  Sn31  1  0.16560610  0.16600966  0.83322532  1
  Sn  Sn32  1  0.83411811  0.50054391  0.16717638  1
  Sn  Sn33  1  0.83301989  0.16704256  0.50076237  1
  Sn  Sn34  1  0.83455041  0.49946955  0.49958173  1
  Sn  Sn35  1  0.83439395  0.16655866  0.83267635  1
  Sn  Sn36  1  0.49952264  0.83308900  0.83232487  1
  Sn  Sn37  1  0.16562155  0.50024656  0.49964980  1
  Sn  Sn38  1  0.16544962  0.83291503  0.16613622  1
  Sn  Sn39  1  0.16698008  0.83409574  0.83370926  1
  Pb  Pb40  1  0.49978771  0.16665347  0.17038056  1
  Pb  Pb41  1  0.16679924  0.16720791  0.16401462  1
  Pb  Pb42  1  0.83340378  0.16721758  0.16701980  1
  Pb  Pb43  1  0.49956508  0.83337345  0.16682017  1
  Pb  Pb44  1  0.50000002  0.49992117  0.16658786  1
  Pb  Pb45  1  0.83320073  0.49734794  0.83387459  1
  Pb  Pb46  1  0.50021232  0.50371398  0.83332014  1
  Pb  Pb47  1  0.16646652  0.16908965  0.50223837  1
  Pb  Pb48  1  0.16850935  0.83105666  0.49998573  1
  Pb  Pb49  1  0.50043492  0.50015351  0.50004005  1
  Pb  Pb50  1  0.49999998  0.16440467  0.83107135  1
  Pb  Pb51  1  0.83149063  0.83331899  0.49772335  1
  Pb  Pb52  1  0.83353346  0.83557171  0.83575628  1
  Pb  Pb53  1  0.16659620  0.50035308  0.83388421  1
  I  I54  1  0.16300225  -0.00324214  0.16462560  1
  I  I55  1  0.16546425  -0.00003826  0.49775706  1
  I  I56  1  0.16716871  -0.00105745  0.83820414  1
  I  I57  1  0.16108784  0.33693593  0.17076593  1
  I  I58  1  0.16720282  0.33685127  0.49486382  1
  I  I59  1  0.16243363  0.33074774  0.83227747  1
  I  I60  1  0.16314115  0.66719950  0.16443283  1
  I  I61  1  0.16238230  0.66326973  0.50066257  1
  I  I62  1  0.17169890  0.66988235  0.83483417  1
  I  I63  1  0.50150102  -0.00041718  0.16498634  1
  I  I64  1  0.50540015  0.00009623  0.50387447  1
  I  I65  1  0.49815052  -0.00322550  0.83167358  1
  I  I66  1  0.49994970  0.33339116  0.16648348  1
  I  I67  1  0.50172316  0.33073652  0.50018738  1
  I  I68  1  0.49883825  0.33271886  0.83283658  1
  I  I69  1  0.50077887  0.66690277  0.16889332  1
  I  I70  1  0.49933782  0.66944061  0.50357380  1
  I  I71  1  0.49352158  0.67187399  0.82667833  1
  I  I72  1  0.83672503  -0.00256567  0.16622277  1
  I  I73  1  0.83021269  0.00264116  0.50234015  1
  I  I74  1  0.83466641  0.00329882  0.82802262  1
  I  I75  1  0.83893006  0.33663894  0.16876730  1
  I  I76  1  0.83094047  0.33338935  0.49802988  1
  I  I77  1  0.83954685  0.32930295  0.83330094  1
  I  I78  1  0.83648805  0.66616573  0.17166306  1
  I  I79  1  0.83519765  0.66391376  0.49759973  1
  I  I80  1  0.83303888  0.66692249  0.83072407  1
  I  I81  1  0.16045319  0.16663440  -0.00403040  1
  I  I82  1  0.16696110  0.16405765  0.33358916  1
  I  I83  1  0.16533345  0.16135554  0.66996549  1
  I  I84  1  0.16106982  0.50210082  0.00330561  1
  I  I85  1  0.16351193  0.50499615  0.33283237  1
  I  I86  1  0.16327494  0.49955631  0.66410100  1
  I  I87  1  0.16905941  0.83136289  0.00005602  1
  I  I88  1  0.16480259  0.83093314  0.33058042  1
  I  I89  1  0.16978731  0.83567370  0.66930781  1
  I  I90  1  0.50116185  0.16616977  -0.00061447  1
  I  I91  1  0.50647834  0.16001206  0.33854064  1
  I  I92  1  0.50184978  0.16500684  0.66344112  1
  I  I93  1  0.50005021  0.49981677  0.00005788  1
  I  I94  1  0.49922083  0.50222702  0.33356941  1
  I  I95  1  0.49849897  0.49831917  0.66624947  1
  I  I96  1  0.49827687  0.83352073  -0.00259687  1
  I  I97  1  0.50066229  0.83690643  0.33610731  1
  I  I98  1  0.49459979  0.83720827  0.66676287  1
  I  I99  1  0.83756617  0.16561094  -0.00258561  1
  I  I100  1  0.82830130  0.16816769  0.33654897  1
  I  I101  1  0.83283128  0.17153713  0.66560921  1
  I  I102  1  0.83891227  0.50409948  0.00360262  1
  I  I103  1  0.83685898  0.49776583  0.33386617  1
  I  I104  1  0.83699755  0.49795899  0.66342449  1
  I  I105  1  0.83279741  0.82819675  0.00351797  1
  I  I106  1  0.83761744  0.83399601  0.32993646  1
  I  I107  1  0.83453585  0.83109067  0.66662841  1
  I  I108  1  0.00002506  0.16498514  0.17026119  1
  I  I109  1  -0.00286615  0.16937096  0.50207427  1
  I  I110  1  -0.00000005  0.16095437  0.82762112  1
  I  I111  1  -0.00000000  0.50481992  0.17148661  1
  I  I112  1  -0.00093277  0.49464348  0.49573074  1
  I  I113  1  -0.00002502  0.50359462  0.83165169  1
  I  I114  1  0.00093276  0.82906392  0.16131044  1
  I  I115  1  -0.00000003  0.83546223  0.50212875  1
  I  I116  1  0.00286615  0.83540752  0.83603761  1
  I  I117  1  0.33302070  0.16639687  0.16603925  1
  I  I118  1  0.33556899  0.16395045  0.50131674  1
  I  I119  1  0.33096384  0.16534352  0.83316288  1
  I  I120  1  0.32944620  0.50548507  0.17179710  1
  I  I121  1  0.33066292  0.50036382  0.49568590  1
  I  I122  1  0.33297273  0.49383256  0.83228398  1
  I  I123  1  0.32995783  0.82876542  0.16523873  1
  I  I124  1  0.33637589  0.83800157  0.49965507  1
  I  I125  1  0.33205733  0.83902747  0.83556711  1
  I  I126  1  0.66702728  0.16561715  0.16049947  1
  I  I127  1  0.66794272  0.16890041  0.50569393  1
  I  I128  1  0.66903616  0.16649633  0.83201020  1
  I  I129  1  0.67055383  0.50513059  0.17215185  1
  I  I130  1  0.67004218  0.49857215  0.49543175  1
  I  I131  1  0.66697925  0.49937260  0.83306381  1
  I  I132  1  0.66933706  0.82901916  0.16703036  1
  I  I133  1  0.66362414  0.83298850  0.50466836  1
  I  I134  1  0.66443104  0.83464987  0.83061696  1
