# generated using pymatgen
data_Cs27Sn13Pb14I81
_symmetry_space_group_name_H-M   'P 1'
_cell_length_a   18.98256869
_cell_length_b   18.96744445
_cell_length_c   18.98424500
_cell_angle_alpha   90.00084129
_cell_angle_beta   90.00097161
_cell_angle_gamma   90.00061931
_symmetry_Int_Tables_number   1
_chemical_formula_structural   Cs27Sn13Pb14I81
_chemical_formula_sum   'Cs27 Sn13 Pb14 I81'
_cell_volume   6835.29292425
_cell_formula_units_Z   1
loop_
 _symmetry_equiv_pos_site_id
 _symmetry_equiv_pos_as_xyz
  1  'x, y, z'
loop_
 _atom_site_type_symbol
 _atom_site_label
 _atom_site_symmetry_multiplicity
 _atom_site_fract_x
 _atom_site_fract_y
 _atom_site_fract_z
 _atom_site_occupancy
  Cs  Cs0  1  -0.00036243  0.00147336  -0.00228708  1
  Cs  Cs1  1  0.00192264  0.00127856  0.33499053  1
  Cs  Cs2  1  -0.00012303  0.00015458  0.66731498  1
  Cs  Cs3  1  0.00032445  0.33596515  0.00215774  1
  Cs  Cs4  1  -0.00035396  0.33122605  0.33210207  1
  Cs  Cs5  1  0.00022110  0.33400119  0.66590741  1
  Cs  Cs6  1  0.00023138  0.66495856  0.00175031  1
  Cs  Cs7  1  -0.00119214  0.66719417  0.33327065  1
  Cs  Cs8  1  0.00043197  0.66778698  0.66512269  1
  Cs  Cs9  1  0.33850903  0.00014220  0.00204001  1
  Cs  Cs10  1  0.33279756  0.00273026  0.33134745  1
  Cs  Cs11  1  0.33042300  0.00083284  0.66559523  1
  Cs  Cs12  1  0.33314053  0.33429139  -0.00320750  1
  Cs  Cs13  1  0.33402791  0.32793685  0.33504425  1
  Cs  Cs14  1  0.34171600  0.33505260  0.66766265  1
  Cs  Cs15  1  0.33340626  0.66616725  -0.00020003  1
  Cs  Cs16  1  0.33277369  0.66805401  0.33345211  1
  Cs  Cs17  1  0.33269587  0.66408690  0.66599448  1
  Cs  Cs18  1  0.65876378  0.00541800  -0.00784927  1
  Cs  Cs19  1  0.66477526  0.00355955  0.33117145  1
  Cs  Cs20  1  0.66832700  0.00500398  0.67626918  1
  Cs  Cs21  1  0.66802921  0.32722198  0.00009399  1
  Cs  Cs22  1  0.66635305  0.33119137  0.33542625  1
  Cs  Cs23  1  0.65782131  0.32814890  0.66588728  1
  Cs  Cs24  1  0.66780475  0.66976369  0.00207158  1
  Cs  Cs25  1  0.66884374  0.66553246  0.33300879  1
  Cs  Cs26  1  0.66677148  0.66735933  0.66540451  1
  Sn  Sn27  1  0.83318110  0.50082117  0.16690406  1
  Sn  Sn28  1  0.16573894  0.83254050  0.16663105  1
  Sn  Sn29  1  0.50000839  0.50035614  0.16680354  1
  Sn  Sn30  1  0.83304762  0.83301861  0.49924040  1
  Sn  Sn31  1  0.50055959  0.83321490  0.50007642  1
  Sn  Sn32  1  0.16659895  0.83240687  0.49966194  1
  Sn  Sn33  1  0.16604973  0.50062792  0.49904667  1
  Sn  Sn34  1  0.16617433  0.16617926  0.83335315  1
  Sn  Sn35  1  0.83397739  0.50047836  0.50021223  1
  Sn  Sn36  1  0.16692800  0.50088670  0.16789764  1
  Sn  Sn37  1  0.16646713  0.83399568  0.83371110  1
  Sn  Sn38  1  0.83383508  0.83346353  0.16707067  1
  Sn  Sn39  1  0.83317043  0.50021852  0.83282645  1
  Pb  Pb40  1  0.83526433  0.83169275  0.83364264  1
  Pb  Pb41  1  0.50009641  0.50166763  0.49799780  1
  Pb  Pb42  1  0.50352115  0.50060157  0.83614184  1
  Pb  Pb43  1  0.49680340  0.16670020  0.83336305  1
  Pb  Pb44  1  0.49703758  0.83273426  0.83060043  1
  Pb  Pb45  1  0.49982161  0.16990588  0.16690637  1
  Pb  Pb46  1  0.16651108  0.16719869  0.50195112  1
  Pb  Pb47  1  0.50036714  0.83183321  0.16846257  1
  Pb  Pb48  1  0.49992955  0.16284807  0.49978900  1
  Pb  Pb49  1  0.16535895  0.50050144  0.83299479  1
  Pb  Pb50  1  0.83362672  0.16632583  0.49990574  1
  Pb  Pb51  1  0.16643029  0.16651819  0.16467703  1
  Pb  Pb52  1  0.83579070  0.16978100  0.83326348  1
  Pb  Pb53  1  0.83366784  0.16554579  0.16672780  1
  I  I54  1  0.16221054  -0.00403758  0.17010731  1
  I  I55  1  0.16605773  -0.00390799  0.49762089  1
  I  I56  1  0.16551794  -0.00196503  0.83218292  1
  I  I57  1  0.16525230  0.33730538  0.16913339  1
  I  I58  1  0.16120968  0.33729041  0.49634196  1
  I  I59  1  0.16368864  0.33188479  0.83431029  1
  I  I60  1  0.16552716  0.66659291  0.16522047  1
  I  I61  1  0.16581495  0.66752885  0.50164597  1
  I  I62  1  0.16533726  0.66945379  0.83283267  1
  I  I63  1  0.49942859  -0.00033538  0.16808874  1
  I  I64  1  0.49761149  -0.00531766  0.49790178  1
  I  I65  1  0.50351489  -0.00033096  0.83365887  1
  I  I66  1  0.50011950  0.33842592  0.16766035  1
  I  I67  1  0.49943968  0.33359249  0.49937167  1
  I  I68  1  0.49722749  0.33372285  0.83289634  1
  I  I69  1  0.49991559  0.66377270  0.16739316  1
  I  I70  1  0.49847966  0.66952006  0.49929579  1
  I  I71  1  0.49553785  0.66660568  0.83315999  1
  I  I72  1  0.84016830  -0.00463357  0.17314664  1
  I  I73  1  0.83568520  -0.00458010  0.49492625  1
  I  I74  1  0.83287738  -0.00018974  0.83300423  1
  I  I75  1  0.83464508  0.33748665  0.16706637  1
  I  I76  1  0.83918940  0.33759740  0.49814630  1
  I  I77  1  0.83706274  0.33800035  0.83512421  1
  I  I78  1  0.83495791  0.66571185  0.16749408  1
  I  I79  1  0.83520107  0.66654861  0.49896723  1
  I  I80  1  0.83738989  0.66368919  0.83404118  1
  I  I81  1  0.16582812  0.16355406  -0.00304476  1
  I  I82  1  0.16758044  0.16511306  0.33331586  1
  I  I83  1  0.16525087  0.16180399  0.66961154  1
  I  I84  1  0.16526569  0.50253420  0.00295116  1
  I  I85  1  0.16260465  0.50740612  0.33300685  1
  I  I86  1  0.16146421  0.50360595  0.66372096  1
  I  I87  1  0.16146461  0.83198529  0.00134611  1
  I  I88  1  0.16613053  0.82804181  0.33356634  1
  I  I89  1  0.16663867  0.83310129  0.66531013  1
  I  I90  1  0.49996703  0.16571720  0.00001235  1
  I  I91  1  0.49871998  0.16699255  0.33337357  1
  I  I92  1  0.49957591  0.16883724  0.66665915  1
  I  I93  1  0.49627639  0.50171813  0.00419290  1
  I  I94  1  0.50341971  0.50248310  0.33033933  1
  I  I95  1  0.49891200  0.49990797  0.66634383  1
  I  I96  1  0.49985716  0.83277768  0.00023006  1
  I  I97  1  0.49524522  0.83072048  0.33623035  1
  I  I98  1  0.50108924  0.83116159  0.66241499  1
  I  I99  1  0.83469308  0.16787861  -0.00000618  1
  I  I100  1  0.83386146  0.17106265  0.33329617  1
  I  I101  1  0.83476875  0.16622923  0.66663615  1
  I  I102  1  0.83502367  0.50356980  0.00174348  1
  I  I103  1  0.83435513  0.50443614  0.33314623  1
  I  I104  1  0.84084437  0.50490065  0.66498869  1
  I  I105  1  0.83946029  0.82676279  0.00318211  1
  I  I106  1  0.83853584  0.82472746  0.33361925  1
  I  I107  1  0.83494849  0.82826424  0.66354155  1
  I  I108  1  0.00014726  0.17182975  0.16573124  1
  I  I109  1  0.00018116  0.16356575  0.50087809  1
  I  I110  1  0.00326476  0.16117304  0.83317280  1
  I  I111  1  0.00001384  0.50348520  0.16642785  1
  I  I112  1  0.00002979  0.50706432  0.49666680  1
  I  I113  1  -0.00237418  0.50060197  0.83747258  1
  I  I114  1  0.00074148  0.82533588  0.17052107  1
  I  I115  1  0.00052190  0.82910739  0.49976873  1
  I  I116  1  0.00348577  0.83538843  0.82925170  1
  I  I117  1  0.33295300  0.16626660  0.16555275  1
  I  I118  1  0.33301921  0.16815403  0.50162357  1
  I  I119  1  0.32903313  0.16379880  0.83327193  1
  I  I120  1  0.33148090  0.50445466  0.17056477  1
  I  I121  1  0.33017251  0.50445099  0.49672444  1
  I  I122  1  0.33318433  0.49863813  0.83335032  1
  I  I123  1  0.33002552  0.82908673  0.16708781  1
  I  I124  1  0.33129896  0.82921455  0.50069211  1
  I  I125  1  0.32835027  0.83562640  0.83493843  1
  I  I126  1  0.66678069  0.16614843  0.16535138  1
  I  I127  1  0.66675807  0.16901729  0.50092446  1
  I  I128  1  0.66665592  0.16754912  0.83349537  1
  I  I129  1  0.66846160  0.50453282  0.16655803  1
  I  I130  1  0.67000988  0.50470419  0.49886555  1
  I  I131  1  0.67152105  0.50150899  0.83131440  1
  I  I132  1  0.67002582  0.82690877  0.17253787  1
  I  I133  1  0.66841228  0.82715283  0.49394792  1
  I  I134  1  0.66695284  0.83191494  0.83344011  1
