# generated using pymatgen
data_Cs27Sn14Pb13I81
_symmetry_space_group_name_H-M   'P 1'
_cell_length_a   18.96001957
_cell_length_b   18.96148638
_cell_length_c   18.96072028
_cell_angle_alpha   89.99972692
_cell_angle_beta   90.00343850
_cell_angle_gamma   89.99879957
_symmetry_Int_Tables_number   1
_chemical_formula_structural   Cs27Sn14Pb13I81
_chemical_formula_sum   'Cs27 Sn14 Pb13 I81'
_cell_volume   6816.57143217
_cell_formula_units_Z   1
loop_
 _symmetry_equiv_pos_site_id
 _symmetry_equiv_pos_as_xyz
  1  'x, y, z'
loop_
 _atom_site_type_symbol
 _atom_site_label
 _atom_site_symmetry_multiplicity
 _atom_site_fract_x
 _atom_site_fract_y
 _atom_site_fract_z
 _atom_site_occupancy
  Cs  Cs0  1  0.00090657  -0.00123692  -0.00025683  1
  Cs  Cs1  1  0.00206734  -0.00031377  0.33420040  1
  Cs  Cs2  1  -0.00115648  0.00315920  0.66645565  1
  Cs  Cs3  1  -0.00418856  0.33582238  -0.00250126  1
  Cs  Cs4  1  0.00028561  0.33298206  0.33674206  1
  Cs  Cs5  1  -0.00014377  0.32615453  0.66689412  1
  Cs  Cs6  1  -0.00034181  0.66624546  0.00206161  1
  Cs  Cs7  1  -0.00595114  0.66712373  0.32998680  1
  Cs  Cs8  1  0.00409931  0.66787184  0.66833529  1
  Cs  Cs9  1  0.33498512  -0.00042294  0.00189399  1
  Cs  Cs10  1  0.33284968  0.00261857  0.33250628  1
  Cs  Cs11  1  0.33391510  -0.00237975  0.66626435  1
  Cs  Cs12  1  0.33347346  0.33497780  0.00088730  1
  Cs  Cs13  1  0.33233963  0.33009473  0.33229682  1
  Cs  Cs14  1  0.33325521  0.33775494  0.66689209  1
  Cs  Cs15  1  0.33228780  0.66605106  -0.00150110  1
  Cs  Cs16  1  0.33316809  0.66679602  0.33478311  1
  Cs  Cs17  1  0.33323300  0.66595594  0.66691735  1
  Cs  Cs18  1  0.66405098  0.00319942  -0.00275988  1
  Cs  Cs19  1  0.66394704  -0.00225814  0.33422472  1
  Cs  Cs20  1  0.66707146  -0.00065847  0.66908257  1
  Cs  Cs21  1  0.66842115  0.32994349  0.00125083  1
  Cs  Cs22  1  0.66774479  0.33892492  0.33118562  1
  Cs  Cs23  1  0.66731403  0.33378839  0.66402830  1
  Cs  Cs24  1  0.66748520  0.66673888  0.00072653  1
  Cs  Cs25  1  0.67302330  0.66392421  0.33362781  1
  Cs  Cs26  1  0.66406608  0.66642121  0.66393615  1
  Sn  Sn27  1  0.49983940  0.83366659  0.83328920  1
  Sn  Sn28  1  0.83324850  0.83216999  0.83325559  1
  Sn  Sn29  1  0.16809296  0.16576626  0.83372724  1
  Sn  Sn30  1  0.49994722  0.16617784  0.50103646  1
  Sn  Sn31  1  0.49915072  0.50097420  0.16641371  1
  Sn  Sn32  1  0.83301592  0.50095164  0.83270609  1
  Sn  Sn33  1  0.49876928  0.16628656  0.83226449  1
  Sn  Sn34  1  0.16679537  0.83421751  0.83278230  1
  Sn  Sn35  1  0.83365670  0.16598743  0.16719011  1
  Sn  Sn36  1  0.16734805  0.83255129  0.50042727  1
  Sn  Sn37  1  0.16728227  0.50024652  0.16766714  1
  Sn  Sn38  1  0.16677642  0.50095767  0.49896697  1
  Sn  Sn39  1  0.49979122  0.83215627  0.16682431  1
  Sn  Sn40  1  0.49915706  0.83387765  0.49991295  1
  Pb  Pb41  1  0.50189852  0.49997873  0.83516649  1
  Pb  Pb42  1  0.83348499  0.83339119  0.50239201  1
  Pb  Pb43  1  0.83676138  0.50016529  0.50293477  1
  Pb  Pb44  1  0.49830903  0.50036376  0.49765873  1
  Pb  Pb45  1  0.16874793  0.16611559  0.50203668  1
  Pb  Pb46  1  0.83349355  0.49867868  0.16513930  1
  Pb  Pb47  1  0.16513105  0.50024400  0.83321810  1
  Pb  Pb48  1  0.83068579  0.83553506  0.16432553  1
  Pb  Pb49  1  0.83004573  0.16638838  0.49702092  1
  Pb  Pb50  1  0.16847651  0.83173399  0.16680497  1
  Pb  Pb51  1  0.16445511  0.16911025  0.16401893  1
  Pb  Pb52  1  0.83293969  0.16603912  0.83417266  1
  Pb  Pb53  1  0.50100124  0.16654788  0.16669059  1
  I  I54  1  0.16709505  -0.00008416  0.16808570  1
  I  I55  1  0.16893154  -0.00320376  0.50297463  1
  I  I56  1  0.16495618  -0.00154620  0.82865174  1
  I  I57  1  0.17322044  0.33712190  0.17021457  1
  I  I58  1  0.16801239  0.33544263  0.49811350  1
  I  I59  1  0.16866127  0.33112968  0.83385777  1
  I  I60  1  0.16808317  0.66366859  0.16447218  1
  I  I61  1  0.17313079  0.66805286  0.50385527  1
  I  I62  1  0.16935733  0.66978369  0.83234803  1
  I  I63  1  0.50231391  -0.00278771  0.16547171  1
  I  I64  1  0.49495902  -0.00159876  0.49867423  1
  I  I65  1  0.50169185  -0.00124574  0.83517763  1
  I  I66  1  0.49862449  0.33552493  0.16599039  1
  I  I67  1  0.49873740  0.33099718  0.50353079  1
  I  I68  1  0.49754337  0.33041428  0.83131575  1
  I  I69  1  0.49679660  0.66744199  0.16480269  1
  I  I70  1  0.49742498  0.67002459  0.50391929  1
  I  I71  1  0.49737845  0.67007212  0.83135371  1
  I  I72  1  0.83089168  0.00274316  0.16282525  1
  I  I73  1  0.83766960  -0.00014608  0.50197561  1
  I  I74  1  0.83257534  -0.00294279  0.83515889  1
  I  I75  1  0.83006054  0.33122642  0.16130154  1
  I  I76  1  0.83316198  0.33333917  0.50343100  1
  I  I77  1  0.83441165  0.33482046  0.83641931  1
  I  I78  1  0.83369321  0.66692462  0.16580122  1
  I  I79  1  0.82827846  0.66680361  0.49782682  1
  I  I80  1  0.83371304  0.66807024  0.83504573  1
  I  I81  1  0.17273474  0.16174457  -0.00413537  1
  I  I82  1  0.16697881  0.16515039  0.33346382  1
  I  I83  1  0.16627716  0.16796537  0.67025471  1
  I  I84  1  0.16871203  0.49952243  0.00196766  1
  I  I85  1  0.17092561  0.50445188  0.33342229  1
  I  I86  1  0.16527426  0.50165237  0.66454894  1
  I  I87  1  0.16769707  0.83509992  -0.00319445  1
  I  I88  1  0.17205214  0.83136113  0.33622442  1
  I  I89  1  0.17112978  0.83038736  0.66747903  1
  I  I90  1  0.49889368  0.16320218  -0.00279780  1
  I  I91  1  0.50194614  0.16303029  0.33564283  1
  I  I92  1  0.49759525  0.15926230  0.66784201  1
  I  I93  1  0.49449736  0.50328812  0.00312392  1
  I  I94  1  0.49944392  0.50253698  0.32969628  1
  I  I95  1  0.49961713  0.50107144  0.66660122  1
  I  I96  1  0.50016496  0.83406033  -0.00129034  1
  I  I97  1  0.49476550  0.83516475  0.33416437  1
  I  I98  1  0.49984423  0.83811533  0.66736953  1
  I  I99  1  0.83018209  0.16755594  0.00149789  1
  I  I100  1  0.83182770  0.16896128  0.32960571  1
  I  I101  1  0.83468269  0.16744419  0.66673218  1
  I  I102  1  0.83578188  0.50287366  -0.00269589  1
  I  I103  1  0.83179972  0.49768087  0.33331433  1
  I  I104  1  0.83290112  0.50271661  0.67081670  1
  I  I105  1  0.83438383  0.83041025  -0.00408918  1
  I  I106  1  0.83301742  0.83454771  0.33316273  1
  I  I107  1  0.82899948  0.83136978  0.67093998  1
  I  I108  1  -0.00283295  0.16849094  0.16260630  1
  I  I109  1  0.00037119  0.16717798  0.50140223  1
  I  I110  1  0.00219539  0.16461504  0.83547028  1
  I  I111  1  0.00263954  0.49809085  0.16812821  1
  I  I112  1  0.00478986  0.50604809  0.49334515  1
  I  I113  1  -0.00247915  0.50330696  0.83590208  1
  I  I114  1  0.00003729  0.83250368  0.16576627  1
  I  I115  1  0.00360673  0.82939190  0.50469342  1
  I  I116  1  0.00115812  0.83356099  0.82917041  1
  I  I117  1  0.33335245  0.16656092  0.16685229  1
  I  I118  1  0.33681548  0.16473861  0.50031681  1
  I  I119  1  0.33423169  0.15978140  0.83141738  1
  I  I120  1  0.33356128  0.50259699  0.16773022  1
  I  I121  1  0.33032627  0.50187222  0.50062952  1
  I  I122  1  0.33330507  0.50082864  0.83331528  1
  I  I123  1  0.33694591  0.83292937  0.16161162  1
  I  I124  1  0.33397654  0.83270129  0.50528231  1
  I  I125  1  0.33379758  0.83780323  0.83288528  1
  I  I126  1  0.66833036  0.16853917  0.16273653  1
  I  I127  1  0.66185992  0.16065037  0.50734385  1
  I  I128  1  0.66365784  0.16329870  0.83236102  1
  I  I129  1  0.66413096  0.50192167  0.16459242  1
  I  I130  1  0.66648704  0.49958285  0.49874177  1
  I  I131  1  0.66946385  0.50318999  0.83685726  1
  I  I132  1  0.66213412  0.82789407  0.16722808  1
  I  I133  1  0.66298385  0.83756937  0.50092074  1
  I  I134  1  0.66514454  0.83412227  0.83422658  1
