# generated using pymatgen
data_Cs27Sn14Pb13I81
_symmetry_space_group_name_H-M   'P 1'
_cell_length_a   18.96923371
_cell_length_b   18.98272854
_cell_length_c   18.97579755
_cell_angle_alpha   90.00069219
_cell_angle_beta   90.00024047
_cell_angle_gamma   90.00054264
_symmetry_Int_Tables_number   1
_chemical_formula_structural   Cs27Sn14Pb13I81
_chemical_formula_sum   'Cs27 Sn14 Pb13 I81'
_cell_volume   6832.95346238
_cell_formula_units_Z   1
loop_
 _symmetry_equiv_pos_site_id
 _symmetry_equiv_pos_as_xyz
  1  'x, y, z'
loop_
 _atom_site_type_symbol
 _atom_site_label
 _atom_site_symmetry_multiplicity
 _atom_site_fract_x
 _atom_site_fract_y
 _atom_site_fract_z
 _atom_site_occupancy
  Cs  Cs0  1  0.00010382  -0.00074230  -0.00204574  1
  Cs  Cs1  1  0.00004501  0.00005684  0.34030880  1
  Cs  Cs2  1  0.00966989  0.00745722  0.65991791  1
  Cs  Cs3  1  -0.00016990  0.33002146  -0.00163382  1
  Cs  Cs4  1  0.00292259  0.33046881  0.33384834  1
  Cs  Cs5  1  -0.00771942  0.32888260  0.66782284  1
  Cs  Cs6  1  -0.00182934  0.66744412  0.00190503  1
  Cs  Cs7  1  -0.00273270  0.66795133  0.33294729  1
  Cs  Cs8  1  0.00287791  0.66494861  0.66269794  1
  Cs  Cs9  1  0.33139372  0.00076224  -0.00202806  1
  Cs  Cs10  1  0.33340521  0.00344295  0.33422278  1
  Cs  Cs11  1  0.33125687  0.00019521  0.66747515  1
  Cs  Cs12  1  0.33158860  0.33503617  0.00703832  1
  Cs  Cs13  1  0.33148513  0.33509819  0.32758450  1
  Cs  Cs14  1  0.33586221  0.33832565  0.66587519  1
  Cs  Cs15  1  0.33243378  0.66584922  -0.00179679  1
  Cs  Cs16  1  0.33375234  0.66355557  0.33376491  1
  Cs  Cs17  1  0.33379550  0.66530108  0.66739123  1
  Cs  Cs18  1  0.66647206  -0.00360742  0.00202980  1
  Cs  Cs19  1  0.66659192  -0.00232695  0.33125087  1
  Cs  Cs20  1  0.66396271  0.00186499  0.66685886  1
  Cs  Cs21  1  0.66775870  0.33192281  -0.00034015  1
  Cs  Cs22  1  0.66552076  0.33228055  0.33182210  1
  Cs  Cs23  1  0.66895056  0.33409709  0.66794396  1
  Cs  Cs24  1  0.66758052  0.66914478  0.00013348  1
  Cs  Cs25  1  0.66768998  0.66859695  0.33259890  1
  Cs  Cs26  1  0.66499372  0.66447463  0.66732071  1
  Sn  Sn27  1  0.49943509  0.49984209  0.83309663  1
  Sn  Sn28  1  0.50014764  0.83328763  0.50037212  1
  Sn  Sn29  1  0.16718907  0.50005222  0.50099736  1
  Sn  Sn30  1  0.50067193  0.83341040  0.83320157  1
  Sn  Sn31  1  0.83327088  0.16605980  0.16662662  1
  Sn  Sn32  1  0.16670887  0.83334075  0.16667657  1
  Sn  Sn33  1  0.83342405  0.83351810  0.83279498  1
  Sn  Sn34  1  0.83378682  0.83351958  0.16589808  1
  Sn  Sn35  1  0.49991363  0.16681986  0.83300337  1
  Sn  Sn36  1  0.49922142  0.83299423  0.16646456  1
  Sn  Sn37  1  0.49955551  0.49981606  0.50046543  1
  Sn  Sn38  1  0.83318345  0.49987158  0.16657524  1
  Sn  Sn39  1  0.50006918  0.16707422  0.50065925  1
  Sn  Sn40  1  0.16691275  0.50007564  0.83265815  1
  Pb  Pb41  1  0.16424751  0.50171657  0.16658222  1
  Pb  Pb42  1  0.16982533  0.16999199  0.50017575  1
  Pb  Pb43  1  0.16375366  0.16349809  0.16658564  1
  Pb  Pb44  1  0.83059121  0.16657274  0.49793916  1
  Pb  Pb45  1  0.16958985  0.83120956  0.49780732  1
  Pb  Pb46  1  0.83152313  0.83340123  0.50108033  1
  Pb  Pb47  1  0.16657324  0.83162845  0.83457300  1
  Pb  Pb48  1  0.83307492  0.50209306  0.83499787  1
  Pb  Pb49  1  0.50127840  0.16419119  0.16637731  1
  Pb  Pb50  1  0.83289714  0.50002911  0.49785815  1
  Pb  Pb51  1  0.83106339  0.16333644  0.83489266  1
  Pb  Pb52  1  0.50171462  0.50208892  0.16638176  1
  Pb  Pb53  1  0.16958954  0.16991392  0.83332720  1
  I  I54  1  0.16734495  -0.00456096  0.16550175  1
  I  I55  1  0.16694383  0.00002406  0.49742345  1
  I  I56  1  0.16708014  -0.00003621  0.83641912  1
  I  I57  1  0.16491533  0.33351352  0.16714088  1
  I  I58  1  0.17284381  0.33783162  0.50110392  1
  I  I59  1  0.17121160  0.33812751  0.83138329  1
  I  I60  1  0.16534004  0.66951366  0.16651146  1
  I  I61  1  0.17338725  0.66350767  0.50313658  1
  I  I62  1  0.17362869  0.66376905  0.83103221  1
  I  I63  1  0.50325128  -0.00422098  0.16696969  1
  I  I64  1  0.50302210  -0.00066782  0.50127995  1
  I  I65  1  0.50562608  -0.00115743  0.83189914  1
  I  I66  1  0.50313054  0.33335277  0.16694296  1
  I  I67  1  0.49728376  0.33412582  0.50663403  1
  I  I68  1  0.49640851  0.33412820  0.82619890  1
  I  I69  1  0.50320686  0.67047837  0.16677882  1
  I  I70  1  0.49695201  0.66658574  0.50168646  1
  I  I71  1  0.50016284  0.66700865  0.83160793  1
  I  I72  1  0.83099437  -0.00177157  0.16268316  1
  I  I73  1  0.83094256  -0.00016989  0.49614823  1
  I  I74  1  0.82571513  -0.00453255  0.84189447  1
  I  I75  1  0.83123246  0.33338991  0.16785069  1
  I  I76  1  0.83057500  0.33344570  0.49688402  1
  I  I77  1  0.83244269  0.33325717  0.83697542  1
  I  I78  1  0.83271568  0.66851946  0.16363141  1
  I  I79  1  0.83020007  0.66673116  0.49546778  1
  I  I80  1  0.82559405  0.66987397  0.84194692  1
  I  I81  1  0.17052341  0.17023343  0.00004851  1
  I  I82  1  0.16950485  0.16947859  0.33331430  1
  I  I83  1  0.16287071  0.16104091  0.66670534  1
  I  I84  1  0.17196352  0.50201014  -0.00253510  1
  I  I85  1  0.17182578  0.50160528  0.33575163  1
  I  I86  1  0.17301222  0.50290238  0.66677937  1
  I  I87  1  0.17080157  0.82949875  0.00273355  1
  I  I88  1  0.16478974  0.83026144  0.32975902  1
  I  I89  1  0.16553694  0.83350241  0.66646274  1
  I  I90  1  0.50211405  0.16691119  -0.00284617  1
  I  I91  1  0.50209644  0.16670761  0.33590938  1
  I  I92  1  0.50058064  0.16189904  0.66681111  1
  I  I93  1  0.49686688  0.50023143  -0.00309425  1
  I  I94  1  0.49721284  0.50018183  0.33607319  1
  I  I95  1  0.49696181  0.50461952  0.66695110  1
  I  I96  1  0.50180462  0.83289420  -0.00027876  1
  I  I97  1  0.50087045  0.83281633  0.33306422  1
  I  I98  1  0.50536267  0.83258587  0.66740627  1
  I  I99  1  0.82951203  0.16796557  0.00303290  1
  I  I100  1  0.83045353  0.16314332  0.32962407  1
  I  I101  1  0.83393275  0.16598998  0.66690733  1
  I  I102  1  0.83239473  0.50059895  0.00308865  1
  I  I103  1  0.83209067  0.50471386  0.32965557  1
  I  I104  1  0.83330633  0.50242519  0.66686808  1
  I  I105  1  0.82713775  0.83267519  0.00153670  1
  I  I106  1  0.83158725  0.83287616  0.32989144  1
  I  I107  1  0.82547455  0.83040467  0.67011950  1
  I  I108  1  -0.00430051  0.16608297  0.16569778  1
  I  I109  1  0.00024198  0.16777178  0.49801980  1
  I  I110  1  -0.00019472  0.16693478  0.83573174  1
  I  I111  1  -0.00345795  0.50427620  0.16655585  1
  I  I112  1  0.00291892  0.50185278  0.50259452  1
  I  I113  1  0.00240971  0.50394018  0.83107232  1
  I  I114  1  -0.00152148  0.83186150  0.16071100  1
  I  I115  1  0.00038997  0.83061966  0.49826340  1
  I  I116  1  -0.00260715  0.82932592  0.84278772  1
  I  I117  1  0.33348289  0.16520660  0.16718227  1
  I  I118  1  0.33809300  0.16196462  0.50241282  1
  I  I119  1  0.33815096  0.15886320  0.83058974  1
  I  I120  1  0.33338132  0.50229315  0.16678442  1
  I  I121  1  0.33529192  0.50122156  0.50308877  1
  I  I122  1  0.33535611  0.50310078  0.83010324  1
  I  I123  1  0.33459617  0.83185767  0.16650711  1
  I  I124  1  0.33822419  0.83512284  0.50078944  1
  I  I125  1  0.33706356  0.83446362  0.83473991  1
  I  I126  1  0.66916981  0.16389140  0.16710836  1
  I  I127  1  0.66212645  0.16928100  0.50354526  1
  I  I128  1  0.66267068  0.17186082  0.82963576  1
  I  I129  1  0.66949294  0.50376872  0.16677219  1
  I  I130  1  0.66269083  0.50073135  0.50348570  1
  I  I131  1  0.66313440  0.49930575  0.82985021  1
  I  I132  1  0.66664787  0.83322134  0.16632137  1
  I  I133  1  0.66235137  0.83002287  0.49472590  1
  I  I134  1  0.66458200  0.83106126  0.83906845  1
