# generated using pymatgen
data_Cs27Sn14Pb13I81
_symmetry_space_group_name_H-M   'P 1'
_cell_length_a   18.98032490
_cell_length_b   18.97021475
_cell_length_c   18.97630481
_cell_angle_alpha   89.99994085
_cell_angle_beta   89.99926854
_cell_angle_gamma   89.99917426
_symmetry_Int_Tables_number   1
_chemical_formula_structural   Cs27Sn14Pb13I81
_chemical_formula_sum   'Cs27 Sn14 Pb13 I81'
_cell_volume   6832.62423528
_cell_formula_units_Z   1
loop_
 _symmetry_equiv_pos_site_id
 _symmetry_equiv_pos_as_xyz
  1  'x, y, z'
loop_
 _atom_site_type_symbol
 _atom_site_label
 _atom_site_symmetry_multiplicity
 _atom_site_fract_x
 _atom_site_fract_y
 _atom_site_fract_z
 _atom_site_occupancy
  Cs  Cs0  1  0.00033395  0.00026867  0.00117252  1
  Cs  Cs1  1  0.00144607  0.00086681  0.33505845  1
  Cs  Cs2  1  0.00254851  -0.00122691  0.66257598  1
  Cs  Cs3  1  0.00018564  0.33089227  -0.00100220  1
  Cs  Cs4  1  0.00062477  0.33481820  0.33278714  1
  Cs  Cs5  1  -0.00442115  0.33859579  0.66905897  1
  Cs  Cs6  1  0.00218180  0.66789760  0.00201507  1
  Cs  Cs7  1  -0.00136643  0.66619502  0.33370648  1
  Cs  Cs8  1  -0.00460803  0.66340081  0.66361314  1
  Cs  Cs9  1  0.32923608  -0.00442379  -0.00062394  1
  Cs  Cs10  1  0.33102876  0.00195860  0.33718917  1
  Cs  Cs11  1  0.33207586  0.00177631  0.66377338  1
  Cs  Cs12  1  0.33648678  0.33770458  -0.00144448  1
  Cs  Cs13  1  0.33498890  0.33367679  0.33473367  1
  Cs  Cs14  1  0.33521835  0.33212442  0.66573089  1
  Cs  Cs15  1  0.33304992  0.66717045  0.00025886  1
  Cs  Cs16  1  0.33365212  0.66597309  0.33229149  1
  Cs  Cs17  1  0.33388142  0.66662469  0.66728881  1
  Cs  Cs18  1  0.66943491  0.00132888  -0.00021531  1
  Cs  Cs19  1  0.66686648  0.00321691  0.33210892  1
  Cs  Cs20  1  0.66491181  0.00103495  0.66844116  1
  Cs  Cs21  1  0.66104219  0.32451140  -0.00558631  1
  Cs  Cs22  1  0.66454908  0.32927428  0.33045312  1
  Cs  Cs23  1  0.67112144  0.33099590  0.67443447  1
  Cs  Cs24  1  0.66306392  0.66962069  0.00191190  1
  Cs  Cs25  1  0.66756246  0.66618982  0.33479561  1
  Cs  Cs26  1  0.67005873  0.66608106  0.66272048  1
  Sn  Sn27  1  0.49982510  0.83309694  0.83310239  1
  Sn  Sn28  1  0.16646143  0.83332956  0.16649977  1
  Sn  Sn29  1  0.16596813  0.50007757  0.16741512  1
  Sn  Sn30  1  0.16736671  0.50033734  0.49940187  1
  Sn  Sn31  1  0.83365229  0.83255606  0.16612227  1
  Sn  Sn32  1  0.83330045  0.50007438  0.16615972  1
  Sn  Sn33  1  0.16616701  0.83385491  0.83359718  1
  Sn  Sn34  1  0.16664992  0.16602332  0.83389897  1
  Sn  Sn35  1  0.83393340  0.83304669  0.83397291  1
  Sn  Sn36  1  0.49969726  0.83269149  0.49979784  1
  Sn  Sn37  1  0.16686549  0.16680335  0.16602324  1
  Sn  Sn38  1  0.49951247  0.50055901  0.50002811  1
  Sn  Sn39  1  0.83358132  0.16665037  0.49986894  1
  Sn  Sn40  1  0.49990035  0.83330431  0.16715627  1
  Pb  Pb41  1  0.83611026  0.16382226  0.83148674  1
  Pb  Pb42  1  0.50020345  0.50167124  0.16808045  1
  Pb  Pb43  1  0.16842134  0.83130144  0.50012135  1
  Pb  Pb44  1  0.83260447  0.49792856  0.49760512  1
  Pb  Pb45  1  0.83090360  0.83474761  0.49940843  1
  Pb  Pb46  1  0.50224321  0.16717314  0.50014967  1
  Pb  Pb47  1  0.83537460  0.16652812  0.16756758  1
  Pb  Pb48  1  0.49668290  0.16373072  0.16649557  1
  Pb  Pb49  1  0.49694045  0.16388080  0.83349321  1
  Pb  Pb50  1  0.83323948  0.50252484  0.83727521  1
  Pb  Pb51  1  0.16661191  0.50050513  0.83386546  1
  Pb  Pb52  1  0.50017587  0.50253436  0.83054601  1
  Pb  Pb53  1  0.16517191  0.16954776  0.50038972  1
  I  I54  1  0.16688325  -0.00144885  0.16205425  1
  I  I55  1  0.16740870  -0.00006070  0.49770597  1
  I  I56  1  0.16691276  -0.00185127  0.84098412  1
  I  I57  1  0.16047019  0.33404349  0.16746383  1
  I  I58  1  0.17241325  0.33717642  0.49524418  1
  I  I59  1  0.16585882  0.33081485  0.83620838  1
  I  I60  1  0.16646263  0.66779069  0.16641555  1
  I  I61  1  0.16698295  0.66355333  0.49570862  1
  I  I62  1  0.16796347  0.67043649  0.83705500  1
  I  I63  1  0.50205743  -0.00529069  0.16919022  1
  I  I64  1  0.50116322  -0.00327622  0.50021932  1
  I  I65  1  0.50243584  -0.00491731  0.83090496  1
  I  I66  1  0.50058994  0.33335907  0.17057282  1
  I  I67  1  0.49545776  0.33650568  0.49734446  1
  I  I68  1  0.49888947  0.33317687  0.83112870  1
  I  I69  1  0.49537057  0.67059255  0.16416673  1
  I  I70  1  0.49655579  0.66784838  0.50000085  1
  I  I71  1  0.49519406  0.67147482  0.83701336  1
  I  I72  1  0.83337795  -0.00356106  0.16420225  1
  I  I73  1  0.83341213  0.00207971  0.49795386  1
  I  I74  1  0.83038021  -0.00438783  0.84036551  1
  I  I75  1  0.83987541  0.33590208  0.17233451  1
  I  I76  1  0.83391638  0.33073076  0.49751107  1
  I  I77  1  0.83499405  0.33305367  0.83211026  1
  I  I78  1  0.83879393  0.66830084  0.16479151  1
  I  I79  1  0.83455201  0.66665350  0.50203789  1
  I  I80  1  0.83712266  0.67122514  0.83184520  1
  I  I81  1  0.16503167  0.16570664  0.00085882  1
  I  I82  1  0.16488462  0.16267750  0.33054923  1
  I  I83  1  0.16573436  0.16058741  0.66925247  1
  I  I84  1  0.16245038  0.50101542  0.00359739  1
  I  I85  1  0.16674403  0.50084725  0.33182980  1
  I  I86  1  0.17114035  0.50027425  0.66411028  1
  I  I87  1  0.17033693  0.83205392  0.00108826  1
  I  I88  1  0.16630838  0.83568907  0.33003713  1
  I  I89  1  0.16725060  0.83725681  0.66954424  1
  I  I90  1  0.50477468  0.16754631  0.00008677  1
  I  I91  1  0.49810947  0.16223150  0.33333831  1
  I  I92  1  0.49727062  0.16333428  0.66669329  1
  I  I93  1  0.49863621  0.50162894  0.00016373  1
  I  I94  1  0.49815852  0.50777740  0.33600315  1
  I  I95  1  0.49265564  0.50622214  0.66237271  1
  I  I96  1  0.49925611  0.83412849  0.00032558  1
  I  I97  1  0.49974789  0.82915962  0.33275702  1
  I  I98  1  0.49954937  0.82954266  0.66696744  1
  I  I99  1  0.83266156  0.16838894  -0.00011845  1
  I  I100  1  0.83581834  0.16383765  0.33520253  1
  I  I101  1  0.83499515  0.16602615  0.66399464  1
  I  I102  1  0.84272091  0.50184595  0.00508227  1
  I  I103  1  0.83629078  0.50806698  0.32998511  1
  I  I104  1  0.83425826  0.50019704  0.66658294  1
  I  I105  1  0.82990799  0.83022173  0.00099091  1
  I  I106  1  0.83438967  0.83105210  0.32992332  1
  I  I107  1  0.83387811  0.83650695  0.66918156  1
  I  I108  1  0.00354510  0.16176372  0.16438949  1
  I  I109  1  -0.00208920  0.16600884  0.49914944  1
  I  I110  1  0.00373554  0.16032996  0.83725991  1
  I  I111  1  0.00158246  0.50587719  0.17294496  1
  I  I112  1  0.00227835  0.49835702  0.49777841  1
  I  I113  1  0.00012472  0.50265027  0.82632961  1
  I  I114  1  0.00076714  0.83276280  0.16017596  1
  I  I115  1  -0.00005315  0.83284498  0.50067177  1
  I  I116  1  0.00077009  0.83726431  0.84114156  1
  I  I117  1  0.32836003  0.16758458  0.16495817  1
  I  I118  1  0.33315288  0.16519068  0.49997875  1
  I  I119  1  0.32906709  0.16057462  0.83608167  1
  I  I120  1  0.33016337  0.50121226  0.16869381  1
  I  I121  1  0.33278660  0.50384012  0.49372246  1
  I  I122  1  0.33315620  0.50245598  0.83729307  1
  I  I123  1  0.33240295  0.83315991  0.16394942  1
  I  I124  1  0.33652952  0.83257472  0.49947733  1
  I  I125  1  0.33277983  0.83670345  0.83643245  1
  I  I126  1  0.66672424  0.16680064  0.16975044  1
  I  I127  1  0.66968274  0.16650335  0.49820296  1
  I  I128  1  0.66685933  0.16590503  0.83084000  1
  I  I129  1  0.66924827  0.50753274  0.16977022  1
  I  I130  1  0.66395348  0.50533096  0.49855621  1
  I  I131  1  0.66680776  0.50175554  0.83191111  1
  I  I132  1  0.66703428  0.82794000  0.16466621  1
  I  I133  1  0.66288236  0.82738126  0.49995451  1
  I  I134  1  0.66657343  0.83109899  0.83620973  1
