# generated using pymatgen
data_Cs27Sn14Pb13I81
_symmetry_space_group_name_H-M   'P 1'
_cell_length_a   18.95932484
_cell_length_b   18.96279613
_cell_length_c   18.96190735
_cell_angle_alpha   90.00025405
_cell_angle_beta   90.00028737
_cell_angle_gamma   90.00086954
_symmetry_Int_Tables_number   1
_chemical_formula_structural   Cs27Sn14Pb13I81
_chemical_formula_sum   'Cs27 Sn14 Pb13 I81'
_cell_volume   6817.21928406
_cell_formula_units_Z   1
loop_
 _symmetry_equiv_pos_site_id
 _symmetry_equiv_pos_as_xyz
  1  'x, y, z'
loop_
 _atom_site_type_symbol
 _atom_site_label
 _atom_site_symmetry_multiplicity
 _atom_site_fract_x
 _atom_site_fract_y
 _atom_site_fract_z
 _atom_site_occupancy
  Cs  Cs0  1  0.00304457  -0.00004536  -0.00100708  1
  Cs  Cs1  1  -0.00651353  -0.00737575  0.33674854  1
  Cs  Cs2  1  -0.00183779  -0.00127038  0.66519940  1
  Cs  Cs3  1  0.00019435  0.33314877  0.00049582  1
  Cs  Cs4  1  0.00062222  0.33311186  0.32973956  1
  Cs  Cs5  1  0.00164957  0.33392299  0.66735280  1
  Cs  Cs6  1  0.00067305  0.66873056  0.00090605  1
  Cs  Cs7  1  -0.00247434  0.67486660  0.33524693  1
  Cs  Cs8  1  0.00558915  0.66710182  0.66447805  1
  Cs  Cs9  1  0.33306294  -0.00134721  0.00215875  1
  Cs  Cs10  1  0.33583906  0.00144245  0.32737633  1
  Cs  Cs11  1  0.33457583  0.00093995  0.66753099  1
  Cs  Cs12  1  0.33227438  0.33338522  0.00027051  1
  Cs  Cs13  1  0.33301983  0.33265748  0.33315921  1
  Cs  Cs14  1  0.33305956  0.33428322  0.66551414  1
  Cs  Cs15  1  0.33271514  0.66824815  -0.00028670  1
  Cs  Cs16  1  0.33296628  0.66682284  0.33482989  1
  Cs  Cs17  1  0.33256394  0.66529277  0.66554779  1
  Cs  Cs18  1  0.66470546  -0.00133725  -0.00005128  1
  Cs  Cs19  1  0.67181876  0.00455374  0.33016303  1
  Cs  Cs20  1  0.66721431  -0.00082692  0.66686811  1
  Cs  Cs21  1  0.66864430  0.33546541  -0.00120506  1
  Cs  Cs22  1  0.66842217  0.33048902  0.33346014  1
  Cs  Cs23  1  0.66520989  0.33425753  0.66771558  1
  Cs  Cs24  1  0.66637789  0.66464388  -0.00056709  1
  Cs  Cs25  1  0.66773361  0.66540764  0.33325677  1
  Cs  Cs26  1  0.66475631  0.66559444  0.66745044  1
  Sn  Sn27  1  0.83290863  0.49958155  0.50099991  1
  Sn  Sn28  1  0.50066495  0.50050534  0.50000941  1
  Sn  Sn29  1  0.49913152  0.49976422  0.16665995  1
  Sn  Sn30  1  0.49998362  0.16676524  0.83328739  1
  Sn  Sn31  1  0.83304153  0.50042485  0.83221416  1
  Sn  Sn32  1  0.50018429  0.50013304  0.83326027  1
  Sn  Sn33  1  0.16668501  0.16650375  0.49969422  1
  Sn  Sn34  1  0.83259312  0.83275692  0.83307604  1
  Sn  Sn35  1  0.16642493  0.16734400  0.16702727  1
  Sn  Sn36  1  0.50066697  0.83297332  0.83247005  1
  Sn  Sn37  1  0.83323422  0.16670048  0.83318375  1
  Sn  Sn38  1  0.50008503  0.83325131  0.50042231  1
  Sn  Sn39  1  0.16677333  0.16706523  0.83312295  1
  Sn  Sn40  1  0.16726029  0.49980554  0.16675646  1
  Pb  Pb41  1  0.50022499  0.83088614  0.16672016  1
  Pb  Pb42  1  0.83285377  0.83331463  0.16372540  1
  Pb  Pb43  1  0.16655577  0.49858127  0.49758714  1
  Pb  Pb44  1  0.83600058  0.16663518  0.16418436  1
  Pb  Pb45  1  0.83340492  0.50004549  0.16665900  1
  Pb  Pb46  1  0.49875374  0.16673974  0.50162236  1
  Pb  Pb47  1  0.16652848  0.49832943  0.83492362  1
  Pb  Pb48  1  0.49854186  0.16901823  0.16409928  1
  Pb  Pb49  1  0.83058927  0.83090439  0.50253650  1
  Pb  Pb50  1  0.16711238  0.83599221  0.83311922  1
  Pb  Pb51  1  0.16679111  0.83332569  0.16683297  1
  Pb  Pb52  1  0.16983554  0.83630562  0.50009527  1
  Pb  Pb53  1  0.83540190  0.16900449  0.50228103  1
  I  I54  1  0.16707438  0.00360523  0.16365491  1
  I  I55  1  0.16752181  0.00441592  0.50031217  1
  I  I56  1  0.16708492  0.00472421  0.83639750  1
  I  I57  1  0.17099789  0.33297791  0.16520799  1
  I  I58  1  0.16932314  0.33061472  0.50356373  1
  I  I59  1  0.16726722  0.32979884  0.83228984  1
  I  I60  1  0.17089712  0.66335689  0.16523629  1
  I  I61  1  0.16495671  0.66655248  0.49829568  1
  I  I62  1  0.16642314  0.66656042  0.83582958  1
  I  I63  1  0.49728176  0.00022115  0.16567350  1
  I  I64  1  0.49593222  -0.00233239  0.50720493  1
  I  I65  1  0.50167461  0.00001226  0.82874074  1
  I  I66  1  0.49799677  0.33739298  0.16672324  1
  I  I67  1  0.50144336  0.33665347  0.50169769  1
  I  I68  1  0.50165192  0.33404809  0.83335739  1
  I  I69  1  0.49414618  0.66236157  0.16149979  1
  I  I70  1  0.50228377  0.66506818  0.50499557  1
  I  I71  1  0.50634566  0.66570225  0.83358363  1
  I  I72  1  0.83529099  0.00016440  0.16578182  1
  I  I73  1  0.83404618  -0.00009164  0.50125409  1
  I  I74  1  0.83125622  0.00042660  0.83511164  1
  I  I75  1  0.83202152  0.33355345  0.16345289  1
  I  I76  1  0.82656328  0.33704772  0.50597871  1
  I  I77  1  0.83079073  0.33376060  0.83060130  1
  I  I78  1  0.83660332  0.66616313  0.16405365  1
  I  I79  1  0.83327443  0.66279087  0.50486300  1
  I  I80  1  0.82527134  0.66573358  0.83105737  1
  I  I81  1  0.16647474  0.17084706  -0.00086167  1
  I  I82  1  0.16931105  0.17292275  0.33278670  1
  I  I83  1  0.16709737  0.16672312  0.66797225  1
  I  I84  1  0.17070630  0.49364115  0.00279023  1
  I  I85  1  0.17140461  0.49249906  0.32989179  1
  I  I86  1  0.16867852  0.49725630  0.66661797  1
  I  I87  1  0.16789795  0.83523772  -0.00032780  1
  I  I88  1  0.16831051  0.83505741  0.33355230  1
  I  I89  1  0.16549404  0.83449008  0.66680871  1
  I  I90  1  0.49837230  0.16608752  -0.00475082  1
  I  I91  1  0.49621727  0.16658637  0.33323217  1
  I  I92  1  0.49737428  0.17101653  0.67057559  1
  I  I93  1  0.50011788  0.49914081  -0.00159624  1
  I  I94  1  0.49939560  0.50475482  0.33414018  1
  I  I95  1  0.50408111  0.50003840  0.66760779  1
  I  I96  1  0.50322794  0.83336177  -0.00377777  1
  I  I97  1  0.49702552  0.82805492  0.33644678  1
  I  I98  1  0.50268716  0.82896981  0.66840551  1
  I  I99  1  0.83429082  0.17055719  -0.00494164  1
  I  I100  1  0.83503487  0.16866592  0.33363440  1
  I  I101  1  0.83530074  0.16541382  0.67106319  1
  I  I102  1  0.83013410  0.49932422  -0.00370497  1
  I  I103  1  0.82990970  0.49914194  0.33627711  1
  I  I104  1  0.82570124  0.49883231  0.66829960  1
  I  I105  1  0.82721720  0.83028238  -0.00525645  1
  I  I106  1  0.83330193  0.83169006  0.33401622  1
  I  I107  1  0.83121270  0.83676503  0.67082194  1
  I  I108  1  0.00440372  0.17521167  0.16313520  1
  I  I109  1  0.00348565  0.16989444  0.50296166  1
  I  I110  1  -0.00002928  0.16764338  0.83412179  1
  I  I111  1  0.00279199  0.49419739  0.16483878  1
  I  I112  1  -0.00255837  0.49671158  0.50507791  1
  I  I113  1  -0.00305125  0.49938725  0.83074508  1
  I  I114  1  -0.00004058  0.83080086  0.16475710  1
  I  I115  1  -0.00033635  0.83229065  0.50082956  1
  I  I116  1  -0.00309591  0.83279608  0.83462463  1
  I  I117  1  0.33012264  0.16892050  0.16346942  1
  I  I118  1  0.33061939  0.16929733  0.50397244  1
  I  I119  1  0.33362489  0.16746493  0.83333292  1
  I  I120  1  0.33428215  0.49580300  0.16557389  1
  I  I121  1  0.33658762  0.50183188  0.50332016  1
  I  I122  1  0.33665480  0.49967690  0.83113069  1
  I  I123  1  0.33364940  0.83492264  0.16319615  1
  I  I124  1  0.33763430  0.82518830  0.50801278  1
  I  I125  1  0.33713530  0.83258634  0.83089753  1
  I  I126  1  0.66665360  0.16784452  0.16541459  1
  I  I127  1  0.66669130  0.16561654  0.50173324  1
  I  I128  1  0.66632569  0.16755373  0.83262425  1
  I  I129  1  0.66357511  0.50147763  0.16497986  1
  I  I130  1  0.66523069  0.50271285  0.50001057  1
  I  I131  1  0.66562968  0.49604122  0.83485680  1
  I  I132  1  0.66619434  0.83150075  0.16730542  1
  I  I133  1  0.66262501  0.83198662  0.50371838  1
  I  I134  1  0.66565780  0.83717886  0.83029545  1
