# generated using pymatgen
data_Cs27Sn13Pb14I81
_symmetry_space_group_name_H-M   'P 1'
_cell_length_a   18.98622702
_cell_length_b   18.97215804
_cell_length_c   18.97268302
_cell_angle_alpha   89.99958442
_cell_angle_beta   90.00062103
_cell_angle_gamma   89.99898386
_symmetry_Int_Tables_number   1
_chemical_formula_structural   Cs27Sn13Pb14I81
_chemical_formula_sum   'Cs27 Sn13 Pb14 I81'
_cell_volume   6834.14444728
_cell_formula_units_Z   1
loop_
 _symmetry_equiv_pos_site_id
 _symmetry_equiv_pos_as_xyz
  1  'x, y, z'
loop_
 _atom_site_type_symbol
 _atom_site_label
 _atom_site_symmetry_multiplicity
 _atom_site_fract_x
 _atom_site_fract_y
 _atom_site_fract_z
 _atom_site_occupancy
  Cs  Cs0  1  0.00116663  -0.00095960  0.00173784  1
  Cs  Cs1  1  0.00077778  0.00091314  0.33787229  1
  Cs  Cs2  1  0.00052627  0.00150580  0.65616369  1
  Cs  Cs3  1  -0.00015396  0.33265545  0.00197278  1
  Cs  Cs4  1  0.00113740  0.33380212  0.33271313  1
  Cs  Cs5  1  -0.00203438  0.33306744  0.66665662  1
  Cs  Cs6  1  0.00080360  0.66814162  -0.00237162  1
  Cs  Cs7  1  -0.00253129  0.66196689  0.33250944  1
  Cs  Cs8  1  0.00259121  0.66601178  0.67048492  1
  Cs  Cs9  1  0.33110651  0.00004719  0.00087368  1
  Cs  Cs10  1  0.33352321  -0.00364000  0.33441075  1
  Cs  Cs11  1  0.33119873  -0.00138075  0.66482464  1
  Cs  Cs12  1  0.33484299  0.33212445  -0.00100437  1
  Cs  Cs13  1  0.33288223  0.33366324  0.33357843  1
  Cs  Cs14  1  0.33508775  0.33357629  0.66619565  1
  Cs  Cs15  1  0.33375227  0.66927609  -0.00119348  1
  Cs  Cs16  1  0.33743947  0.66975221  0.33148555  1
  Cs  Cs17  1  0.32877962  0.66856680  0.66905108  1
  Cs  Cs18  1  0.66768378  0.00057904  -0.00260121  1
  Cs  Cs19  1  0.66664487  -0.00188923  0.33487807  1
  Cs  Cs20  1  0.66852846  -0.00071952  0.66832522  1
  Cs  Cs21  1  0.66436158  0.33252636  -0.00478781  1
  Cs  Cs22  1  0.66507420  0.33552832  0.33210428  1
  Cs  Cs23  1  0.66560320  0.33124671  0.67308567  1
  Cs  Cs24  1  0.66592498  0.66728059  -0.00001738  1
  Cs  Cs25  1  0.66506051  0.66635416  0.33382312  1
  Cs  Cs26  1  0.66758344  0.66928507  0.66583390  1
  Sn  Sn27  1  0.83318700  0.16678373  0.16672725  1
  Sn  Sn28  1  0.50005963  0.49925011  0.49994994  1
  Sn  Sn29  1  0.83337070  0.83329756  0.16617284  1
  Sn  Sn30  1  0.50004378  0.16675936  0.16745035  1
  Sn  Sn31  1  0.50036404  0.83338881  0.83361614  1
  Sn  Sn32  1  0.83363375  0.49983534  0.16697779  1
  Sn  Sn33  1  0.16632934  0.16690409  0.83368979  1
  Sn  Sn34  1  0.50030503  0.16736888  0.49921749  1
  Sn  Sn35  1  0.83290921  0.83362158  0.83390499  1
  Sn  Sn36  1  0.16678879  0.49969793  0.49892479  1
  Sn  Sn37  1  0.16668209  0.16739822  0.16612962  1
  Sn  Sn38  1  0.83313311  0.49964377  0.49961617  1
  Sn  Sn39  1  0.16641445  0.49938412  0.16724107  1
  Pb  Pb40  1  0.83331753  0.50192466  0.83409155  1
  Pb  Pb41  1  0.83342328  0.83078423  0.49965978  1
  Pb  Pb42  1  0.49828054  0.16484189  0.83327935  1
  Pb  Pb43  1  0.83571969  0.16429846  0.83545838  1
  Pb  Pb44  1  0.49992051  0.49834627  0.16789301  1
  Pb  Pb45  1  0.16864431  0.16868563  0.49907945  1
  Pb  Pb46  1  0.16424577  0.83304334  0.16689344  1
  Pb  Pb47  1  0.50010456  0.83342340  0.50213463  1
  Pb  Pb48  1  0.49990259  0.50239653  0.83042725  1
  Pb  Pb49  1  0.83084287  0.16931644  0.49762070  1
  Pb  Pb50  1  0.16659680  0.82972040  0.49950794  1
  Pb  Pb51  1  0.16659605  0.49764660  0.83420506  1
  Pb  Pb52  1  0.16582851  0.83612028  0.83347309  1
  Pb  Pb53  1  0.50247133  0.83613011  0.16490894  1
  I  I54  1  0.16653432  0.00341575  0.16170734  1
  I  I55  1  0.16866404  0.00049867  0.50084595  1
  I  I56  1  0.16765279  0.00376822  0.84130186  1
  I  I57  1  0.16152503  0.33304629  0.16691671  1
  I  I58  1  0.16450741  0.33678520  0.49815908  1
  I  I59  1  0.16799941  0.32994477  0.83607002  1
  I  I60  1  0.16213818  0.66300149  0.17135280  1
  I  I61  1  0.16916583  0.66113760  0.49478628  1
  I  I62  1  0.16713738  0.66675822  0.83227212  1
  I  I63  1  0.49827814  0.00451735  0.17264359  1
  I  I64  1  0.49937816  0.00310308  0.49651072  1
  I  I65  1  0.50450542  -0.00269438  0.83224503  1
  I  I66  1  0.50376126  0.32993539  0.16744206  1
  I  I67  1  0.49956935  0.33375770  0.49579712  1
  I  I68  1  0.49883603  0.33295880  0.83409139  1
  I  I69  1  0.49971645  0.66673417  0.16746873  1
  I  I70  1  0.50008497  0.66327596  0.50124490  1
  I  I71  1  0.50361782  0.67023250  0.83294752  1
  I  I72  1  0.83256009  0.00060167  0.16067080  1
  I  I73  1  0.83128532  0.00027278  0.49949271  1
  I  I74  1  0.82912490  -0.00352540  0.83939895  1
  I  I75  1  0.83520609  0.33350042  0.17227824  1
  I  I76  1  0.83626040  0.33741809  0.49436573  1
  I  I77  1  0.83418283  0.33308105  0.83347115  1
  I  I78  1  0.83818569  0.66563183  0.16702194  1
  I  I79  1  0.83087727  0.66252189  0.49395039  1
  I  I80  1  0.83011257  0.66989978  0.83861813  1
  I  I81  1  0.16859395  0.17164323  0.00247120  1
  I  I82  1  0.16436377  0.16912169  0.32982936  1
  I  I83  1  0.16965736  0.16685081  0.66826754  1
  I  I84  1  0.16050324  0.49809189  0.00383332  1
  I  I85  1  0.16453861  0.49371952  0.33248411  1
  I  I86  1  0.16629558  0.49936590  0.66362805  1
  I  I87  1  0.16859633  0.82890794  0.00014803  1
  I  I88  1  0.16595028  0.83943606  0.33294087  1
  I  I89  1  0.16482687  0.83420476  0.66679649  1
  I  I90  1  0.50156015  0.16508647  0.00309236  1
  I  I91  1  0.49861444  0.17047461  0.33248204  1
  I  I92  1  0.49730066  0.17002095  0.66400164  1
  I  I93  1  0.50009366  0.49899464  0.00012230  1
  I  I94  1  0.50038575  0.49874795  0.33629377  1
  I  I95  1  0.50029415  0.49263322  0.66179463  1
  I  I96  1  0.50189273  0.83488231  -0.00278809  1
  I  I97  1  0.50092341  0.83234675  0.33322069  1
  I  I98  1  0.50736948  0.83492578  0.66983214  1
  I  I99  1  0.82847247  0.17218368  0.00426011  1
  I  I100  1  0.83877913  0.16162971  0.32900721  1
  I  I101  1  0.83366537  0.16632445  0.66650319  1
  I  I102  1  0.83871908  0.49842155  0.00401159  1
  I  I103  1  0.83437030  0.50183551  0.33214279  1
  I  I104  1  0.83412662  0.50228804  0.66363957  1
  I  I105  1  0.82941777  0.83156044  0.00122424  1
  I  I106  1  0.83433330  0.83507928  0.32988627  1
  I  I107  1  0.82924362  0.83147797  0.66931931  1
  I  I108  1  -0.00003835  0.16758997  0.16113975  1
  I  I109  1  -0.00000775  0.16688532  0.50080279  1
  I  I110  1  0.00334685  0.16617770  0.83878191  1
  I  I111  1  -0.00051526  0.49586426  0.17437283  1
  I  I112  1  -0.00007969  0.50145492  0.49507265  1
  I  I113  1  -0.00002921  0.50277714  0.82806747  1
  I  I114  1  -0.00407326  0.83633918  0.15994038  1
  I  I115  1  -0.00028398  0.83447826  0.50321173  1
  I  I116  1  -0.00313223  0.83237932  0.83890614  1
  I  I117  1  0.33277911  0.17211518  0.16589785  1
  I  I118  1  0.33638040  0.17224633  0.49563635  1
  I  I119  1  0.33072464  0.16455576  0.83956968  1
  I  I120  1  0.33048112  0.49463998  0.17078671  1
  I  I121  1  0.33322809  0.49537688  0.49666295  1
  I  I122  1  0.33320813  0.50319623  0.83355682  1
  I  I123  1  0.33355578  0.83281084  0.16469945  1
  I  I124  1  0.33359298  0.83162314  0.50317954  1
  I  I125  1  0.33548407  0.83432514  0.83109103  1
  I  I126  1  0.66705804  0.16644244  0.17164874  1
  I  I127  1  0.66308818  0.17195208  0.49557778  1
  I  I128  1  0.66679809  0.16680303  0.83403950  1
  I  I129  1  0.66971048  0.49990785  0.17107562  1
  I  I130  1  0.66691066  0.49758441  0.49508274  1
  I  I131  1  0.66669055  0.49737112  0.83362468  1
  I  I132  1  0.67061724  0.83155491  0.16543308  1
  I  I133  1  0.66678431  0.83042086  0.49845527  1
  I  I134  1  0.66748948  0.83400036  0.83731493  1
