# generated using pymatgen
data_Cs27Sn13Pb14I81
_symmetry_space_group_name_H-M   'P 1'
_cell_length_a   18.98339532
_cell_length_b   18.97250174
_cell_length_c   18.97658766
_cell_angle_alpha   89.99988148
_cell_angle_beta   89.99849231
_cell_angle_gamma   89.99977971
_symmetry_Int_Tables_number   1
_chemical_formula_structural   Cs27Sn13Pb14I81
_chemical_formula_sum   'Cs27 Sn13 Pb14 I81'
_cell_volume   6834.65526252
_cell_formula_units_Z   1
loop_
 _symmetry_equiv_pos_site_id
 _symmetry_equiv_pos_as_xyz
  1  'x, y, z'
loop_
 _atom_site_type_symbol
 _atom_site_label
 _atom_site_symmetry_multiplicity
 _atom_site_fract_x
 _atom_site_fract_y
 _atom_site_fract_z
 _atom_site_occupancy
  Cs  Cs0  1  -0.00087845  0.00152801  -0.00023248  1
  Cs  Cs1  1  0.00072629  -0.00037731  0.33278910  1
  Cs  Cs2  1  0.00185431  -0.00054402  0.66752020  1
  Cs  Cs3  1  -0.00534622  0.34045172  -0.00829033  1
  Cs  Cs4  1  0.00061149  0.33395047  0.33454930  1
  Cs  Cs5  1  0.00010086  0.33243847  0.66728565  1
  Cs  Cs6  1  0.00114601  0.66013133  -0.00040931  1
  Cs  Cs7  1  0.00052249  0.66738059  0.33424667  1
  Cs  Cs8  1  0.00098869  0.66852312  0.66528301  1
  Cs  Cs9  1  0.33424507  -0.00001426  0.00263956  1
  Cs  Cs10  1  0.33254676  0.00123321  0.33169845  1
  Cs  Cs11  1  0.33213912  -0.00381973  0.66959499  1
  Cs  Cs12  1  0.33052326  0.33831448  -0.00053614  1
  Cs  Cs13  1  0.33255629  0.33175808  0.33350165  1
  Cs  Cs14  1  0.33265109  0.33169892  0.66692737  1
  Cs  Cs15  1  0.33288566  0.65881497  -0.00479741  1
  Cs  Cs16  1  0.33485607  0.66535717  0.33414796  1
  Cs  Cs17  1  0.34089930  0.67471885  0.67273147  1
  Cs  Cs18  1  0.66717495  0.00065280  0.00265304  1
  Cs  Cs19  1  0.66698448  0.00106125  0.33121004  1
  Cs  Cs20  1  0.66618834  -0.00005090  0.66697943  1
  Cs  Cs21  1  0.67397393  0.33854181  -0.00153961  1
  Cs  Cs22  1  0.66648865  0.33301159  0.33361859  1
  Cs  Cs23  1  0.66627250  0.33431882  0.66533309  1
  Cs  Cs24  1  0.66604166  0.66283134  -0.00223289  1
  Cs  Cs25  1  0.66517423  0.66573354  0.33412355  1
  Cs  Cs26  1  0.66098589  0.66655347  0.66775638  1
  Sn  Sn27  1  0.16661842  0.49991036  0.50001381  1
  Sn  Sn28  1  0.83362356  0.83383354  0.83350778  1
  Sn  Sn29  1  0.16666661  0.16702553  0.49924948  1
  Sn  Sn30  1  0.49949694  0.16651910  0.16617950  1
  Sn  Sn31  1  0.50000764  0.16658906  0.83414140  1
  Sn  Sn32  1  0.83363242  0.16656880  0.49973223  1
  Sn  Sn33  1  0.49973353  0.83366537  0.16678460  1
  Sn  Sn34  1  0.49957708  0.16614754  0.50009378  1
  Sn  Sn35  1  0.83415375  0.50010534  0.49960643  1
  Sn  Sn36  1  0.83322175  0.83333843  0.50010047  1
  Sn  Sn37  1  0.16684792  0.83380332  0.16683160  1
  Sn  Sn38  1  0.16666502  0.16639170  0.16689351  1
  Sn  Sn39  1  0.83344450  0.83352702  0.16639266  1
  Pb  Pb40  1  0.49991365  0.49909259  0.16683097  1
  Pb  Pb41  1  0.16658871  0.49923282  0.16878896  1
  Pb  Pb42  1  0.49940102  0.49766354  0.49994329  1
  Pb  Pb43  1  0.83338798  0.50303828  0.16926018  1
  Pb  Pb44  1  0.83388295  0.16554658  0.16808601  1
  Pb  Pb45  1  0.16673249  0.50000786  0.82918792  1
  Pb  Pb46  1  0.50012803  0.49683650  0.83321423  1
  Pb  Pb47  1  0.83331304  0.50292498  0.82983850  1
  Pb  Pb48  1  0.16448121  0.83362580  0.83688425  1
  Pb  Pb49  1  0.50199313  0.83547255  0.83644738  1
  Pb  Pb50  1  0.83132851  0.16483502  0.83063586  1
  Pb  Pb51  1  0.16863319  0.16655089  0.83383421  1
  Pb  Pb52  1  0.50223053  0.83584776  0.49794504  1
  Pb  Pb53  1  0.16519890  0.83352749  0.49844020  1
  I  I54  1  0.16736615  0.00057889  0.17327174  1
  I  I55  1  0.16580585  0.00329647  0.49763971  1
  I  I56  1  0.16561136  0.00008440  0.82721713  1
  I  I57  1  0.17410424  0.32948400  0.17072521  1
  I  I58  1  0.16215331  0.33136015  0.49450307  1
  I  I59  1  0.16668130  0.33310364  0.83798244  1
  I  I60  1  0.16549676  0.66970260  0.16851532  1
  I  I61  1  0.15882506  0.66451625  0.49697546  1
  I  I62  1  0.16673679  0.66687400  0.83359366  1
  I  I63  1  0.50015627  0.00077445  0.16799837  1
  I  I64  1  0.49972425  0.00436542  0.50104276  1
  I  I65  1  0.50112523  0.00326655  0.82973442  1
  I  I66  1  0.49443481  0.32865607  0.16858579  1
  I  I67  1  0.50523011  0.32876554  0.49680339  1
  I  I68  1  0.50075344  0.32849706  0.83423336  1
  I  I69  1  0.50112755  0.67002619  0.16790205  1
  I  I70  1  0.50079111  0.66701909  0.49828287  1
  I  I71  1  0.50102922  0.66709522  0.83382351  1
  I  I72  1  0.83279398  -0.00321176  0.17045264  1
  I  I73  1  0.83260887  0.00004721  0.49918619  1
  I  I74  1  0.83255275  -0.00314822  0.83122776  1
  I  I75  1  0.83227850  0.33336617  0.16854046  1
  I  I76  1  0.83306328  0.33232475  0.49955929  1
  I  I77  1  0.83184567  0.33339969  0.83280881  1
  I  I78  1  0.83316719  0.67191706  0.16892395  1
  I  I79  1  0.83931112  0.66727060  0.49863595  1
  I  I80  1  0.83235450  0.67088800  0.83371056  1
  I  I81  1  0.17195394  0.16030793  0.00384359  1
  I  I82  1  0.17082393  0.16601078  0.33414833  1
  I  I83  1  0.16644853  0.17097835  0.66309545  1
  I  I84  1  0.16698032  0.49987242  0.00001434  1
  I  I85  1  0.16171850  0.49772827  0.33676943  1
  I  I86  1  0.16047663  0.49195379  0.66113566  1
  I  I87  1  0.16489011  0.84134579  0.00528898  1
  I  I88  1  0.16390413  0.83548496  0.33018405  1
  I  I89  1  0.16415460  0.83337432  0.66656134  1
  I  I90  1  0.49509291  0.16035010  0.00153635  1
  I  I91  1  0.49974698  0.16294144  0.33339918  1
  I  I92  1  0.50195224  0.16848623  0.66539555  1
  I  I93  1  0.50041391  0.49904818  0.00009223  1
  I  I94  1  0.50153426  0.49894539  0.33359606  1
  I  I95  1  0.50064911  0.49908817  0.66625600  1
  I  I96  1  0.50259621  0.84059520  0.00440874  1
  I  I97  1  0.50246169  0.83923521  0.32985082  1
  I  I98  1  0.50219830  0.83472924  0.66673709  1
  I  I99  1  0.83269161  0.16372329  0.00000053  1
  I  I100  1  0.82942575  0.16418576  0.33698117  1
  I  I101  1  0.83379163  0.16436739  0.66184977  1
  I  I102  1  0.83290070  0.50040095  -0.00026579  1
  I  I103  1  0.83636897  0.50089687  0.33753358  1
  I  I104  1  0.83726129  0.49994049  0.66177935  1
  I  I105  1  0.83247213  0.83620145  0.00116938  1
  I  I106  1  0.83328169  0.83382619  0.33347381  1
  I  I107  1  0.83358441  0.83398091  0.66530911  1
  I  I108  1  0.00292227  0.16054264  0.17409981  1
  I  I109  1  0.00009626  0.16682528  0.49501467  1
  I  I110  1  -0.00022747  0.16583839  0.83307151  1
  I  I111  1  -0.00002205  0.50007786  0.16661180  1
  I  I112  1  -0.00076768  0.49489432  0.49858846  1
  I  I113  1  -0.00026241  0.49902608  0.83584163  1
  I  I114  1  -0.00023707  0.83797223  0.16852145  1
  I  I115  1  -0.00350420  0.83767717  0.49723003  1
  I  I116  1  -0.00379501  0.83490909  0.83266340  1
  I  I117  1  0.33358205  0.15779420  0.17287571  1
  I  I118  1  0.33304937  0.17229311  0.49847418  1
  I  I119  1  0.33669001  0.16481973  0.82791895  1
  I  I120  1  0.33318601  0.50503517  0.17006447  1
  I  I121  1  0.33013215  0.49353531  0.49758627  1
  I  I122  1  0.33341807  0.50118056  0.83186237  1
  I  I123  1  0.33338055  0.83975709  0.16871586  1
  I  I124  1  0.33344139  0.83235085  0.49852393  1
  I  I125  1  0.33363908  0.83383193  0.83267595  1
  I  I126  1  0.66393183  0.16147249  0.16909127  1
  I  I127  1  0.66677703  0.16559242  0.49957183  1
  I  I128  1  0.66341912  0.16450643  0.83418774  1
  I  I129  1  0.66676062  0.49931341  0.16962133  1
  I  I130  1  0.66970428  0.49990635  0.49996636  1
  I  I131  1  0.66697635  0.50012293  0.83105854  1
  I  I132  1  0.66686916  0.83851299  0.16811548  1
  I  I133  1  0.67083162  0.83304894  0.49761305  1
  I  I134  1  0.66989031  0.83501892  0.83299839  1
