# generated using pymatgen
data_Cs27Sn14Pb13I81
_symmetry_space_group_name_H-M   'P 1'
_cell_length_a   18.98089765
_cell_length_b   18.97481216
_cell_length_c   18.97169447
_cell_angle_alpha   90.00010343
_cell_angle_beta   90.00003950
_cell_angle_gamma   89.99924657
_symmetry_Int_Tables_number   1
_chemical_formula_structural   Cs27Sn14Pb13I81
_chemical_formula_sum   'Cs27 Sn14 Pb13 I81'
_cell_volume   6832.82589038
_cell_formula_units_Z   1
loop_
 _symmetry_equiv_pos_site_id
 _symmetry_equiv_pos_as_xyz
  1  'x, y, z'
loop_
 _atom_site_type_symbol
 _atom_site_label
 _atom_site_symmetry_multiplicity
 _atom_site_fract_x
 _atom_site_fract_y
 _atom_site_fract_z
 _atom_site_occupancy
  Cs  Cs0  1  0.00039869  -0.00083776  0.00148199  1
  Cs  Cs1  1  -0.00058764  -0.00924510  0.33430040  1
  Cs  Cs2  1  0.00047349  0.00269571  0.66457411  1
  Cs  Cs3  1  -0.00029680  0.33450199  0.00077444  1
  Cs  Cs4  1  0.00053928  0.33292787  0.33280786  1
  Cs  Cs5  1  -0.00069799  0.33171055  0.66586752  1
  Cs  Cs6  1  0.00439998  0.66510215  -0.00088777  1
  Cs  Cs7  1  -0.00253904  0.67550737  0.33183338  1
  Cs  Cs8  1  0.00409849  0.66816431  0.66788555  1
  Cs  Cs9  1  0.33466774  -0.00107832  0.00115740  1
  Cs  Cs10  1  0.33344988  -0.00784497  0.33272705  1
  Cs  Cs11  1  0.33134055  0.00458583  0.66651950  1
  Cs  Cs12  1  0.33349702  0.33349987  0.00057532  1
  Cs  Cs13  1  0.33113001  0.33361814  0.33560641  1
  Cs  Cs14  1  0.33259109  0.33210711  0.66317366  1
  Cs  Cs15  1  0.32929300  0.66642172  -0.00085377  1
  Cs  Cs16  1  0.33698894  0.67228102  0.34070343  1
  Cs  Cs17  1  0.32840526  0.66580534  0.66097776  1
  Cs  Cs18  1  0.66545688  0.00183560  0.00097336  1
  Cs  Cs19  1  0.66619707  -0.00636324  0.32629115  1
  Cs  Cs20  1  0.66734905  0.00193692  0.66952216  1
  Cs  Cs21  1  0.66670960  0.33327118  0.00005070  1
  Cs  Cs22  1  0.66731225  0.33383813  0.33211521  1
  Cs  Cs23  1  0.66726612  0.33284952  0.66800448  1
  Cs  Cs24  1  0.66587360  0.66202625  -0.00345605  1
  Cs  Cs25  1  0.66514515  0.67071310  0.33824963  1
  Cs  Cs26  1  0.66671341  0.66671351  0.66665932  1
  Sn  Sn27  1  0.83295972  0.50012192  0.83311601  1
  Sn  Sn28  1  0.50156932  0.16689225  0.49998945  1
  Sn  Sn29  1  0.83341127  0.16664774  0.83319629  1
  Sn  Sn30  1  0.16654574  0.16729512  0.16620189  1
  Sn  Sn31  1  0.49971744  0.49960946  0.16637254  1
  Sn  Sn32  1  0.83184898  0.16739498  0.49999097  1
  Sn  Sn33  1  0.50047129  0.83294122  0.83324106  1
  Sn  Sn34  1  0.50013180  0.50020714  0.83365311  1
  Sn  Sn35  1  0.16658785  0.16732003  0.83458018  1
  Sn  Sn36  1  0.16696800  0.49916479  0.16698304  1
  Sn  Sn37  1  0.83266044  0.83335556  0.83348483  1
  Sn  Sn38  1  0.83344666  0.49916432  0.50034936  1
  Sn  Sn39  1  0.83318743  0.49959322  0.16686379  1
  Sn  Sn40  1  0.49999220  0.16695309  0.83298618  1
  Pb  Pb41  1  0.83509970  0.16812315  0.16703925  1
  Pb  Pb42  1  0.16666951  0.83339789  0.50048888  1
  Pb  Pb43  1  0.50020183  0.82977786  0.16360538  1
  Pb  Pb44  1  0.50204413  0.49804864  0.50053202  1
  Pb  Pb45  1  0.83295943  0.82993217  0.16320233  1
  Pb  Pb46  1  0.16687996  0.49783058  0.83446584  1
  Pb  Pb47  1  0.16329738  0.49985208  0.49653790  1
  Pb  Pb48  1  0.16684078  0.83308350  0.16627039  1
  Pb  Pb49  1  0.16618608  0.16671316  0.49930339  1
  Pb  Pb50  1  0.50049038  0.83686690  0.50342062  1
  Pb  Pb51  1  0.16690017  0.83636954  0.83331108  1
  Pb  Pb52  1  0.83305125  0.83384977  0.50296210  1
  Pb  Pb53  1  0.49804165  0.16854221  0.16687600  1
  I  I54  1  0.16659971  0.00322940  0.16225047  1
  I  I55  1  0.16433732  0.00081878  0.49848593  1
  I  I56  1  0.16635937  0.00477910  0.83860698  1
  I  I57  1  0.16590307  0.33397107  0.16150228  1
  I  I58  1  0.16840251  0.33318105  0.50185234  1
  I  I59  1  0.16609833  0.32966547  0.83535497  1
  I  I60  1  0.16470113  0.66289482  0.16513691  1
  I  I61  1  0.16580940  0.66612156  0.49946027  1
  I  I62  1  0.16596116  0.66644757  0.83538006  1
  I  I63  1  0.49700741  0.00006899  0.16670026  1
  I  I64  1  0.50533944  0.00499342  0.50509143  1
  I  I65  1  0.50250096  0.00124599  0.82861646  1
  I  I66  1  0.50290869  0.33668021  0.15961933  1
  I  I67  1  0.50156745  0.33023027  0.50708858  1
  I  I68  1  0.50308720  0.33321617  0.83414680  1
  I  I69  1  0.49857022  0.66136299  0.16172524  1
  I  I70  1  0.50035940  0.66660966  0.49942882  1
  I  I71  1  0.50891055  0.66550014  0.84004674  1
  I  I72  1  0.83660799  -0.00008718  0.16717225  1
  I  I73  1  0.83170435  0.00368682  0.50582514  1
  I  I74  1  0.83141797  0.00146332  0.82838981  1
  I  I75  1  0.83166234  0.33671623  0.16114245  1
  I  I76  1  0.83017977  0.33298451  0.50572409  1
  I  I77  1  0.83118809  0.33352061  0.83336319  1
  I  I78  1  0.83657957  0.66124362  0.16805631  1
  I  I79  1  0.83424718  0.66354714  0.49931176  1
  I  I80  1  0.82641835  0.66513832  0.83416934  1
  I  I81  1  0.16628485  0.17066535  -0.00115391  1
  I  I82  1  0.16670209  0.17286372  0.33021155  1
  I  I83  1  0.16680764  0.16559870  0.66960525  1
  I  I84  1  0.16195129  0.49749198  0.00267184  1
  I  I85  1  0.16830015  0.49097641  0.32831629  1
  I  I86  1  0.16710977  0.49904168  0.66649553  1
  I  I87  1  0.16572227  0.83207203  -0.00038242  1
  I  I88  1  0.16585577  0.83609109  0.33300688  1
  I  I89  1  0.16592511  0.83436422  0.66752540  1
  I  I90  1  0.50282916  0.16537298  -0.00361254  1
  I  I91  1  0.50328221  0.17108162  0.33587093  1
  I  I92  1  0.49835679  0.16858538  0.66910523  1
  I  I93  1  0.50519552  0.49752154  -0.00148318  1
  I  I94  1  0.50075687  0.49616103  0.33088328  1
  I  I95  1  0.50510870  0.50115104  0.67034405  1
  I  I96  1  0.50433969  0.84020966  -0.00443748  1
  I  I97  1  0.49796236  0.83361390  0.33347755  1
  I  I98  1  0.50525272  0.82748035  0.67144996  1
  I  I99  1  0.83072262  0.16751255  -0.00353919  1
  I  I100  1  0.83072274  0.17338627  0.33624346  1
  I  I101  1  0.83486975  0.17101812  0.66859987  1
  I  I102  1  0.83274785  0.49974848  -0.00109784  1
  I  I103  1  0.83410659  0.49255819  0.33324533  1
  I  I104  1  0.82771642  0.49889095  0.66819831  1
  I  I105  1  0.82967636  0.83620466  -0.00479758  1
  I  I106  1  0.83553917  0.83388098  0.33329332  1
  I  I107  1  0.82891552  0.82913122  0.67098384  1
  I  I108  1  0.00291789  0.17405122  0.16102715  1
  I  I109  1  -0.00352192  0.17123769  0.50510518  1
  I  I110  1  -0.00133234  0.16728282  0.83283459  1
  I  I111  1  -0.00065701  0.49499807  0.16539698  1
  I  I112  1  -0.00500121  0.49218127  0.50381772  1
  I  I113  1  -0.00339251  0.50011513  0.83417995  1
  I  I114  1  -0.00021327  0.83161383  0.16474310  1
  I  I115  1  -0.00068181  0.83548483  0.50181642  1
  I  I116  1  -0.00323630  0.83173161  0.83324884  1
  I  I117  1  0.33024041  0.17396674  0.16113599  1
  I  I118  1  0.33598087  0.16691109  0.50529572  1
  I  I119  1  0.33442992  0.16659210  0.83285524  1
  I  I120  1  0.33374881  0.49473582  0.15869600  1
  I  I121  1  0.33349069  0.49870974  0.50028210  1
  I  I122  1  0.33653036  0.49985812  0.83875923  1
  I  I123  1  0.33355213  0.83208102  0.16374346  1
  I  I124  1  0.33396650  0.83450539  0.50195740  1
  I  I125  1  0.33672682  0.83303866  0.83433816  1
  I  I126  1  0.66666723  0.16849980  0.16436474  1
  I  I127  1  0.66754710  0.17171171  0.51042554  1
  I  I128  1  0.66686141  0.16707308  0.82892606  1
  I  I129  1  0.66702092  0.49956710  0.16352062  1
  I  I130  1  0.67016449  0.49770528  0.49666110  1
  I  I131  1  0.66734838  0.49633823  0.83791469  1
  I  I132  1  0.66664675  0.83492183  0.16867915  1
  I  I133  1  0.66675749  0.83058718  0.49747549  1
  I  I134  1  0.66691390  0.83680438  0.83346935  1
