# generated using pymatgen
data_Cs27Sn13Pb14I81
_symmetry_space_group_name_H-M   'P 1'
_cell_length_a   18.97954073
_cell_length_b   18.97376095
_cell_length_c   18.97954078
_cell_angle_alpha   89.99958273
_cell_angle_beta   90.00074949
_cell_angle_gamma   90.00041739
_symmetry_Int_Tables_number   1
_chemical_formula_structural   Cs27Sn13Pb14I81
_chemical_formula_sum   'Cs27 Sn13 Pb14 I81'
_cell_volume   6834.78446946
_cell_formula_units_Z   1
loop_
 _symmetry_equiv_pos_site_id
 _symmetry_equiv_pos_as_xyz
  1  'x, y, z'
loop_
 _atom_site_type_symbol
 _atom_site_label
 _atom_site_symmetry_multiplicity
 _atom_site_fract_x
 _atom_site_fract_y
 _atom_site_fract_z
 _atom_site_occupancy
  Cs  Cs0  1  -0.00192401  -0.00384307  -0.00130766  1
  Cs  Cs1  1  0.00442763  0.00265101  0.34064749  1
  Cs  Cs2  1  0.00883310  0.01058590  0.65783363  1
  Cs  Cs3  1  -0.00068103  0.33353282  -0.00024092  1
  Cs  Cs4  1  0.00003450  0.33352129  0.33395367  1
  Cs  Cs5  1  0.00243697  0.32577042  0.66422978  1
  Cs  Cs6  1  -0.00170270  0.66762902  -0.00005984  1
  Cs  Cs7  1  -0.00267552  0.66608110  0.33153836  1
  Cs  Cs8  1  -0.00389579  0.66714428  0.67056251  1
  Cs  Cs9  1  0.33389716  -0.00080971  -0.00097741  1
  Cs  Cs10  1  0.33049767  -0.00250200  0.33616914  1
  Cs  Cs11  1  0.32601931  0.00265112  0.66223874  1
  Cs  Cs12  1  0.33494161  0.33364679  -0.00009784  1
  Cs  Cs13  1  0.33428192  0.33484122  0.33238474  1
  Cs  Cs14  1  0.33271304  0.33352126  0.66663235  1
  Cs  Cs15  1  0.33298759  0.66585735  0.00034945  1
  Cs  Cs16  1  0.33532987  0.66569024  0.33133677  1
  Cs  Cs17  1  0.33512844  0.66608116  0.66934220  1
  Cs  Cs18  1  0.66696546  0.00265770  -0.00029892  1
  Cs  Cs19  1  0.66764424  -0.00080961  0.33276959  1
  Cs  Cs20  1  0.66797446  -0.00384302  0.66859092  1
  Cs  Cs21  1  0.66580621  0.32949809  0.00086041  1
  Cs  Cs22  1  0.66676461  0.33364672  0.33172508  1
  Cs  Cs23  1  0.66690763  0.33353278  0.66734785  1
  Cs  Cs24  1  0.66718712  0.66620458  -0.00052041  1
  Cs  Cs25  1  0.66631729  0.66585737  0.33367904  1
  Cs  Cs26  1  0.66672642  0.66762898  0.66836927  1
  Sn  Sn27  1  0.50021226  0.50044662  0.16645441  1
  Sn  Sn28  1  0.50081469  0.16741711  0.49981862  1
  Sn  Sn29  1  0.83231473  0.83257782  0.16624057  1
  Sn  Sn30  1  0.83268893  0.83278825  0.83397775  1
  Sn  Sn31  1  0.50096304  0.50047573  0.83369993  1
  Sn  Sn32  1  0.83296675  0.50047571  0.16570365  1
  Sn  Sn33  1  0.50042611  0.83257784  0.83435191  1
  Sn  Sn34  1  0.16666960  0.49913159  0.16729818  1
  Sn  Sn35  1  0.83240322  0.50016005  0.83426346  1
  Sn  Sn36  1  0.50095100  0.83252334  0.16571564  1
  Sn  Sn37  1  0.16719180  0.50080240  0.49947489  1
  Sn  Sn38  1  0.49936848  0.49913159  0.49999704  1
  Sn  Sn39  1  0.16684803  0.16741706  0.16585208  1
  Pb  Pb40  1  0.83015889  0.16687129  0.49978241  1
  Pb  Pb41  1  0.83335145  0.83319744  0.50028633  1
  Pb  Pb42  1  0.49998121  0.16620882  0.83112883  1
  Pb  Pb43  1  0.16645287  0.83265793  0.16664119  1
  Pb  Pb44  1  0.16912770  0.16970258  0.49753891  1
  Pb  Pb45  1  0.50002551  0.83265792  0.50021379  1
  Pb  Pb46  1  0.16670054  0.82936429  0.49996617  1
  Pb  Pb47  1  0.83310463  0.49996084  0.50036263  1
  Pb  Pb48  1  0.49843319  0.16603504  0.16823344  1
  Pb  Pb49  1  0.16630402  0.49996089  0.83356208  1
  Pb  Pb50  1  0.83313876  0.16635850  0.83352789  1
  Pb  Pb51  1  0.83553783  0.16620883  0.16668543  1
  Pb  Pb52  1  0.16688427  0.16687125  0.83650779  1
  Pb  Pb53  1  0.16638040  0.83319741  0.83331522  1
  I  I54  1  0.16789423  0.00214604  0.16625781  1
  I  I55  1  0.16791552  0.00052696  0.49875122  1
  I  I56  1  0.16745181  -0.00005535  0.83467286  1
  I  I57  1  0.16722214  0.33609417  0.17069538  1
  I  I58  1  0.16872470  0.33731386  0.49794176  1
  I  I59  1  0.16655166  0.33397460  0.83123384  1
  I  I60  1  0.16748993  0.66297095  0.17056312  1
  I  I61  1  0.17442559  0.66151022  0.49224080  1
  I  I62  1  0.16771724  0.66626612  0.83439949  1
  I  I63  1  0.50281500  -0.00348375  0.16385149  1
  I  I64  1  0.50040886  0.00214604  0.49877263  1
  I  I65  1  0.50500267  -0.00380299  0.83788547  1
  I  I66  1  0.50182036  0.33680802  0.16484671  1
  I  I67  1  0.49597134  0.33609416  0.49944418  1
  I  I68  1  0.50335615  0.33705121  0.83613874  1
  I  I69  1  0.49810181  0.66505500  0.16856459  1
  I  I70  1  0.49610347  0.66297100  0.49917712  1
  I  I71  1  0.50318772  0.66525949  0.83193434  1
  I  I72  1  0.82878130  -0.00380298  0.16166413  1
  I  I73  1  0.83199360  -0.00005538  0.49921437  1
  I  I74  1  0.82662550  -0.00411838  0.84004119  1
  I  I75  1  0.83052776  0.33705122  0.16331042  1
  I  I76  1  0.83543277  0.33397462  0.50011531  1
  I  I77  1  0.82877265  0.33712382  0.83789393  1
  I  I78  1  0.83473237  0.66525951  0.16347888  1
  I  I79  1  0.83226741  0.66626621  0.49894947  1
  I  I80  1  0.82905110  0.66581526  0.83761568  1
  I  I81  1  0.16844583  0.17518697  0.00440292  1
  I  I82  1  0.16694402  0.16872924  0.33012019  1
  I  I83  1  0.16654949  0.16676317  0.66602544  1
  I  I84  1  0.16950758  0.49689695  0.00350263  1
  I  I85  1  0.17030245  0.49654920  0.33188634  1
  I  I86  1  0.17127669  0.50067813  0.66400780  1
  I  I87  1  0.16794570  0.83185544  0.00027085  1
  I  I88  1  0.16728602  0.83607302  0.33286253  1
  I  I89  1  0.16758268  0.83300813  0.66668391  1
  I  I90  1  0.49812256  0.16928380  0.00015999  1
  I  I91  1  0.49840714  0.17234192  0.33596022  1
  I  I92  1  0.49889405  0.17249239  0.66334319  1
  I  I93  1  0.49917204  0.50413511  0.00068453  1
  I  I94  1  0.49916111  0.50022186  0.33220407  1
  I  I95  1  0.49945261  0.50018205  0.66711605  1
  I  I96  1  0.50267714  0.82565713  0.00065018  1
  I  I97  1  0.50333236  0.82973858  0.33009795  1
  I  I98  1  0.50522550  0.82914537  0.67002089  1
  I  I99  1  0.83344698  0.16819264  0.00024774  1
  I  I100  1  0.83383533  0.16687513  0.33294353  1
  I  I101  1  0.83478147  0.16734735  0.66674195  1
  I  I102  1  0.83144436  0.50356307  0.00100178  1
  I  I103  1  0.83149350  0.50380793  0.32990530  1
  I  I104  1  0.82968219  0.50536688  0.67008099  1
  I  I105  1  0.82947471  0.82813203  0.00069345  1
  I  I106  1  0.82861204  0.82789064  0.32950621  1
  I  I107  1  0.82614650  0.82590507  0.67076904  1
  I  I108  1  0.00332343  0.17249236  0.16777297  1
  I  I109  1  0.00064123  0.16676304  0.50011740  1
  I  I110  1  -0.00007525  0.16734782  0.83188444  1
  I  I111  1  -0.00044938  0.50018216  0.16721416  1
  I  I112  1  0.00265884  0.50067806  0.49538941  1
  I  I113  1  -0.00341433  0.50536677  0.83698482  1
  I  I114  1  -0.00335423  0.82914527  0.16144108  1
  I  I115  1  -0.00001729  0.83300843  0.49908395  1
  I  I116  1  -0.00410238  0.82590498  0.84052009  1
  I  I117  1  0.33070642  0.17234236  0.16825877  1
  I  I118  1  0.33654644  0.16872918  0.49972313  1
  I  I119  1  0.33372316  0.16687485  0.83283155  1
  I  I120  1  0.33446260  0.50022147  0.16750538  1
  I  I121  1  0.33478031  0.49654917  0.49636459  1
  I  I122  1  0.33676135  0.50380796  0.83517290  1
  I  I123  1  0.33656870  0.82973868  0.16333384  1
  I  I124  1  0.33380412  0.83607300  0.49938092  1
  I  I125  1  0.33716051  0.82789066  0.83805495  1
  I  I126  1  0.66650671  0.16928356  0.16854447  1
  I  I127  1  0.66226377  0.17518700  0.49822015  1
  I  I128  1  0.66641893  0.16819274  0.83321989  1
  I  I129  1  0.66598211  0.50413544  0.16749463  1
  I  I130  1  0.66316398  0.49689710  0.49715918  1
  I  I131  1  0.66566490  0.50356310  0.83522212  1
  I  I132  1  0.66601654  0.82565695  0.16398998  1
  I  I133  1  0.66639579  0.83185514  0.49872061  1
  I  I134  1  0.66597322  0.82813199  0.83719175  1
