# generated using pymatgen
data_Cs27Sn13Pb14I81
_symmetry_space_group_name_H-M   'P 1'
_cell_length_a   18.97693230
_cell_length_b   18.98103687
_cell_length_c   18.97197989
_cell_angle_alpha   89.99993200
_cell_angle_beta   90.00169298
_cell_angle_gamma   89.99946432
_symmetry_Int_Tables_number   1
_chemical_formula_structural   Cs27Sn13Pb14I81
_chemical_formula_sum   'Cs27 Sn13 Pb14 I81'
_cell_volume   6833.74228152
_cell_formula_units_Z   1
loop_
 _symmetry_equiv_pos_site_id
 _symmetry_equiv_pos_as_xyz
  1  'x, y, z'
loop_
 _atom_site_type_symbol
 _atom_site_label
 _atom_site_symmetry_multiplicity
 _atom_site_fract_x
 _atom_site_fract_y
 _atom_site_fract_z
 _atom_site_occupancy
  Cs  Cs0  1  -0.00225782  0.00005931  0.00191974  1
  Cs  Cs1  1  -0.00136087  -0.00003550  0.33329920  1
  Cs  Cs2  1  0.00133124  -0.00049026  0.66494565  1
  Cs  Cs3  1  0.00203817  0.33818347  0.00101919  1
  Cs  Cs4  1  -0.00179369  0.33315535  0.33370086  1
  Cs  Cs5  1  0.00623608  0.33085486  0.66483708  1
  Cs  Cs6  1  -0.00111433  0.65938250  0.00187787  1
  Cs  Cs7  1  0.00072049  0.66640518  0.33305910  1
  Cs  Cs8  1  -0.00087616  0.66820341  0.66592150  1
  Cs  Cs9  1  0.33415135  -0.00063113  0.00209897  1
  Cs  Cs10  1  0.34136822  -0.00126048  0.32777493  1
  Cs  Cs11  1  0.32892599  -0.00125279  0.66787225  1
  Cs  Cs12  1  0.33306023  0.33392108  -0.00251787  1
  Cs  Cs13  1  0.33939509  0.33064945  0.33595976  1
  Cs  Cs14  1  0.32982476  0.33240663  0.66749495  1
  Cs  Cs15  1  0.33135403  0.66681723  0.00265480  1
  Cs  Cs16  1  0.33245254  0.67027668  0.33407883  1
  Cs  Cs17  1  0.33424832  0.66793589  0.66435685  1
  Cs  Cs18  1  0.66741421  0.00136847  -0.00084020  1
  Cs  Cs19  1  0.66413929  0.00224648  0.33197218  1
  Cs  Cs20  1  0.66857064  -0.00080574  0.66915988  1
  Cs  Cs21  1  0.66611769  0.33339983  0.00118232  1
  Cs  Cs22  1  0.66505572  0.33161887  0.33470024  1
  Cs  Cs23  1  0.66469823  0.33212125  0.66430087  1
  Cs  Cs24  1  0.67025924  0.66282641  -0.00356996  1
  Cs  Cs25  1  0.66632830  0.66640898  0.33698624  1
  Cs  Cs26  1  0.66693627  0.66742802  0.66679470  1
  Sn  Sn27  1  0.83421631  0.50057407  0.50016856  1
  Sn  Sn28  1  0.16599746  0.16660211  0.16673466  1
  Sn  Sn29  1  0.49999612  0.50012387  0.83405713  1
  Sn  Sn30  1  0.83340629  0.83349952  0.16722892  1
  Sn  Sn31  1  0.16586564  0.50064512  0.49986557  1
  Sn  Sn32  1  0.50060537  0.16661237  0.83348787  1
  Sn  Sn33  1  0.83398247  0.83274459  0.49898262  1
  Sn  Sn34  1  0.83428606  0.16611219  0.16561544  1
  Sn  Sn35  1  0.83334808  0.16696659  0.83400394  1
  Sn  Sn36  1  0.16590620  0.83272811  0.50025593  1
  Sn  Sn37  1  0.49915879  0.83318425  0.83343076  1
  Sn  Sn38  1  0.50001520  0.50051072  0.16617994  1
  Sn  Sn39  1  0.16683244  0.83307384  0.83347017  1
  Pb  Pb40  1  0.83175779  0.49961282  0.16877733  1
  Pb  Pb41  1  0.49984909  0.16621361  0.50335235  1
  Pb  Pb42  1  0.16880098  0.50255882  0.83132194  1
  Pb  Pb43  1  0.83379099  0.83461895  0.83329360  1
  Pb  Pb44  1  0.50013898  0.83359493  0.50208789  1
  Pb  Pb45  1  0.50065012  0.16829172  0.16440621  1
  Pb  Pb46  1  0.49971493  0.50017704  0.50038432  1
  Pb  Pb47  1  0.16669309  0.16557798  0.49714697  1
  Pb  Pb48  1  0.16638323  0.16459141  0.83532237  1
  Pb  Pb49  1  0.16897583  0.49776311  0.16944918  1
  Pb  Pb50  1  0.83335871  0.16613369  0.49985646  1
  Pb  Pb51  1  0.16462113  0.83464893  0.16687299  1
  Pb  Pb52  1  0.83168741  0.49695388  0.83058089  1
  Pb  Pb53  1  0.50308695  0.83105055  0.16382450  1
  I  I54  1  0.16542022  0.00261544  0.16772531  1
  I  I55  1  0.16125862  -0.00376574  0.50492194  1
  I  I56  1  0.17210468  -0.00322243  0.82646905  1
  I  I57  1  0.15979893  0.33007586  0.16629410  1
  I  I58  1  0.16293428  0.33585469  0.49894167  1
  I  I59  1  0.16801930  0.33335416  0.83166160  1
  I  I60  1  0.16634036  0.66667992  0.16482955  1
  I  I61  1  0.16266984  0.66757824  0.50391010  1
  I  I62  1  0.17095077  0.67058947  0.83242230  1
  I  I63  1  0.49850493  -0.00005543  0.16602227  1
  I  I64  1  0.50017871  -0.00035843  0.49993090  1
  I  I65  1  0.50078258  0.00002786  0.83157837  1
  I  I66  1  0.50150647  0.33594613  0.16192727  1
  I  I67  1  0.50059894  0.33362921  0.50118382  1
  I  I68  1  0.50552810  0.33322386  0.83712062  1
  I  I69  1  0.50084070  0.66357169  0.16137076  1
  I  I70  1  0.50120220  0.66675031  0.50277864  1
  I  I71  1  0.49592029  0.66678787  0.83625085  1
  I  I72  1  0.83632492  0.00038367  0.16852159  1
  I  I73  1  0.83794703  -0.00321341  0.50002411  1
  I  I74  1  0.82736054  0.00252235  0.83307459  1
  I  I75  1  0.83485469  0.33043102  0.16407003  1
  I  I76  1  0.83618672  0.33585645  0.50060414  1
  I  I77  1  0.82795608  0.32917977  0.83841036  1
  I  I78  1  0.83131941  0.66901945  0.16865241  1
  I  I79  1  0.83647340  0.66773916  0.49502407  1
  I  I80  1  0.83157725  0.66658012  0.83543568  1
  I  I81  1  0.16523566  0.16437706  0.00291532  1
  I  I82  1  0.15910875  0.16613476  0.32959308  1
  I  I83  1  0.16738532  0.16812873  0.66672490  1
  I  I84  1  0.16647295  0.50084451  0.00004297  1
  I  I85  1  0.16504892  0.50691189  0.33718809  1
  I  I86  1  0.16478716  0.49992857  0.66330357  1
  I  I87  1  0.17057747  0.83706756  -0.00238957  1
  I  I88  1  0.16329451  0.83017614  0.33631991  1
  I  I89  1  0.16542888  0.83107508  0.66611399  1
  I  I90  1  0.50176879  0.16459957  -0.00358267  1
  I  I91  1  0.50029040  0.16966367  0.33270702  1
  I  I92  1  0.50623292  0.16996002  0.67195085  1
  I  I93  1  0.50123467  0.49943496  -0.00127905  1
  I  I94  1  0.50074357  0.49831257  0.33124661  1
  I  I95  1  0.50059818  0.49949531  0.66978124  1
  I  I96  1  0.49513999  0.83634040  -0.00420429  1
  I  I97  1  0.49744053  0.83117183  0.33293191  1
  I  I98  1  0.50151593  0.83087455  0.67053019  1
  I  I99  1  0.83205007  0.15990086  0.00061573  1
  I  I100  1  0.83744558  0.16582592  0.33035257  1
  I  I101  1  0.82717984  0.16625083  0.66934206  1
  I  I102  1  0.83280436  0.50251899  -0.00007992  1
  I  I103  1  0.83361434  0.49967503  0.33663401  1
  I  I104  1  0.83407706  0.50620649  0.66287882  1
  I  I105  1  0.83203815  0.83743059  0.00211334  1
  I  I106  1  0.83893338  0.83513559  0.33407691  1
  I  I107  1  0.83351300  0.83117294  0.66417426  1
  I  I108  1  -0.00173635  0.16309338  0.16119739  1
  I  I109  1  -0.00006902  0.16781500  0.50531772  1
  I  I110  1  -0.00258735  0.16336752  0.83486344  1
  I  I111  1  -0.00007782  0.50078877  0.16627914  1
  I  I112  1  -0.00023099  0.50422377  0.49931624  1
  I  I113  1  0.00006749  0.50021716  0.83415672  1
  I  I114  1  -0.00338277  0.83526086  0.16567748  1
  I  I115  1  -0.00012484  0.82931872  0.50314003  1
  I  I116  1  0.00226545  0.83713236  0.83082975  1
  I  I117  1  0.33161578  0.16801074  0.16665681  1
  I  I118  1  0.33299379  0.16862069  0.49856458  1
  I  I119  1  0.33599864  0.16829358  0.83455351  1
  I  I120  1  0.33663616  0.49797460  0.16342500  1
  I  I121  1  0.33056891  0.50444372  0.50034150  1
  I  I122  1  0.33708744  0.49434172  0.83446796  1
  I  I123  1  0.33346057  0.83509002  0.16907831  1
  I  I124  1  0.33011481  0.82846165  0.50305177  1
  I  I125  1  0.33359759  0.83533463  0.82719252  1
  I  I126  1  0.66966673  0.16405439  0.16478882  1
  I  I127  1  0.66698802  0.16814215  0.49593516  1
  I  I128  1  0.66646115  0.16408300  0.83846527  1
  I  I129  1  0.66401431  0.49816693  0.16419060  1
  I  I130  1  0.66923206  0.50390323  0.50028188  1
  I  I131  1  0.66338158  0.50487196  0.83435898  1
  I  I132  1  0.67076444  0.84037101  0.17198705  1
  I  I133  1  0.67004549  0.82914395  0.49813945  1
  I  I134  1  0.66437952  0.83272064  0.83338655  1
