# generated using pymatgen
data_Cs27Sn14Pb13I81
_symmetry_space_group_name_H-M   'P 1'
_cell_length_a   18.98246532
_cell_length_b   18.96958380
_cell_length_c   18.97672365
_cell_angle_alpha   90.00109464
_cell_angle_beta   89.99971090
_cell_angle_gamma   90.00004945
_symmetry_Int_Tables_number   1
_chemical_formula_structural   Cs27Sn14Pb13I81
_chemical_formula_sum   'Cs27 Sn14 Pb13 I81'
_cell_volume   6833.31829511
_cell_formula_units_Z   1
loop_
 _symmetry_equiv_pos_site_id
 _symmetry_equiv_pos_as_xyz
  1  'x, y, z'
loop_
 _atom_site_type_symbol
 _atom_site_label
 _atom_site_symmetry_multiplicity
 _atom_site_fract_x
 _atom_site_fract_y
 _atom_site_fract_z
 _atom_site_occupancy
  Cs  Cs0  1  -0.00510660  0.00515549  0.00607701  1
  Cs  Cs1  1  0.00421891  -0.00376938  0.32908800  1
  Cs  Cs2  1  -0.00393717  0.00173138  0.66777805  1
  Cs  Cs3  1  0.00123376  0.32801174  0.00263437  1
  Cs  Cs4  1  -0.00217546  0.33525688  0.33801421  1
  Cs  Cs5  1  0.00070536  0.33488525  0.66401055  1
  Cs  Cs6  1  -0.00184976  0.66865957  0.00011039  1
  Cs  Cs7  1  0.00071072  0.66842423  0.33127265  1
  Cs  Cs8  1  0.00098254  0.66563220  0.66686729  1
  Cs  Cs9  1  0.33131031  0.00699999  0.00150075  1
  Cs  Cs10  1  0.33379503  -0.00383617  0.33200824  1
  Cs  Cs11  1  0.33687007  -0.00183289  0.66535875  1
  Cs  Cs12  1  0.33262777  0.33122594  -0.00124802  1
  Cs  Cs13  1  0.33339421  0.33456221  0.33254600  1
  Cs  Cs14  1  0.33101038  0.33534477  0.66824607  1
  Cs  Cs15  1  0.33610100  0.66532037  -0.00227846  1
  Cs  Cs16  1  0.33361296  0.66836584  0.33208764  1
  Cs  Cs17  1  0.33325225  0.66608006  0.66878813  1
  Cs  Cs18  1  0.67398350  0.00413922  -0.00129082  1
  Cs  Cs19  1  0.66167495  0.00502498  0.33667852  1
  Cs  Cs20  1  0.66753014  0.00222970  0.66617739  1
  Cs  Cs21  1  0.66707625  0.32896169  0.00400439  1
  Cs  Cs22  1  0.66807772  0.33310873  0.33299496  1
  Cs  Cs23  1  0.66677143  0.33500692  0.66499420  1
  Cs  Cs24  1  0.66414297  0.66730755  -0.00032380  1
  Cs  Cs25  1  0.66620833  0.66522924  0.33131961  1
  Cs  Cs26  1  0.66636492  0.66627327  0.66797691  1
  Sn  Sn27  1  0.16633424  0.16692895  0.50037254  1
  Sn  Sn28  1  0.16733506  0.50038814  0.16646979  1
  Sn  Sn29  1  0.83343349  0.50053229  0.50079235  1
  Sn  Sn30  1  0.83332948  0.83292539  0.49981737  1
  Sn  Sn31  1  0.49916655  0.83271551  0.83463119  1
  Sn  Sn32  1  0.83340111  0.50015997  0.83303562  1
  Sn  Sn33  1  0.83465459  0.16666805  0.50011152  1
  Sn  Sn34  1  0.16695695  0.83298688  0.83345755  1
  Sn  Sn35  1  0.16627189  0.50079907  0.83385807  1
  Sn  Sn36  1  0.49969105  0.50033316  0.50000656  1
  Sn  Sn37  1  0.50031627  0.50013231  0.83364611  1
  Sn  Sn38  1  0.49892799  0.50058148  0.16633242  1
  Sn  Sn39  1  0.16680636  0.49980056  0.49971881  1
  Sn  Sn40  1  0.50024620  0.83258682  0.16517833  1
  Pb  Pb41  1  0.83349193  0.16996444  0.83098127  1
  Pb  Pb42  1  0.83329821  0.50011141  0.16639486  1
  Pb  Pb43  1  0.49991206  0.16642121  0.83325382  1
  Pb  Pb44  1  0.49978889  0.16668543  0.16659678  1
  Pb  Pb45  1  0.49929005  0.16946572  0.50019236  1
  Pb  Pb46  1  0.50179874  0.83089986  0.50050197  1
  Pb  Pb47  1  0.16685258  0.16950743  0.16983803  1
  Pb  Pb48  1  0.83020511  0.83301318  0.16926775  1
  Pb  Pb49  1  0.16497537  0.83299457  0.50209694  1
  Pb  Pb50  1  0.16876333  0.83095264  0.16350442  1
  Pb  Pb51  1  0.83348223  0.16671696  0.17005847  1
  Pb  Pb52  1  0.16668229  0.16648469  0.83092795  1
  Pb  Pb53  1  0.83320485  0.83142977  0.83188102  1
  I  I54  1  0.16858819  -0.00022112  0.16764661  1
  I  I55  1  0.16087858  0.00228213  0.50283537  1
  I  I56  1  0.17353872  -0.00319581  0.82932944  1
  I  I57  1  0.17327850  0.33818488  0.16118639  1
  I  I58  1  0.16232817  0.33617638  0.50136124  1
  I  I59  1  0.16776617  0.33746605  0.83437254  1
  I  I60  1  0.16787165  0.66256784  0.17402568  1
  I  I61  1  0.16594694  0.66281034  0.49896742  1
  I  I62  1  0.16799199  0.66408918  0.82975127  1
  I  I63  1  0.50123751  -0.00344641  0.16308872  1
  I  I64  1  0.50139379  -0.00023481  0.49944437  1
  I  I65  1  0.49457754  -0.00390851  0.83711402  1
  I  I66  1  0.49709523  0.33749227  0.16686241  1
  I  I67  1  0.50449134  0.33840980  0.50018222  1
  I  I68  1  0.49906987  0.33789339  0.83274281  1
  I  I69  1  0.49667724  0.66463698  0.16665606  1
  I  I70  1  0.49935573  0.66227747  0.50038887  1
  I  I71  1  0.49941015  0.66468214  0.83302419  1
  I  I72  1  0.83142105  -0.00021931  0.16713507  1
  I  I73  1  0.83740517  0.00032012  0.49961052  1
  I  I74  1  0.83211268  -0.00007843  0.83020982  1
  I  I75  1  0.83041893  0.33390057  0.16780216  1
  I  I76  1  0.83398330  0.33505508  0.50373877  1
  I  I77  1  0.83311330  0.33859877  0.82728907  1
  I  I78  1  0.83550793  0.66625282  0.17197052  1
  I  I79  1  0.83286098  0.66466206  0.50382234  1
  I  I80  1  0.83332633  0.66294095  0.82545979  1
  I  I81  1  0.16769180  0.16800715  0.00004143  1
  I  I82  1  0.16176337  0.17265826  0.33784577  1
  I  I83  1  0.16238030  0.17516370  0.66306054  1
  I  I84  1  0.16950531  0.50517403  -0.00091723  1
  I  I85  1  0.16899463  0.49493067  0.33430658  1
  I  I86  1  0.16836542  0.49932950  0.66648315  1
  I  I87  1  0.16710358  0.82547781  -0.00440092  1
  I  I88  1  0.16679779  0.83320535  0.33332680  1
  I  I89  1  0.17348003  0.82577628  0.66970948  1
  I  I90  1  0.49964139  0.17291182  -0.00001843  1
  I  I91  1  0.50146263  0.16681668  0.33362059  1
  I  I92  1  0.50069466  0.16617098  0.66640466  1
  I  I93  1  0.49752626  0.50402857  -0.00057779  1
  I  I94  1  0.49801777  0.50301596  0.33347320  1
  I  I95  1  0.49885163  0.50279323  0.66689182  1
  I  I96  1  0.49610873  0.82145074  -0.00093041  1
  I  I97  1  0.50285628  0.82809203  0.33135127  1
  I  I98  1  0.49747958  0.82823761  0.66970708  1
  I  I99  1  0.83216474  0.16785497  -0.00011873  1
  I  I100  1  0.83593640  0.17267940  0.33845614  1
  I  I101  1  0.83702002  0.16569796  0.66266554  1
  I  I102  1  0.83311326  0.50224964  -0.00326609  1
  I  I103  1  0.83288170  0.49841703  0.33697973  1
  I  I104  1  0.83269575  0.49970628  0.66529376  1
  I  I105  1  0.83494483  0.83055401  -0.00014876  1
  I  I106  1  0.83352115  0.82892000  0.33768414  1
  I  I107  1  0.83095711  0.83362496  0.66364253  1
  I  I108  1  0.00032982  0.16823825  0.16434825  1
  I  I109  1  -0.00031207  0.17466275  0.50103426  1
  I  I110  1  0.00007076  0.16630367  0.83390327  1
  I  I111  1  0.00305121  0.49873726  0.16783428  1
  I  I112  1  -0.00010101  0.49868557  0.50267935  1
  I  I113  1  0.00082948  0.50386882  0.82857644  1
  I  I114  1  0.00013578  0.83236442  0.16666282  1
  I  I115  1  -0.00291508  0.82758462  0.50300707  1
  I  I116  1  0.00248907  0.82657962  0.82850122  1
  I  I117  1  0.33321569  0.16591135  0.17063995  1
  I  I118  1  0.33014812  0.17316941  0.50050558  1
  I  I119  1  0.33319319  0.17171913  0.82950833  1
  I  I120  1  0.33392464  0.50309029  0.16871167  1
  I  I121  1  0.33286508  0.49529657  0.50208733  1
  I  I122  1  0.33335065  0.50306924  0.82994439  1
  I  I123  1  0.33677600  0.82954867  0.16893114  1
  I  I124  1  0.33348921  0.83436226  0.49828137  1
  I  I125  1  0.33396324  0.82346013  0.83420404  1
  I  I126  1  0.66653179  0.16996503  0.16970208  1
  I  I127  1  0.66957936  0.16790147  0.50009633  1
  I  I128  1  0.66679595  0.16689483  0.82985285  1
  I  I129  1  0.66325960  0.50337978  0.16773697  1
  I  I130  1  0.66705932  0.50019834  0.50270394  1
  I  I131  1  0.66588597  0.50370375  0.82874027  1
  I  I132  1  0.66227312  0.82326835  0.16007231  1
  I  I133  1  0.66971566  0.83257505  0.50160605  1
  I  I134  1  0.66358897  0.82743734  0.83522801  1
