# generated using pymatgen
data_Cs27Sn13Pb14I81
_symmetry_space_group_name_H-M   'P 1'
_cell_length_a   19.02562838
_cell_length_b   19.01951269
_cell_length_c   19.01838925
_cell_angle_alpha   90.00236259
_cell_angle_beta   89.99976464
_cell_angle_gamma   90.00091693
_symmetry_Int_Tables_number   1
_chemical_formula_structural   Cs27Sn13Pb14I81
_chemical_formula_sum   'Cs27 Sn13 Pb14 I81'
_cell_volume   6881.95971971
_cell_formula_units_Z   1
loop_
 _symmetry_equiv_pos_site_id
 _symmetry_equiv_pos_as_xyz
  1  'x, y, z'
loop_
 _atom_site_type_symbol
 _atom_site_label
 _atom_site_symmetry_multiplicity
 _atom_site_fract_x
 _atom_site_fract_y
 _atom_site_fract_z
 _atom_site_occupancy
  Cs  Cs0  1  -0.00313843  -0.00216310  -0.00596276  1
  Cs  Cs1  1  0.00037518  -0.00016744  0.33653585  1
  Cs  Cs2  1  0.00361993  0.00283170  0.66468705  1
  Cs  Cs3  1  0.00646347  0.33630246  0.00000529  1
  Cs  Cs4  1  0.00112604  0.33359758  0.33276891  1
  Cs  Cs5  1  -0.00126427  0.33112942  0.66482536  1
  Cs  Cs6  1  -0.00197728  0.66623010  -0.01318990  1
  Cs  Cs7  1  0.00034918  0.66555161  0.33560372  1
  Cs  Cs8  1  -0.00026782  0.66681221  0.66863520  1
  Cs  Cs9  1  0.33369010  0.00039363  -0.00129876  1
  Cs  Cs10  1  0.33169866  -0.00476690  0.33226795  1
  Cs  Cs11  1  0.33208060  0.00396429  0.67219473  1
  Cs  Cs12  1  0.32203492  0.33273792  -0.00320472  1
  Cs  Cs13  1  0.32948125  0.33353258  0.33109054  1
  Cs  Cs14  1  0.34765920  0.32380277  0.67590606  1
  Cs  Cs15  1  0.32964074  0.66614234  0.00057897  1
  Cs  Cs16  1  0.33266177  0.66812479  0.33471405  1
  Cs  Cs17  1  0.33398062  0.66677347  0.66377696  1
  Cs  Cs18  1  0.66853309  0.00030309  0.00337036  1
  Cs  Cs19  1  0.66825167  -0.00046517  0.32971762  1
  Cs  Cs20  1  0.66455561  0.00519994  0.66414476  1
  Cs  Cs21  1  0.66801665  0.33158936  0.00151968  1
  Cs  Cs22  1  0.66738637  0.33507660  0.33227334  1
  Cs  Cs23  1  0.65716911  0.33235595  0.66988770  1
  Cs  Cs24  1  0.67101358  0.66698689  0.00101679  1
  Cs  Cs25  1  0.66668291  0.66670648  0.33268775  1
  Cs  Cs26  1  0.66640099  0.66219043  0.66640181  1
  Sn  Sn27  1  0.83312209  0.83252167  0.49980253  1
  Sn  Sn28  1  0.16643441  0.83293856  0.16704632  1
  Sn  Sn29  1  0.50025269  0.16701292  0.16706240  1
  Sn  Sn30  1  0.83310469  0.49961883  0.16725510  1
  Sn  Sn31  1  0.50026182  0.50008483  0.16657780  1
  Sn  Sn32  1  0.49932666  0.83294358  0.16643033  1
  Sn  Sn33  1  0.50020228  0.83345156  0.50006990  1
  Sn  Sn34  1  0.16654177  0.50026073  0.50024615  1
  Sn  Sn35  1  0.83311944  0.16678447  0.83456733  1
  Sn  Sn36  1  0.83390546  0.50073485  0.49913419  1
  Sn  Sn37  1  0.50070921  0.83269009  0.83368042  1
  Sn  Sn38  1  0.16669541  0.83234120  0.49890587  1
  Sn  Sn39  1  0.83307378  0.16773657  0.16599903  1
  Pb  Pb40  1  0.83064447  0.83541693  0.82964842  1
  Pb  Pb41  1  0.16592068  0.16381382  0.16686556  1
  Pb  Pb42  1  0.83307880  0.49772124  0.83296937  1
  Pb  Pb43  1  0.49996988  0.16407481  0.49655228  1
  Pb  Pb44  1  0.16699551  0.16734634  0.49987365  1
  Pb  Pb45  1  0.16374886  0.16663382  0.83349425  1
  Pb  Pb46  1  0.16585658  0.50277500  0.16812214  1
  Pb  Pb47  1  0.49988595  0.50164663  0.49785109  1
  Pb  Pb48  1  0.83393821  0.83286991  0.16809212  1
  Pb  Pb49  1  0.83319985  0.16773224  0.49919103  1
  Pb  Pb50  1  0.50016616  0.50251155  0.83714804  1
  Pb  Pb51  1  0.16687389  0.50015309  0.82878481  1
  Pb  Pb52  1  0.50197898  0.16430283  0.83704399  1
  Pb  Pb53  1  0.16896121  0.83320014  0.83276207  1
  I  I54  1  0.17220530  -0.00409676  0.17489066  1
  I  I55  1  0.16530745  -0.00392052  0.49600469  1
  I  I56  1  0.16672693  -0.00045280  0.83035425  1
  I  I57  1  0.17073196  0.33352441  0.16823268  1
  I  I58  1  0.15604175  0.33717380  0.49769326  1
  I  I59  1  0.16812285  0.33343242  0.83358150  1
  I  I60  1  0.17357269  0.67029133  0.17029270  1
  I  I61  1  0.16594379  0.66839086  0.49440548  1
  I  I62  1  0.16474058  0.66702914  0.83829316  1
  I  I63  1  0.50102157  -0.00111119  0.16741612  1
  I  I64  1  0.50097335  -0.00508754  0.49782225  1
  I  I65  1  0.50023609  -0.00330796  0.83342222  1
  I  I66  1  0.50811409  0.33347245  0.16874763  1
  I  I67  1  0.50058941  0.33347398  0.50004729  1
  I  I68  1  0.50078042  0.33307888  0.83087004  1
  I  I69  1  0.50085882  0.66769274  0.16782579  1
  I  I70  1  0.50032097  0.67033688  0.49636503  1
  I  I71  1  0.50060149  0.67051596  0.83423389  1
  I  I72  1  0.82936832  0.00185979  0.16482676  1
  I  I73  1  0.83349869  -0.00265328  0.49941484  1
  I  I74  1  0.83185040  0.00254647  0.84226484  1
  I  I75  1  0.82331855  0.33378654  0.16951826  1
  I  I76  1  0.84105283  0.33685429  0.49811666  1
  I  I77  1  0.83157679  0.33019831  0.83265883  1
  I  I78  1  0.82850157  0.66409962  0.17104800  1
  I  I79  1  0.83309596  0.66693832  0.49267574  1
  I  I80  1  0.83337825  0.66660268  0.83680169  1
  I  I81  1  0.17039687  0.16422075  0.00046588  1
  I  I82  1  0.16365545  0.16687216  0.33304267  1
  I  I83  1  0.16340347  0.16301596  0.66668356  1
  I  I84  1  0.16652015  0.50130290  0.00005271  1
  I  I85  1  0.16505376  0.50394648  0.33590655  1
  I  I86  1  0.15674206  0.51153427  0.66084175  1
  I  I87  1  0.17280394  0.83481523  0.00282188  1
  I  I88  1  0.17333174  0.83098954  0.33417680  1
  I  I89  1  0.16662894  0.82921077  0.66278247  1
  I  I90  1  0.50310456  0.16221861  0.00442746  1
  I  I91  1  0.50907112  0.16362411  0.32883832  1
  I  I92  1  0.50128901  0.16562000  0.66698264  1
  I  I93  1  0.50866923  0.50351437  0.00536069  1
  I  I94  1  0.50233663  0.50317276  0.32994102  1
  I  I95  1  0.50021027  0.50166345  0.66665632  1
  I  I96  1  0.49435840  0.83467269  0.00204524  1
  I  I97  1  0.49892578  0.83396611  0.33280669  1
  I  I98  1  0.50070146  0.83285598  0.66560805  1
  I  I99  1  0.82707511  0.17070675  0.00201842  1
  I  I100  1  0.82821191  0.16674396  0.33017127  1
  I  I101  1  0.83549647  0.16308284  0.66849891  1
  I  I102  1  0.82731761  0.49905991  0.00323421  1
  I  I103  1  0.83231485  0.49772848  0.33294426  1
  I  I104  1  0.83947479  0.50487581  0.66315306  1
  I  I105  1  0.83410811  0.83069562  -0.00015345  1
  I  I106  1  0.82832454  0.83524583  0.33594533  1
  I  I107  1  0.83488962  0.82829778  0.66168178  1
  I  I108  1  -0.00356173  0.17133208  0.16318114  1
  I  I109  1  -0.00031161  0.15898794  0.49872178  1
  I  I110  1  -0.00424793  0.16469655  0.84166763  1
  I  I111  1  -0.00320841  0.49425980  0.16981828  1
  I  I112  1  -0.00111015  0.51031356  0.49236373  1
  I  I113  1  -0.00026905  0.50038166  0.84075719  1
  I  I114  1  0.00245406  0.83478967  0.17455446  1
  I  I115  1  0.00015960  0.83048453  0.49292103  1
  I  I116  1  -0.00020638  0.83521219  0.83505489  1
  I  I117  1  0.33625950  0.16829023  0.16890007  1
  I  I118  1  0.33356877  0.16762935  0.49887361  1
  I  I119  1  0.33386368  0.16598662  0.83229257  1
  I  I120  1  0.33593358  0.49842352  0.16831461  1
  I  I121  1  0.33088720  0.50787096  0.49671052  1
  I  I122  1  0.33358759  0.49917825  0.83417461  1
  I  I123  1  0.33532964  0.83375600  0.17207309  1
  I  I124  1  0.33342421  0.82880772  0.49755305  1
  I  I125  1  0.33678750  0.83528258  0.82979136  1
  I  I126  1  0.66670715  0.16320302  0.16327855  1
  I  I127  1  0.66674531  0.16460902  0.50319652  1
  I  I128  1  0.66935411  0.16558538  0.83402314  1
  I  I129  1  0.66703344  0.50208519  0.17346750  1
  I  I130  1  0.66941030  0.50539374  0.49743947  1
  I  I131  1  0.66666693  0.50076104  0.82583783  1
  I  I132  1  0.66376406  0.83420622  0.16815856  1
  I  I133  1  0.66642873  0.83008308  0.49864191  1
  I  I134  1  0.66341060  0.83397697  0.83734368  1
