# generated using pymatgen
data_Cs27Sn13Pb14I81
_symmetry_space_group_name_H-M   'P 1'
_cell_length_a   18.97949455
_cell_length_b   18.97936732
_cell_length_c   18.97358953
_cell_angle_alpha   89.99892000
_cell_angle_beta   89.99731452
_cell_angle_gamma   89.99944842
_symmetry_Int_Tables_number   1
_chemical_formula_structural   Cs27Sn13Pb14I81
_chemical_formula_sum   'Cs27 Sn13 Pb14 I81'
_cell_volume   6834.64361786
_cell_formula_units_Z   1
loop_
 _symmetry_equiv_pos_site_id
 _symmetry_equiv_pos_as_xyz
  1  'x, y, z'
loop_
 _atom_site_type_symbol
 _atom_site_label
 _atom_site_symmetry_multiplicity
 _atom_site_fract_x
 _atom_site_fract_y
 _atom_site_fract_z
 _atom_site_occupancy
  Cs  Cs0  1  0.00035268  0.00045697  0.00091041  1
  Cs  Cs1  1  -0.00086045  -0.00093187  0.33205748  1
  Cs  Cs2  1  -0.00530542  -0.00428870  0.66659945  1
  Cs  Cs3  1  -0.00264057  0.33231135  0.00111999  1
  Cs  Cs4  1  0.00071556  0.33604978  0.33149305  1
  Cs  Cs5  1  0.00159499  0.33351690  0.66940602  1
  Cs  Cs6  1  -0.00005582  0.66725071  -0.00087345  1
  Cs  Cs7  1  0.00015708  0.66501893  0.33381220  1
  Cs  Cs8  1  0.00871611  0.67213830  0.67068845  1
  Cs  Cs9  1  0.33249881  0.00132373  -0.00107387  1
  Cs  Cs10  1  0.33448542  0.00367846  0.33243100  1
  Cs  Cs11  1  0.33409594  0.00107616  0.66899635  1
  Cs  Cs12  1  0.33669426  0.33140797  0.00026850  1
  Cs  Cs13  1  0.33427755  0.32906329  0.33257959  1
  Cs  Cs14  1  0.33029231  0.33300068  0.66685326  1
  Cs  Cs15  1  0.33593944  0.66621605  -0.00153763  1
  Cs  Cs16  1  0.33282141  0.66656587  0.33492320  1
  Cs  Cs17  1  0.32745018  0.66512515  0.66549335  1
  Cs  Cs18  1  0.66700330  -0.00233049  -0.00128298  1
  Cs  Cs19  1  0.66615449  0.00038169  0.33701251  1
  Cs  Cs20  1  0.67021859  0.00251234  0.66477666  1
  Cs  Cs21  1  0.66648964  0.33870911  -0.00138154  1
  Cs  Cs22  1  0.66500334  0.33460820  0.33504615  1
  Cs  Cs23  1  0.66978978  0.33106457  0.66631023  1
  Cs  Cs24  1  0.66508087  0.66421801  0.00030318  1
  Cs  Cs25  1  0.66677288  0.66605442  0.33217138  1
  Cs  Cs26  1  0.66653261  0.66652082  0.66628489  1
  Sn  Sn27  1  0.16696317  0.16639760  0.83230264  1
  Sn  Sn28  1  0.83398335  0.50011014  0.16746592  1
  Sn  Sn29  1  0.16654661  0.50062453  0.16665765  1
  Sn  Sn30  1  0.50055563  0.50050533  0.49996319  1
  Sn  Sn31  1  0.16620312  0.16630421  0.50088381  1
  Sn  Sn32  1  0.83320075  0.83318433  0.16692440  1
  Sn  Sn33  1  0.49986716  0.83341585  0.16682703  1
  Sn  Sn34  1  0.49989129  0.83267005  0.50008937  1
  Sn  Sn35  1  0.16694672  0.83238664  0.16683614  1
  Sn  Sn36  1  0.49997201  0.83404518  0.83306160  1
  Sn  Sn37  1  0.83327711  0.50049497  0.49982033  1
  Sn  Sn38  1  0.49965268  0.16615086  0.83335565  1
  Sn  Sn39  1  0.83257643  0.16690472  0.16696585  1
  Pb  Pb40  1  0.16680533  0.49752082  0.83657475  1
  Pb  Pb41  1  0.16884088  0.83537550  0.83575151  1
  Pb  Pb42  1  0.83580389  0.16899200  0.49784126  1
  Pb  Pb43  1  0.83323452  0.16663325  0.83534187  1
  Pb  Pb44  1  0.50271695  0.16432861  0.16452414  1
  Pb  Pb45  1  0.49994543  0.50191774  0.16850664  1
  Pb  Pb46  1  0.83083781  0.83310802  0.83543472  1
  Pb  Pb47  1  0.16649139  0.49846778  0.49806371  1
  Pb  Pb48  1  0.16521525  0.16672099  0.16625129  1
  Pb  Pb49  1  0.49875847  0.16662155  0.50213522  1
  Pb  Pb50  1  0.49998679  0.50021556  0.83010800  1
  Pb  Pb51  1  0.16887261  0.83553187  0.49778025  1
  Pb  Pb52  1  0.83355909  0.50037850  0.83289922  1
  Pb  Pb53  1  0.83149170  0.83093565  0.49806079  1
  I  I54  1  0.16625644  -0.00261277  0.16648082  1
  I  I55  1  0.16924203  0.00319310  0.50030413  1
  I  I56  1  0.16951047  0.00324231  0.83328982  1
  I  I57  1  0.16087538  0.33552581  0.16699040  1
  I  I58  1  0.16928261  0.33067462  0.50019540  1
  I  I59  1  0.17378696  0.32946828  0.83198844  1
  I  I60  1  0.16233933  0.66723880  0.16801819  1
  I  I61  1  0.16608418  0.66678713  0.49956212  1
  I  I62  1  0.16773726  0.66695404  0.83269512  1
  I  I63  1  0.49865085  -0.00417400  0.17138181  1
  I  I64  1  0.49756355  -0.00289532  0.49689595  1
  I  I65  1  0.49564655  -0.00075449  0.83363544  1
  I  I66  1  0.49945941  0.33330057  0.16668255  1
  I  I67  1  0.50252463  0.33579829  0.50023193  1
  I  I68  1  0.49617208  0.33050845  0.83297890  1
  I  I69  1  0.50369421  0.67036903  0.16214418  1
  I  I70  1  0.50353523  0.66738928  0.49992087  1
  I  I71  1  0.50183911  0.67002501  0.83742578  1
  I  I72  1  0.83389462  -0.00099475  0.16464762  1
  I  I73  1  0.83220040  -0.00007685  0.49744123  1
  I  I74  1  0.83457766  -0.00003328  0.83645459  1
  I  I75  1  0.83973547  0.33450779  0.16929945  1
  I  I76  1  0.82576019  0.33675213  0.49236360  1
  I  I77  1  0.83023858  0.33323801  0.83777552  1
  I  I78  1  0.83354552  0.66659876  0.17027449  1
  I  I79  1  0.83146498  0.66304399  0.49211548  1
  I  I80  1  0.83043304  0.66684413  0.83703086  1
  I  I81  1  0.16979357  0.16610688  -0.00212120  1
  I  I82  1  0.16558245  0.16698413  0.33468591  1
  I  I83  1  0.17218593  0.16843066  0.66710928  1
  I  I84  1  0.16062982  0.50249268  0.00479549  1
  I  I85  1  0.16489399  0.50094134  0.32999731  1
  I  I86  1  0.16621852  0.49973597  0.66651286  1
  I  I87  1  0.16794393  0.83247364  0.00420548  1
  I  I88  1  0.16844357  0.83287106  0.32932219  1
  I  I89  1  0.16840086  0.83239941  0.66668656  1
  I  I90  1  0.49312455  0.16188810  -0.00320846  1
  I  I91  1  0.49811109  0.16548573  0.33336366  1
  I  I92  1  0.49854935  0.16106768  0.66990506  1
  I  I93  1  0.50038332  0.50038270  0.00008522  1
  I  I94  1  0.50120168  0.50484637  0.33626019  1
  I  I95  1  0.50571236  0.50495236  0.66223548  1
  I  I96  1  0.50035872  0.83837823  0.00074820  1
  I  I97  1  0.50052673  0.82845418  0.33277859  1
  I  I98  1  0.49970676  0.83364556  0.66651312  1
  I  I99  1  0.83573556  0.16845922  0.00381933  1
  I  I100  1  0.83551352  0.16391651  0.32967142  1
  I  I101  1  0.83203858  0.16887534  0.66647380  1
  I  I102  1  0.83682794  0.49962877  0.00403010  1
  I  I103  1  0.83283509  0.50016586  0.33164588  1
  I  I104  1  0.82660979  0.49756801  0.66304191  1
  I  I105  1  0.83158073  0.83124753  0.00473400  1
  I  I106  1  0.83087463  0.83534743  0.32914930  1
  I  I107  1  0.83171935  0.83252384  0.66633144  1
  I  I108  1  -0.00261958  0.16289904  0.16522584  1
  I  I109  1  0.00349073  0.16828722  0.50512455  1
  I  I110  1  0.00286646  0.16873054  0.83210242  1
  I  I111  1  -0.00110810  0.50369098  0.17213190  1
  I  I112  1  -0.00256754  0.49600867  0.49440558  1
  I  I113  1  0.00028025  0.49709450  0.83013035  1
  I  I114  1  -0.00026905  0.83338394  0.16693144  1
  I  I115  1  0.00013279  0.83336677  0.49775961  1
  I  I116  1  0.00029938  0.83487158  0.83523435  1
  I  I117  1  0.33347700  0.16687918  0.16784157  1
  I  I118  1  0.33091350  0.16868666  0.49881127  1
  I  I119  1  0.33359023  0.16242206  0.83139617  1
  I  I120  1  0.33098880  0.50396835  0.16809450  1
  I  I121  1  0.33580706  0.50313656  0.49869517  1
  I  I122  1  0.33349941  0.50120591  0.83419772  1
  I  I123  1  0.33367268  0.82904736  0.16650753  1
  I  I124  1  0.33724727  0.82721304  0.49727449  1
  I  I125  1  0.33703991  0.83541705  0.83667008  1
  I  I126  1  0.67051241  0.16821281  0.16582688  1
  I  I127  1  0.66674947  0.16550638  0.50031452  1
  I  I128  1  0.66370329  0.16199200  0.83530125  1
  I  I129  1  0.66951826  0.50041795  0.16838038  1
  I  I130  1  0.66662716  0.50297624  0.49292495  1
  I  I131  1  0.66644110  0.49766945  0.83897131  1
  I  I132  1  0.66649605  0.83359197  0.16598820  1
  I  I133  1  0.66295459  0.83341395  0.49742703  1
  I  I134  1  0.66223222  0.84006191  0.83551936  1
