# generated using pymatgen
data_Cs27Sn13Pb14I81
_symmetry_space_group_name_H-M   'P 1'
_cell_length_a   18.97300064
_cell_length_b   18.97616030
_cell_length_c   18.98467924
_cell_angle_alpha   90.00054957
_cell_angle_beta   89.99937968
_cell_angle_gamma   90.00159010
_symmetry_Int_Tables_number   1
_chemical_formula_structural   Cs27Sn13Pb14I81
_chemical_formula_sum   'Cs27 Sn13 Pb14 I81'
_cell_volume   6835.14331979
_cell_formula_units_Z   1
loop_
 _symmetry_equiv_pos_site_id
 _symmetry_equiv_pos_as_xyz
  1  'x, y, z'
loop_
 _atom_site_type_symbol
 _atom_site_label
 _atom_site_symmetry_multiplicity
 _atom_site_fract_x
 _atom_site_fract_y
 _atom_site_fract_z
 _atom_site_occupancy
  Cs  Cs0  1  -0.00012503  -0.00181879  -0.00162256  1
  Cs  Cs1  1  -0.00154611  0.00053797  0.33307023  1
  Cs  Cs2  1  0.00572082  -0.00146583  0.67175694  1
  Cs  Cs3  1  -0.00076892  0.33246594  0.00326209  1
  Cs  Cs4  1  -0.00160763  0.33248367  0.33188734  1
  Cs  Cs5  1  -0.00148474  0.33146322  0.66716271  1
  Cs  Cs6  1  -0.00063216  0.66897697  0.00104250  1
  Cs  Cs7  1  -0.00155000  0.66707164  0.33192719  1
  Cs  Cs8  1  -0.00121360  0.66997335  0.66930609  1
  Cs  Cs9  1  0.33581071  0.00311372  0.00101591  1
  Cs  Cs10  1  0.33995070  -0.00112344  0.33878161  1
  Cs  Cs11  1  0.32610577  0.00532839  0.65931855  1
  Cs  Cs12  1  0.33409268  0.33598374  0.00020316  1
  Cs  Cs13  1  0.33213631  0.33450609  0.33350310  1
  Cs  Cs14  1  0.33316455  0.33254555  0.66618310  1
  Cs  Cs15  1  0.33462612  0.66463484  -0.00027732  1
  Cs  Cs16  1  0.33383514  0.66666287  0.33383195  1
  Cs  Cs17  1  0.33375593  0.66632438  0.66727840  1
  Cs  Cs18  1  0.66490536  0.00282952  0.00014448  1
  Cs  Cs19  1  0.66560351  -0.00126110  0.33362540  1
  Cs  Cs20  1  0.66755560  0.00357947  0.66663120  1
  Cs  Cs21  1  0.66670187  0.33224470  -0.00289402  1
  Cs  Cs22  1  0.67059054  0.33289026  0.33394356  1
  Cs  Cs23  1  0.66825252  0.33290118  0.66951025  1
  Cs  Cs24  1  0.66511756  0.66576502  -0.00261752  1
  Cs  Cs25  1  0.66852369  0.66835607  0.33414552  1
  Cs  Cs26  1  0.66699450  0.66495947  0.66951854  1
  Sn  Sn27  1  0.83375561  0.83419322  0.16727081  1
  Sn  Sn28  1  0.49885228  0.50083934  0.83323388  1
  Sn  Sn29  1  0.16672053  0.83355507  0.16698869  1
  Sn  Sn30  1  0.49951383  0.50019865  0.49985677  1
  Sn  Sn31  1  0.83372872  0.16536367  0.49925658  1
  Sn  Sn32  1  0.16735526  0.50022252  0.16672817  1
  Sn  Sn33  1  0.16704971  0.50019032  0.83353984  1
  Sn  Sn34  1  0.49931986  0.83348562  0.83291440  1
  Sn  Sn35  1  0.83352287  0.83422904  0.49962113  1
  Sn  Sn36  1  0.83413149  0.16544195  0.16746655  1
  Sn  Sn37  1  0.49959538  0.50014307  0.16700774  1
  Sn  Sn38  1  0.16694897  0.50032567  0.49984301  1
  Sn  Sn39  1  0.16642835  0.16626527  0.16711196  1
  Pb  Pb40  1  0.83367596  0.50016572  0.50002625  1
  Pb  Pb41  1  0.16921465  0.83151428  0.83577046  1
  Pb  Pb42  1  0.16675337  0.16919525  0.83606877  1
  Pb  Pb43  1  0.83362876  0.50006048  0.83343299  1
  Pb  Pb44  1  0.83124310  0.83347059  0.83382374  1
  Pb  Pb45  1  0.83348975  0.50018650  0.16648314  1
  Pb  Pb46  1  0.50214151  0.83125111  0.50242575  1
  Pb  Pb47  1  0.50020113  0.16923246  0.16690068  1
  Pb  Pb48  1  0.16449665  0.16889854  0.49748691  1
  Pb  Pb49  1  0.16469845  0.83114946  0.49778420  1
  Pb  Pb50  1  0.50019802  0.83126995  0.16540056  1
  Pb  Pb51  1  0.83363694  0.16632929  0.83381090  1
  Pb  Pb52  1  0.50248841  0.16930245  0.49984075  1
  Pb  Pb53  1  0.49956732  0.16678235  0.83307855  1
  I  I54  1  0.15980086  -0.00017097  0.16532515  1
  I  I55  1  0.16774890  -0.00001514  0.49920645  1
  I  I56  1  0.16782299  -0.00017967  0.83464051  1
  I  I57  1  0.16583914  0.33450646  0.16624624  1
  I  I58  1  0.16830767  0.33733449  0.49777875  1
  I  I59  1  0.17353097  0.33797913  0.83517744  1
  I  I60  1  0.16576027  0.66559664  0.16641828  1
  I  I61  1  0.16805243  0.66272010  0.49700087  1
  I  I62  1  0.16838535  0.66282690  0.83599095  1
  I  I63  1  0.49743076  -0.00013886  0.16334158  1
  I  I64  1  0.49946529  -0.00016722  0.50171028  1
  I  I65  1  0.50419821  -0.00298037  0.83698963  1
  I  I66  1  0.49650376  0.33784982  0.16356031  1
  I  I67  1  0.49820178  0.33806830  0.50209238  1
  I  I68  1  0.49686229  0.33755194  0.83415665  1
  I  I69  1  0.49634205  0.66284114  0.16772523  1
  I  I70  1  0.49882657  0.66266318  0.49753424  1
  I  I71  1  0.49758393  0.66428829  0.83440200  1
  I  I72  1  0.84109007  -0.00023272  0.17024298  1
  I  I73  1  0.83192801  -0.00016515  0.49375934  1
  I  I74  1  0.82972825  -0.00020187  0.83375690  1
  I  I75  1  0.83613755  0.33067249  0.17120128  1
  I  I76  1  0.83328373  0.33093173  0.49445826  1
  I  I77  1  0.83034373  0.33326802  0.83323668  1
  I  I78  1  0.83636600  0.66953131  0.17094993  1
  I  I79  1  0.83313394  0.66922326  0.49451211  1
  I  I80  1  0.83438923  0.66680780  0.83324375  1
  I  I81  1  0.15993304  0.16936613  0.00461553  1
  I  I82  1  0.16401351  0.17116930  0.32931368  1
  I  I83  1  0.16476168  0.16898674  0.66633080  1
  I  I84  1  0.17246478  0.49957789  0.00121505  1
  I  I85  1  0.17250217  0.49975198  0.33216463  1
  I  I86  1  0.17255908  0.50006370  0.66658566  1
  I  I87  1  0.15960533  0.83026617  0.00412834  1
  I  I88  1  0.16554233  0.82929939  0.32934533  1
  I  I89  1  0.16447148  0.83048308  0.66664368  1
  I  I90  1  0.50323884  0.17003712  0.00026960  1
  I  I91  1  0.49857991  0.16917380  0.33317842  1
  I  I92  1  0.50393160  0.16997855  0.66645713  1
  I  I93  1  0.49441630  0.50326544  0.00001558  1
  I  I94  1  0.49384952  0.49894547  0.33307376  1
  I  I95  1  0.49499680  0.50363772  0.66695217  1
  I  I96  1  0.50172162  0.82477791  -0.00225669  1
  I  I97  1  0.49934591  0.83046285  0.33338740  1
  I  I98  1  0.50299342  0.82430025  0.66995652  1
  I  I99  1  0.83686540  0.16395936  0.00396513  1
  I  I100  1  0.83703397  0.16409539  0.33209501  1
  I  I101  1  0.83098337  0.16490774  0.66343703  1
  I  I102  1  0.83237800  0.49954617  0.00032923  1
  I  I103  1  0.83190195  0.50014700  0.33320204  1
  I  I104  1  0.83320792  0.49955789  0.66642939  1
  I  I105  1  0.83680379  0.83622133  0.00362708  1
  I  I106  1  0.83601272  0.83599316  0.33210422  1
  I  I107  1  0.83093493  0.83543261  0.66379321  1
  I  I108  1  0.00002843  0.17040644  0.17014996  1
  I  I109  1  -0.00348185  0.16684358  0.49676239  1
  I  I110  1  0.00022366  0.17006741  0.83181649  1
  I  I111  1  0.00353300  0.49968535  0.16703846  1
  I  I112  1  0.00306763  0.49963440  0.49792303  1
  I  I113  1  0.00380295  0.49899055  0.83438165  1
  I  I114  1  0.00004151  0.83005325  0.16945959  1
  I  I115  1  -0.00343743  0.83333409  0.49823328  1
  I  I116  1  0.00029870  0.83094927  0.83230282  1
  I  I117  1  0.33011751  0.16624515  0.16444793  1
  I  I118  1  0.33301897  0.16638360  0.49915167  1
  I  I119  1  0.33307612  0.16557334  0.83611588  1
  I  I120  1  0.33200970  0.49991523  0.16608390  1
  I  I121  1  0.33316466  0.50026419  0.49912501  1
  I  I122  1  0.33368684  0.50372853  0.83486002  1
  I  I123  1  0.33047597  0.83354092  0.16382096  1
  I  I124  1  0.33324786  0.83327493  0.49879673  1
  I  I125  1  0.33680324  0.82755976  0.83631438  1
  I  I126  1  0.67008505  0.16366340  0.16989850  1
  I  I127  1  0.67062758  0.16555656  0.49250174  1
  I  I128  1  0.66665984  0.17090582  0.83604544  1
  I  I129  1  0.66377730  0.50023233  0.16619354  1
  I  I130  1  0.66383704  0.49987108  0.50015905  1
  I  I131  1  0.66290418  0.50312653  0.83362503  1
  I  I132  1  0.66966315  0.83590565  0.16885738  1
  I  I133  1  0.67017766  0.83392709  0.49244081  1
  I  I134  1  0.66360508  0.82335767  0.83566574  1
