# generated using pymatgen
data_Cs27Sn14Pb13I81
_symmetry_space_group_name_H-M   'P 1'
_cell_length_a   18.97103525
_cell_length_b   18.98507279
_cell_length_c   18.97422993
_cell_angle_alpha   90.00074550
_cell_angle_beta   90.00095547
_cell_angle_gamma   89.99934246
_symmetry_Int_Tables_number   1
_chemical_formula_structural   Cs27Sn14Pb13I81
_chemical_formula_sum   'Cs27 Sn14 Pb13 I81'
_cell_volume   6833.88169880
_cell_formula_units_Z   1
loop_
 _symmetry_equiv_pos_site_id
 _symmetry_equiv_pos_as_xyz
  1  'x, y, z'
loop_
 _atom_site_type_symbol
 _atom_site_label
 _atom_site_symmetry_multiplicity
 _atom_site_fract_x
 _atom_site_fract_y
 _atom_site_fract_z
 _atom_site_occupancy
  Cs  Cs0  1  0.00224118  0.00223333  -0.00109064  1
  Cs  Cs1  1  -0.00226816  -0.00227488  0.33428277  1
  Cs  Cs2  1  -0.00080676  -0.00130802  0.66588003  1
  Cs  Cs3  1  0.00230167  0.33163296  -0.00167308  1
  Cs  Cs4  1  0.00042618  0.33505306  0.33289815  1
  Cs  Cs5  1  0.00146116  0.33336014  0.67021792  1
  Cs  Cs6  1  0.00247783  0.66611022  0.00095421  1
  Cs  Cs7  1  -0.00211152  0.66635043  0.33301968  1
  Cs  Cs8  1  -0.00108009  0.66766293  0.66503669  1
  Cs  Cs9  1  0.33162381  0.00209364  -0.00052698  1
  Cs  Cs10  1  0.33249736  0.00146765  0.33797686  1
  Cs  Cs11  1  0.33538637  -0.00352295  0.66262301  1
  Cs  Cs12  1  0.33108965  0.33163165  0.00097005  1
  Cs  Cs13  1  0.33293134  0.33295029  0.33588409  1
  Cs  Cs14  1  0.33215854  0.33254348  0.66004815  1
  Cs  Cs15  1  0.33216839  0.66855013  -0.00030857  1
  Cs  Cs16  1  0.33071143  0.66522102  0.33531769  1
  Cs  Cs17  1  0.34245677  0.67227095  0.66254473  1
  Cs  Cs18  1  0.66657132  0.00317762  0.00196197  1
  Cs  Cs19  1  0.66864075  -0.00026348  0.33231218  1
  Cs  Cs20  1  0.66668304  -0.00196753  0.66375343  1
  Cs  Cs21  1  0.66650519  0.33175478  -0.00105361  1
  Cs  Cs22  1  0.66645010  0.33310137  0.33101182  1
  Cs  Cs23  1  0.66490585  0.33661644  0.67100524  1
  Cs  Cs24  1  0.66559454  0.66554967  0.00054116  1
  Cs  Cs25  1  0.67023870  0.66748898  0.33094859  1
  Cs  Cs26  1  0.66238869  0.66570896  0.67048180  1
  Sn  Sn27  1  0.49979956  0.49994504  0.16636441  1
  Sn  Sn28  1  0.50038561  0.83356687  0.16650014  1
  Sn  Sn29  1  0.83327844  0.16745808  0.50003515  1
  Sn  Sn30  1  0.16801308  0.16737331  0.83379008  1
  Sn  Sn31  1  0.16733423  0.16731364  0.16633717  1
  Sn  Sn32  1  0.83280867  0.83271025  0.16598063  1
  Sn  Sn33  1  0.49897601  0.16657284  0.16607317  1
  Sn  Sn34  1  0.83311767  0.83284642  0.50008811  1
  Sn  Sn35  1  0.16721627  0.49998682  0.83357965  1
  Sn  Sn36  1  0.83338075  0.50038425  0.16674339  1
  Sn  Sn37  1  0.16669378  0.49906139  0.16585635  1
  Sn  Sn38  1  0.83333097  0.49959582  0.49966641  1
  Sn  Sn39  1  0.83339750  0.83323404  0.83417837  1
  Sn  Sn40  1  0.49900078  0.16675827  0.83387397  1
  Pb  Pb41  1  0.50252636  0.83323339  0.49689001  1
  Pb  Pb42  1  0.49690480  0.49784935  0.83570522  1
  Pb  Pb43  1  0.16473802  0.50010262  0.50005613  1
  Pb  Pb44  1  0.50279503  0.49994042  0.49737818  1
  Pb  Pb45  1  0.50212549  0.83581729  0.83601112  1
  Pb  Pb46  1  0.16440877  0.16671742  0.49999623  1
  Pb  Pb47  1  0.83341403  0.16489249  0.83099678  1
  Pb  Pb48  1  0.83509931  0.50184780  0.83397800  1
  Pb  Pb49  1  0.16528563  0.83336404  0.83341327  1
  Pb  Pb50  1  0.16677855  0.83346620  0.16673893  1
  Pb  Pb51  1  0.16464241  0.83310710  0.49998313  1
  Pb  Pb52  1  0.83366916  0.16692913  0.16780434  1
  Pb  Pb53  1  0.50243331  0.16683451  0.49977366  1
  I  I54  1  0.16813276  0.00319946  0.16206880  1
  I  I55  1  0.16197595  0.00029700  0.49891843  1
  I  I56  1  0.16766377  0.00347209  0.83917630  1
  I  I57  1  0.16764404  0.33363101  0.16322173  1
  I  I58  1  0.16106464  0.33333224  0.49940852  1
  I  I59  1  0.16693762  0.33260289  0.83906745  1
  I  I60  1  0.16736452  0.66337782  0.16303182  1
  I  I61  1  0.16299870  0.66630902  0.49859678  1
  I  I62  1  0.16147918  0.66358116  0.84000324  1
  I  I63  1  0.50232023  0.00051487  0.16290879  1
  I  I64  1  0.50405021  0.00010285  0.49718779  1
  I  I65  1  0.49473593  0.00362586  0.83983757  1
  I  I66  1  0.50135554  0.33318234  0.16352637  1
  I  I67  1  0.50524190  0.33328289  0.49719188  1
  I  I68  1  0.50251573  0.32992563  0.83995074  1
  I  I69  1  0.50262661  0.66630556  0.16815842  1
  I  I70  1  0.50125379  0.66661717  0.50040556  1
  I  I71  1  0.49986948  0.66666379  0.83381258  1
  I  I72  1  0.83056930  -0.00251451  0.16855827  1
  I  I73  1  0.83362610  -0.00087394  0.49895588  1
  I  I74  1  0.83487310  -0.00299129  0.83489385  1
  I  I75  1  0.83156674  0.33611633  0.17191547  1
  I  I76  1  0.83389982  0.33428977  0.49296405  1
  I  I77  1  0.83206285  0.33327556  0.83232682  1
  I  I78  1  0.83120648  0.66650945  0.17114000  1
  I  I79  1  0.83488412  0.66674637  0.49676779  1
  I  I80  1  0.83553031  0.66978200  0.83001219  1
  I  I81  1  0.16852881  0.17047348  0.00083146  1
  I  I82  1  0.17018728  0.17096571  0.32994025  1
  I  I83  1  0.16859180  0.17130772  0.67005722  1
  I  I84  1  0.16278855  0.49558823  0.00193807  1
  I  I85  1  0.16786459  0.49580475  0.32952538  1
  I  I86  1  0.16151061  0.49386491  0.66974347  1
  I  I87  1  0.16076382  0.83333922  0.00031059  1
  I  I88  1  0.16414441  0.83412393  0.33276832  1
  I  I89  1  0.16233903  0.83414077  0.66695423  1
  I  I90  1  0.49780662  0.16617716  0.00175637  1
  I  I91  1  0.49702601  0.16664326  0.32944915  1
  I  I92  1  0.49708643  0.16637107  0.66961519  1
  I  I93  1  0.50746476  0.50212242  0.00436637  1
  I  I94  1  0.49506737  0.49685077  0.32829231  1
  I  I95  1  0.50081648  0.49783052  0.66698067  1
  I  I96  1  0.50780808  0.83097575  0.00407228  1
  I  I97  1  0.50624131  0.83626868  0.32851634  1
  I  I98  1  0.50172359  0.83557863  0.66683397  1
  I  I99  1  0.83336912  0.16551782  -0.00009531  1
  I  I100  1  0.83336393  0.16225203  0.33567987  1
  I  I101  1  0.83381418  0.16619654  0.66317286  1
  I  I102  1  0.83174117  0.50487741  0.00359874  1
  I  I103  1  0.83508737  0.50455589  0.33169602  1
  I  I104  1  0.83663549  0.50103811  0.66429262  1
  I  I105  1  0.82990083  0.82883101  0.00152088  1
  I  I106  1  0.82956002  0.83276403  0.33265192  1
  I  I107  1  0.83697164  0.83500459  0.66597350  1
  I  I108  1  0.00256595  0.16963550  0.16366100  1
  I  I109  1  -0.00374703  0.16511137  0.49880075  1
  I  I110  1  0.00283501  0.16873841  0.83738205  1
  I  I111  1  -0.00030748  0.50026249  0.16762164  1
  I  I112  1  -0.00383192  0.50134802  0.49281429  1
  I  I113  1  0.00276415  0.49310204  0.83974447  1
  I  I114  1  -0.00350502  0.83047262  0.16866620  1
  I  I115  1  -0.00497097  0.83368532  0.49541092  1
  I  I116  1  -0.00343307  0.83578582  0.83556080  1
  I  I117  1  0.33352058  0.16905038  0.16305671  1
  I  I118  1  0.33340123  0.16661932  0.49941808  1
  I  I119  1  0.33274350  0.17002814  0.83969946  1
  I  I120  1  0.33307368  0.49975058  0.16100394  1
  I  I121  1  0.33339963  0.49884743  0.49881768  1
  I  I122  1  0.32895092  0.49904947  0.84081924  1
  I  I123  1  0.33640029  0.83106757  0.16479733  1
  I  I124  1  0.33406593  0.83426199  0.49929319  1
  I  I125  1  0.33367567  0.83173831  0.83574482  1
  I  I126  1  0.66418107  0.16844111  0.16416913  1
  I  I127  1  0.67055669  0.16503161  0.49833850  1
  I  I128  1  0.66432686  0.16429324  0.83811562  1
  I  I129  1  0.66706040  0.50062817  0.17230893  1
  I  I130  1  0.67137779  0.50075182  0.49471786  1
  I  I131  1  0.66651225  0.49906046  0.83310839  1
  I  I132  1  0.66795676  0.83112043  0.16756675  1
  I  I133  1  0.67118888  0.83392162  0.50147003  1
  I  I134  1  0.67038802  0.83426732  0.83063306  1
