# generated using pymatgen
data_Cs27Sn14Pb13I81
_symmetry_space_group_name_H-M   'P 1'
_cell_length_a   18.97752062
_cell_length_b   18.97084388
_cell_length_c   18.97721615
_cell_angle_alpha   89.99789171
_cell_angle_beta   89.99899608
_cell_angle_gamma   90.00038588
_symmetry_Int_Tables_number   1
_chemical_formula_structural   Cs27Sn14Pb13I81
_chemical_formula_sum   'Cs27 Sn14 Pb13 I81'
_cell_volume   6832.16939813
_cell_formula_units_Z   1
loop_
 _symmetry_equiv_pos_site_id
 _symmetry_equiv_pos_as_xyz
  1  'x, y, z'
loop_
 _atom_site_type_symbol
 _atom_site_label
 _atom_site_symmetry_multiplicity
 _atom_site_fract_x
 _atom_site_fract_y
 _atom_site_fract_z
 _atom_site_occupancy
  Cs  Cs0  1  -0.00048779  -0.00033470  0.00461452  1
  Cs  Cs1  1  -0.00081023  -0.00189554  0.33091521  1
  Cs  Cs2  1  -0.00051338  0.00073612  0.66393884  1
  Cs  Cs3  1  0.00166753  0.33391484  0.00020867  1
  Cs  Cs4  1  0.00050976  0.33322179  0.33482792  1
  Cs  Cs5  1  -0.00008071  0.33543735  0.66482433  1
  Cs  Cs6  1  0.00053989  0.66507700  -0.00707661  1
  Cs  Cs7  1  0.00029304  0.66934626  0.33194798  1
  Cs  Cs8  1  0.00096569  0.66423650  0.67856850  1
  Cs  Cs9  1  0.33285544  0.00194185  0.00195387  1
  Cs  Cs10  1  0.32910728  -0.00089926  0.33363520  1
  Cs  Cs11  1  0.33526039  -0.00190331  0.66495646  1
  Cs  Cs12  1  0.33534388  0.33145524  -0.00116315  1
  Cs  Cs13  1  0.33248376  0.33512158  0.33331657  1
  Cs  Cs14  1  0.33181540  0.33128490  0.66915228  1
  Cs  Cs15  1  0.33114893  0.66466712  -0.00358641  1
  Cs  Cs16  1  0.33529063  0.66524665  0.33824461  1
  Cs  Cs17  1  0.33262832  0.67758830  0.66542351  1
  Cs  Cs18  1  0.66737352  0.00092580  0.00048837  1
  Cs  Cs19  1  0.67048709  0.00024445  0.33093611  1
  Cs  Cs20  1  0.66461738  0.00084162  0.66839510  1
  Cs  Cs21  1  0.66251147  0.33087095  0.00130739  1
  Cs  Cs22  1  0.66686231  0.33623426  0.33485657  1
  Cs  Cs23  1  0.66827344  0.33239435  0.66394559  1
  Cs  Cs24  1  0.66866180  0.66972393  0.00226316  1
  Cs  Cs25  1  0.66494195  0.66484369  0.33213076  1
  Cs  Cs26  1  0.66701152  0.66886899  0.66627561  1
  Sn  Sn27  1  0.49938606  0.16692257  0.49942247  1
  Sn  Sn28  1  0.50001991  0.16760135  0.83313881  1
  Sn  Sn29  1  0.50069431  0.16591334  0.16745696  1
  Sn  Sn30  1  0.16734380  0.16735654  0.50049563  1
  Sn  Sn31  1  0.50019484  0.49964333  0.83288433  1
  Sn  Sn32  1  0.83424216  0.49970471  0.16671445  1
  Sn  Sn33  1  0.83268153  0.16719226  0.16610772  1
  Sn  Sn34  1  0.16610142  0.49971550  0.16739773  1
  Sn  Sn35  1  0.83347159  0.16694991  0.83407933  1
  Sn  Sn36  1  0.16653615  0.16682708  0.83251116  1
  Sn  Sn37  1  0.50012765  0.83416974  0.16669254  1
  Sn  Sn38  1  0.16658170  0.49966149  0.49959681  1
  Sn  Sn39  1  0.83259694  0.83315316  0.16757302  1
  Sn  Sn40  1  0.83353244  0.83295077  0.49975539  1
  Pb  Pb41  1  0.83075547  0.49722323  0.83574609  1
  Pb  Pb42  1  0.50224684  0.83602766  0.49729967  1
  Pb  Pb43  1  0.49780411  0.49803582  0.50286973  1
  Pb  Pb44  1  0.83325069  0.83593418  0.83398143  1
  Pb  Pb45  1  0.50011635  0.83400934  0.83596012  1
  Pb  Pb46  1  0.16676657  0.83711192  0.83347964  1
  Pb  Pb47  1  0.16876517  0.49793748  0.83300409  1
  Pb  Pb48  1  0.16676174  0.16827155  0.16702790  1
  Pb  Pb49  1  0.16411054  0.83339991  0.49991011  1
  Pb  Pb50  1  0.49993428  0.49993771  0.16544859  1
  Pb  Pb51  1  0.83558035  0.50274639  0.49811822  1
  Pb  Pb52  1  0.16678802  0.83008334  0.16667182  1
  Pb  Pb53  1  0.83353477  0.16563508  0.49962810  1
  I  I54  1  0.16447596  0.00022872  0.16614832  1
  I  I55  1  0.17005992  0.00340543  0.50493071  1
  I  I56  1  0.17003809  0.00569315  0.82818738  1
  I  I57  1  0.16289303  0.33594876  0.16740988  1
  I  I58  1  0.16937561  0.33199356  0.49940496  1
  I  I59  1  0.16551460  0.32962356  0.83282692  1
  I  I60  1  0.16407053  0.66210010  0.17239688  1
  I  I61  1  0.16563309  0.66381662  0.49364180  1
  I  I62  1  0.16864648  0.66620689  0.83315875  1
  I  I63  1  0.50773030  0.00192950  0.16443201  1
  I  I64  1  0.49373939  0.00446497  0.50574068  1
  I  I65  1  0.50033888  0.00417479  0.83173725  1
  I  I66  1  0.50302254  0.33003721  0.16689623  1
  I  I67  1  0.50039098  0.32926914  0.49437166  1
  I  I68  1  0.49953381  0.33036950  0.83755461  1
  I  I69  1  0.50383208  0.66882401  0.16391757  1
  I  I70  1  0.49868643  0.66683930  0.50036576  1
  I  I71  1  0.49865183  0.66424751  0.83686525  1
  I  I72  1  0.82871465  0.00079123  0.16609352  1
  I  I73  1  0.83496505  -0.00189663  0.49326250  1
  I  I74  1  0.83025432  0.00441445  0.83900180  1
  I  I75  1  0.83277964  0.33229684  0.16169052  1
  I  I76  1  0.83210672  0.33332494  0.49911136  1
  I  I77  1  0.83498552  0.32895119  0.83794821  1
  I  I78  1  0.83204629  0.66708501  0.17264354  1
  I  I79  1  0.83347653  0.67038024  0.49268092  1
  I  I80  1  0.83225523  0.66641827  0.83379276  1
  I  I81  1  0.16899374  0.16854909  -0.00207351  1
  I  I82  1  0.16976586  0.16890866  0.33583899  1
  I  I83  1  0.16897246  0.17209253  0.66640620  1
  I  I84  1  0.16380059  0.49913128  0.00226647  1
  I  I85  1  0.16364160  0.49270983  0.33315682  1
  I  I86  1  0.16803015  0.49617828  0.66417057  1
  I  I87  1  0.16454863  0.83285963  0.00036448  1
  I  I88  1  0.16757475  0.83905466  0.33316513  1
  I  I89  1  0.16399362  0.82824492  0.66649350  1
  I  I90  1  0.50048288  0.16677779  0.00017333  1
  I  I91  1  0.50026269  0.16221067  0.33243712  1
  I  I92  1  0.49992651  0.17177569  0.66731079  1
  I  I93  1  0.49795816  0.49248066  -0.00204996  1
  I  I94  1  0.50088784  0.49893671  0.33338021  1
  I  I95  1  0.49908523  0.49192925  0.67045518  1
  I  I96  1  0.50766823  0.83927095  0.00389450  1
  I  I97  1  0.50229314  0.83779351  0.32937757  1
  I  I98  1  0.50118474  0.83366734  0.66647735  1
  I  I99  1  0.83057362  0.16483980  0.00119471  1
  I  I100  1  0.83042472  0.16749645  0.33004672  1
  I  I101  1  0.83079916  0.16370362  0.66895532  1
  I  I102  1  0.84010627  0.50491036  0.00412982  1
  I  I103  1  0.83296452  0.49359753  0.32945793  1
  I  I104  1  0.83435081  0.50051720  0.66689779  1
  I  I105  1  0.82912013  0.83248980  0.00378437  1
  I  I106  1  0.83043009  0.83726286  0.33104813  1
  I  I107  1  0.83512010  0.83701241  0.66439922  1
  I  I108  1  -0.00281482  0.16423373  0.16375702  1
  I  I109  1  0.00257297  0.16873117  0.50339669  1
  I  I110  1  -0.00012982  0.16544392  0.83388323  1
  I  I111  1  -0.00072349  0.49836219  0.16995356  1
  I  I112  1  0.00341345  0.49117888  0.49865012  1
  I  I113  1  0.00002595  0.49875086  0.83250393  1
  I  I114  1  -0.00346051  0.83813146  0.17045606  1
  I  I115  1  -0.00336765  0.83800064  0.49077438  1
  I  I116  1  -0.00026544  0.83370706  0.83569817  1
  I  I117  1  0.33617734  0.16417078  0.16386192  1
  I  I118  1  0.33341203  0.16981348  0.50257142  1
  I  I119  1  0.33418536  0.17091167  0.83408998  1
  I  I120  1  0.33116138  0.49845218  0.16841195  1
  I  I121  1  0.32991774  0.49771580  0.49128984  1
  I  I122  1  0.33614187  0.49156937  0.83803085  1
  I  I123  1  0.33631880  0.83944755  0.16487660  1
  I  I124  1  0.33342213  0.83204119  0.49893810  1
  I  I125  1  0.33368634  0.83419077  0.83528769  1
  I  I126  1  0.66677683  0.16742707  0.16350220  1
  I  I127  1  0.66422127  0.16397195  0.50238142  1
  I  I128  1  0.66597364  0.16969907  0.83469613  1
  I  I129  1  0.66925748  0.49970371  0.16392349  1
  I  I130  1  0.66661987  0.49876928  0.49904852  1
  I  I131  1  0.66332113  0.49247954  0.83601601  1
  I  I132  1  0.66772359  0.83309284  0.16988576  1
  I  I133  1  0.66986246  0.83597530  0.49717440  1
  I  I134  1  0.66670867  0.83538268  0.83129729  1
