# generated using pymatgen
data_Cs27Sn13Pb14I81
_symmetry_space_group_name_H-M   'P 1'
_cell_length_a   18.99380721
_cell_length_b   18.99370158
_cell_length_c   18.98370730
_cell_angle_alpha   90.00366217
_cell_angle_beta   89.99792531
_cell_angle_gamma   89.99990253
_symmetry_Int_Tables_number   1
_chemical_formula_structural   Cs27Sn13Pb14I81
_chemical_formula_sum   'Cs27 Sn13 Pb14 I81'
_cell_volume   6848.61360045
_cell_formula_units_Z   1
loop_
 _symmetry_equiv_pos_site_id
 _symmetry_equiv_pos_as_xyz
  1  'x, y, z'
loop_
 _atom_site_type_symbol
 _atom_site_label
 _atom_site_symmetry_multiplicity
 _atom_site_fract_x
 _atom_site_fract_y
 _atom_site_fract_z
 _atom_site_occupancy
  Cs  Cs0  1  0.00044896  0.00113582  0.00246565  1
  Cs  Cs1  1  -0.00012803  0.00014038  0.33242396  1
  Cs  Cs2  1  -0.00001200  -0.00760855  0.66428019  1
  Cs  Cs3  1  -0.00076206  0.33427471  0.00229131  1
  Cs  Cs4  1  0.00380114  0.33107550  0.33136418  1
  Cs  Cs5  1  0.00355454  0.33797740  0.66457502  1
  Cs  Cs6  1  0.00305285  0.66458375  0.00140086  1
  Cs  Cs7  1  -0.00050526  0.66934462  0.33169898  1
  Cs  Cs8  1  -0.01166546  0.66876205  0.66683227  1
  Cs  Cs9  1  0.33403372  -0.00178882  -0.00296543  1
  Cs  Cs10  1  0.33367597  0.00059812  0.33443879  1
  Cs  Cs11  1  0.33460336  0.00026173  0.66728144  1
  Cs  Cs12  1  0.33230495  0.33444884  -0.00100437  1
  Cs  Cs13  1  0.33338135  0.33315287  0.33624256  1
  Cs  Cs14  1  0.33156300  0.33350867  0.66586704  1
  Cs  Cs15  1  0.33367325  0.66703853  0.00063878  1
  Cs  Cs16  1  0.33732808  0.66601032  0.33218425  1
  Cs  Cs17  1  0.33263078  0.66588134  0.66855120  1
  Cs  Cs18  1  0.66274515  0.00536916  -0.00780382  1
  Cs  Cs19  1  0.66656457  0.00144661  0.33446683  1
  Cs  Cs20  1  0.66573094  -0.00021886  0.66916920  1
  Cs  Cs21  1  0.67066981  0.32911742  -0.00376718  1
  Cs  Cs22  1  0.66282094  0.33061267  0.33336807  1
  Cs  Cs23  1  0.66848309  0.33466781  0.67118318  1
  Cs  Cs24  1  0.66128892  0.66718781  0.00228181  1
  Cs  Cs25  1  0.66290220  0.66567908  0.33367221  1
  Cs  Cs26  1  0.68248871  0.66461424  0.66362253  1
  Sn  Sn27  1  0.49891661  0.16663011  0.16695575  1
  Sn  Sn28  1  0.16643884  0.50000504  0.16639882  1
  Sn  Sn29  1  0.16793409  0.16658731  0.16597799  1
  Sn  Sn30  1  0.49928871  0.83361244  0.50027433  1
  Sn  Sn31  1  0.16775670  0.83283758  0.49918396  1
  Sn  Sn32  1  0.16644751  0.83331222  0.16755101  1
  Sn  Sn33  1  0.83265740  0.16692417  0.49996079  1
  Sn  Sn34  1  0.16643168  0.16718525  0.83395019  1
  Sn  Sn35  1  0.49929513  0.50044183  0.83306168  1
  Sn  Sn36  1  0.16752359  0.49936183  0.83397201  1
  Sn  Sn37  1  0.83334048  0.83291438  0.16646059  1
  Sn  Sn38  1  0.50080710  0.16596560  0.49960295  1
  Sn  Sn39  1  0.83368810  0.50078756  0.16699422  1
  Pb  Pb40  1  0.49994641  0.49986312  0.50276543  1
  Pb  Pb41  1  0.49776509  0.16829053  0.83272346  1
  Pb  Pb42  1  0.16657784  0.83271084  0.83372763  1
  Pb  Pb43  1  0.83348373  0.49702671  0.49636342  1
  Pb  Pb44  1  0.50006603  0.83023017  0.82967013  1
  Pb  Pb45  1  0.16664550  0.50335347  0.49994879  1
  Pb  Pb46  1  0.83300641  0.83514838  0.49751592  1
  Pb  Pb47  1  0.83719162  0.16670466  0.83014260  1
  Pb  Pb48  1  0.83424553  0.49997309  0.83632028  1
  Pb  Pb49  1  0.49992471  0.83574111  0.16798755  1
  Pb  Pb50  1  0.83338775  0.83360258  0.83749008  1
  Pb  Pb51  1  0.83347235  0.16648977  0.16770429  1
  Pb  Pb52  1  0.16705385  0.16489516  0.50013001  1
  Pb  Pb53  1  0.49977672  0.49736198  0.16512356  1
  I  I54  1  0.16550916  0.00017609  0.16708940  1
  I  I55  1  0.16692928  -0.00274722  0.49544714  1
  I  I56  1  0.16674180  0.00249533  0.83686547  1
  I  I57  1  0.16540935  0.33319393  0.16213029  1
  I  I58  1  0.16682254  0.33331971  0.49786097  1
  I  I59  1  0.17025200  0.33365257  0.84115458  1
  I  I60  1  0.16138808  0.66652769  0.16637516  1
  I  I61  1  0.17279571  0.67121607  0.49510046  1
  I  I62  1  0.17124919  0.66341094  0.83767715  1
  I  I63  1  0.49617724  0.00362414  0.16832581  1
  I  I64  1  0.49924106  0.00090372  0.49510650  1
  I  I65  1  0.49884702  0.00013142  0.83539230  1
  I  I66  1  0.49611629  0.32961927  0.17341110  1
  I  I67  1  0.50344058  0.32997249  0.49618634  1
  I  I68  1  0.49683838  0.33588434  0.83258492  1
  I  I69  1  0.49869829  0.66661213  0.16737790  1
  I  I70  1  0.49432173  0.66965224  0.49971804  1
  I  I71  1  0.49059602  0.66274299  0.83601639  1
  I  I72  1  0.83863795  -0.00223412  0.17020962  1
  I  I73  1  0.83318194  0.00260427  0.49564065  1
  I  I74  1  0.83436035  0.00040106  0.83601500  1
  I  I75  1  0.83744330  0.33543678  0.16793544  1
  I  I76  1  0.82717712  0.32939089  0.49786263  1
  I  I77  1  0.83075597  0.33329121  0.83575021  1
  I  I78  1  0.84276070  0.66671370  0.16678055  1
  I  I79  1  0.83323259  0.66683930  0.50212197  1
  I  I80  1  0.83540578  0.66650963  0.82784819  1
  I  I81  1  0.17176900  0.16515060  0.00205512  1
  I  I82  1  0.16700887  0.16915876  0.33033672  1
  I  I83  1  0.16657378  0.17093286  0.66898918  1
  I  I84  1  0.16647955  0.50073359  0.00133848  1
  I  I85  1  0.16232815  0.49618527  0.32971284  1
  I  I86  1  0.17194723  0.49408173  0.66977917  1
  I  I87  1  0.16196147  0.83378684  0.00363343  1
  I  I88  1  0.16607239  0.83459363  0.33179516  1
  I  I89  1  0.17153085  0.83606125  0.66390705  1
  I  I90  1  0.49825547  0.16794638  0.00243554  1
  I  I91  1  0.49765455  0.16449908  0.33336168  1
  I  I92  1  0.50237227  0.16341537  0.66358719  1
  I  I93  1  0.49751371  0.49780914  -0.00249482  1
  I  I94  1  0.49991110  0.50053655  0.33329458  1
  I  I95  1  0.49088431  0.49735632  0.67037008  1
  I  I96  1  0.50036825  0.83482913  -0.00005493  1
  I  I97  1  0.49798675  0.83496924  0.33600770  1
  I  I98  1  0.49155969  0.84262088  0.66183364  1
  I  I99  1  0.83020570  0.16654276  0.00013332  1
  I  I100  1  0.83389480  0.16645279  0.33546805  1
  I  I101  1  0.82625991  0.16521797  0.66247562  1
  I  I102  1  0.83599974  0.50200274  0.00401248  1
  I  I103  1  0.84039031  0.50430791  0.32874601  1
  I  I104  1  0.83365255  0.49960414  0.66670585  1
  I  I105  1  0.84217671  0.83056478  0.00553391  1
  I  I106  1  0.83696656  0.82995549  0.32995519  1
  I  I107  1  0.83454691  0.83396652  0.66616468  1
  I  I108  1  0.00318882  0.16682083  0.16525616  1
  I  I109  1  -0.00134452  0.16513164  0.49884585  1
  I  I110  1  0.00495552  0.17314998  0.84022533  1
  I  I111  1  0.00200151  0.49843832  0.16127262  1
  I  I112  1  0.00018362  0.49880316  0.50551050  1
  I  I113  1  0.00361176  0.49565318  0.83582982  1
  I  I114  1  0.00208070  0.83479505  0.17271671  1
  I  I115  1  0.00236003  0.83570955  0.49829798  1
  I  I116  1  0.00041996  0.83194309  0.82558532  1
  I  I117  1  0.33193202  0.16687934  0.16941414  1
  I  I118  1  0.33578889  0.16398319  0.49834936  1
  I  I119  1  0.32996813  0.16892593  0.83356526  1
  I  I120  1  0.33001485  0.50254262  0.16431712  1
  I  I121  1  0.33318810  0.49590979  0.49551240  1
  I  I122  1  0.33140977  0.49601193  0.83919574  1
  I  I123  1  0.33011431  0.83095765  0.16887582  1
  I  I124  1  0.33288754  0.83972024  0.49357478  1
  I  I125  1  0.33323536  0.83490664  0.83734965  1
  I  I126  1  0.66439190  0.16718167  0.17024327  1
  I  I127  1  0.66497689  0.16101430  0.49216049  1
  I  I128  1  0.66656719  0.16868325  0.83663768  1
  I  I129  1  0.66897941  0.50399847  0.16584228  1
  I  I130  1  0.66667403  0.50499929  0.50060015  1
  I  I131  1  0.66451212  0.49974202  0.83345687  1
  I  I132  1  0.66902102  0.82836098  0.16935266  1
  I  I133  1  0.66406059  0.83605348  0.49879422  1
  I  I134  1  0.66647755  0.83183201  0.83343378  1
