# generated using pymatgen
data_Cs27Sn14Pb13I81
_symmetry_space_group_name_H-M   'P 1'
_cell_length_a   18.97431690
_cell_length_b   18.97335205
_cell_length_c   18.97868763
_cell_angle_alpha   89.99992727
_cell_angle_beta   89.99853122
_cell_angle_gamma   89.99887257
_symmetry_Int_Tables_number   1
_chemical_formula_structural   Cs27Sn14Pb13I81
_chemical_formula_sum   'Cs27 Sn14 Pb13 I81'
_cell_volume   6832.44890236
_cell_formula_units_Z   1
loop_
 _symmetry_equiv_pos_site_id
 _symmetry_equiv_pos_as_xyz
  1  'x, y, z'
loop_
 _atom_site_type_symbol
 _atom_site_label
 _atom_site_symmetry_multiplicity
 _atom_site_fract_x
 _atom_site_fract_y
 _atom_site_fract_z
 _atom_site_occupancy
  Cs  Cs0  1  -0.00002795  -0.00100230  -0.00081010  1
  Cs  Cs1  1  -0.00296648  -0.00016248  0.33616710  1
  Cs  Cs2  1  -0.00339717  0.00159458  0.66577122  1
  Cs  Cs3  1  -0.00319196  0.33543904  -0.00089785  1
  Cs  Cs4  1  0.00100025  0.33206905  0.33800770  1
  Cs  Cs5  1  0.00306014  0.32991244  0.66252539  1
  Cs  Cs6  1  0.00069235  0.66636145  0.00066991  1
  Cs  Cs7  1  0.00086973  0.66842983  0.33088271  1
  Cs  Cs8  1  0.00155217  0.66911333  0.66847317  1
  Cs  Cs9  1  0.33509480  0.00505603  -0.00030792  1
  Cs  Cs10  1  0.33657149  -0.00150261  0.33066534  1
  Cs  Cs11  1  0.33549164  -0.00053308  0.67147505  1
  Cs  Cs12  1  0.33256270  0.32081099  0.00144427  1
  Cs  Cs13  1  0.33247012  0.33305471  0.33527494  1
  Cs  Cs14  1  0.33283955  0.33520124  0.66409886  1
  Cs  Cs15  1  0.32959716  0.66944911  0.00202193  1
  Cs  Cs16  1  0.33333046  0.66663190  0.33311600  1
  Cs  Cs17  1  0.33469252  0.66507997  0.66573135  1
  Cs  Cs18  1  0.66607109  0.00026151  0.00004621  1
  Cs  Cs19  1  0.66698911  -0.00003423  0.33528463  1
  Cs  Cs20  1  0.66922854  -0.00072179  0.66401353  1
  Cs  Cs21  1  0.66967942  0.33465562  -0.00219244  1
  Cs  Cs22  1  0.66644342  0.33428423  0.33227726  1
  Cs  Cs23  1  0.66443533  0.34099153  0.66736401  1
  Cs  Cs24  1  0.66806871  0.66457779  -0.00087954  1
  Cs  Cs25  1  0.66621501  0.66755924  0.33209738  1
  Cs  Cs26  1  0.66344647  0.66281034  0.66847239  1
  Sn  Sn27  1  0.83326774  0.16590690  0.83394490  1
  Sn  Sn28  1  0.16690429  0.50055260  0.83445596  1
  Sn  Sn29  1  0.16593460  0.83271686  0.83354984  1
  Sn  Sn30  1  0.83327808  0.83415393  0.16580860  1
  Sn  Sn31  1  0.16786123  0.50037574  0.16559928  1
  Sn  Sn32  1  0.83380433  0.83387240  0.83422835  1
  Sn  Sn33  1  0.49870554  0.50062741  0.16615760  1
  Sn  Sn34  1  0.49917358  0.83416649  0.49943323  1
  Sn  Sn35  1  0.83366067  0.50061256  0.49988487  1
  Sn  Sn36  1  0.83355156  0.16580459  0.16617399  1
  Sn  Sn37  1  0.49988941  0.16586398  0.50005716  1
  Sn  Sn38  1  0.49994745  0.83252282  0.16710349  1
  Sn  Sn39  1  0.16678553  0.83310488  0.16655332  1
  Sn  Sn40  1  0.16751622  0.83345260  0.49999631  1
  Pb  Pb41  1  0.49993845  0.83315246  0.83381008  1
  Pb  Pb42  1  0.50313907  0.16666245  0.83052775  1
  Pb  Pb43  1  0.16951985  0.16323238  0.49989773  1
  Pb  Pb44  1  0.49627819  0.50020202  0.83703705  1
  Pb  Pb45  1  0.50126756  0.50090036  0.49779639  1
  Pb  Pb46  1  0.16447153  0.16630628  0.83336021  1
  Pb  Pb47  1  0.16521341  0.50236796  0.49954161  1
  Pb  Pb48  1  0.83567619  0.50052111  0.83121897  1
  Pb  Pb49  1  0.83397912  0.50044489  0.16782223  1
  Pb  Pb50  1  0.83288748  0.83183603  0.50022433  1
  Pb  Pb51  1  0.83135679  0.16887522  0.50023716  1
  Pb  Pb52  1  0.50238356  0.16647667  0.16796283  1
  Pb  Pb53  1  0.16398558  0.16641507  0.16683724  1
  I  I54  1  0.16969605  -0.00401977  0.16563227  1
  I  I55  1  0.16457988  -0.00518482  0.49905521  1
  I  I56  1  0.16493170  -0.00386000  0.83414705  1
  I  I57  1  0.16995992  0.33659380  0.16198256  1
  I  I58  1  0.16599315  0.33351645  0.50051062  1
  I  I59  1  0.16511309  0.33624248  0.83834871  1
  I  I60  1  0.16491757  0.66826231  0.16635004  1
  I  I61  1  0.17213632  0.67055487  0.49960494  1
  I  I62  1  0.15986593  0.66852301  0.83452192  1
  I  I63  1  0.49765779  -0.00348498  0.16886350  1
  I  I64  1  0.49783540  -0.00207518  0.49323447  1
  I  I65  1  0.49485645  -0.00030344  0.83756591  1
  I  I66  1  0.49713418  0.33585569  0.16904375  1
  I  I67  1  0.50513905  0.33172672  0.49852279  1
  I  I68  1  0.50113224  0.33355453  0.83234028  1
  I  I69  1  0.50174224  0.66853438  0.17323546  1
  I  I70  1  0.49752645  0.66998790  0.49748353  1
  I  I71  1  0.50723627  0.66680121  0.82684190  1
  I  I72  1  0.83323664  -0.00203036  0.16418671  1
  I  I73  1  0.83476799  -0.00029161  0.49999908  1
  I  I74  1  0.83932246  -0.00156503  0.83625437  1
  I  I75  1  0.83223104  0.33129915  0.16458974  1
  I  I76  1  0.83192572  0.33621209  0.49864803  1
  I  I77  1  0.83373649  0.33108115  0.83688590  1
  I  I78  1  0.83336853  0.67006491  0.16424446  1
  I  I79  1  0.83177121  0.66464136  0.49859732  1
  I  I80  1  0.83557238  0.66990737  0.83717703  1
  I  I81  1  0.16992807  0.16308814  0.00016433  1
  I  I82  1  0.16184536  0.16851357  0.33332428  1
  I  I83  1  0.16317763  0.16780971  0.66659699  1
  I  I84  1  0.16808410  0.50982369  0.00096938  1
  I  I85  1  0.16834497  0.50465381  0.33015231  1
  I  I86  1  0.16222506  0.50465650  0.66890261  1
  I  I87  1  0.16474743  0.82857976  0.00062235  1
  I  I88  1  0.16634815  0.82934539  0.33212257  1
  I  I89  1  0.16564214  0.82948849  0.66726973  1
  I  I90  1  0.49929004  0.16657288  0.00012983  1
  I  I91  1  0.50391215  0.16403436  0.33565278  1
  I  I92  1  0.50183216  0.15907196  0.66268718  1
  I  I93  1  0.50302653  0.50795710  0.00488180  1
  I  I94  1  0.49470662  0.50212187  0.32997802  1
  I  I95  1  0.50127699  0.49947034  0.66666627  1
  I  I96  1  0.49878859  0.82908031  0.00362854  1
  I  I97  1  0.49762115  0.83355196  0.33240616  1
  I  I98  1  0.49769538  0.83765995  0.66383781  1
  I  I99  1  0.83293056  0.16296792  0.00035296  1
  I  I100  1  0.83226971  0.16260153  0.33082119  1
  I  I101  1  0.83302943  0.16198351  0.66932829  1
  I  I102  1  0.83123570  0.49878870  -0.00000462  1
  I  I103  1  0.83457394  0.50040014  0.33522638  1
  I  I104  1  0.83362897  0.50052672  0.66390987  1
  I  I105  1  0.83612061  0.83634298  0.00085245  1
  I  I106  1  0.83573643  0.83564601  0.33042223  1
  I  I107  1  0.83727947  0.83607727  0.66928687  1
  I  I108  1  -0.00403970  0.16277708  0.16390679  1
  I  I109  1  -0.00025830  0.16733045  0.50008367  1
  I  I110  1  -0.00349698  0.16458216  0.83642399  1
  I  I111  1  0.00291401  0.50405035  0.16453651  1
  I  I112  1  -0.00233974  0.50095821  0.49719121  1
  I  I113  1  0.00325512  0.50286487  0.84051882  1
  I  I114  1  0.00037022  0.83249155  0.16683259  1
  I  I115  1  0.00226572  0.82952263  0.49737024  1
  I  I116  1  0.00024860  0.83314738  0.83590827  1
  I  I117  1  0.33347074  0.16516784  0.16835562  1
  I  I118  1  0.33728273  0.16742969  0.49796176  1
  I  I119  1  0.33330919  0.16658937  0.83208422  1
  I  I120  1  0.33261120  0.50952046  0.16521853  1
  I  I121  1  0.33319823  0.49759650  0.50202006  1
  I  I122  1  0.32846710  0.50908554  0.83099781  1
  I  I123  1  0.33300652  0.82796755  0.16845685  1
  I  I124  1  0.33331855  0.83599478  0.49647956  1
  I  I125  1  0.32996627  0.82847157  0.83438385  1
  I  I126  1  0.67019645  0.16282340  0.16424783  1
  I  I127  1  0.66397965  0.15845265  0.49893081  1
  I  I128  1  0.67113261  0.15987800  0.83791599  1
  I  I129  1  0.66487933  0.50334448  0.17142614  1
  I  I130  1  0.66899800  0.50199327  0.49830162  1
  I  I131  1  0.66680355  0.49962867  0.83248916  1
  I  I132  1  0.66670822  0.83303989  0.16813468  1
  I  I133  1  0.66407648  0.83540970  0.49593307  1
  I  I134  1  0.66979713  0.83800908  0.83582131  1
