# generated using pymatgen
data_Cs27Sn14Pb13I81
_symmetry_space_group_name_H-M   'P 1'
_cell_length_a   19.00853605
_cell_length_b   19.00814797
_cell_length_c   18.99998410
_cell_angle_alpha   89.99936727
_cell_angle_beta   89.99756346
_cell_angle_gamma   89.99978522
_symmetry_Int_Tables_number   1
_chemical_formula_structural   Cs27Sn14Pb13I81
_chemical_formula_sum   'Cs27 Sn14 Pb13 I81'
_cell_volume   6865.01849872
_cell_formula_units_Z   1
loop_
 _symmetry_equiv_pos_site_id
 _symmetry_equiv_pos_as_xyz
  1  'x, y, z'
loop_
 _atom_site_type_symbol
 _atom_site_label
 _atom_site_symmetry_multiplicity
 _atom_site_fract_x
 _atom_site_fract_y
 _atom_site_fract_z
 _atom_site_occupancy
  Cs  Cs0  1  -0.00014292  -0.00600827  -0.00126791  1
  Cs  Cs1  1  -0.00170684  -0.00239227  0.33410583  1
  Cs  Cs2  1  0.00042170  0.00353397  0.66480722  1
  Cs  Cs3  1  0.00089307  0.33205259  -0.00005129  1
  Cs  Cs4  1  -0.00026297  0.33215253  0.33339175  1
  Cs  Cs5  1  0.00059552  0.33396829  0.67014310  1
  Cs  Cs6  1  0.00365211  0.67056981  -0.00847520  1
  Cs  Cs7  1  0.00222863  0.66878642  0.33489603  1
  Cs  Cs8  1  -0.00492666  0.66388303  0.67094960  1
  Cs  Cs9  1  0.32933250  -0.00327004  -0.00600762  1
  Cs  Cs10  1  0.33142166  -0.00116898  0.33732104  1
  Cs  Cs11  1  0.34434955  0.01288518  0.67052783  1
  Cs  Cs12  1  0.33499942  0.33548826  0.00077632  1
  Cs  Cs13  1  0.33207998  0.33537511  0.33293406  1
  Cs  Cs14  1  0.33014943  0.32391200  0.66808052  1
  Cs  Cs15  1  0.32872323  0.66581221  0.00203525  1
  Cs  Cs16  1  0.33214475  0.66588164  0.33243717  1
  Cs  Cs17  1  0.33601044  0.66798066  0.66454362  1
  Cs  Cs18  1  0.66929266  0.00137512  -0.00098148  1
  Cs  Cs19  1  0.66968653  -0.00176565  0.33347488  1
  Cs  Cs20  1  0.65916725  -0.00189316  0.66890431  1
  Cs  Cs21  1  0.66407988  0.33161605  0.00602717  1
  Cs  Cs22  1  0.66818573  0.33610557  0.32883157  1
  Cs  Cs23  1  0.67020980  0.33514035  0.66792782  1
  Cs  Cs24  1  0.66603156  0.66667988  0.00012657  1
  Cs  Cs25  1  0.66575392  0.66592652  0.33423536  1
  Cs  Cs26  1  0.67037310  0.66912827  0.66943311  1
  Sn  Sn27  1  0.83412570  0.83405572  0.49922768  1
  Sn  Sn28  1  0.49835914  0.16583191  0.16729812  1
  Sn  Sn29  1  0.16626282  0.49928653  0.16762079  1
  Sn  Sn30  1  0.49984128  0.50002788  0.83287697  1
  Sn  Sn31  1  0.50053484  0.83349599  0.16704270  1
  Sn  Sn32  1  0.83266511  0.83176646  0.16754531  1
  Sn  Sn33  1  0.16764777  0.16710520  0.16705604  1
  Sn  Sn34  1  0.49980528  0.50050108  0.16709739  1
  Sn  Sn35  1  0.16731092  0.50095388  0.49927418  1
  Sn  Sn36  1  0.83425412  0.50164040  0.16673145  1
  Sn  Sn37  1  0.83302602  0.16581080  0.50099600  1
  Sn  Sn38  1  0.49906842  0.49979172  0.50022076  1
  Sn  Sn39  1  0.83319904  0.16680333  0.83210370  1
  Sn  Sn40  1  0.16641965  0.83282707  0.50029386  1
  Pb  Pb41  1  0.83329889  0.83537237  0.83299165  1
  Pb  Pb42  1  0.50008671  0.83134941  0.49810694  1
  Pb  Pb43  1  0.50200925  0.16907498  0.83629989  1
  Pb  Pb44  1  0.16439329  0.16677447  0.83660871  1
  Pb  Pb45  1  0.16927185  0.50008345  0.83278816  1
  Pb  Pb46  1  0.16696154  0.83332639  0.82807115  1
  Pb  Pb47  1  0.83384132  0.50048697  0.49823213  1
  Pb  Pb48  1  0.49991926  0.83074040  0.83640338  1
  Pb  Pb49  1  0.16484325  0.16695531  0.49795591  1
  Pb  Pb50  1  0.50268428  0.16951368  0.49723880  1
  Pb  Pb51  1  0.83368375  0.16613689  0.16704118  1
  Pb  Pb52  1  0.16661624  0.83303559  0.16786912  1
  Pb  Pb53  1  0.83118273  0.49798666  0.83684395  1
  I  I54  1  0.16872436  0.00206142  0.16836987  1
  I  I55  1  0.16119453  -0.00242152  0.49523484  1
  I  I56  1  0.16624968  0.00012560  0.83742603  1
  I  I57  1  0.16890386  0.33512265  0.17247998  1
  I  I58  1  0.17006415  0.33640383  0.49675279  1
  I  I59  1  0.16537305  0.33346438  0.82829739  1
  I  I60  1  0.17007989  0.66362056  0.16902899  1
  I  I61  1  0.16489899  0.66556250  0.49085591  1
  I  I62  1  0.16578185  0.66646883  0.84175915  1
  I  I63  1  0.50274559  -0.00005062  0.16808356  1
  I  I64  1  0.49731546  0.00009871  0.49776832  1
  I  I65  1  0.50048290  0.00027473  0.83421318  1
  I  I66  1  0.50136620  0.33499746  0.16626639  1
  I  I67  1  0.49482041  0.33744653  0.49585754  1
  I  I68  1  0.50123116  0.33659477  0.83755841  1
  I  I69  1  0.50140805  0.66511495  0.16676091  1
  I  I70  1  0.50156927  0.66322329  0.49554925  1
  I  I71  1  0.50190891  0.66276489  0.83609770  1
  I  I72  1  0.82968420  -0.00255127  0.16729714  1
  I  I73  1  0.84017339  -0.00103929  0.49500672  1
  I  I74  1  0.83250705  0.00296836  0.83777969  1
  I  I75  1  0.82980304  0.33556471  0.16708913  1
  I  I76  1  0.83226386  0.33160050  0.50083564  1
  I  I77  1  0.83291871  0.33062901  0.82728969  1
  I  I78  1  0.82811798  0.66664769  0.17360977  1
  I  I79  1  0.83354554  0.66910704  0.49547019  1
  I  I80  1  0.83223414  0.66661509  0.83107658  1
  I  I81  1  0.16861884  0.17478542  0.00483406  1
  I  I82  1  0.16780994  0.16990902  0.33017677  1
  I  I83  1  0.16650694  0.16664835  0.66651413  1
  I  I84  1  0.16728655  0.49522648  0.00344431  1
  I  I85  1  0.17230864  0.49973646  0.33205442  1
  I  I86  1  0.17041512  0.50539373  0.66294197  1
  I  I87  1  0.16602003  0.83375745  0.00020264  1
  I  I88  1  0.16453173  0.83135990  0.33554569  1
  I  I89  1  0.15658642  0.82318914  0.66049856  1
  I  I90  1  0.50059502  0.17070372  0.00437325  1
  I  I91  1  0.49975476  0.17073596  0.32938244  1
  I  I92  1  0.49922941  0.16825671  0.66654185  1
  I  I93  1  0.50177091  0.49896083  0.00263066  1
  I  I94  1  0.49968396  0.49995267  0.33141151  1
  I  I95  1  0.49549108  0.50061801  0.66579530  1
  I  I96  1  0.50766770  0.83173670  0.00519535  1
  I  I97  1  0.50236525  0.82974669  0.32988319  1
  I  I98  1  0.50052424  0.83051356  0.66645853  1
  I  I99  1  0.83202891  0.16907982  -0.00112897  1
  I  I100  1  0.83333359  0.16559747  0.33514102  1
  I  I101  1  0.83414799  0.16169560  0.66546608  1
  I  I102  1  0.83305012  0.50328310  0.00528137  1
  I  I103  1  0.82730511  0.49738763  0.33007865  1
  I  I104  1  0.83214299  0.50177169  0.66680288  1
  I  I105  1  0.82840318  0.83126794  0.00326931  1
  I  I106  1  0.83280759  0.83670052  0.33273357  1
  I  I107  1  0.83891439  0.83426326  0.66313994  1
  I  I108  1  0.00198382  0.17207279  0.16704677  1
  I  I109  1  -0.00302184  0.16832597  0.49928073  1
  I  I110  1  -0.00337169  0.16823688  0.83185855  1
  I  I111  1  0.00047768  0.49688245  0.17386073  1
  I  I112  1  0.00254873  0.49999136  0.49247774  1
  I  I113  1  -0.00002404  0.49908054  0.83382813  1
  I  I114  1  -0.00275969  0.83180747  0.16898071  1
  I  I115  1  -0.00091488  0.83154220  0.49083257  1
  I  I116  1  -0.00019784  0.83286412  0.84243039  1
  I  I117  1  0.33395497  0.17231354  0.16761231  1
  I  I118  1  0.33348010  0.16316602  0.50118398  1
  I  I119  1  0.33354506  0.16687535  0.83150171  1
  I  I120  1  0.33410137  0.49916678  0.16671134  1
  I  I121  1  0.33309948  0.50669986  0.49251197  1
  I  I122  1  0.33680272  0.49932418  0.84163542  1
  I  I123  1  0.33581338  0.82996593  0.16810029  1
  I  I124  1  0.33084480  0.82808788  0.49550642  1
  I  I125  1  0.33348212  0.83347520  0.83644775  1
  I  I126  1  0.66465613  0.17111843  0.16663329  1
  I  I127  1  0.67028455  0.16098355  0.50026616  1
  I  I128  1  0.66953524  0.16741353  0.83232690  1
  I  I129  1  0.66561340  0.49854652  0.16731479  1
  I  I130  1  0.66433358  0.49867705  0.49673150  1
  I  I131  1  0.66356252  0.49916765  0.83330797  1
  I  I132  1  0.66726124  0.82982004  0.17293968  1
  I  I133  1  0.66948186  0.83615856  0.49684112  1
  I  I134  1  0.66670507  0.83305390  0.82838529  1
