# generated using pymatgen
data_Cs27Sn14Pb13I81
_symmetry_space_group_name_H-M   'P 1'
_cell_length_a   18.96299400
_cell_length_b   18.98218349
_cell_length_c   18.98254728
_cell_angle_alpha   90.00028150
_cell_angle_beta   90.00054411
_cell_angle_gamma   90.00050262
_symmetry_Int_Tables_number   1
_chemical_formula_structural   Cs27Sn14Pb13I81
_chemical_formula_sum   'Cs27 Sn14 Pb13 I81'
_cell_volume   6832.93933934
_cell_formula_units_Z   1
loop_
 _symmetry_equiv_pos_site_id
 _symmetry_equiv_pos_as_xyz
  1  'x, y, z'
loop_
 _atom_site_type_symbol
 _atom_site_label
 _atom_site_symmetry_multiplicity
 _atom_site_fract_x
 _atom_site_fract_y
 _atom_site_fract_z
 _atom_site_occupancy
  Cs  Cs0  1  -0.00641473  0.00024050  -0.00028087  1
  Cs  Cs1  1  -0.00068548  -0.00109297  0.33623353  1
  Cs  Cs2  1  0.00436831  0.00208820  0.66342504  1
  Cs  Cs3  1  0.00590474  0.33566559  0.00062129  1
  Cs  Cs4  1  0.00475309  0.34149507  0.34092661  1
  Cs  Cs5  1  0.00612185  0.33173698  0.65975633  1
  Cs  Cs6  1  -0.00172907  0.66364792  0.00310870  1
  Cs  Cs7  1  0.00122517  0.66226971  0.33220216  1
  Cs  Cs8  1  0.00888541  0.66658186  0.66538353  1
  Cs  Cs9  1  0.33039521  0.00138007  0.00090370  1
  Cs  Cs10  1  0.33304971  0.00104300  0.33064138  1
  Cs  Cs11  1  0.32779310  -0.00273590  0.66842338  1
  Cs  Cs12  1  0.32783586  0.33015204  0.00223745  1
  Cs  Cs13  1  0.33333152  0.32954973  0.32776422  1
  Cs  Cs14  1  0.33332571  0.33449694  0.66856137  1
  Cs  Cs15  1  0.33390284  0.66803020  -0.00264003  1
  Cs  Cs16  1  0.33656684  0.66799527  0.33508719  1
  Cs  Cs17  1  0.33049802  0.66876077  0.66780646  1
  Cs  Cs18  1  0.66799423  0.00002441  -0.00079701  1
  Cs  Cs19  1  0.66610307  -0.00107371  0.33242891  1
  Cs  Cs20  1  0.66690690  0.00101743  0.66788550  1
  Cs  Cs21  1  0.66650148  0.33197820  -0.00300653  1
  Cs  Cs22  1  0.66588524  0.33483962  0.33650979  1
  Cs  Cs23  1  0.66672839  0.33255740  0.66730133  1
  Cs  Cs24  1  0.66674123  0.66734757  -0.00072209  1
  Cs  Cs25  1  0.66581663  0.66713418  0.33285863  1
  Cs  Cs26  1  0.66488071  0.66659529  0.66846195  1
  Sn  Sn27  1  0.83297626  0.83309281  0.83276767  1
  Sn  Sn28  1  0.83288800  0.49959968  0.83304737  1
  Sn  Sn29  1  0.50110539  0.83377321  0.49962652  1
  Sn  Sn30  1  0.50072225  0.50054865  0.16605239  1
  Sn  Sn31  1  0.83278873  0.16728220  0.83390620  1
  Sn  Sn32  1  0.50008181  0.83279428  0.16697349  1
  Sn  Sn33  1  0.50057057  0.50004629  0.50031293  1
  Sn  Sn34  1  0.83237802  0.83301357  0.50005644  1
  Sn  Sn35  1  0.50060528  0.16717986  0.83266518  1
  Sn  Sn36  1  0.83328655  0.83391427  0.16703841  1
  Sn  Sn37  1  0.83313007  0.16708360  0.16681307  1
  Sn  Sn38  1  0.50079848  0.49909674  0.83362674  1
  Sn  Sn39  1  0.50058683  0.16607947  0.50114003  1
  Sn  Sn40  1  0.16643745  0.83347255  0.16644275  1
  Pb  Pb41  1  0.16998290  0.50250888  0.16657472  1
  Pb  Pb42  1  0.83129602  0.50272751  0.50291730  1
  Pb  Pb43  1  0.17048365  0.50020374  0.49987636  1
  Pb  Pb44  1  0.16226856  0.16438324  0.16676330  1
  Pb  Pb45  1  0.16262520  0.83339901  0.83618655  1
  Pb  Pb46  1  0.50185622  0.16641782  0.16618428  1
  Pb  Pb47  1  0.17039348  0.16642965  0.49976266  1
  Pb  Pb48  1  0.16621140  0.16657280  0.83348143  1
  Pb  Pb49  1  0.83160724  0.16493821  0.50006072  1
  Pb  Pb50  1  0.50123465  0.83372056  0.83337753  1
  Pb  Pb51  1  0.83134338  0.49960589  0.16503523  1
  Pb  Pb52  1  0.16695288  0.83334393  0.49754091  1
  Pb  Pb53  1  0.16691584  0.50002626  0.83344253  1
  I  I54  1  0.17418212  -0.00367886  0.16677342  1
  I  I55  1  0.16882858  -0.00040785  0.50007659  1
  I  I56  1  0.16972351  -0.00013976  0.83355733  1
  I  I57  1  0.16771882  0.33337157  0.16621296  1
  I  I58  1  0.16487587  0.33337398  0.49925076  1
  I  I59  1  0.16364206  0.33333473  0.83473086  1
  I  I60  1  0.15997042  0.67046481  0.16674977  1
  I  I61  1  0.16813847  0.66700972  0.50022416  1
  I  I62  1  0.16834302  0.66682406  0.83312726  1
  I  I63  1  0.49930539  -0.00314525  0.16997505  1
  I  I64  1  0.50462660  -0.00087817  0.49893684  1
  I  I65  1  0.50494192  0.00252864  0.83087889  1
  I  I66  1  0.50310032  0.33557463  0.16952253  1
  I  I67  1  0.49988515  0.33353394  0.50037731  1
  I  I68  1  0.50798574  0.33359031  0.83005724  1
  I  I69  1  0.50195789  0.66795042  0.16934760  1
  I  I70  1  0.50391626  0.66723457  0.49846756  1
  I  I71  1  0.50430322  0.66429143  0.83209658  1
  I  I72  1  0.83056304  -0.00196948  0.16139039  1
  I  I73  1  0.82672132  -0.00342152  0.50259737  1
  I  I74  1  0.82850522  0.00000185  0.83582367  1
  I  I75  1  0.82840401  0.33072954  0.16052898  1
  I  I76  1  0.83157577  0.33349338  0.49891255  1
  I  I77  1  0.82633185  0.33276653  0.83998121  1
  I  I78  1  0.83432021  0.67004400  0.16553662  1
  I  I79  1  0.82681546  0.67096894  0.49739352  1
  I  I80  1  0.82761570  0.66693886  0.83456338  1
  I  I81  1  0.17305862  0.16570013  0.00021350  1
  I  I82  1  0.16797640  0.16541747  0.33308082  1
  I  I83  1  0.16212005  0.16523133  0.66668615  1
  I  I84  1  0.16951429  0.50144299  0.00006117  1
  I  I85  1  0.16558208  0.50075390  0.33314332  1
  I  I86  1  0.16777346  0.50154861  0.66673746  1
  I  I87  1  0.17067660  0.83311104  0.00388603  1
  I  I88  1  0.16322609  0.83354242  0.32990194  1
  I  I89  1  0.16728935  0.83304568  0.66662387  1
  I  I90  1  0.50287416  0.16942842  -0.00271308  1
  I  I91  1  0.50171848  0.16844619  0.33537936  1
  I  I92  1  0.50635840  0.16940432  0.66728565  1
  I  I93  1  0.50436169  0.50161531  -0.00045923  1
  I  I94  1  0.49928772  0.50181217  0.33341781  1
  I  I95  1  0.50454736  0.49965476  0.66703341  1
  I  I96  1  0.50134795  0.83014233  0.00286719  1
  I  I97  1  0.50406139  0.83047852  0.33295725  1
  I  I98  1  0.50540105  0.83117195  0.66407664  1
  I  I99  1  0.82632625  0.15962143  -0.00104018  1
  I  I100  1  0.83017389  0.15886792  0.33092283  1
  I  I101  1  0.82986849  0.16509491  0.66980073  1
  I  I102  1  0.82593527  0.50537716  -0.00310871  1
  I  I103  1  0.83166594  0.50003004  0.33356469  1
  I  I104  1  0.82568206  0.49913847  0.67100936  1
  I  I105  1  0.83271530  0.83430065  0.00037052  1
  I  I106  1  0.83177414  0.83897728  0.33242583  1
  I  I107  1  0.82542600  0.83333664  0.66672308  1
  I  I108  1  -0.00569082  0.15994821  0.15816868  1
  I  I109  1  -0.00033345  0.16382432  0.50063042  1
  I  I110  1  -0.00425725  0.16549247  0.83891146  1
  I  I111  1  -0.00024098  0.50083946  0.16362256  1
  I  I112  1  -0.00030401  0.50154790  0.50154683  1
  I  I113  1  -0.00359466  0.50122697  0.83569210  1
  I  I114  1  -0.00179195  0.83919372  0.16512266  1
  I  I115  1  -0.00336298  0.83469200  0.50052610  1
  I  I116  1  -0.00593746  0.83387655  0.83197545  1
  I  I117  1  0.33355157  0.16613498  0.16683673  1
  I  I118  1  0.33926384  0.16382664  0.50530153  1
  I  I119  1  0.33704673  0.17170150  0.82934712  1
  I  I120  1  0.33872160  0.50387978  0.16490529  1
  I  I121  1  0.33928649  0.50441055  0.50334492  1
  I  I122  1  0.33775997  0.49587871  0.83267748  1
  I  I123  1  0.33514163  0.82828396  0.17205234  1
  I  I124  1  0.33734499  0.83260431  0.49590647  1
  I  I125  1  0.33329753  0.83288386  0.83325688  1
  I  I126  1  0.66946050  0.15892980  0.16437851  1
  I  I127  1  0.66309181  0.16797940  0.50158375  1
  I  I128  1  0.66684877  0.16717106  0.83337273  1
  I  I129  1  0.66293909  0.50721097  0.16849817  1
  I  I130  1  0.66269862  0.49892426  0.49772143  1
  I  I131  1  0.66565948  0.49976519  0.83360688  1
  I  I132  1  0.66686553  0.83302795  0.16766803  1
  I  I133  1  0.66565671  0.83321883  0.49458397  1
  I  I134  1  0.66962521  0.83346950  0.83806904  1
