# generated using pymatgen
data_Cs27Sn14Pb13I81
_symmetry_space_group_name_H-M   'P 1'
_cell_length_a   18.97142964
_cell_length_b   18.96587598
_cell_length_c   18.98923718
_cell_angle_alpha   89.99906814
_cell_angle_beta   89.99911804
_cell_angle_gamma   89.99892425
_symmetry_Int_Tables_number   1
_chemical_formula_structural   Cs27Sn14Pb13I81
_chemical_formula_sum   'Cs27 Sn14 Pb13 I81'
_cell_volume   6832.51328009
_cell_formula_units_Z   1
loop_
 _symmetry_equiv_pos_site_id
 _symmetry_equiv_pos_as_xyz
  1  'x, y, z'
loop_
 _atom_site_type_symbol
 _atom_site_label
 _atom_site_symmetry_multiplicity
 _atom_site_fract_x
 _atom_site_fract_y
 _atom_site_fract_z
 _atom_site_occupancy
  Cs  Cs0  1  0.00626388  0.00238413  0.00029684  1
  Cs  Cs1  1  0.00026793  0.00013116  0.33609190  1
  Cs  Cs2  1  0.00220055  0.00105708  0.66449506  1
  Cs  Cs3  1  0.00064925  0.33548946  0.00265262  1
  Cs  Cs4  1  -0.00010263  0.33567483  0.33283434  1
  Cs  Cs5  1  -0.00325116  0.33146390  0.66628732  1
  Cs  Cs6  1  -0.00700185  0.66317654  0.00010673  1
  Cs  Cs7  1  0.00038554  0.66390155  0.32909429  1
  Cs  Cs8  1  -0.00009026  0.66727296  0.66928645  1
  Cs  Cs9  1  0.33097479  -0.00023110  -0.00033524  1
  Cs  Cs10  1  0.33214790  -0.00040554  0.33168460  1
  Cs  Cs11  1  0.33021340  -0.00004582  0.66875462  1
  Cs  Cs12  1  0.33458663  0.33259700  -0.00053713  1
  Cs  Cs13  1  0.33461600  0.33737607  0.33269740  1
  Cs  Cs14  1  0.33533328  0.33620604  0.66802250  1
  Cs  Cs15  1  0.33442119  0.66812493  -0.00300080  1
  Cs  Cs16  1  0.33371192  0.66292438  0.33683941  1
  Cs  Cs17  1  0.33400355  0.66414001  0.66601719  1
  Cs  Cs18  1  0.66397493  -0.00240132  0.00147228  1
  Cs  Cs19  1  0.66758542  0.00026804  0.33273563  1
  Cs  Cs20  1  0.66760610  -0.00040877  0.66632632  1
  Cs  Cs21  1  0.66530843  0.33376075  -0.00027820  1
  Cs  Cs22  1  0.66560314  0.33075162  0.33429873  1
  Cs  Cs23  1  0.66689949  0.33224313  0.66686132  1
  Cs  Cs24  1  0.67375286  0.67030991  0.00016458  1
  Cs  Cs25  1  0.66585512  0.67738218  0.33357037  1
  Cs  Cs26  1  0.66797016  0.67549927  0.66694980  1
  Sn  Sn27  1  0.16684439  0.83293247  0.16679442  1
  Sn  Sn28  1  0.83263667  0.49971935  0.50004049  1
  Sn  Sn29  1  0.49997024  0.49956271  0.83428587  1
  Sn  Sn30  1  0.49970619  0.16679566  0.50011654  1
  Sn  Sn31  1  0.83283526  0.16685507  0.16653811  1
  Sn  Sn32  1  0.50046874  0.49975248  0.16581626  1
  Sn  Sn33  1  0.16705480  0.16685986  0.49994068  1
  Sn  Sn34  1  0.83321494  0.16754334  0.49991467  1
  Sn  Sn35  1  0.16678982  0.83181337  0.83340024  1
  Sn  Sn36  1  0.16693304  0.50049427  0.83333392  1
  Sn  Sn37  1  0.50060324  0.16734047  0.16652044  1
  Sn  Sn38  1  0.16672185  0.83349034  0.49965636  1
  Sn  Sn39  1  0.83249244  0.16681561  0.83368114  1
  Sn  Sn40  1  0.50084709  0.16724453  0.83334602  1
  Pb  Pb41  1  0.50264266  0.49833810  0.50043234  1
  Pb  Pb42  1  0.83020849  0.49781017  0.16906827  1
  Pb  Pb43  1  0.49804710  0.83332212  0.16650442  1
  Pb  Pb44  1  0.16485617  0.49982055  0.50198546  1
  Pb  Pb45  1  0.83593300  0.83639393  0.16660157  1
  Pb  Pb46  1  0.49728842  0.83638215  0.50008984  1
  Pb  Pb47  1  0.16697422  0.16722062  0.83157733  1
  Pb  Pb48  1  0.83237863  0.49797109  0.83168655  1
  Pb  Pb49  1  0.83619888  0.83679092  0.83341384  1
  Pb  Pb50  1  0.83580634  0.83372315  0.49997484  1
  Pb  Pb51  1  0.16892383  0.50232593  0.16405297  1
  Pb  Pb52  1  0.49825000  0.83332478  0.83340015  1
  Pb  Pb53  1  0.16715765  0.16579143  0.16926192  1
  I  I54  1  0.16809649  -0.00226142  0.16171073  1
  I  I55  1  0.16514786  0.00093466  0.50288402  1
  I  I56  1  0.16585055  -0.00184834  0.83368960  1
  I  I57  1  0.16481522  0.33346921  0.16651274  1
  I  I58  1  0.16758114  0.33026964  0.50223129  1
  I  I59  1  0.16818792  0.33553758  0.83054766  1
  I  I60  1  0.16909508  0.67030334  0.17354130  1
  I  I61  1  0.16422408  0.66924323  0.49901397  1
  I  I62  1  0.17342805  0.66671045  0.83022721  1
  I  I63  1  0.50278702  0.00379115  0.16676390  1
  I  I64  1  0.50568441  0.00531635  0.49988570  1
  I  I65  1  0.50224443  0.00379209  0.83335997  1
  I  I66  1  0.50207932  0.33150698  0.16603698  1
  I  I67  1  0.49483471  0.32938565  0.50008207  1
  I  I68  1  0.49638991  0.33213036  0.83358348  1
  I  I69  1  0.49670602  0.66358506  0.16171201  1
  I  I70  1  0.50065117  0.66646834  0.49957065  1
  I  I71  1  0.49628929  0.66329208  0.83773998  1
  I  I72  1  0.82629491  0.00482855  0.17036016  1
  I  I73  1  0.83201156  0.00403371  0.49999944  1
  I  I74  1  0.82829296  0.00513185  0.82919863  1
  I  I75  1  0.83399597  0.32927791  0.16529068  1
  I  I76  1  0.83655675  0.33021924  0.50058871  1
  I  I77  1  0.83542970  0.32952138  0.83347381  1
  I  I78  1  0.83265328  0.66648508  0.16899864  1
  I  I79  1  0.83501227  0.66412661  0.50134226  1
  I  I80  1  0.83153351  0.66659098  0.83036560  1
  I  I81  1  0.16557742  0.16441788  -0.00002906  1
  I  I82  1  0.16611195  0.16075230  0.33734309  1
  I  I83  1  0.16593799  0.16138382  0.66360041  1
  I  I84  1  0.16694705  0.50322908  -0.00390524  1
  I  I85  1  0.16736674  0.50100748  0.33333770  1
  I  I86  1  0.17313618  0.50415025  0.66969222  1
  I  I87  1  0.16793823  0.83125555  -0.00060636  1
  I  I88  1  0.16667107  0.84135491  0.33406719  1
  I  I89  1  0.16668170  0.83539023  0.66653916  1
  I  I90  1  0.50621723  0.17006600  -0.00022682  1
  I  I91  1  0.50189003  0.16951693  0.33320875  1
  I  I92  1  0.50174765  0.16992020  0.66693508  1
  I  I93  1  0.49431433  0.48991781  -0.00083593  1
  I  I94  1  0.50061894  0.49459986  0.33115691  1
  I  I95  1  0.49566269  0.49457804  0.66967103  1
  I  I96  1  0.49475891  0.83950419  -0.00008504  1
  I  I97  1  0.49638426  0.83243626  0.33333277  1
  I  I98  1  0.49697090  0.83302219  0.66671865  1
  I  I99  1  0.82727241  0.16522435  -0.00008370  1
  I  I100  1  0.83108893  0.16945112  0.33402104  1
  I  I101  1  0.83167986  0.17003004  0.66602718  1
  I  I102  1  0.83646534  0.49835765  0.00003575  1
  I  I103  1  0.83484708  0.49232840  0.33655062  1
  I  I104  1  0.83319540  0.49154467  0.66410884  1
  I  I105  1  0.83673553  0.83395505  -0.00002810  1
  I  I106  1  0.83603758  0.83514668  0.33337092  1
  I  I107  1  0.83576702  0.83567683  0.66666398  1
  I  I108  1  -0.00245601  0.16323304  0.16672424  1
  I  I109  1  -0.00047481  0.16528607  0.50109643  1
  I  I110  1  -0.00216655  0.16544256  0.83187371  1
  I  I111  1  -0.00022191  0.49962868  0.16615457  1
  I  I112  1  -0.00274578  0.49248934  0.50208362  1
  I  I113  1  0.00208278  0.50294806  0.83013580  1
  I  I114  1  0.00404028  0.83554693  0.16719174  1
  I  I115  1  0.00385973  0.84132043  0.50114243  1
  I  I116  1  0.00453363  0.82890957  0.83217337  1
  I  I117  1  0.33659762  0.16796263  0.16599575  1
  I  I118  1  0.33363710  0.16100377  0.50072773  1
  I  I119  1  0.33614320  0.16664711  0.83338912  1
  I  I120  1  0.33670717  0.49182034  0.16699035  1
  I  I121  1  0.33364255  0.49930532  0.49876353  1
  I  I122  1  0.33402891  0.49729575  0.83513021  1
  I  I123  1  0.33003632  0.83783745  0.16669342  1
  I  I124  1  0.32899524  0.83854042  0.50050505  1
  I  I125  1  0.32976804  0.83614883  0.83263398  1
  I  I126  1  0.66592483  0.16978767  0.17106105  1
  I  I127  1  0.66681325  0.17211142  0.50023394  1
  I  I128  1  0.66565315  0.17253385  0.82871128  1
  I  I129  1  0.66245985  0.49729730  0.15884279  1
  I  I130  1  0.66999955  0.49062643  0.50160737  1
  I  I131  1  0.66334567  0.49491395  0.83600796  1
  I  I132  1  0.66663499  0.83200135  0.16693894  1
  I  I133  1  0.66680185  0.83327592  0.49986942  1
  I  I134  1  0.66679363  0.83094944  0.83320634  1
