# generated using pymatgen
data_Cs27Sn14Pb13I81
_symmetry_space_group_name_H-M   'P 1'
_cell_length_a   18.98450472
_cell_length_b   18.96511450
_cell_length_c   18.97872601
_cell_angle_alpha   90.00164135
_cell_angle_beta   90.00019226
_cell_angle_gamma   89.99921094
_symmetry_Int_Tables_number   1
_chemical_formula_structural   Cs27Sn14Pb13I81
_chemical_formula_sum   'Cs27 Sn14 Pb13 I81'
_cell_volume   6833.16324762
_cell_formula_units_Z   1
loop_
 _symmetry_equiv_pos_site_id
 _symmetry_equiv_pos_as_xyz
  1  'x, y, z'
loop_
 _atom_site_type_symbol
 _atom_site_label
 _atom_site_symmetry_multiplicity
 _atom_site_fract_x
 _atom_site_fract_y
 _atom_site_fract_z
 _atom_site_occupancy
  Cs  Cs0  1  0.00276283  -0.00294614  -0.00189676  1
  Cs  Cs1  1  -0.00219663  -0.00201542  0.33700992  1
  Cs  Cs2  1  -0.00391085  -0.00286095  0.66589007  1
  Cs  Cs3  1  0.00070494  0.33365558  0.00059587  1
  Cs  Cs4  1  -0.00020673  0.33279644  0.33157661  1
  Cs  Cs5  1  -0.00065128  0.33215913  0.66673903  1
  Cs  Cs6  1  -0.00247412  0.67077900  0.00215942  1
  Cs  Cs7  1  0.00019668  0.67356431  0.33032611  1
  Cs  Cs8  1  0.00234145  0.67250698  0.66613956  1
  Cs  Cs9  1  0.33400222  0.00051129  0.00223761  1
  Cs  Cs10  1  0.33683331  -0.00342021  0.32795429  1
  Cs  Cs11  1  0.33258528  0.00341819  0.66949791  1
  Cs  Cs12  1  0.33293357  0.33235137  -0.00053275  1
  Cs  Cs13  1  0.33163558  0.33342338  0.33319251  1
  Cs  Cs14  1  0.33305210  0.33370863  0.66735644  1
  Cs  Cs15  1  0.33207268  0.66366354  -0.00178287  1
  Cs  Cs16  1  0.33360170  0.67131003  0.34447784  1
  Cs  Cs17  1  0.33372599  0.66571985  0.65918020  1
  Cs  Cs18  1  0.66255228  0.00016335  0.00064196  1
  Cs  Cs19  1  0.66401438  -0.00659020  0.33563900  1
  Cs  Cs20  1  0.67045054  0.00144233  0.66548651  1
  Cs  Cs21  1  0.66626775  0.33437734  -0.00057382  1
  Cs  Cs22  1  0.66981873  0.33305035  0.33183096  1
  Cs  Cs23  1  0.66758198  0.33284415  0.66773059  1
  Cs  Cs24  1  0.67095310  0.66289556  0.00058683  1
  Cs  Cs25  1  0.66676218  0.67348656  0.33195873  1
  Cs  Cs26  1  0.66367968  0.66614695  0.66658969  1
  Sn  Sn27  1  0.16561115  0.16744370  0.16653780  1
  Sn  Sn28  1  0.16784563  0.49945916  0.16615812  1
  Sn  Sn29  1  0.83387578  0.49911489  0.83195565  1
  Sn  Sn30  1  0.83357255  0.49977455  0.50072607  1
  Sn  Sn31  1  0.49867526  0.49957345  0.16652974  1
  Sn  Sn32  1  0.16756004  0.16725265  0.49995103  1
  Sn  Sn33  1  0.83404096  0.16693263  0.16561943  1
  Sn  Sn34  1  0.49964890  0.50002649  0.83395147  1
  Sn  Sn35  1  0.49938652  0.16755733  0.50046747  1
  Sn  Sn36  1  0.16645519  0.49928945  0.83393285  1
  Sn  Sn37  1  0.49971895  0.83302660  0.83361590  1
  Sn  Sn38  1  0.16634703  0.16752877  0.83339534  1
  Sn  Sn39  1  0.83358201  0.16757126  0.83464839  1
  Sn  Sn40  1  0.50000882  0.16675869  0.83256019  1
  Pb  Pb41  1  0.16449725  0.49818781  0.49986197  1
  Pb  Pb42  1  0.83319664  0.82944914  0.50045755  1
  Pb  Pb43  1  0.49991617  0.83677651  0.50300035  1
  Pb  Pb44  1  0.49959276  0.82923732  0.16381315  1
  Pb  Pb45  1  0.16682899  0.83722625  0.50028557  1
  Pb  Pb46  1  0.83326294  0.83759180  0.16607334  1
  Pb  Pb47  1  0.16915078  0.83295699  0.83338930  1
  Pb  Pb48  1  0.50179597  0.49781597  0.49992291  1
  Pb  Pb49  1  0.49984156  0.16831417  0.16654380  1
  Pb  Pb50  1  0.83390072  0.49872309  0.16625343  1
  Pb  Pb51  1  0.83093034  0.83328171  0.83347862  1
  Pb  Pb52  1  0.16698636  0.83294587  0.16631207  1
  Pb  Pb53  1  0.83331383  0.16774395  0.50003206  1
  I  I54  1  0.16271114  0.00411052  0.16565854  1
  I  I55  1  0.16894059  0.00590544  0.50119774  1
  I  I56  1  0.16655315  0.00402680  0.83350214  1
  I  I57  1  0.16683001  0.33251799  0.16469934  1
  I  I58  1  0.17026065  0.32984968  0.50104730  1
  I  I59  1  0.17031359  0.33246898  0.83395609  1
  I  I60  1  0.16942276  0.66258578  0.16003293  1
  I  I61  1  0.16464813  0.66637230  0.49999415  1
  I  I62  1  0.16549395  0.66265403  0.83873446  1
  I  I63  1  0.50083278  0.00014750  0.16675609  1
  I  I64  1  0.49756933  0.00502615  0.50369049  1
  I  I65  1  0.50018736  0.00204841  0.82826732  1
  I  I66  1  0.49913040  0.33608927  0.15968541  1
  I  I67  1  0.49656328  0.32997438  0.50739925  1
  I  I68  1  0.50034980  0.33318775  0.83313131  1
  I  I69  1  0.49599176  0.66103229  0.16147480  1
  I  I70  1  0.50239418  0.66649145  0.49997145  1
  I  I71  1  0.50106562  0.66487245  0.83915207  1
  I  I72  1  0.83908045  0.00595243  0.16095389  1
  I  I73  1  0.83340319  0.00023226  0.49932652  1
  I  I74  1  0.83384399  0.00389110  0.83664079  1
  I  I75  1  0.83465269  0.33057937  0.16457880  1
  I  I76  1  0.83260571  0.33527339  0.50313640  1
  I  I77  1  0.82916277  0.33288259  0.83324840  1
  I  I78  1  0.83305653  0.66646347  0.16736245  1
  I  I79  1  0.83256109  0.66139759  0.50695198  1
  I  I80  1  0.83313933  0.66284244  0.82960465  1
  I  I81  1  0.16638448  0.17030085  -0.00090832  1
  I  I82  1  0.16605670  0.17192498  0.33252799  1
  I  I83  1  0.16809630  0.17068219  0.66820962  1
  I  I84  1  0.16685717  0.49189139  -0.00119232  1
  I  I85  1  0.16947813  0.49387167  0.33035932  1
  I  I86  1  0.16974164  0.49554939  0.67005327  1
  I  I87  1  0.16728799  0.83877286  -0.00024131  1
  I  I88  1  0.16737730  0.83173416  0.33327637  1
  I  I89  1  0.16740325  0.83207987  0.66700848  1
  I  I90  1  0.49882027  0.16545833  -0.00343640  1
  I  I91  1  0.49754273  0.17048630  0.33531912  1
  I  I92  1  0.49749300  0.16857527  0.66898039  1
  I  I93  1  0.50184949  0.49713676  -0.00216929  1
  I  I94  1  0.49756804  0.49511687  0.33081638  1
  I  I95  1  0.49784211  0.50110400  0.67040155  1
  I  I96  1  0.49989438  0.84159792  -0.00383702  1
  I  I97  1  0.50066820  0.83405579  0.33338743  1
  I  I98  1  0.49981169  0.82702388  0.67068455  1
  I  I99  1  0.83500475  0.17308247  -0.00176336  1
  I  I100  1  0.83656277  0.17067490  0.33116547  1
  I  I101  1  0.83450424  0.16868235  0.66993326  1
  I  I102  1  0.83161173  0.49760981  -0.00335801  1
  I  I103  1  0.83265172  0.49526479  0.33477552  1
  I  I104  1  0.83200396  0.49251575  0.66946207  1
  I  I105  1  0.83267943  0.82780090  -0.00039530  1
  I  I106  1  0.83206363  0.83295790  0.33331492  1
  I  I107  1  0.83306890  0.83966182  0.66708734  1
  I  I108  1  0.00120789  0.17347532  0.16420140  1
  I  I109  1  0.00254065  0.16918489  0.50203106  1
  I  I110  1  0.00042383  0.17354845  0.83358478  1
  I  I111  1  0.00296472  0.49616803  0.16345364  1
  I  I112  1  -0.00296621  0.49463662  0.50488269  1
  I  I113  1  0.00031293  0.49150978  0.83329350  1
  I  I114  1  0.00006977  0.82779286  0.16603628  1
  I  I115  1  -0.00007769  0.83617480  0.50081576  1
  I  I116  1  0.00006052  0.83384745  0.83294085  1
  I  I117  1  0.33050138  0.16858710  0.16449841  1
  I  I118  1  0.33310343  0.16840936  0.50480311  1
  I  I119  1  0.33323238  0.16854160  0.83233767  1
  I  I120  1  0.33255864  0.49253135  0.15700224  1
  I  I121  1  0.33319770  0.50077062  0.50166239  1
  I  I122  1  0.33345579  0.49663804  0.83856018  1
  I  I123  1  0.33347181  0.84043263  0.16526172  1
  I  I124  1  0.33360993  0.82829614  0.50063919  1
  I  I125  1  0.33688810  0.83507776  0.83383612  1
  I  I126  1  0.66864276  0.17016682  0.16302764  1
  I  I127  1  0.66444991  0.16896886  0.50437628  1
  I  I128  1  0.66637047  0.16937374  0.83288922  1
  I  I129  1  0.66483294  0.49715380  0.16230166  1
  I  I130  1  0.66938273  0.49489994  0.50489691  1
  I  I131  1  0.66618374  0.49696554  0.83370975  1
  I  I132  1  0.66633881  0.83316302  0.16648328  1
  I  I133  1  0.66642096  0.83732551  0.50013443  1
  I  I134  1  0.66310148  0.83416948  0.83323829  1
