# generated using pymatgen
data_Cs27Sn14Pb13I81
_symmetry_space_group_name_H-M   'P 1'
_cell_length_a   18.97292845
_cell_length_b   18.98147225
_cell_length_c   18.97263598
_cell_angle_alpha   89.99896484
_cell_angle_beta   90.00079404
_cell_angle_gamma   90.00090091
_symmetry_Int_Tables_number   1
_chemical_formula_structural   Cs27Sn14Pb13I81
_chemical_formula_sum   'Cs27 Sn14 Pb13 I81'
_cell_volume   6832.69346326
_cell_formula_units_Z   1
loop_
 _symmetry_equiv_pos_site_id
 _symmetry_equiv_pos_as_xyz
  1  'x, y, z'
loop_
 _atom_site_type_symbol
 _atom_site_label
 _atom_site_symmetry_multiplicity
 _atom_site_fract_x
 _atom_site_fract_y
 _atom_site_fract_z
 _atom_site_occupancy
  Cs  Cs0  1  0.00109520  0.00032498  -0.00151766  1
  Cs  Cs1  1  -0.00095229  0.00067098  0.33484986  1
  Cs  Cs2  1  -0.00211495  -0.00189131  0.66320047  1
  Cs  Cs3  1  0.01030217  0.33361948  -0.00453533  1
  Cs  Cs4  1  -0.00290942  0.32983368  0.33047138  1
  Cs  Cs5  1  0.00042803  0.33319732  0.67558441  1
  Cs  Cs6  1  -0.00035629  0.66539783  -0.00341749  1
  Cs  Cs7  1  -0.00052592  0.66754047  0.33465816  1
  Cs  Cs8  1  0.00239400  0.66641410  0.66843059  1
  Cs  Cs9  1  0.33302346  -0.00111140  0.00003680  1
  Cs  Cs10  1  0.33191187  -0.00244167  0.33221204  1
  Cs  Cs11  1  0.33524136  0.00019676  0.66699756  1
  Cs  Cs12  1  0.32454479  0.33215195  -0.00014735  1
  Cs  Cs13  1  0.33192912  0.33649698  0.33478300  1
  Cs  Cs14  1  0.33893996  0.33321713  0.66610783  1
  Cs  Cs15  1  0.33759119  0.66901612  0.00014308  1
  Cs  Cs16  1  0.33108145  0.66698362  0.33722897  1
  Cs  Cs17  1  0.33208519  0.66717995  0.66373835  1
  Cs  Cs18  1  0.66677580  -0.00068097  0.00155789  1
  Cs  Cs19  1  0.66822981  -0.00025532  0.33176756  1
  Cs  Cs20  1  0.66642576  0.00178344  0.66812302  1
  Cs  Cs21  1  0.66673202  0.33558305  0.00161783  1
  Cs  Cs22  1  0.66812236  0.33354767  0.33393289  1
  Cs  Cs23  1  0.66183935  0.32966461  0.66617815  1
  Cs  Cs24  1  0.66470002  0.66695770  0.00085691  1
  Cs  Cs25  1  0.66716600  0.66595149  0.33057633  1
  Cs  Cs26  1  0.66734670  0.66693350  0.66864867  1
  Sn  Sn27  1  0.50121424  0.83335518  0.50079707  1
  Sn  Sn28  1  0.50036934  0.50060659  0.83422443  1
  Sn  Sn29  1  0.16598714  0.16703161  0.49994596  1
  Sn  Sn30  1  0.83427218  0.16690678  0.49946966  1
  Sn  Sn31  1  0.16739029  0.83342187  0.83407134  1
  Sn  Sn32  1  0.83272431  0.16697360  0.16662239  1
  Sn  Sn33  1  0.83339881  0.49992017  0.49961158  1
  Sn  Sn34  1  0.50039207  0.49865754  0.16600131  1
  Sn  Sn35  1  0.50040961  0.16810454  0.16677668  1
  Sn  Sn36  1  0.83225248  0.83292286  0.49927604  1
  Sn  Sn37  1  0.49948311  0.83267193  0.83218478  1
  Sn  Sn38  1  0.16515772  0.83298243  0.16599627  1
  Sn  Sn39  1  0.83300518  0.49973685  0.16708984  1
  Sn  Sn40  1  0.83452102  0.83322662  0.16720084  1
  Pb  Pb41  1  0.16615946  0.83453819  0.50007135  1
  Pb  Pb42  1  0.16681859  0.16377544  0.83015604  1
  Pb  Pb43  1  0.83321891  0.16681783  0.83388809  1
  Pb  Pb44  1  0.50212389  0.50217896  0.49942431  1
  Pb  Pb45  1  0.16636717  0.50269232  0.16688816  1
  Pb  Pb46  1  0.16313967  0.49672230  0.49981364  1
  Pb  Pb47  1  0.50011620  0.16658105  0.83651365  1
  Pb  Pb48  1  0.83289999  0.83336571  0.83344894  1
  Pb  Pb49  1  0.50063044  0.16446529  0.49745337  1
  Pb  Pb50  1  0.16627114  0.16449111  0.16819970  1
  Pb  Pb51  1  0.83099536  0.49990350  0.83378881  1
  Pb  Pb52  1  0.50046685  0.83299630  0.16676634  1
  Pb  Pb53  1  0.17003089  0.50263731  0.83318350  1
  I  I54  1  0.16424757  -0.00351226  0.16416776  1
  I  I55  1  0.16024835  0.00204377  0.49921340  1
  I  I56  1  0.17386760  -0.00405852  0.83829518  1
  I  I57  1  0.16529740  0.33323897  0.16784363  1
  I  I58  1  0.16344478  0.32892712  0.49727136  1
  I  I59  1  0.16697197  0.33328395  0.83280265  1
  I  I60  1  0.16371352  0.67092159  0.16446706  1
  I  I61  1  0.16664693  0.66681649  0.50037281  1
  I  I62  1  0.16700772  0.67067086  0.83586155  1
  I  I63  1  0.50332090  0.00149724  0.16791003  1
  I  I64  1  0.50502169  -0.00353974  0.50374414  1
  I  I65  1  0.49628012  -0.00332023  0.83056038  1
  I  I66  1  0.50886632  0.33411573  0.16245129  1
  I  I67  1  0.49969042  0.33336280  0.50350119  1
  I  I68  1  0.50310906  0.33627302  0.83429275  1
  I  I69  1  0.50371255  0.66454156  0.16528081  1
  I  I70  1  0.50424401  0.67026270  0.49863048  1
  I  I71  1  0.49710854  0.66761769  0.83649738  1
  I  I72  1  0.83221502  -0.00015999  0.17251147  1
  I  I73  1  0.83376897  -0.00036883  0.49424570  1
  I  I74  1  0.83093336  -0.00027068  0.83349626  1
  I  I75  1  0.82600195  0.33330089  0.17460761  1
  I  I76  1  0.83757145  0.33297756  0.49263187  1
  I  I77  1  0.83057062  0.33346092  0.83155693  1
  I  I78  1  0.83220374  0.66681991  0.17265525  1
  I  I79  1  0.82766961  0.66751714  0.49343792  1
  I  I80  1  0.83529614  0.66684853  0.83273550  1
  I  I81  1  0.16639101  0.16667801  0.00006355  1
  I  I82  1  0.16406829  0.16161604  0.33583511  1
  I  I83  1  0.15902136  0.16366623  0.66248361  1
  I  I84  1  0.16112591  0.49742987  0.00011829  1
  I  I85  1  0.17405288  0.50493926  0.33329926  1
  I  I86  1  0.16568505  0.50304894  0.66650439  1
  I  I87  1  0.16758515  0.83413331  0.00042359  1
  I  I88  1  0.16642792  0.83507357  0.33112528  1
  I  I89  1  0.16853455  0.83517788  0.66881915  1
  I  I90  1  0.50696586  0.16371802  0.00446946  1
  I  I91  1  0.50253025  0.17013821  0.32967797  1
  I  I92  1  0.50000020  0.16802352  0.66643537  1
  I  I93  1  0.50693923  0.50394943  0.00111770  1
  I  I94  1  0.50280665  0.49811666  0.33020743  1
  I  I95  1  0.50112227  0.50393785  0.66873704  1
  I  I96  1  0.49894977  0.83249601  -0.00188899  1
  I  I97  1  0.50087508  0.83408979  0.33528034  1
  I  I98  1  0.49930611  0.82861422  0.66701025  1
  I  I99  1  0.82791033  0.16454792  0.00435579  1
  I  I100  1  0.83321061  0.16553768  0.33304644  1
  I  I101  1  0.83750127  0.16502170  0.66289374  1
  I  I102  1  0.83028777  0.50183633  0.00381014  1
  I  I103  1  0.82697967  0.50091814  0.33232225  1
  I  I104  1  0.83280146  0.50136053  0.66350958  1
  I  I105  1  0.83340765  0.83348319  0.00350222  1
  I  I106  1  0.83291932  0.83384434  0.33311892  1
  I  I107  1  0.83274817  0.83395732  0.66335237  1
  I  I108  1  -0.00349966  0.16787860  0.16968578  1
  I  I109  1  -0.00243813  0.16272873  0.49331940  1
  I  I110  1  0.00016751  0.16535863  0.83771783  1
  I  I111  1  -0.00380519  0.49793783  0.17212646  1
  I  I112  1  -0.00519731  0.50806253  0.49245937  1
  I  I113  1  0.00006166  0.50090960  0.83328563  1
  I  I114  1  -0.00177752  0.83405546  0.16766202  1
  I  I115  1  -0.00331408  0.83248002  0.49881817  1
  I  I116  1  0.00227718  0.83504119  0.83436383  1
  I  I117  1  0.33572039  0.16833624  0.16815924  1
  I  I118  1  0.33178580  0.16156591  0.49832832  1
  I  I119  1  0.33353480  0.16769701  0.83291547  1
  I  I120  1  0.33662194  0.49691061  0.16164151  1
  I  I121  1  0.33360199  0.50092233  0.49992361  1
  I  I122  1  0.33800638  0.50207964  0.84012671  1
  I  I123  1  0.33186221  0.83439671  0.16649773  1
  I  I124  1  0.33537761  0.83553733  0.49967455  1
  I  I125  1  0.33429366  0.82957217  0.83396976  1
  I  I126  1  0.66808001  0.16396649  0.17210556  1
  I  I127  1  0.67010081  0.16747188  0.49765205  1
  I  I128  1  0.66636079  0.16276762  0.82799031  1
  I  I129  1  0.66740249  0.50223315  0.16664797  1
  I  I130  1  0.67028736  0.49580487  0.49817308  1
  I  I131  1  0.66323182  0.50889305  0.83547419  1
  I  I132  1  0.66953358  0.83371314  0.16794374  1
  I  I133  1  0.66805670  0.83562785  0.49926848  1
  I  I134  1  0.66362031  0.82946324  0.83244864  1
