# generated using pymatgen
data_Cs27Sn13Pb14I81
_symmetry_space_group_name_H-M   'P 1'
_cell_length_a   18.97594515
_cell_length_b   18.98060849
_cell_length_c   18.97609832
_cell_angle_alpha   89.99973049
_cell_angle_beta   90.00021684
_cell_angle_gamma   89.99941385
_symmetry_Int_Tables_number   1
_chemical_formula_structural   Cs27Sn13Pb14I81
_chemical_formula_sum   'Cs27 Sn13 Pb14 I81'
_cell_volume   6834.71594198
_cell_formula_units_Z   1
loop_
 _symmetry_equiv_pos_site_id
 _symmetry_equiv_pos_as_xyz
  1  'x, y, z'
loop_
 _atom_site_type_symbol
 _atom_site_label
 _atom_site_symmetry_multiplicity
 _atom_site_fract_x
 _atom_site_fract_y
 _atom_site_fract_z
 _atom_site_occupancy
  Cs  Cs0  1  0.00174467  -0.00284783  0.00234027  1
  Cs  Cs1  1  -0.00146776  -0.00138305  0.33260324  1
  Cs  Cs2  1  -0.00112914  -0.00116155  0.66454219  1
  Cs  Cs3  1  0.00065128  0.33545543  0.00012868  1
  Cs  Cs4  1  -0.00304971  0.33277585  0.33089406  1
  Cs  Cs5  1  -0.00519172  0.33090161  0.66809042  1
  Cs  Cs6  1  0.00056200  0.66769679  0.00028306  1
  Cs  Cs7  1  -0.00049213  0.66924008  0.33629638  1
  Cs  Cs8  1  0.00234426  0.67055591  0.66316053  1
  Cs  Cs9  1  0.33765325  0.00059965  0.00150378  1
  Cs  Cs10  1  0.33502653  0.00309876  0.33212515  1
  Cs  Cs11  1  0.33427460  0.00064863  0.66672658  1
  Cs  Cs12  1  0.33172438  0.33314271  0.00102153  1
  Cs  Cs13  1  0.33377071  0.33221222  0.33369316  1
  Cs  Cs14  1  0.33300558  0.33520017  0.66550598  1
  Cs  Cs15  1  0.33335690  0.66670354  -0.00091065  1
  Cs  Cs16  1  0.33336608  0.66448493  0.33607010  1
  Cs  Cs17  1  0.33200172  0.66424426  0.66585392  1
  Cs  Cs18  1  0.65996039  -0.00118609  -0.00061780  1
  Cs  Cs19  1  0.66653502  -0.00079499  0.33353974  1
  Cs  Cs20  1  0.66650791  0.00390543  0.66720600  1
  Cs  Cs21  1  0.67017527  0.33453007  -0.00395789  1
  Cs  Cs22  1  0.66995368  0.33864684  0.33640415  1
  Cs  Cs23  1  0.67481072  0.33065358  0.66714426  1
  Cs  Cs24  1  0.66706214  0.66754934  0.00126991  1
  Cs  Cs25  1  0.66680839  0.66330711  0.33404752  1
  Cs  Cs26  1  0.66556923  0.66464095  0.66353432  1
  Sn  Sn27  1  0.49932127  0.16598542  0.50004922  1
  Sn  Sn28  1  0.16719935  0.16657783  0.50067118  1
  Sn  Sn29  1  0.49944223  0.49990234  0.83420564  1
  Sn  Sn30  1  0.16630203  0.83354472  0.83411677  1
  Sn  Sn31  1  0.16730998  0.50010376  0.83405057  1
  Sn  Sn32  1  0.83371832  0.83334863  0.83413911  1
  Sn  Sn33  1  0.49901703  0.49999924  0.16549026  1
  Sn  Sn34  1  0.16656517  0.83261019  0.16607644  1
  Sn  Sn35  1  0.83315123  0.16559352  0.16600583  1
  Sn  Sn36  1  0.49953220  0.83413367  0.50003660  1
  Sn  Sn37  1  0.16697120  0.16637481  0.83266288  1
  Sn  Sn38  1  0.83384631  0.83440384  0.16556253  1
  Sn  Sn39  1  0.16755226  0.50105984  0.16607694  1
  Pb  Pb40  1  0.50264322  0.16960450  0.16858547  1
  Pb  Pb41  1  0.83426639  0.50287624  0.83342673  1
  Pb  Pb42  1  0.83084993  0.83348873  0.49995367  1
  Pb  Pb43  1  0.49978402  0.49919156  0.50049655  1
  Pb  Pb44  1  0.83362169  0.16631544  0.49782662  1
  Pb  Pb45  1  0.49969718  0.83141313  0.16838386  1
  Pb  Pb46  1  0.16565922  0.16662375  0.16638995  1
  Pb  Pb47  1  0.16636030  0.49727359  0.50003222  1
  Pb  Pb48  1  0.16850210  0.83546616  0.49976232  1
  Pb  Pb49  1  0.83594059  0.16378247  0.83589630  1
  Pb  Pb50  1  0.49955014  0.83144961  0.83147865  1
  Pb  Pb51  1  0.83408785  0.50099938  0.16643275  1
  Pb  Pb52  1  0.49790370  0.16935098  0.83149382  1
  Pb  Pb53  1  0.83398457  0.50024446  0.50038085  1
  I  I54  1  0.16352079  -0.00276958  0.16427716  1
  I  I55  1  0.16893065  0.00320828  0.50348018  1
  I  I56  1  0.16148220  -0.00077947  0.83298989  1
  I  I57  1  0.16837189  0.33586878  0.16433176  1
  I  I58  1  0.17366675  0.32938520  0.50234865  1
  I  I59  1  0.17224056  0.33395717  0.83368343  1
  I  I60  1  0.16494428  0.66703745  0.15969611  1
  I  I61  1  0.16852829  0.66688432  0.50188230  1
  I  I62  1  0.16669639  0.66687758  0.83833747  1
  I  I63  1  0.49813101  -0.00001665  0.16738208  1
  I  I64  1  0.49598049  0.00052821  0.49962026  1
  I  I65  1  0.49933372  0.00002916  0.83274270  1
  I  I66  1  0.49385811  0.33734336  0.16538656  1
  I  I67  1  0.49516810  0.33052815  0.49873627  1
  I  I68  1  0.49435419  0.33727638  0.83578900  1
  I  I69  1  0.50045624  0.66355834  0.16612048  1
  I  I70  1  0.50134620  0.66844453  0.49979116  1
  I  I71  1  0.49462106  0.66366802  0.83425054  1
  I  I72  1  0.84039052  -0.00164088  0.16475010  1
  I  I73  1  0.83417003  -0.00011634  0.50073172  1
  I  I74  1  0.83839308  -0.00393368  0.83454138  1
  I  I75  1  0.83394505  0.33154970  0.16983129  1
  I  I76  1  0.83060831  0.33277110  0.49730144  1
  I  I77  1  0.83332841  0.33314594  0.83363126  1
  I  I78  1  0.83430457  0.67006127  0.16290160  1
  I  I79  1  0.83025264  0.66736822  0.49722472  1
  I  I80  1  0.83804733  0.67058294  0.84049461  1
  I  I81  1  0.16374037  0.16742929  -0.00274137  1
  I  I82  1  0.16886165  0.16658094  0.33530055  1
  I  I83  1  0.17062132  0.16668896  0.66754885  1
  I  I84  1  0.17085024  0.49859050  -0.00029160  1
  I  I85  1  0.17047290  0.50343252  0.32983575  1
  I  I86  1  0.17166686  0.50349030  0.67034343  1
  I  I87  1  0.16292130  0.83393430  -0.00028838  1
  I  I88  1  0.16311798  0.82981792  0.33015775  1
  I  I89  1  0.16358118  0.83045231  0.66986235  1
  I  I90  1  0.49925252  0.16582250  -0.00002798  1
  I  I91  1  0.49270135  0.16471436  0.33647677  1
  I  I92  1  0.49863727  0.16441218  0.66345016  1
  I  I93  1  0.49521071  0.50142908  0.00005491  1
  I  I94  1  0.49658071  0.50047560  0.33070155  1
  I  I95  1  0.49422774  0.50172810  0.66962301  1
  I  I96  1  0.50052890  0.83325850  -0.00003182  1
  I  I97  1  0.49967280  0.83455904  0.33606622  1
  I  I98  1  0.49972876  0.83454974  0.66383449  1
  I  I99  1  0.83557832  0.16604227  0.00341925  1
  I  I100  1  0.83642428  0.16103393  0.33008363  1
  I  I101  1  0.83176520  0.16638715  0.66703264  1
  I  I102  1  0.83154561  0.49679725  0.00005706  1
  I  I103  1  0.83179647  0.50109336  0.33263012  1
  I  I104  1  0.83132018  0.50082053  0.66744088  1
  I  I105  1  0.83797178  0.83639100  0.00077061  1
  I  I106  1  0.83760743  0.83609972  0.32988141  1
  I  I107  1  0.83854282  0.83131153  0.66972962  1
  I  I108  1  -0.00209714  0.16708304  0.16882706  1
  I  I109  1  0.00301237  0.16777861  0.50352664  1
  I  I110  1  0.00426553  0.17252768  0.82693110  1
  I  I111  1  0.00347523  0.49990392  0.16191583  1
  I  I112  1  0.00078730  0.49867345  0.49868902  1
  I  I113  1  0.00402492  0.49742364  0.83849543  1
  I  I114  1  0.00093751  0.83149609  0.16356213  1
  I  I115  1  0.00025017  0.83431411  0.49981942  1
  I  I116  1  0.00172384  0.83129392  0.83679715  1
  I  I117  1  0.33331674  0.16482123  0.16638262  1
  I  I118  1  0.33299460  0.16298656  0.50260401  1
  I  I119  1  0.32940822  0.16160829  0.83342514  1
  I  I120  1  0.33206779  0.50504477  0.16308319  1
  I  I121  1  0.33320010  0.50160605  0.49922745  1
  I  I122  1  0.33184803  0.50242979  0.83712496  1
  I  I123  1  0.33014439  0.83129473  0.16296122  1
  I  I124  1  0.33608182  0.83497273  0.50001783  1
  I  I125  1  0.32971113  0.83453305  0.83652941  1
  I  I126  1  0.67019068  0.16069787  0.16850971  1
  I  I127  1  0.66389842  0.16394122  0.49769713  1
  I  I128  1  0.66680596  0.16755024  0.83178106  1
  I  I129  1  0.66412321  0.49964519  0.16458299  1
  I  I130  1  0.66607181  0.49872903  0.49881613  1
  I  I131  1  0.66402351  0.50192789  0.83667677  1
  I  I132  1  0.66933459  0.83556903  0.16392833  1
  I  I133  1  0.66310469  0.83835392  0.49995533  1
  I  I134  1  0.66898325  0.83109541  0.83677661  1
