# generated using pymatgen
data_Cs27Sn14Pb13I81
_symmetry_space_group_name_H-M   'P 1'
_cell_length_a   18.96674881
_cell_length_b   18.98166629
_cell_length_c   18.97747723
_cell_angle_alpha   89.99889223
_cell_angle_beta   90.00285116
_cell_angle_gamma   89.99896305
_symmetry_Int_Tables_number   1
_chemical_formula_structural   Cs27Sn14Pb13I81
_chemical_formula_sum   'Cs27 Sn14 Pb13 I81'
_cell_volume   6832.28076683
_cell_formula_units_Z   1
loop_
 _symmetry_equiv_pos_site_id
 _symmetry_equiv_pos_as_xyz
  1  'x, y, z'
loop_
 _atom_site_type_symbol
 _atom_site_label
 _atom_site_symmetry_multiplicity
 _atom_site_fract_x
 _atom_site_fract_y
 _atom_site_fract_z
 _atom_site_occupancy
  Cs  Cs0  1  -0.00026288  0.00162511  0.00577054  1
  Cs  Cs1  1  0.00196331  -0.00175187  0.33042139  1
  Cs  Cs2  1  -0.00173106  0.00442314  0.66336791  1
  Cs  Cs3  1  -0.00005369  0.33352230  -0.00009068  1
  Cs  Cs4  1  0.00051519  0.33105822  0.33140938  1
  Cs  Cs5  1  -0.00068641  0.33216890  0.66840283  1
  Cs  Cs6  1  0.00215044  0.66632673  0.00147497  1
  Cs  Cs7  1  0.00002372  0.67109975  0.32897075  1
  Cs  Cs8  1  -0.00051137  0.66421109  0.66864410  1
  Cs  Cs9  1  0.33680316  -0.00061162  -0.00457080  1
  Cs  Cs10  1  0.33042971  -0.00367244  0.33760326  1
  Cs  Cs11  1  0.33565441  -0.00185579  0.66738171  1
  Cs  Cs12  1  0.33392587  0.33144351  0.00251421  1
  Cs  Cs13  1  0.33443383  0.33692786  0.33340526  1
  Cs  Cs14  1  0.32818952  0.33539166  0.66345261  1
  Cs  Cs15  1  0.33005327  0.66994003  -0.00393087  1
  Cs  Cs16  1  0.33777192  0.66584710  0.33517833  1
  Cs  Cs17  1  0.32428561  0.66479157  0.66983201  1
  Cs  Cs18  1  0.66353648  0.00286304  0.00119929  1
  Cs  Cs19  1  0.66749751  -0.00115782  0.33346918  1
  Cs  Cs20  1  0.66587867  -0.00065300  0.66646028  1
  Cs  Cs21  1  0.66420769  0.33238593  0.00080011  1
  Cs  Cs22  1  0.66366090  0.33413221  0.33193959  1
  Cs  Cs23  1  0.66918982  0.33345522  0.66699671  1
  Cs  Cs24  1  0.66793691  0.66532035  -0.00198652  1
  Cs  Cs25  1  0.66374725  0.66715290  0.33510492  1
  Cs  Cs26  1  0.66805559  0.66739977  0.66572786  1
  Sn  Sn27  1  0.83256825  0.49993237  0.83347998  1
  Sn  Sn28  1  0.83378627  0.16641799  0.83313611  1
  Sn  Sn29  1  0.83367423  0.49976286  0.16672410  1
  Sn  Sn30  1  0.83333704  0.83376656  0.83298758  1
  Sn  Sn31  1  0.16686627  0.16728297  0.16589835  1
  Sn  Sn32  1  0.50038111  0.83338270  0.16691684  1
  Sn  Sn33  1  0.50087205  0.83391805  0.49960735  1
  Sn  Sn34  1  0.83235565  0.16666464  0.50027846  1
  Sn  Sn35  1  0.16615163  0.49926897  0.16677446  1
  Sn  Sn36  1  0.16590098  0.16657765  0.83420878  1
  Sn  Sn37  1  0.50041508  0.49979797  0.83305807  1
  Sn  Sn38  1  0.83287066  0.83345208  0.50080920  1
  Sn  Sn39  1  0.50091727  0.16636781  0.50016502  1
  Sn  Sn40  1  0.83330688  0.49991994  0.49957687  1
  Pb  Pb41  1  0.16955955  0.83324621  0.16660200  1
  Pb  Pb42  1  0.16593524  0.49794453  0.83529673  1
  Pb  Pb43  1  0.16324433  0.50010379  0.49708053  1
  Pb  Pb44  1  0.50032482  0.16868377  0.83096500  1
  Pb  Pb45  1  0.50191819  0.50038998  0.50232586  1
  Pb  Pb46  1  0.16646277  0.16665806  0.49999401  1
  Pb  Pb47  1  0.83432935  0.16869248  0.16691167  1
  Pb  Pb48  1  0.16297945  0.83663944  0.83324453  1
  Pb  Pb49  1  0.49715737  0.16459020  0.16942697  1
  Pb  Pb50  1  0.50215305  0.83131630  0.83223951  1
  Pb  Pb51  1  0.49996452  0.50182138  0.16458038  1
  Pb  Pb52  1  0.16623980  0.83314885  0.50029237  1
  Pb  Pb53  1  0.83154602  0.83110600  0.16670348  1
  I  I54  1  0.16668154  0.00291598  0.16350058  1
  I  I55  1  0.16204985  0.00020849  0.49687364  1
  I  I56  1  0.16316323  0.00461305  0.83976851  1
  I  I57  1  0.16190688  0.33341326  0.16283851  1
  I  I58  1  0.16817608  0.33327371  0.50132638  1
  I  I59  1  0.16035989  0.33025982  0.83421743  1
  I  I60  1  0.16183870  0.66379565  0.16681610  1
  I  I61  1  0.16786580  0.66647540  0.49817773  1
  I  I62  1  0.16709818  0.66652442  0.83491160  1
  I  I63  1  0.50040350  -0.00307582  0.16665403  1
  I  I64  1  0.50793140  -0.00033783  0.49677835  1
  I  I65  1  0.49980782  0.00000443  0.83545636  1
  I  I66  1  0.50090446  0.33336794  0.16748339  1
  I  I67  1  0.50420312  0.33110367  0.50230823  1
  I  I68  1  0.50727709  0.33618201  0.83297234  1
  I  I69  1  0.49971291  0.66933169  0.17431859  1
  I  I70  1  0.50552784  0.66951884  0.49594440  1
  I  I71  1  0.50681883  0.66361980  0.83282280  1
  I  I72  1  0.83487865  0.00001214  0.16632612  1
  I  I73  1  0.82958794  0.00019757  0.50767906  1
  I  I74  1  0.83785495  0.00064017  0.82579933  1
  I  I75  1  0.83450131  0.33692992  0.16654728  1
  I  I76  1  0.83022827  0.33297276  0.50321048  1
  I  I77  1  0.83409266  0.33339300  0.83008436  1
  I  I78  1  0.83898757  0.66287947  0.16598896  1
  I  I79  1  0.82966046  0.66684731  0.50271035  1
  I  I80  1  0.82780633  0.66593291  0.83055595  1
  I  I81  1  0.15991710  0.17076747  -0.00044881  1
  I  I82  1  0.16638639  0.17078521  0.33072975  1
  I  I83  1  0.16384330  0.16682979  0.66924521  1
  I  I84  1  0.16045017  0.49816862  0.00296833  1
  I  I85  1  0.16280655  0.49271569  0.32912670  1
  I  I86  1  0.16750631  0.49878835  0.66690205  1
  I  I87  1  0.16759710  0.83146387  -0.00006859  1
  I  I88  1  0.16131787  0.83625832  0.33320830  1
  I  I89  1  0.17265171  0.83413551  0.66693945  1
  I  I90  1  0.50189410  0.16557834  -0.00012877  1
  I  I91  1  0.50640716  0.16703393  0.33719725  1
  I  I92  1  0.50038483  0.15979587  0.66327292  1
  I  I93  1  0.50737391  0.50128701  -0.00298374  1
  I  I94  1  0.50038263  0.49881812  0.33357871  1
  I  I95  1  0.50697569  0.50076862  0.66987574  1
  I  I96  1  0.50064531  0.83012167  0.00142654  1
  I  I97  1  0.50582924  0.83577424  0.33490960  1
  I  I98  1  0.50368435  0.83732258  0.66340466  1
  I  I99  1  0.83624119  0.16682886  -0.00291446  1
  I  I100  1  0.83161563  0.16653741  0.33646314  1
  I  I101  1  0.83589159  0.17037284  0.66685111  1
  I  I102  1  0.83353028  0.50044214  -0.00086191  1
  I  I103  1  0.83820069  0.49990171  0.33381228  1
  I  I104  1  0.82807260  0.50004624  0.66702205  1
  I  I105  1  0.83182064  0.83267781  -0.00273292  1
  I  I106  1  0.83167170  0.83347072  0.33641565  1
  I  I107  1  0.82781543  0.82965974  0.66597693  1
  I  I108  1  0.00242776  0.16784256  0.16737857  1
  I  I109  1  -0.00365640  0.16667183  0.50155900  1
  I  I110  1  -0.00204446  0.16909837  0.83061084  1
  I  I111  1  -0.00124262  0.49723005  0.16507710  1
  I  I112  1  -0.00541556  0.49875733  0.50725993  1
  I  I113  1  -0.00383337  0.50154973  0.83101524  1
  I  I114  1  -0.00015412  0.83392121  0.16714009  1
  I  I115  1  -0.00444618  0.83431648  0.50380233  1
  I  I116  1  -0.00521142  0.82612283  0.82781298  1
  I  I117  1  0.32941649  0.17419426  0.16085817  1
  I  I118  1  0.33609838  0.16102226  0.50000827  1
  I  I119  1  0.33107045  0.16991820  0.83609818  1
  I  I120  1  0.33083053  0.49676895  0.16404001  1
  I  I121  1  0.33348233  0.49961704  0.50093575  1
  I  I122  1  0.33524528  0.49926159  0.83478320  1
  I  I123  1  0.33719335  0.83126624  0.17384023  1
  I  I124  1  0.33689208  0.83916810  0.49490234  1
  I  I125  1  0.33343027  0.83162784  0.83346171  1
  I  I126  1  0.66644331  0.16778570  0.16409856  1
  I  I127  1  0.66855510  0.16591206  0.50559611  1
  I  I128  1  0.67019541  0.16579460  0.83061899  1
  I  I129  1  0.66971191  0.50183348  0.16778189  1
  I  I130  1  0.67065465  0.49975662  0.49577065  1
  I  I131  1  0.66970826  0.49794734  0.83568371  1
  I  I132  1  0.66405277  0.83131841  0.16887877  1
  I  I133  1  0.66796817  0.83411734  0.49958491  1
  I  I134  1  0.67050566  0.83719170  0.83191190  1
