# generated using pymatgen
data_Cs27Sn13Pb14I81
_symmetry_space_group_name_H-M   'P 1'
_cell_length_a   18.97753687
_cell_length_b   18.97678946
_cell_length_c   18.97754978
_cell_angle_alpha   90.00248631
_cell_angle_beta   89.99893853
_cell_angle_gamma   89.99986636
_symmetry_Int_Tables_number   1
_chemical_formula_structural   Cs27Sn13Pb14I81
_chemical_formula_sum   'Cs27 Sn13 Pb14 I81'
_cell_volume   6834.43664386
_cell_formula_units_Z   1
loop_
 _symmetry_equiv_pos_site_id
 _symmetry_equiv_pos_as_xyz
  1  'x, y, z'
loop_
 _atom_site_type_symbol
 _atom_site_label
 _atom_site_symmetry_multiplicity
 _atom_site_fract_x
 _atom_site_fract_y
 _atom_site_fract_z
 _atom_site_occupancy
  Cs  Cs0  1  0.00028811  0.00243929  0.00058290  1
  Cs  Cs1  1  0.00049061  0.00474776  0.33453739  1
  Cs  Cs2  1  0.00003713  -0.00156395  0.66569557  1
  Cs  Cs3  1  0.00030600  0.33281554  -0.00156931  1
  Cs  Cs4  1  -0.00072370  0.33064347  0.33270801  1
  Cs  Cs5  1  0.00054601  0.33309160  0.66863332  1
  Cs  Cs6  1  0.00092620  0.66491463  -0.00349182  1
  Cs  Cs7  1  0.00001851  0.66614645  0.33324715  1
  Cs  Cs8  1  0.00139986  0.66793445  0.66956123  1
  Cs  Cs9  1  0.33428755  -0.00393474  -0.00060755  1
  Cs  Cs10  1  0.33061285  -0.00247246  0.33308390  1
  Cs  Cs11  1  0.33746037  0.00190532  0.66841314  1
  Cs  Cs12  1  0.33366274  0.33457163  -0.00039495  1
  Cs  Cs13  1  0.33193193  0.33307141  0.33358717  1
  Cs  Cs14  1  0.33610693  0.33216344  0.66655656  1
  Cs  Cs15  1  0.33080230  0.66767105  0.00309127  1
  Cs  Cs16  1  0.33353616  0.66783561  0.33276405  1
  Cs  Cs17  1  0.32991512  0.66538233  0.66494655  1
  Cs  Cs18  1  0.66565736  0.00186444  -0.00098179  1
  Cs  Cs19  1  0.66801411  -0.00226435  0.33774327  1
  Cs  Cs20  1  0.66115082  -0.00577802  0.66202434  1
  Cs  Cs21  1  0.66793130  0.33248911  0.00231737  1
  Cs  Cs22  1  0.66844369  0.33605191  0.33049076  1
  Cs  Cs23  1  0.66273004  0.33290878  0.66614725  1
  Cs  Cs24  1  0.66804739  0.66843171  -0.00042947  1
  Cs  Cs25  1  0.66576260  0.66410653  0.33287078  1
  Cs  Cs26  1  0.66962368  0.67096251  0.66800692  1
  Sn  Sn27  1  0.83350815  0.49978297  0.49983046  1
  Sn  Sn28  1  0.83299668  0.50019169  0.16703345  1
  Sn  Sn29  1  0.16620295  0.16593216  0.83343236  1
  Sn  Sn30  1  0.83238755  0.16652974  0.16590656  1
  Sn  Sn31  1  0.50062828  0.49917935  0.16635374  1
  Sn  Sn32  1  0.83329475  0.16654838  0.83315962  1
  Sn  Sn33  1  0.16633793  0.50037934  0.49984748  1
  Sn  Sn34  1  0.16642319  0.83286293  0.50056519  1
  Sn  Sn35  1  0.16649489  0.83426653  0.83274095  1
  Sn  Sn36  1  0.50018726  0.50003185  0.50002932  1
  Sn  Sn37  1  0.50026629  0.50041185  0.83375968  1
  Sn  Sn38  1  0.50060703  0.16719109  0.16690760  1
  Sn  Sn39  1  0.83349183  0.83335873  0.16657951  1
  Pb  Pb40  1  0.16691351  0.16677962  0.16434194  1
  Pb  Pb41  1  0.16669031  0.16655517  0.50262012  1
  Pb  Pb42  1  0.83559104  0.83083573  0.49803084  1
  Pb  Pb43  1  0.49753622  0.83061079  0.83346033  1
  Pb  Pb44  1  0.16657485  0.49984892  0.16909348  1
  Pb  Pb45  1  0.83314467  0.16868953  0.50011269  1
  Pb  Pb46  1  0.16413599  0.83334022  0.16682062  1
  Pb  Pb47  1  0.83513957  0.83609357  0.83519089  1
  Pb  Pb48  1  0.50038863  0.16817627  0.83526396  1
  Pb  Pb49  1  0.16859193  0.49976986  0.83118097  1
  Pb  Pb50  1  0.50011357  0.16870093  0.49672392  1
  Pb  Pb51  1  0.50242340  0.83324838  0.16671563  1
  Pb  Pb52  1  0.49755299  0.83078633  0.49988389  1
  Pb  Pb53  1  0.83139044  0.49814745  0.83344808  1
  I  I54  1  0.16678423  0.00006559  0.17138903  1
  I  I55  1  0.16519926  -0.00294823  0.50100785  1
  I  I56  1  0.16225717  0.00004393  0.82828485  1
  I  I57  1  0.16292633  0.33341540  0.16649556  1
  I  I58  1  0.16744677  0.33663611  0.50016054  1
  I  I59  1  0.16404177  0.33094101  0.83328372  1
  I  I60  1  0.16633474  0.66651715  0.16199841  1
  I  I61  1  0.16696960  0.66565920  0.50578258  1
  I  I62  1  0.16870151  0.66876664  0.83096499  1
  I  I63  1  0.50366019  0.00309311  0.16418018  1
  I  I64  1  0.49792285  -0.00011286  0.49907890  1
  I  I65  1  0.50047261  0.00013767  0.83601173  1
  I  I66  1  0.50782744  0.33482548  0.16695242  1
  I  I67  1  0.49686422  0.33781995  0.50234610  1
  I  I68  1  0.49716761  0.33641650  0.83107674  1
  I  I69  1  0.50348923  0.66284151  0.16774140  1
  I  I70  1  0.50207580  0.66186039  0.49614484  1
  I  I71  1  0.49942255  0.66217463  0.83578922  1
  I  I72  1  0.83074232  0.00127188  0.16096234  1
  I  I73  1  0.83690642  -0.00018847  0.49785398  1
  I  I74  1  0.83514195  0.00410969  0.84017994  1
  I  I75  1  0.82907945  0.33374615  0.16712301  1
  I  I76  1  0.83558480  0.33746723  0.49398704  1
  I  I77  1  0.84013063  0.33044625  0.83939728  1
  I  I78  1  0.83005696  0.66507053  0.17195679  1
  I  I79  1  0.83050854  0.66237514  0.49464803  1
  I  I80  1  0.83421370  0.66651283  0.83473341  1
  I  I81  1  0.16496301  0.16158521  -0.00357239  1
  I  I82  1  0.16619411  0.16637477  0.33337359  1
  I  I83  1  0.16068374  0.16702636  0.67055727  1
  I  I84  1  0.16734343  0.50109692  -0.00024646  1
  I  I85  1  0.17051196  0.50608524  0.33728236  1
  I  I86  1  0.16619704  0.50103058  0.66309928  1
  I  I87  1  0.16606487  0.83745379  -0.00285825  1
  I  I88  1  0.16627269  0.82704368  0.33623465  1
  I  I89  1  0.16553701  0.83147134  0.66659546  1
  I  I90  1  0.50157934  0.17450646  0.00320952  1
  I  I91  1  0.50647417  0.17249872  0.32860914  1
  I  I92  1  0.49943539  0.16992374  0.66681037  1
  I  I93  1  0.50431490  0.49579104  0.00139004  1
  I  I94  1  0.50095877  0.49639895  0.33294096  1
  I  I95  1  0.49872544  0.50003423  0.66585361  1
  I  I96  1  0.49631960  0.82912064  0.00017047  1
  I  I97  1  0.49670365  0.83189313  0.33321332  1
  I  I98  1  0.50294879  0.83194065  0.66666042  1
  I  I99  1  0.83440387  0.16959258  0.00140122  1
  I  I100  1  0.82969003  0.16603490  0.32970450  1
  I  I101  1  0.83939480  0.17039383  0.66960029  1
  I  I102  1  0.82866194  0.50094597  0.00323186  1
  I  I103  1  0.82971215  0.49855499  0.33233568  1
  I  I104  1  0.83264005  0.49786468  0.66400638  1
  I  I105  1  0.83567604  0.82694808  0.00330660  1
  I  I106  1  0.83538306  0.83766796  0.32991332  1
  I  I107  1  0.83319197  0.83263124  0.66662270  1
  I  I108  1  -0.00346998  0.16820622  0.16516143  1
  I  I109  1  -0.00005519  0.17106317  0.49526314  1
  I  I110  1  -0.00027959  0.16536194  0.83950080  1
  I  I111  1  -0.00361645  0.49875211  0.17095177  1
  I  I112  1  -0.00025220  0.50332908  0.49509756  1
  I  I113  1  -0.00000806  0.50080361  0.83326747  1
  I  I114  1  -0.00381120  0.83260822  0.16683854  1
  I  I115  1  0.00338728  0.82593823  0.50351092  1
  I  I116  1  0.00324394  0.83260354  0.83002547  1
  I  I117  1  0.33642909  0.17378162  0.16605525  1
  I  I118  1  0.33329934  0.17027575  0.49973707  1
  I  I119  1  0.33094538  0.16461428  0.83384941  1
  I  I120  1  0.33676931  0.49518589  0.16702489  1
  I  I121  1  0.33363258  0.50383735  0.50018562  1
  I  I122  1  0.33653436  0.49816268  0.83459361  1
  I  I123  1  0.33322053  0.83293459  0.16657820  1
  I  I124  1  0.32939285  0.82727831  0.50234450  1
  I  I125  1  0.32929319  0.84000344  0.83024636  1
  I  I126  1  0.66804259  0.16935394  0.16021863  1
  I  I127  1  0.66671592  0.16768470  0.50570784  1
  I  I128  1  0.66934469  0.17104237  0.83772589  1
  I  I129  1  0.66703673  0.49911316  0.17141158  1
  I  I130  1  0.66657059  0.49751065  0.49737716  1
  I  I131  1  0.66353143  0.49694080  0.82975437  1
  I  I132  1  0.67041620  0.83208429  0.16644526  1
  I  I133  1  0.66695186  0.83261007  0.49916063  1
  I  I134  1  0.66684472  0.83366115  0.83442252  1
