# generated using pymatgen
data_Cs27Sn13Pb14I81
_symmetry_space_group_name_H-M   'P 1'
_cell_length_a   18.98297319
_cell_length_b   18.97193324
_cell_length_c   18.97852903
_cell_angle_alpha   89.99997897
_cell_angle_beta   89.99933370
_cell_angle_gamma   90.00287943
_symmetry_Int_Tables_number   1
_chemical_formula_structural   Cs27Sn13Pb14I81
_chemical_formula_sum   'Cs27 Sn13 Pb14 I81'
_cell_volume   6834.99765545
_cell_formula_units_Z   1
loop_
 _symmetry_equiv_pos_site_id
 _symmetry_equiv_pos_as_xyz
  1  'x, y, z'
loop_
 _atom_site_type_symbol
 _atom_site_label
 _atom_site_symmetry_multiplicity
 _atom_site_fract_x
 _atom_site_fract_y
 _atom_site_fract_z
 _atom_site_occupancy
  Cs  Cs0  1  -0.00211924  -0.00214715  0.00058773  1
  Cs  Cs1  1  0.00756730  -0.00042634  0.33589987  1
  Cs  Cs2  1  0.00003954  0.00193288  0.66455231  1
  Cs  Cs3  1  -0.00040137  0.33491958  -0.00126479  1
  Cs  Cs4  1  -0.00277599  0.33060157  0.33474098  1
  Cs  Cs5  1  -0.00139850  0.33241072  0.66733235  1
  Cs  Cs6  1  -0.00140671  0.66585754  -0.00099538  1
  Cs  Cs7  1  0.00008217  0.66850484  0.33181457  1
  Cs  Cs8  1  0.00045806  0.66598261  0.66902604  1
  Cs  Cs9  1  0.34193680  0.00354640  0.00654014  1
  Cs  Cs10  1  0.32795016  -0.00406961  0.32857516  1
  Cs  Cs11  1  0.33652833  -0.00266364  0.66528860  1
  Cs  Cs12  1  0.33421983  0.33385906  -0.00014634  1
  Cs  Cs13  1  0.33338053  0.33136227  0.33087723  1
  Cs  Cs14  1  0.33361312  0.33405789  0.66892155  1
  Cs  Cs15  1  0.33086135  0.66134611  -0.00066567  1
  Cs  Cs16  1  0.33456689  0.67148988  0.33771403  1
  Cs  Cs17  1  0.33303806  0.66706813  0.66413042  1
  Cs  Cs18  1  0.66222212  -0.00517475  0.00038588  1
  Cs  Cs19  1  0.66537237  -0.00219073  0.33113511  1
  Cs  Cs20  1  0.66404139  -0.00168363  0.66916418  1
  Cs  Cs21  1  0.66730913  0.33287518  0.00038629  1
  Cs  Cs22  1  0.66928630  0.33425099  0.33719760  1
  Cs  Cs23  1  0.66776698  0.33245590  0.66256157  1
  Cs  Cs24  1  0.66995248  0.66989996  0.00023025  1
  Cs  Cs25  1  0.66425939  0.66787080  0.33703974  1
  Cs  Cs26  1  0.66458039  0.66961150  0.66264140  1
  Sn  Sn27  1  0.50044423  0.49971493  0.16599044  1
  Sn  Sn28  1  0.83311162  0.49920932  0.16592786  1
  Sn  Sn29  1  0.16652667  0.49967316  0.83330628  1
  Sn  Sn30  1  0.16690306  0.83407730  0.83389877  1
  Sn  Sn31  1  0.50065405  0.49981979  0.83372950  1
  Sn  Sn32  1  0.83381760  0.16730689  0.83440104  1
  Sn  Sn33  1  0.49955425  0.16686796  0.49977489  1
  Sn  Sn34  1  0.83279557  0.49935158  0.83367033  1
  Sn  Sn35  1  0.16630045  0.49936563  0.49984948  1
  Sn  Sn36  1  0.16643283  0.49970531  0.16708051  1
  Sn  Sn37  1  0.16633590  0.16627258  0.83353982  1
  Sn  Sn38  1  0.83348555  0.16725426  0.16574758  1
  Sn  Sn39  1  0.83378708  0.83338261  0.50021575  1
  Pb  Pb40  1  0.83497394  0.83346637  0.83201977  1
  Pb  Pb41  1  0.16658001  0.83099151  0.16369315  1
  Pb  Pb42  1  0.83529181  0.50128788  0.50003217  1
  Pb  Pb43  1  0.50171355  0.83635583  0.50000241  1
  Pb  Pb44  1  0.50256482  0.16915081  0.16868990  1
  Pb  Pb45  1  0.49764270  0.49871770  0.49980194  1
  Pb  Pb46  1  0.49698531  0.83016558  0.83352324  1
  Pb  Pb47  1  0.50045514  0.16883146  0.83235684  1
  Pb  Pb48  1  0.83355037  0.83323583  0.16869613  1
  Pb  Pb49  1  0.16449631  0.16881303  0.16408447  1
  Pb  Pb50  1  0.49994955  0.83015862  0.16644764  1
  Pb  Pb51  1  0.16503412  0.83123463  0.50220354  1
  Pb  Pb52  1  0.16870852  0.16856865  0.50225117  1
  Pb  Pb53  1  0.83214386  0.16455329  0.50012370  1
  I  I54  1  0.16451313  0.00033638  0.16626255  1
  I  I55  1  0.16651019  0.00005462  0.50239247  1
  I  I56  1  0.15874885  0.00090691  0.83061909  1
  I  I57  1  0.16878526  0.33769619  0.16386504  1
  I  I58  1  0.16538389  0.33695257  0.50309745  1
  I  I59  1  0.16578470  0.33516141  0.83318402  1
  I  I60  1  0.16356417  0.66163805  0.16380663  1
  I  I61  1  0.16720591  0.66284333  0.50258979  1
  I  I62  1  0.16645671  0.66410952  0.83335998  1
  I  I63  1  0.50193239  0.00052318  0.16819646  1
  I  I64  1  0.50126163  0.00379357  0.50315273  1
  I  I65  1  0.49995517  0.00019426  0.83038788  1
  I  I66  1  0.49679329  0.33747579  0.16230838  1
  I  I67  1  0.50196426  0.33146778  0.50126801  1
  I  I68  1  0.49472285  0.33717768  0.83619625  1
  I  I69  1  0.50259082  0.66119198  0.16354516  1
  I  I70  1  0.49964192  0.66651803  0.49982796  1
  I  I71  1  0.50094093  0.66145369  0.83577425  1
  I  I72  1  0.83263523  0.00324020  0.16240002  1
  I  I73  1  0.83262487  -0.00265980  0.50151771  1
  I  I74  1  0.83856746  0.00329292  0.83518178  1
  I  I75  1  0.83390189  0.33506705  0.16325123  1
  I  I76  1  0.83322728  0.33327752  0.50023375  1
  I  I77  1  0.83840653  0.33460656  0.83566480  1
  I  I78  1  0.83403929  0.66267929  0.16236749  1
  I  I79  1  0.83454949  0.66872032  0.50117052  1
  I  I80  1  0.83515011  0.66309841  0.83654910  1
  I  I81  1  0.16627397  0.17038964  -0.00426181  1
  I  I82  1  0.16544694  0.16943283  0.33310268  1
  I  I83  1  0.16006914  0.17133277  0.67066250  1
  I  I84  1  0.16690323  0.50057776  -0.00114261  1
  I  I85  1  0.16621824  0.49991062  0.33249346  1
  I  I86  1  0.16669833  0.50033511  0.66880285  1
  I  I87  1  0.16344410  0.82868721  -0.00427362  1
  I  I88  1  0.16558851  0.83077632  0.33328565  1
  I  I89  1  0.16499372  0.82866487  0.67009936  1
  I  I90  1  0.49787146  0.16631037  0.00011713  1
  I  I91  1  0.50287366  0.17106981  0.33602795  1
  I  I92  1  0.50209115  0.17086623  0.66487285  1
  I  I93  1  0.49488658  0.49882246  -0.00055898  1
  I  I94  1  0.50068618  0.49790853  0.33034388  1
  I  I95  1  0.49905136  0.49822967  0.66952902  1
  I  I96  1  0.50169650  0.83725068  -0.00030053  1
  I  I97  1  0.50104612  0.83018569  0.33344924  1
  I  I98  1  0.50055633  0.83022238  0.66682247  1
  I  I99  1  0.83752618  0.17246502  -0.00111200  1
  I  I100  1  0.83025437  0.17218627  0.33063253  1
  I  I101  1  0.83619378  0.17113216  0.67000204  1
  I  I102  1  0.83725986  0.49738269  -0.00073862  1
  I  I103  1  0.83371744  0.49702948  0.33016074  1
  I  I104  1  0.83461489  0.49695769  0.67000996  1
  I  I105  1  0.83478292  0.83233337  -0.00007525  1
  I  I106  1  0.83331201  0.83168644  0.33624579  1
  I  I107  1  0.83497434  0.83210841  0.66451349  1
  I  I108  1  -0.00348849  0.17350940  0.16660767  1
  I  I109  1  0.00004783  0.16633807  0.49900916  1
  I  I110  1  -0.00031011  0.17283251  0.83508505  1
  I  I111  1  -0.00023055  0.49738813  0.16317274  1
  I  I112  1  0.00311998  0.50027365  0.50225061  1
  I  I113  1  0.00050870  0.49997271  0.83525481  1
  I  I114  1  0.00001162  0.82963852  0.16743002  1
  I  I115  1  -0.00251183  0.83369218  0.50041377  1
  I  I116  1  0.00273040  0.82648338  0.83219046  1
  I  I117  1  0.33330014  0.16843494  0.16638824  1
  I  I118  1  0.33609416  0.16996633  0.50284780  1
  I  I119  1  0.33067853  0.16958475  0.82992938  1
  I  I120  1  0.33282340  0.50088089  0.16221607  1
  I  I121  1  0.32984622  0.49957051  0.50247712  1
  I  I122  1  0.33195417  0.50007527  0.83564938  1
  I  I123  1  0.33312850  0.83267420  0.16775316  1
  I  I124  1  0.33307226  0.83214529  0.50144575  1
  I  I125  1  0.32886615  0.83203508  0.83105289  1
  I  I126  1  0.67053398  0.17326682  0.16070039  1
  I  I127  1  0.66469577  0.16893327  0.50244286  1
  I  I128  1  0.67000396  0.17226194  0.83430153  1
  I  I129  1  0.66748962  0.49624595  0.15975111  1
  I  I130  1  0.66669138  0.50088812  0.50062904  1
  I  I131  1  0.66772038  0.49492121  0.83943787  1
  I  I132  1  0.66698299  0.83097346  0.16686438  1
  I  I133  1  0.66950316  0.83009889  0.50176488  1
  I  I134  1  0.66667843  0.83276215  0.83132401  1
