# generated using pymatgen
data_Cs27Sn13Pb14I81
_symmetry_space_group_name_H-M   'P 1'
_cell_length_a   18.98814179
_cell_length_b   18.98748066
_cell_length_c   18.99814000
_cell_angle_alpha   89.99881928
_cell_angle_beta   89.99998029
_cell_angle_gamma   89.99996241
_symmetry_Int_Tables_number   1
_chemical_formula_structural   Cs27Sn13Pb14I81
_chemical_formula_sum   'Cs27 Sn13 Pb14 I81'
_cell_volume   6849.53192360
_cell_formula_units_Z   1
loop_
 _symmetry_equiv_pos_site_id
 _symmetry_equiv_pos_as_xyz
  1  'x, y, z'
loop_
 _atom_site_type_symbol
 _atom_site_label
 _atom_site_symmetry_multiplicity
 _atom_site_fract_x
 _atom_site_fract_y
 _atom_site_fract_z
 _atom_site_occupancy
  Cs  Cs0  1  -0.00028981  -0.00204151  0.00022597  1
  Cs  Cs1  1  0.00002818  0.00220829  0.33052891  1
  Cs  Cs2  1  0.00076328  -0.00168597  0.66996258  1
  Cs  Cs3  1  -0.00066608  0.33466038  0.00232554  1
  Cs  Cs4  1  0.00023622  0.33512586  0.33429320  1
  Cs  Cs5  1  -0.00326506  0.33567857  0.66495507  1
  Cs  Cs6  1  0.00134121  0.66843500  -0.00040630  1
  Cs  Cs7  1  0.00289129  0.66403869  0.33492025  1
  Cs  Cs8  1  0.00020437  0.66587574  0.66610041  1
  Cs  Cs9  1  0.33065292  0.01082486  -0.00630169  1
  Cs  Cs10  1  0.34013085  0.00482583  0.33510947  1
  Cs  Cs11  1  0.33615769  0.00811924  0.66892519  1
  Cs  Cs12  1  0.34335227  0.32852549  -0.00214290  1
  Cs  Cs13  1  0.33205962  0.32712372  0.33285036  1
  Cs  Cs14  1  0.33591590  0.32691915  0.66859234  1
  Cs  Cs15  1  0.33381582  0.66507645  0.00107756  1
  Cs  Cs16  1  0.33043233  0.66774642  0.33277635  1
  Cs  Cs17  1  0.33274465  0.66723366  0.66622086  1
  Cs  Cs18  1  0.66991041  -0.00499573  0.01128549  1
  Cs  Cs19  1  0.66020185  -0.00281609  0.32655842  1
  Cs  Cs20  1  0.66510692  -0.00084603  0.66458849  1
  Cs  Cs21  1  0.65999720  0.33329388  -0.00167910  1
  Cs  Cs22  1  0.66952308  0.33388706  0.33127372  1
  Cs  Cs23  1  0.67037820  0.33416119  0.66856966  1
  Cs  Cs24  1  0.66247251  0.66958933  0.00184337  1
  Cs  Cs25  1  0.66339567  0.66862071  0.33431903  1
  Cs  Cs26  1  0.66682858  0.66701595  0.66582144  1
  Sn  Sn27  1  0.16608831  0.83307663  0.49924332  1
  Sn  Sn28  1  0.83378466  0.50045933  0.16639637  1
  Sn  Sn29  1  0.83395945  0.49972268  0.83379974  1
  Sn  Sn30  1  0.83340473  0.16698263  0.83285715  1
  Sn  Sn31  1  0.83365517  0.16607127  0.50059267  1
  Sn  Sn32  1  0.49992161  0.83294384  0.83306459  1
  Sn  Sn33  1  0.49950275  0.50002182  0.50003793  1
  Sn  Sn34  1  0.16698486  0.83282646  0.16754672  1
  Sn  Sn35  1  0.16631349  0.49998690  0.83333242  1
  Sn  Sn36  1  0.83413833  0.83347518  0.49986682  1
  Sn  Sn37  1  0.16714130  0.50044665  0.50027737  1
  Sn  Sn38  1  0.83317273  0.50043115  0.49990277  1
  Sn  Sn39  1  0.16597899  0.50036459  0.16644009  1
  Pb  Pb40  1  0.16411402  0.16642471  0.50004886  1
  Pb  Pb41  1  0.83353996  0.16935474  0.16659130  1
  Pb  Pb42  1  0.50419406  0.16359463  0.83315703  1
  Pb  Pb43  1  0.16352909  0.17016527  0.83320599  1
  Pb  Pb44  1  0.50025043  0.50120969  0.83114008  1
  Pb  Pb45  1  0.49577226  0.83296337  0.16411969  1
  Pb  Pb46  1  0.16635033  0.16713871  0.16675654  1
  Pb  Pb47  1  0.49912482  0.83159032  0.50121243  1
  Pb  Pb48  1  0.83206886  0.83289252  0.83141934  1
  Pb  Pb49  1  0.16828706  0.83136967  0.83283564  1
  Pb  Pb50  1  0.50353296  0.16977720  0.50009011  1
  Pb  Pb51  1  0.49926393  0.50014751  0.16952089  1
  Pb  Pb52  1  0.50020604  0.16675909  0.16677661  1
  Pb  Pb53  1  0.83560076  0.83044574  0.16967905  1
  I  I54  1  0.16725052  -0.00335946  0.17237424  1
  I  I55  1  0.16158881  -0.00354454  0.49501923  1
  I  I56  1  0.16761009  0.00003116  0.83403165  1
  I  I57  1  0.16131251  0.33770056  0.16932839  1
  I  I58  1  0.16573814  0.33729607  0.49891326  1
  I  I59  1  0.16631802  0.33865166  0.83188688  1
  I  I60  1  0.16214715  0.66491855  0.16831032  1
  I  I61  1  0.16154295  0.66498635  0.49973248  1
  I  I62  1  0.15955912  0.66298607  0.83221174  1
  I  I63  1  0.50046705  -0.00062766  0.16774766  1
  I  I64  1  0.50004828  0.00003408  0.50120475  1
  I  I65  1  0.49765578  -0.00346868  0.83015496  1
  I  I66  1  0.49846749  0.33404127  0.16589267  1
  I  I67  1  0.49771099  0.33793125  0.50141717  1
  I  I68  1  0.49746917  0.33316914  0.83273029  1
  I  I69  1  0.50376078  0.66651648  0.16577214  1
  I  I70  1  0.50590631  0.66372609  0.50167954  1
  I  I71  1  0.50283268  0.66847520  0.83138007  1
  I  I72  1  0.83417021  -0.00036259  0.16601067  1
  I  I73  1  0.83933297  -0.00039630  0.50725952  1
  I  I74  1  0.83033865  0.00235499  0.82640902  1
  I  I75  1  0.84036332  0.33780262  0.17254115  1
  I  I76  1  0.83319056  0.33550695  0.50069725  1
  I  I77  1  0.83722047  0.33545178  0.82727750  1
  I  I78  1  0.83517152  0.66235546  0.16529550  1
  I  I79  1  0.83400611  0.66494621  0.50077150  1
  I  I80  1  0.83604353  0.66306974  0.83124510  1
  I  I81  1  0.16404626  0.16470352  -0.00015759  1
  I  I82  1  0.16346981  0.17212305  0.33359583  1
  I  I83  1  0.16836669  0.16555475  0.66662181  1
  I  I84  1  0.15745962  0.50503156  0.00026028  1
  I  I85  1  0.16261536  0.50429483  0.33416648  1
  I  I86  1  0.16268431  0.50444735  0.66565049  1
  I  I87  1  0.16864025  0.82703199  0.00238427  1
  I  I88  1  0.16134896  0.82255882  0.33457790  1
  I  I89  1  0.16315652  0.82725651  0.66336298  1
  I  I90  1  0.50115901  0.16811244  -0.00060233  1
  I  I91  1  0.50186713  0.16632686  0.33394183  1
  I  I92  1  0.49746515  0.16627797  0.66662859  1
  I  I93  1  0.50035477  0.50060185  -0.00011050  1
  I  I94  1  0.50286807  0.50199126  0.33741352  1
  I  I95  1  0.50125980  0.50220718  0.66352504  1
  I  I96  1  0.50262877  0.83021897  -0.00319774  1
  I  I97  1  0.50282097  0.83250622  0.33331106  1
  I  I98  1  0.49925373  0.83028122  0.66858814  1
  I  I99  1  0.83318342  0.17215920  -0.00314115  1
  I  I100  1  0.83421896  0.16944298  0.33649318  1
  I  I101  1  0.83394594  0.17397923  0.66584574  1
  I  I102  1  0.84113778  0.49498725  -0.00058201  1
  I  I103  1  0.83567362  0.49947778  0.33486188  1
  I  I104  1  0.83555493  0.49923818  0.66560619  1
  I  I105  1  0.83271640  0.83417482  0.00025838  1
  I  I106  1  0.83304049  0.83332191  0.33784281  1
  I  I107  1  0.83864265  0.82765187  0.66320496  1
  I  I108  1  -0.00029444  0.16499981  0.16650272  1
  I  I109  1  -0.00383893  0.17297578  0.50338408  1
  I  I110  1  -0.00411472  0.16703610  0.82808461  1
  I  I111  1  0.00008417  0.50266599  0.17076197  1
  I  I112  1  -0.00056411  0.50011834  0.50013847  1
  I  I113  1  -0.00073822  0.49780577  0.82874400  1
  I  I114  1  0.00332897  0.83046544  0.16627237  1
  I  I115  1  -0.00010793  0.82702231  0.49852969  1
  I  I116  1  0.00005590  0.83546645  0.83468768  1
  I  I117  1  0.33302689  0.16948803  0.16633271  1
  I  I118  1  0.33341197  0.16690680  0.49934169  1
  I  I119  1  0.33363312  0.16719424  0.83452172  1
  I  I120  1  0.32939116  0.50472366  0.16664119  1
  I  I121  1  0.33172256  0.50721329  0.50024638  1
  I  I122  1  0.33050032  0.50433744  0.83292334  1
  I  I123  1  0.32830864  0.82224461  0.17571197  1
  I  I124  1  0.32976190  0.82548890  0.49718856  1
  I  I125  1  0.33563814  0.82812244  0.83113647  1
  I  I126  1  0.66740732  0.16816883  0.16711075  1
  I  I127  1  0.67164481  0.16738702  0.50496929  1
  I  I128  1  0.67135941  0.17757979  0.82689879  1
  I  I129  1  0.66973187  0.49807259  0.16719453  1
  I  I130  1  0.66890578  0.50009583  0.50088454  1
  I  I131  1  0.67013163  0.49710639  0.83196922  1
  I  I132  1  0.66656152  0.83309023  0.16702799  1
  I  I133  1  0.66942509  0.83070569  0.50361314  1
  I  I134  1  0.66462356  0.83012379  0.82903224  1
