# generated using pymatgen
data_Cs27Sn14Pb13I81
_symmetry_space_group_name_H-M   'P 1'
_cell_length_a   18.97462139
_cell_length_b   18.97603129
_cell_length_c   18.97601832
_cell_angle_alpha   90.00059046
_cell_angle_beta   89.99981520
_cell_angle_gamma   90.00049034
_symmetry_Int_Tables_number   1
_chemical_formula_structural   Cs27Sn14Pb13I81
_chemical_formula_sum   'Cs27 Sn14 Pb13 I81'
_cell_volume   6832.56226019
_cell_formula_units_Z   1
loop_
 _symmetry_equiv_pos_site_id
 _symmetry_equiv_pos_as_xyz
  1  'x, y, z'
loop_
 _atom_site_type_symbol
 _atom_site_label
 _atom_site_symmetry_multiplicity
 _atom_site_fract_x
 _atom_site_fract_y
 _atom_site_fract_z
 _atom_site_occupancy
  Cs  Cs0  1  0.00091449  -0.00017042  -0.00132273  1
  Cs  Cs1  1  0.00029399  0.00147166  0.33357775  1
  Cs  Cs2  1  0.00099717  0.00092886  0.66685071  1
  Cs  Cs3  1  0.00012885  0.33465069  0.00027870  1
  Cs  Cs4  1  0.00174344  0.33062161  0.33238857  1
  Cs  Cs5  1  0.00044567  0.33309833  0.66754805  1
  Cs  Cs6  1  -0.00406470  0.66494451  -0.00010366  1
  Cs  Cs7  1  -0.00400905  0.66929211  0.32650658  1
  Cs  Cs8  1  0.00217389  0.66575034  0.67225111  1
  Cs  Cs9  1  0.33627012  0.00081419  0.00098265  1
  Cs  Cs10  1  0.33283285  -0.00074723  0.33048674  1
  Cs  Cs11  1  0.33131454  0.00150031  0.66809260  1
  Cs  Cs12  1  0.33547787  0.33351437  0.00121815  1
  Cs  Cs13  1  0.33183302  0.33388625  0.33325904  1
  Cs  Cs14  1  0.33154633  0.33278686  0.66549906  1
  Cs  Cs15  1  0.33289695  0.66550649  -0.00036395  1
  Cs  Cs16  1  0.33497319  0.66644721  0.33419688  1
  Cs  Cs17  1  0.33367334  0.66608011  0.66654868  1
  Cs  Cs18  1  0.66201380  0.00245702  -0.00210816  1
  Cs  Cs19  1  0.66680267  -0.00866041  0.33515638  1
  Cs  Cs20  1  0.67001477  -0.00047967  0.66888904  1
  Cs  Cs21  1  0.66394962  0.33185350  0.00123240  1
  Cs  Cs22  1  0.66972928  0.33623507  0.33757036  1
  Cs  Cs23  1  0.66715907  0.33488210  0.66124414  1
  Cs  Cs24  1  0.67054602  0.66451413  0.00047134  1
  Cs  Cs25  1  0.67215609  0.67188822  0.34028306  1
  Cs  Cs26  1  0.66362370  0.66576947  0.66067271  1
  Sn  Sn27  1  0.83365170  0.16663026  0.16585060  1
  Sn  Sn28  1  0.49968911  0.50022560  0.16656042  1
  Sn  Sn29  1  0.16627754  0.16736276  0.16623074  1
  Sn  Sn30  1  0.16682162  0.83321588  0.50049915  1
  Sn  Sn31  1  0.16758823  0.49935741  0.16727162  1
  Sn  Sn32  1  0.16681895  0.83407169  0.83292377  1
  Sn  Sn33  1  0.49938231  0.16629535  0.49978331  1
  Sn  Sn34  1  0.49974841  0.83221587  0.83350863  1
  Sn  Sn35  1  0.83349494  0.83405319  0.83336882  1
  Sn  Sn36  1  0.16775802  0.16659885  0.49993719  1
  Sn  Sn37  1  0.49965266  0.50055750  0.83390600  1
  Sn  Sn38  1  0.16668948  0.50035146  0.49893424  1
  Sn  Sn39  1  0.16618876  0.16608871  0.83376579  1
  Sn  Sn40  1  0.83426542  0.16633388  0.83443427  1
  Pb  Pb41  1  0.50032226  0.16840813  0.16932017  1
  Pb  Pb42  1  0.50001951  0.83016252  0.16447422  1
  Pb  Pb43  1  0.83335912  0.49761606  0.16662240  1
  Pb  Pb44  1  0.16682963  0.83327452  0.16615632  1
  Pb  Pb45  1  0.50011478  0.16687690  0.83176905  1
  Pb  Pb46  1  0.83666336  0.83342055  0.50290787  1
  Pb  Pb47  1  0.16816055  0.49976278  0.83382192  1
  Pb  Pb48  1  0.49745442  0.83574817  0.50240566  1
  Pb  Pb49  1  0.83330779  0.83656485  0.16394923  1
  Pb  Pb50  1  0.83386945  0.16652817  0.50011211  1
  Pb  Pb51  1  0.49806094  0.49856451  0.49960719  1
  Pb  Pb52  1  0.83018581  0.49936023  0.83325035  1
  Pb  Pb53  1  0.83725335  0.50016942  0.49997656  1
  I  I54  1  0.16236964  0.00339084  0.16884874  1
  I  I55  1  0.17009452  0.00100631  0.50184500  1
  I  I56  1  0.16786777  0.00051658  0.83012992  1
  I  I57  1  0.16657766  0.33234439  0.16920812  1
  I  I58  1  0.17061663  0.33224418  0.50022726  1
  I  I59  1  0.16390476  0.33028428  0.83066348  1
  I  I60  1  0.17163727  0.66355996  0.16975366  1
  I  I61  1  0.16664218  0.66668160  0.50215666  1
  I  I62  1  0.16513496  0.66933196  0.82993720  1
  I  I63  1  0.49933076  0.00026986  0.16594886  1
  I  I64  1  0.49342202  0.00348031  0.50137395  1
  I  I65  1  0.49949231  -0.00222180  0.83021642  1
  I  I66  1  0.49703888  0.33610774  0.15853210  1
  I  I67  1  0.49346514  0.33074289  0.50358527  1
  I  I68  1  0.49844302  0.33544946  0.83562896  1
  I  I69  1  0.49074963  0.66208405  0.16525963  1
  I  I70  1  0.49805360  0.66679689  0.49955861  1
  I  I71  1  0.49796472  0.66719317  0.83678255  1
  I  I72  1  0.84160598  0.00455457  0.16588741  1
  I  I73  1  0.83428970  0.00017109  0.49753842  1
  I  I74  1  0.83265203  0.00062430  0.83689476  1
  I  I75  1  0.83603796  0.32963091  0.15918239  1
  I  I76  1  0.83378240  0.33286305  0.50360419  1
  I  I77  1  0.83853943  0.32971645  0.83641679  1
  I  I78  1  0.83459232  0.66668390  0.16502811  1
  I  I79  1  0.83247515  0.66698097  0.50191844  1
  I  I80  1  0.83811006  0.66967770  0.83224788  1
  I  I81  1  0.16223562  0.16683754  -0.00038429  1
  I  I82  1  0.16650417  0.16763086  0.33343415  1
  I  I83  1  0.16692735  0.16649225  0.66685357  1
  I  I84  1  0.16906898  0.49614251  0.00254573  1
  I  I85  1  0.17274802  0.49533575  0.33299182  1
  I  I86  1  0.16857547  0.49727557  0.66466134  1
  I  I87  1  0.16656984  0.83666396  -0.00382167  1
  I  I88  1  0.16784713  0.83636678  0.33610196  1
  I  I89  1  0.16663462  0.83653253  0.66778117  1
  I  I90  1  0.49779221  0.16546183  -0.00005898  1
  I  I91  1  0.49377755  0.16975018  0.33669720  1
  I  I92  1  0.49390473  0.16872647  0.66430504  1
  I  I93  1  0.49283532  0.50214291  -0.00014379  1
  I  I94  1  0.49591946  0.49466297  0.33076371  1
  I  I95  1  0.49879052  0.50265308  0.66897636  1
  I  I96  1  0.49557069  0.83517568  -0.00440258  1
  I  I97  1  0.49853163  0.83357490  0.33376776  1
  I  I98  1  0.50160170  0.82674243  0.67071533  1
  I  I99  1  0.84151108  0.16340452  -0.00101936  1
  I  I100  1  0.83781087  0.17018769  0.33067073  1
  I  I101  1  0.83657544  0.16237017  0.66996282  1
  I  I102  1  0.83860979  0.50214631  -0.00019697  1
  I  I103  1  0.82788910  0.49755863  0.33313960  1
  I  I104  1  0.83294288  0.49636293  0.66698673  1
  I  I105  1  0.83826903  0.83405327  -0.00439445  1
  I  I106  1  0.83378429  0.83351891  0.33344947  1
  I  I107  1  0.83153528  0.84187602  0.67105342  1
  I  I108  1  0.00215683  0.17225013  0.16749323  1
  I  I109  1  0.00398057  0.16677035  0.50037637  1
  I  I110  1  0.00154251  0.15991904  0.83178694  1
  I  I111  1  0.00344800  0.49784757  0.17122577  1
  I  I112  1  0.00581859  0.49488764  0.49554341  1
  I  I113  1  0.00022436  0.50244112  0.83300933  1
  I  I114  1  0.00034544  0.82788897  0.16499758  1
  I  I115  1  0.00488981  0.83745023  0.50531818  1
  I  I116  1  0.00104242  0.83879733  0.82870699  1
  I  I117  1  0.33000829  0.16864689  0.16397561  1
  I  I118  1  0.33037089  0.16721179  0.50162596  1
  I  I119  1  0.33022987  0.16393940  0.83488602  1
  I  I120  1  0.33193041  0.49327469  0.16578914  1
  I  I121  1  0.32966752  0.50040763  0.49974266  1
  I  I122  1  0.33586923  0.50310088  0.83404286  1
  I  I123  1  0.33312205  0.83880248  0.16318944  1
  I  I124  1  0.32933151  0.83203863  0.50693136  1
  I  I125  1  0.33226057  0.83390221  0.82915684  1
  I  I126  1  0.66920924  0.16800795  0.16103763  1
  I  I127  1  0.66434624  0.16897659  0.50186850  1
  I  I128  1  0.66918027  0.16370163  0.83622507  1
  I  I129  1  0.66379644  0.49748204  0.15945408  1
  I  I130  1  0.66629623  0.49650942  0.50048049  1
  I  I131  1  0.66218172  0.50245398  0.83951812  1
  I  I132  1  0.66668179  0.83446742  0.16501877  1
  I  I133  1  0.66656410  0.83522286  0.50102805  1
  I  I134  1  0.66678673  0.83513800  0.83610720  1
