# generated using pymatgen
data_Cs27Sn14Pb13I81
_symmetry_space_group_name_H-M   'P 1'
_cell_length_a   18.98626310
_cell_length_b   18.98111312
_cell_length_c   18.95894554
_cell_angle_alpha   90.00142124
_cell_angle_beta   89.99978294
_cell_angle_gamma   89.99981495
_symmetry_Int_Tables_number   1
_chemical_formula_structural   Cs27Sn14Pb13I81
_chemical_formula_sum   'Cs27 Sn14 Pb13 I81'
_cell_volume   6832.43252144
_cell_formula_units_Z   1
loop_
 _symmetry_equiv_pos_site_id
 _symmetry_equiv_pos_as_xyz
  1  'x, y, z'
loop_
 _atom_site_type_symbol
 _atom_site_label
 _atom_site_symmetry_multiplicity
 _atom_site_fract_x
 _atom_site_fract_y
 _atom_site_fract_z
 _atom_site_occupancy
  Cs  Cs0  1  -0.00034942  0.00018986  0.00089159  1
  Cs  Cs1  1  -0.00979085  0.00578416  0.32454232  1
  Cs  Cs2  1  0.00154786  -0.00316058  0.66832105  1
  Cs  Cs3  1  -0.00136255  0.33453512  -0.00155997  1
  Cs  Cs4  1  0.00872938  0.32876688  0.34198260  1
  Cs  Cs5  1  0.00068123  0.33389952  0.66437203  1
  Cs  Cs6  1  0.00096402  0.66573568  -0.00041620  1
  Cs  Cs7  1  0.00033458  0.66632131  0.33626765  1
  Cs  Cs8  1  0.00012585  0.66827654  0.66545912  1
  Cs  Cs9  1  0.33366000  -0.00197652  0.00209899  1
  Cs  Cs10  1  0.33452439  0.00666619  0.32674108  1
  Cs  Cs11  1  0.33298847  -0.00375944  0.66732170  1
  Cs  Cs12  1  0.33317951  0.33614888  -0.00172579  1
  Cs  Cs13  1  0.32590259  0.32663955  0.33543003  1
  Cs  Cs14  1  0.33450079  0.33236314  0.66717682  1
  Cs  Cs15  1  0.33409144  0.66596888  0.00039506  1
  Cs  Cs16  1  0.33222470  0.66602392  0.33258294  1
  Cs  Cs17  1  0.33545796  0.66987891  0.66711164  1
  Cs  Cs18  1  0.66678702  0.00021076  0.00259722  1
  Cs  Cs19  1  0.67396641  0.00765472  0.32419481  1
  Cs  Cs20  1  0.66559802  -0.00156000  0.66679977  1
  Cs  Cs21  1  0.66696049  0.33771178  -0.00198358  1
  Cs  Cs22  1  0.66672840  0.32771098  0.33419142  1
  Cs  Cs23  1  0.66519262  0.33424646  0.66724910  1
  Cs  Cs24  1  0.66530448  0.66329751  -0.00139564  1
  Cs  Cs25  1  0.66816568  0.66810112  0.33460009  1
  Cs  Cs26  1  0.66478837  0.66717898  0.66652442  1
  Sn  Sn27  1  0.16681810  0.16643766  0.83307037  1
  Sn  Sn28  1  0.49997513  0.16633880  0.83313787  1
  Sn  Sn29  1  0.16755337  0.83395437  0.50009712  1
  Sn  Sn30  1  0.49996750  0.50056768  0.49957611  1
  Sn  Sn31  1  0.83304991  0.83304039  0.83327330  1
  Sn  Sn32  1  0.83302283  0.49989099  0.16652688  1
  Sn  Sn33  1  0.50010410  0.83345074  0.83308307  1
  Sn  Sn34  1  0.16668966  0.50032357  0.83307610  1
  Sn  Sn35  1  0.83320830  0.16680924  0.83304208  1
  Sn  Sn36  1  0.49923752  0.83318830  0.50008032  1
  Sn  Sn37  1  0.49998548  0.50020182  0.83306090  1
  Sn  Sn38  1  0.83340950  0.50018896  0.83342864  1
  Sn  Sn39  1  0.50073223  0.50013501  0.16753034  1
  Sn  Sn40  1  0.16688262  0.83322836  0.83321423  1
  Pb  Pb41  1  0.83344576  0.17052977  0.16379996  1
  Pb  Pb42  1  0.16679882  0.16270871  0.50260348  1
  Pb  Pb43  1  0.83323197  0.83028130  0.16387641  1
  Pb  Pb44  1  0.16659754  0.16675862  0.16377812  1
  Pb  Pb45  1  0.50006028  0.16563405  0.50202704  1
  Pb  Pb46  1  0.16940531  0.50212021  0.50272426  1
  Pb  Pb47  1  0.83272948  0.83340022  0.50160653  1
  Pb  Pb48  1  0.49991536  0.17005669  0.16363416  1
  Pb  Pb49  1  0.83328507  0.16665192  0.50277487  1
  Pb  Pb50  1  0.16674483  0.83319542  0.16741469  1
  Pb  Pb51  1  0.16637613  0.50015242  0.16502542  1
  Pb  Pb52  1  0.83097315  0.49991813  0.50002156  1
  Pb  Pb53  1  0.49995379  0.83122492  0.16739418  1
  I  I54  1  0.16762456  -0.00002883  0.16305898  1
  I  I55  1  0.17527894  -0.00488595  0.51058176  1
  I  I56  1  0.16643815  -0.00069486  0.82965525  1
  I  I57  1  0.16771444  0.33367335  0.16408622  1
  I  I58  1  0.16722643  0.33312232  0.50095743  1
  I  I59  1  0.16752591  0.33378902  0.83564349  1
  I  I60  1  0.16671999  0.66645021  0.16106805  1
  I  I61  1  0.16770791  0.66982617  0.50835313  1
  I  I62  1  0.16667117  0.66688421  0.83107673  1
  I  I63  1  0.49901849  0.00023349  0.16570502  1
  I  I64  1  0.49508989  -0.00387561  0.50956519  1
  I  I65  1  0.50017398  -0.00088649  0.82826462  1
  I  I66  1  0.50467267  0.33820538  0.16452189  1
  I  I67  1  0.50229744  0.33616232  0.50297159  1
  I  I68  1  0.49992616  0.33460218  0.83381167  1
  I  I69  1  0.50307113  0.66305855  0.15891863  1
  I  I70  1  0.49728710  0.66655744  0.50720366  1
  I  I71  1  0.50011257  0.66602153  0.83357842  1
  I  I72  1  0.83394206  0.00036414  0.16616751  1
  I  I73  1  0.83107867  -0.00026436  0.50322879  1
  I  I74  1  0.83331656  -0.00034128  0.83053475  1
  I  I75  1  0.82672535  0.33791929  0.15667834  1
  I  I76  1  0.83107396  0.33367093  0.50371751  1
  I  I77  1  0.83264500  0.33415953  0.83731315  1
  I  I78  1  0.82885650  0.66264873  0.15840612  1
  I  I79  1  0.83518543  0.66662702  0.50346550  1
  I  I80  1  0.83308216  0.66620956  0.83661434  1
  I  I81  1  0.16682959  0.16434118  -0.00569540  1
  I  I82  1  0.16679592  0.16638083  0.33378857  1
  I  I83  1  0.16687213  0.17004855  0.67161846  1
  I  I84  1  0.17133615  0.50234095  -0.00478610  1
  I  I85  1  0.16608513  0.50240245  0.33385186  1
  I  I86  1  0.16485244  0.49743265  0.67164298  1
  I  I87  1  0.16751129  0.83345077  -0.00461024  1
  I  I88  1  0.17422931  0.82996311  0.33714760  1
  I  I89  1  0.16764023  0.83281570  0.66965186  1
  I  I90  1  0.49996268  0.16520136  -0.00537540  1
  I  I91  1  0.50000959  0.16639314  0.33317828  1
  I  I92  1  0.50034321  0.17225089  0.67132723  1
  I  I93  1  0.50057187  0.49958105  -0.00241672  1
  I  I94  1  0.50627704  0.50779999  0.33362084  1
  I  I95  1  0.50003335  0.50038870  0.66877982  1
  I  I96  1  0.49926315  0.83286324  -0.00392472  1
  I  I97  1  0.49321777  0.82608030  0.33707112  1
  I  I98  1  0.49957193  0.82832368  0.66914171  1
  I  I99  1  0.83329666  0.16382666  -0.00508504  1
  I  I100  1  0.83303033  0.16689187  0.33270985  1
  I  I101  1  0.83267075  0.17060036  0.67227710  1
  I  I102  1  0.82816767  0.50025260  -0.00309398  1
  I  I103  1  0.82684505  0.50187711  0.33032960  1
  I  I104  1  0.83275659  0.49982026  0.67094644  1
  I  I105  1  0.83331303  0.83603466  -0.00543711  1
  I  I106  1  0.83405447  0.83155489  0.33320850  1
  I  I107  1  0.83330698  0.82993458  0.67135262  1
  I  I108  1  -0.00025362  0.16780582  0.16351430  1
  I  I109  1  0.00035099  0.16708479  0.50351486  1
  I  I110  1  0.00001797  0.16700676  0.83359854  1
  I  I111  1  -0.00307383  0.50103040  0.15708365  1
  I  I112  1  0.00027524  0.50128118  0.50051028  1
  I  I113  1  -0.00041637  0.50013616  0.83859207  1
  I  I114  1  -0.00010733  0.83056376  0.16517399  1
  I  I115  1  0.00276652  0.83243391  0.50803481  1
  I  I116  1  0.00042842  0.83277651  0.83026287  1
  I  I117  1  0.33355621  0.16886973  0.16360752  1
  I  I118  1  0.33340529  0.17077765  0.50353161  1
  I  I119  1  0.33359420  0.16836338  0.83306857  1
  I  I120  1  0.33648997  0.50125231  0.16266654  1
  I  I121  1  0.33752047  0.50163232  0.50150107  1
  I  I122  1  0.33439575  0.49941367  0.83369343  1
  I  I123  1  0.33353661  0.82969885  0.15933887  1
  I  I124  1  0.33427550  0.82701136  0.51274454  1
  I  I125  1  0.33373947  0.83263739  0.83044287  1
  I  I126  1  0.66667207  0.16409613  0.16420456  1
  I  I127  1  0.66633509  0.16548123  0.50422167  1
  I  I128  1  0.66639199  0.16767330  0.83300304  1
  I  I129  1  0.66586727  0.50116764  0.15801712  1
  I  I130  1  0.66269816  0.50681017  0.50745716  1
  I  I131  1  0.66577355  0.49984068  0.83376080  1
  I  I132  1  0.66657040  0.83416797  0.16557876  1
  I  I133  1  0.66293393  0.82714111  0.50778482  1
  I  I134  1  0.66589398  0.83254373  0.83007591  1
