# generated using pymatgen
data_Cs27Sn13Pb14I81
_symmetry_space_group_name_H-M   'P 1'
_cell_length_a   18.97699399
_cell_length_b   18.98182095
_cell_length_c   18.97137866
_cell_angle_alpha   90.00163175
_cell_angle_beta   89.99934949
_cell_angle_gamma   90.00057483
_symmetry_Int_Tables_number   1
_chemical_formula_structural   Cs27Sn13Pb14I81
_chemical_formula_sum   'Cs27 Sn13 Pb14 I81'
_cell_volume   6833.83021776
_cell_formula_units_Z   1
loop_
 _symmetry_equiv_pos_site_id
 _symmetry_equiv_pos_as_xyz
  1  'x, y, z'
loop_
 _atom_site_type_symbol
 _atom_site_label
 _atom_site_symmetry_multiplicity
 _atom_site_fract_x
 _atom_site_fract_y
 _atom_site_fract_z
 _atom_site_occupancy
  Cs  Cs0  1  -0.00054362  0.00337852  0.00034799  1
  Cs  Cs1  1  0.00002235  0.00142866  0.33418948  1
  Cs  Cs2  1  0.00011007  -0.00026671  0.66516828  1
  Cs  Cs3  1  0.00177176  0.33137157  0.00344002  1
  Cs  Cs4  1  -0.00070247  0.33132115  0.33342268  1
  Cs  Cs5  1  0.00193609  0.33447306  0.66516833  1
  Cs  Cs6  1  0.00546386  0.66585796  -0.00371432  1
  Cs  Cs7  1  -0.00457463  0.66738894  0.33735710  1
  Cs  Cs8  1  -0.00010851  0.66620954  0.66592204  1
  Cs  Cs9  1  0.33563512  -0.00898149  0.00329316  1
  Cs  Cs10  1  0.33299866  -0.00083043  0.33204057  1
  Cs  Cs11  1  0.33544199  0.00338722  0.66693831  1
  Cs  Cs12  1  0.32874846  0.33728252  0.00383114  1
  Cs  Cs13  1  0.33852764  0.33443450  0.33075330  1
  Cs  Cs14  1  0.33461616  0.33115155  0.66611200  1
  Cs  Cs15  1  0.32877202  0.67172001  0.00554836  1
  Cs  Cs16  1  0.33823871  0.66707177  0.32773431  1
  Cs  Cs17  1  0.32941015  0.66587258  0.66747455  1
  Cs  Cs18  1  0.66529181  0.00280069  -0.00930696  1
  Cs  Cs19  1  0.66725018  -0.00096359  0.33401522  1
  Cs  Cs20  1  0.66380389  0.00174029  0.67300438  1
  Cs  Cs21  1  0.66829885  0.33059476  -0.00257748  1
  Cs  Cs22  1  0.66449366  0.33442571  0.33312369  1
  Cs  Cs23  1  0.66278677  0.33389904  0.66793190  1
  Cs  Cs24  1  0.66505156  0.66742363  0.00067094  1
  Cs  Cs25  1  0.66778537  0.66615109  0.33335348  1
  Cs  Cs26  1  0.66817747  0.66493949  0.66656921  1
  Sn  Sn27  1  0.83299522  0.83374533  0.49971135  1
  Sn  Sn28  1  0.83329784  0.16675656  0.50026627  1
  Sn  Sn29  1  0.50031435  0.83320172  0.50039287  1
  Sn  Sn30  1  0.16696048  0.83326561  0.49996169  1
  Sn  Sn31  1  0.16642985  0.49973344  0.49971942  1
  Sn  Sn32  1  0.83328774  0.83298019  0.16688298  1
  Sn  Sn33  1  0.50037254  0.16653482  0.16667974  1
  Sn  Sn34  1  0.16611488  0.16693569  0.50067900  1
  Sn  Sn35  1  0.49979510  0.50046532  0.83342704  1
  Sn  Sn36  1  0.83341524  0.50081200  0.16657453  1
  Sn  Sn37  1  0.83372764  0.49947842  0.50003642  1
  Sn  Sn38  1  0.16672681  0.16645913  0.83292741  1
  Sn  Sn39  1  0.83278800  0.49998608  0.83332774  1
  Pb  Pb40  1  0.49705789  0.16873915  0.83590297  1
  Pb  Pb41  1  0.16384504  0.50017987  0.16987449  1
  Pb  Pb42  1  0.83181173  0.16636162  0.16866814  1
  Pb  Pb43  1  0.50304762  0.83511669  0.16854370  1
  Pb  Pb44  1  0.50258952  0.49878282  0.16398187  1
  Pb  Pb45  1  0.83521344  0.16925032  0.83056345  1
  Pb  Pb46  1  0.83348439  0.83111261  0.83317825  1
  Pb  Pb47  1  0.49986085  0.16470888  0.49898773  1
  Pb  Pb48  1  0.16345676  0.83326366  0.16935249  1
  Pb  Pb49  1  0.16643120  0.49850985  0.83144921  1
  Pb  Pb50  1  0.50007209  0.50206867  0.50122916  1
  Pb  Pb51  1  0.49990967  0.83060039  0.83104679  1
  Pb  Pb52  1  0.16876112  0.16649845  0.16740599  1
  Pb  Pb53  1  0.16645039  0.83600751  0.83099077  1
  I  I54  1  0.16451969  -0.00003739  0.16880337  1
  I  I55  1  0.16294046  0.00013651  0.50331615  1
  I  I56  1  0.16645094  0.00385417  0.82636399  1
  I  I57  1  0.16483275  0.33334511  0.16945297  1
  I  I58  1  0.15832373  0.33315752  0.50408847  1
  I  I59  1  0.16626926  0.33080916  0.82514917  1
  I  I60  1  0.17070153  0.66663893  0.16625645  1
  I  I61  1  0.16212454  0.66663244  0.50010546  1
  I  I62  1  0.16638619  0.66646773  0.83107281  1
  I  I63  1  0.50104032  0.00259594  0.16848905  1
  I  I64  1  0.50103940  -0.00315936  0.49841904  1
  I  I65  1  0.49928795  0.00015034  0.83363091  1
  I  I66  1  0.50170332  0.33111774  0.16967250  1
  I  I67  1  0.50026684  0.33341880  0.49975049  1
  I  I68  1  0.50552837  0.33627513  0.83062487  1
  I  I69  1  0.49940966  0.66682932  0.16685010  1
  I  I70  1  0.50097014  0.66990885  0.50037387  1
  I  I71  1  0.50542069  0.66282286  0.83187710  1
  I  I72  1  0.83263694  -0.00260922  0.17475922  1
  I  I73  1  0.83670122  -0.00065419  0.49411329  1
  I  I74  1  0.83404200  0.00034554  0.83335350  1
  I  I75  1  0.83199173  0.33612767  0.16863088  1
  I  I76  1  0.84027096  0.33420845  0.49966322  1
  I  I77  1  0.83010698  0.33726855  0.83320384  1
  I  I78  1  0.83227591  0.66608860  0.17404016  1
  I  I79  1  0.83579127  0.66630235  0.49972177  1
  I  I80  1  0.83113945  0.66281045  0.82744703  1
  I  I81  1  0.16748692  0.16991912  -0.00247081  1
  I  I82  1  0.16275171  0.16600702  0.33744276  1
  I  I83  1  0.16316454  0.16689839  0.66407071  1
  I  I84  1  0.16537982  0.49626312  -0.00003151  1
  I  I85  1  0.16199050  0.49706299  0.33844785  1
  I  I86  1  0.16037421  0.50240089  0.66284600  1
  I  I87  1  0.16604055  0.83512729  0.00019594  1
  I  I88  1  0.16798758  0.83652049  0.33826577  1
  I  I89  1  0.16209907  0.83028656  0.66179273  1
  I  I90  1  0.50176195  0.16718637  0.00310160  1
  I  I91  1  0.49923593  0.16746329  0.33144381  1
  I  I92  1  0.50151581  0.16607342  0.66674414  1
  I  I93  1  0.50589168  0.49751023  -0.00365237  1
  I  I94  1  0.49989264  0.49976190  0.33325444  1
  I  I95  1  0.50668170  0.49973870  0.66882524  1
  I  I96  1  0.50175280  0.83456267  0.00021367  1
  I  I97  1  0.49790101  0.83241001  0.33689427  1
  I  I98  1  0.50356998  0.83519795  0.66249820  1
  I  I99  1  0.83429383  0.16669121  -0.00012756  1
  I  I100  1  0.83900359  0.17015286  0.33724174  1
  I  I101  1  0.83410462  0.16506176  0.66205077  1
  I  I102  1  0.82738094  0.50425455  0.00010751  1
  I  I103  1  0.83795681  0.50088204  0.33486151  1
  I  I104  1  0.83362055  0.50028106  0.66503080  1
  I  I105  1  0.83199903  0.82897263  0.00303912  1
  I  I106  1  0.83372126  0.82837882  0.33572184  1
  I  I107  1  0.83448811  0.83235079  0.66258339  1
  I  I108  1  -0.00019762  0.16698718  0.16566891  1
  I  I109  1  -0.00014983  0.16380899  0.50220031  1
  I  I110  1  0.00290429  0.16891986  0.83086730  1
  I  I111  1  -0.00455472  0.50169987  0.16247218  1
  I  I112  1  -0.00150003  0.50327267  0.50195468  1
  I  I113  1  -0.00303147  0.49929252  0.83340536  1
  I  I114  1  -0.00440784  0.83051641  0.17363357  1
  I  I115  1  -0.00068382  0.83312743  0.49662522  1
  I  I116  1  -0.00013383  0.83042840  0.83104325  1
  I  I117  1  0.33627436  0.16773022  0.16976590  1
  I  I118  1  0.33013720  0.16676067  0.50244499  1
  I  I119  1  0.32987982  0.17014292  0.82303055  1
  I  I120  1  0.33342154  0.49781146  0.16676756  1
  I  I121  1  0.33056092  0.49921280  0.50388450  1
  I  I122  1  0.33528774  0.49695948  0.82863788  1
  I  I123  1  0.33349494  0.83499729  0.16870797  1
  I  I124  1  0.33249453  0.83403319  0.50224744  1
  I  I125  1  0.33321050  0.83062799  0.83082097  1
  I  I126  1  0.66450904  0.16748271  0.17013166  1
  I  I127  1  0.66954959  0.16751304  0.49694089  1
  I  I128  1  0.66667656  0.16627680  0.83257445  1
  I  I129  1  0.67075384  0.50281759  0.17382074  1
  I  I130  1  0.67026383  0.50012552  0.49860103  1
  I  I131  1  0.66837408  0.49931220  0.82963584  1
  I  I132  1  0.67063013  0.82870161  0.17571801  1
  I  I133  1  0.66826706  0.83230575  0.49561045  1
  I  I134  1  0.66682907  0.83603045  0.82959392  1
