# generated using pymatgen
data_Cs27Sn13Pb14I81
_symmetry_space_group_name_H-M   'P 1'
_cell_length_a   18.99076380
_cell_length_b   18.99664879
_cell_length_c   18.98645620
_cell_angle_alpha   89.99897081
_cell_angle_beta   90.00150322
_cell_angle_gamma   90.00133535
_symmetry_Int_Tables_number   1
_chemical_formula_structural   Cs27Sn13Pb14I81
_chemical_formula_sum   'Cs27 Sn13 Pb14 I81'
_cell_volume   6849.57045562
_cell_formula_units_Z   1
loop_
 _symmetry_equiv_pos_site_id
 _symmetry_equiv_pos_as_xyz
  1  'x, y, z'
loop_
 _atom_site_type_symbol
 _atom_site_label
 _atom_site_symmetry_multiplicity
 _atom_site_fract_x
 _atom_site_fract_y
 _atom_site_fract_z
 _atom_site_occupancy
  Cs  Cs0  1  0.00393200  0.00212152  0.00169290  1
  Cs  Cs1  1  -0.00671218  0.00710463  0.34208178  1
  Cs  Cs2  1  -0.00372564  -0.00173796  0.65894889  1
  Cs  Cs3  1  0.00151158  0.33361003  0.00273603  1
  Cs  Cs4  1  0.00115293  0.32268959  0.33082766  1
  Cs  Cs5  1  -0.00258055  0.33517412  0.66536066  1
  Cs  Cs6  1  0.00300303  0.66535416  -0.00331950  1
  Cs  Cs7  1  -0.00260939  0.67073988  0.33650925  1
  Cs  Cs8  1  -0.00060222  0.66658000  0.66764842  1
  Cs  Cs9  1  0.33298052  -0.00114150  0.00000594  1
  Cs  Cs10  1  0.33374423  0.00388293  0.33326019  1
  Cs  Cs11  1  0.33693119  -0.00163453  0.66754155  1
  Cs  Cs12  1  0.33039570  0.33129137  -0.00184187  1
  Cs  Cs13  1  0.33395385  0.33210740  0.33742854  1
  Cs  Cs14  1  0.33488073  0.33595144  0.66588248  1
  Cs  Cs15  1  0.33136362  0.66828898  -0.00137986  1
  Cs  Cs16  1  0.33582374  0.66336674  0.33518739  1
  Cs  Cs17  1  0.33293767  0.66635360  0.66622270  1
  Cs  Cs18  1  0.66680725  0.00154513  0.00067533  1
  Cs  Cs19  1  0.66941356  -0.00375822  0.33358684  1
  Cs  Cs20  1  0.66436618  0.00359784  0.66646683  1
  Cs  Cs21  1  0.67041543  0.33138189  -0.00054855  1
  Cs  Cs22  1  0.66450828  0.33864488  0.32925893  1
  Cs  Cs23  1  0.66709604  0.33221214  0.66857963  1
  Cs  Cs24  1  0.66703240  0.66669186  0.00499149  1
  Cs  Cs25  1  0.66600400  0.66596143  0.32184475  1
  Cs  Cs26  1  0.66763373  0.66570594  0.66736015  1
  Sn  Sn27  1  0.16665984  0.49990698  0.83366187  1
  Sn  Sn28  1  0.83324680  0.83280826  0.83355102  1
  Sn  Sn29  1  0.50040309  0.83234490  0.83286576  1
  Sn  Sn30  1  0.16636677  0.16637829  0.83254384  1
  Sn  Sn31  1  0.16633972  0.83365523  0.83356087  1
  Sn  Sn32  1  0.16650135  0.83282643  0.16678878  1
  Sn  Sn33  1  0.49991640  0.16661152  0.16735168  1
  Sn  Sn34  1  0.16676003  0.50111741  0.16651388  1
  Sn  Sn35  1  0.50008069  0.50092911  0.83354436  1
  Sn  Sn36  1  0.49995193  0.83334010  0.50041264  1
  Sn  Sn37  1  0.83332178  0.50112678  0.83273565  1
  Sn  Sn38  1  0.50002403  0.16611172  0.49889198  1
  Sn  Sn39  1  0.83326125  0.50023626  0.50017425  1
  Pb  Pb40  1  0.83689771  0.83334214  0.16384307  1
  Pb  Pb41  1  0.83008648  0.83109131  0.50227112  1
  Pb  Pb42  1  0.16903730  0.16663158  0.50306136  1
  Pb  Pb43  1  0.83651314  0.50015626  0.16606794  1
  Pb  Pb44  1  0.16808641  0.16624106  0.16509370  1
  Pb  Pb45  1  0.82999899  0.16943715  0.50024123  1
  Pb  Pb46  1  0.49727565  0.49800880  0.16347949  1
  Pb  Pb47  1  0.83643449  0.16649818  0.83329452  1
  Pb  Pb48  1  0.49779941  0.83470058  0.16622409  1
  Pb  Pb49  1  0.50205098  0.50059888  0.50197771  1
  Pb  Pb50  1  0.49848496  0.16645965  0.83325377  1
  Pb  Pb51  1  0.83038783  0.16645174  0.16647528  1
  Pb  Pb52  1  0.16874182  0.83319739  0.49994481  1
  Pb  Pb53  1  0.16434048  0.50008619  0.49981190  1
  I  I54  1  0.17019249  -0.00276444  0.15818059  1
  I  I55  1  0.16476744  -0.00009989  0.50054707  1
  I  I56  1  0.16924227  -0.00151278  0.83844307  1
  I  I57  1  0.16746292  0.33577775  0.16010892  1
  I  I58  1  0.16950103  0.33341147  0.50086899  1
  I  I59  1  0.16826649  0.33480808  0.83733561  1
  I  I60  1  0.16788779  0.66663113  0.15568096  1
  I  I61  1  0.17025794  0.66662306  0.50390968  1
  I  I62  1  0.16720787  0.66664722  0.83720169  1
  I  I63  1  0.49561684  0.00236432  0.16436408  1
  I  I64  1  0.49856027  -0.00057225  0.50444700  1
  I  I65  1  0.49894768  -0.00296571  0.83253561  1
  I  I66  1  0.49695613  0.33047369  0.17200745  1
  I  I67  1  0.50084091  0.33122925  0.49824617  1
  I  I68  1  0.49897168  0.33592378  0.83322751  1
  I  I69  1  0.50101570  0.66655924  0.16952678  1
  I  I70  1  0.49952566  0.66933742  0.50498880  1
  I  I71  1  0.49526033  0.66740055  0.82761610  1
  I  I72  1  0.83635354  -0.00028956  0.16406005  1
  I  I73  1  0.83477257  -0.00017659  0.50107989  1
  I  I74  1  0.83187317  -0.00345759  0.83449006  1
  I  I75  1  0.83587885  0.33364228  0.16378196  1
  I  I76  1  0.83232933  0.33693751  0.50968098  1
  I  I77  1  0.83199497  0.33685951  0.82993592  1
  I  I78  1  0.82810846  0.66667614  0.16963537  1
  I  I79  1  0.83264154  0.66362243  0.50477983  1
  I  I80  1  0.83742876  0.66603057  0.82914040  1
  I  I81  1  0.17101052  0.16702005  -0.00301173  1
  I  I82  1  0.16661535  0.16782508  0.33329338  1
  I  I83  1  0.16938841  0.16730456  0.67122598  1
  I  I84  1  0.16542842  0.50036632  -0.00261247  1
  I  I85  1  0.16642394  0.50510172  0.33013953  1
  I  I86  1  0.16890667  0.50115484  0.67061776  1
  I  I87  1  0.16927885  0.83222764  -0.00261812  1
  I  I88  1  0.17098051  0.82669703  0.33021342  1
  I  I89  1  0.16560787  0.83177746  0.67067935  1
  I  I90  1  0.49686789  0.16717922  0.00146660  1
  I  I91  1  0.49802288  0.16113562  0.33402381  1
  I  I92  1  0.49794970  0.16526056  0.66484158  1
  I  I93  1  0.50439427  0.50458822  -0.00473560  1
  I  I94  1  0.50074031  0.50161517  0.33317124  1
  I  I95  1  0.49435674  0.49874826  0.67048270  1
  I  I96  1  0.50084863  0.83140130  -0.00367186  1
  I  I97  1  0.49743817  0.83631057  0.33574178  1
  I  I98  1  0.49723919  0.83615304  0.66872677  1
  I  I99  1  0.82921512  0.16941038  -0.00055430  1
  I  I100  1  0.83805990  0.16888623  0.33361136  1
  I  I101  1  0.83128350  0.16545357  0.66693346  1
  I  I102  1  0.83146750  0.50365403  -0.00390581  1
  I  I103  1  0.83247679  0.49888628  0.33573502  1
  I  I104  1  0.83559982  0.50319091  0.66948672  1
  I  I105  1  0.82699388  0.82587991  -0.00480767  1
  I  I106  1  0.83301513  0.83154026  0.33351310  1
  I  I107  1  0.83991321  0.83098341  0.67073239  1
  I  I108  1  0.00048162  0.16791392  0.16444439  1
  I  I109  1  -0.00030636  0.16710579  0.50035678  1
  I  I110  1  0.00441549  0.16754810  0.83620188  1
  I  I111  1  0.00410258  0.50269949  0.15827614  1
  I  I112  1  -0.00313235  0.50163224  0.50864467  1
  I  I113  1  0.00059266  0.50261985  0.83311477  1
  I  I114  1  0.00485709  0.82854956  0.15904924  1
  I  I115  1  -0.00039165  0.83247679  0.50066726  1
  I  I116  1  0.00078772  0.82974044  0.83854252  1
  I  I117  1  0.33586216  0.16675060  0.16939533  1
  I  I118  1  0.33696227  0.16453142  0.49675463  1
  I  I119  1  0.33068537  0.16740401  0.83367332  1
  I  I120  1  0.32975223  0.50363495  0.15979264  1
  I  I121  1  0.33364164  0.49913184  0.50150152  1
  I  I122  1  0.33278600  0.50187555  0.83714635  1
  I  I123  1  0.33027406  0.83033304  0.15817805  1
  I  I124  1  0.33667725  0.83565019  0.50775648  1
  I  I125  1  0.33316580  0.83113659  0.83321074  1
  I  I126  1  0.66210309  0.16665503  0.16783613  1
  I  I127  1  0.66230806  0.16144174  0.49948652  1
  I  I128  1  0.66659820  0.16748160  0.83357987  1
  I  I129  1  0.66661792  0.49733912  0.16562881  1
  I  I130  1  0.66946607  0.49873548  0.50900342  1
  I  I131  1  0.66670813  0.50566985  0.82787427  1
  I  I132  1  0.66658449  0.83566578  0.16595371  1
  I  I133  1  0.66244353  0.83848333  0.50685309  1
  I  I134  1  0.66594419  0.82654631  0.82789349  1
