# generated using pymatgen
data_Cs27Sn14Pb13I81
_symmetry_space_group_name_H-M   'P 1'
_cell_length_a   18.98769502
_cell_length_b   18.96953878
_cell_length_c   18.96892596
_cell_angle_alpha   89.99995270
_cell_angle_beta   90.00070904
_cell_angle_gamma   90.00066739
_symmetry_Int_Tables_number   1
_chemical_formula_structural   Cs27Sn14Pb13I81
_chemical_formula_sum   'Cs27 Sn14 Pb13 I81'
_cell_volume   6832.37603281
_cell_formula_units_Z   1
loop_
 _symmetry_equiv_pos_site_id
 _symmetry_equiv_pos_as_xyz
  1  'x, y, z'
loop_
 _atom_site_type_symbol
 _atom_site_label
 _atom_site_symmetry_multiplicity
 _atom_site_fract_x
 _atom_site_fract_y
 _atom_site_fract_z
 _atom_site_occupancy
  Cs  Cs0  1  -0.00055954  0.00125867  0.00213951  1
  Cs  Cs1  1  -0.00056457  -0.00186862  0.33556897  1
  Cs  Cs2  1  -0.00805657  0.00699218  0.65678208  1
  Cs  Cs3  1  0.00132055  0.33497004  -0.00006144  1
  Cs  Cs4  1  -0.00103745  0.33469567  0.33172601  1
  Cs  Cs5  1  -0.00028476  0.33299863  0.66797077  1
  Cs  Cs6  1  0.00295926  0.66447763  0.00014420  1
  Cs  Cs7  1  0.00044731  0.66762250  0.33498465  1
  Cs  Cs8  1  -0.00038207  0.66581294  0.66482355  1
  Cs  Cs9  1  0.33526840  -0.00144638  0.00182392  1
  Cs  Cs10  1  0.33274728  -0.00316694  0.33187417  1
  Cs  Cs11  1  0.33444189  0.01002249  0.66526464  1
  Cs  Cs12  1  0.33001895  0.33362850  -0.00026026  1
  Cs  Cs13  1  0.33780599  0.33392083  0.33450259  1
  Cs  Cs14  1  0.33552006  0.32893154  0.66523165  1
  Cs  Cs15  1  0.33129368  0.66799786  -0.00191578  1
  Cs  Cs16  1  0.33453370  0.66860236  0.33443201  1
  Cs  Cs17  1  0.33194536  0.66540204  0.66921255  1
  Cs  Cs18  1  0.66540951  -0.00197840  -0.00282811  1
  Cs  Cs19  1  0.66696837  -0.00043112  0.33253210  1
  Cs  Cs20  1  0.67325309  0.00497954  0.67354511  1
  Cs  Cs21  1  0.66906864  0.33637701  0.00315651  1
  Cs  Cs22  1  0.66230096  0.33615281  0.33377187  1
  Cs  Cs23  1  0.66510544  0.32878868  0.66283483  1
  Cs  Cs24  1  0.66682672  0.66674836  -0.00107173  1
  Cs  Cs25  1  0.66264833  0.66439288  0.33164167  1
  Cs  Cs26  1  0.66814670  0.66855737  0.67017324  1
  Sn  Sn27  1  0.16674939  0.50072224  0.83276589  1
  Sn  Sn28  1  0.83378122  0.50043672  0.50070565  1
  Sn  Sn29  1  0.16702203  0.50024655  0.16726932  1
  Sn  Sn30  1  0.49996347  0.83395404  0.16730899  1
  Sn  Sn31  1  0.49999429  0.83357916  0.50066245  1
  Sn  Sn32  1  0.83328493  0.16575639  0.16660474  1
  Sn  Sn33  1  0.49999087  0.16588352  0.16637674  1
  Sn  Sn34  1  0.16671441  0.16633597  0.16658450  1
  Sn  Sn35  1  0.83347528  0.50020907  0.83224489  1
  Sn  Sn36  1  0.16620920  0.83372777  0.83299445  1
  Sn  Sn37  1  0.83351590  0.83375836  0.16648968  1
  Sn  Sn38  1  0.49982437  0.49989603  0.83339288  1
  Sn  Sn39  1  0.16645396  0.83336856  0.16593366  1
  Sn  Sn40  1  0.16628537  0.50021417  0.50016536  1
  Pb  Pb41  1  0.83355283  0.16930049  0.83595099  1
  Pb  Pb42  1  0.83525236  0.50034630  0.16681414  1
  Pb  Pb43  1  0.83650748  0.83154049  0.83540915  1
  Pb  Pb44  1  0.50002385  0.16925168  0.83622216  1
  Pb  Pb45  1  0.83323069  0.16945780  0.49700193  1
  Pb  Pb46  1  0.16666897  0.16958730  0.49699607  1
  Pb  Pb47  1  0.83091061  0.83108841  0.49778903  1
  Pb  Pb48  1  0.16814848  0.83177238  0.50066590  1
  Pb  Pb49  1  0.49719397  0.50059026  0.16487787  1
  Pb  Pb50  1  0.50021395  0.16330311  0.49758602  1
  Pb  Pb51  1  0.16637913  0.16599398  0.83509184  1
  Pb  Pb52  1  0.49988130  0.50184539  0.50256528  1
  Pb  Pb53  1  0.49781281  0.83218996  0.83330133  1
  I  I54  1  0.16733073  -0.00097658  0.16128884  1
  I  I55  1  0.16865282  -0.00004307  0.50019117  1
  I  I56  1  0.16970625  -0.00339515  0.84178702  1
  I  I57  1  0.16588180  0.33391941  0.16619822  1
  I  I58  1  0.16408269  0.33827177  0.50100984  1
  I  I59  1  0.16626860  0.33706737  0.83552016  1
  I  I60  1  0.16629742  0.66679956  0.16548275  1
  I  I61  1  0.16403737  0.66322145  0.49463529  1
  I  I62  1  0.16699487  0.66490084  0.84014948  1
  I  I63  1  0.49507687  -0.00091058  0.17021213  1
  I  I64  1  0.49709582  -0.00441149  0.49681004  1
  I  I65  1  0.49746287  -0.00008635  0.83188980  1
  I  I66  1  0.50027393  0.33114759  0.16378341  1
  I  I67  1  0.50002481  0.33346951  0.49902608  1
  I  I68  1  0.49599025  0.33764656  0.83440602  1
  I  I69  1  0.50049341  0.66974170  0.16911854  1
  I  I70  1  0.49950572  0.66910174  0.48975375  1
  I  I71  1  0.50040213  0.66381566  0.83707152  1
  I  I72  1  0.83812707  -0.00044750  0.16683881  1
  I  I73  1  0.83266983  -0.00012261  0.50060070  1
  I  I74  1  0.83402665  -0.00020901  0.83283290  1
  I  I75  1  0.83375716  0.33133076  0.16616039  1
  I  I76  1  0.83723089  0.33760083  0.50181129  1
  I  I77  1  0.83729054  0.33795560  0.83315922  1
  I  I78  1  0.83318462  0.66917588  0.16652768  1
  I  I79  1  0.83815015  0.66313420  0.50061968  1
  I  I80  1  0.83224086  0.66300849  0.83368856  1
  I  I81  1  0.16664781  0.17242325  0.00430811  1
  I  I82  1  0.16668825  0.16559243  0.32809245  1
  I  I83  1  0.16742816  0.16654238  0.66647979  1
  I  I84  1  0.16629653  0.50017921  0.00013850  1
  I  I85  1  0.16131993  0.49983918  0.33258762  1
  I  I86  1  0.16577151  0.50664691  0.66774912  1
  I  I87  1  0.16867239  0.82736205  0.00218001  1
  I  I88  1  0.16568519  0.83217296  0.32977042  1
  I  I89  1  0.17043800  0.82354249  0.66955845  1
  I  I90  1  0.49866402  0.15960655  0.00464332  1
  I  I91  1  0.49917059  0.16867675  0.32881764  1
  I  I92  1  0.49946338  0.16632237  0.66667463  1
  I  I93  1  0.50065172  0.50121607  -0.00281912  1
  I  I94  1  0.50020191  0.49792252  0.33311456  1
  I  I95  1  0.49473634  0.50368256  0.67018177  1
  I  I96  1  0.50065819  0.83600568  0.00349357  1
  I  I97  1  0.49725379  0.83499076  0.33061550  1
  I  I98  1  0.49686030  0.82623291  0.66461570  1
  I  I99  1  0.83425059  0.16601068  0.00448991  1
  I  I100  1  0.83460618  0.16551397  0.32860327  1
  I  I101  1  0.83315294  0.16557939  0.66652243  1
  I  I102  1  0.83473222  0.49937878  -0.00209279  1
  I  I103  1  0.83888920  0.49971121  0.33516784  1
  I  I104  1  0.83917376  0.50158714  0.66722636  1
  I  I105  1  0.82856248  0.83421471  0.00404796  1
  I  I106  1  0.83925857  0.83430986  0.32914807  1
  I  I107  1  0.83243982  0.83270392  0.66678272  1
  I  I108  1  0.00059628  0.16550309  0.16590417  1
  I  I109  1  0.00001706  0.16394088  0.49664139  1
  I  I110  1  0.00006525  0.17000382  0.83820876  1
  I  I111  1  0.00341893  0.49993270  0.16258945  1
  I  I112  1  0.00101350  0.50119651  0.50305256  1
  I  I113  1  0.00123455  0.50323246  0.83427654  1
  I  I114  1  0.00105723  0.83452678  0.16208234  1
  I  I115  1  -0.00005606  0.83259288  0.49819600  1
  I  I116  1  0.00436452  0.82485068  0.84137792  1
  I  I117  1  0.33287072  0.16491451  0.16614057  1
  I  I118  1  0.33341803  0.17023861  0.49795947  1
  I  I119  1  0.33315955  0.17024657  0.83626930  1
  I  I120  1  0.32898370  0.49980478  0.16693998  1
  I  I121  1  0.33051657  0.50163892  0.49887950  1
  I  I122  1  0.33164939  0.50411448  0.83546420  1
  I  I123  1  0.33271721  0.83482706  0.16676351  1
  I  I124  1  0.33573215  0.82873437  0.49132129  1
  I  I125  1  0.32994779  0.82377355  0.84192968  1
  I  I126  1  0.66656360  0.16062440  0.16628314  1
  I  I127  1  0.66665799  0.17146924  0.49576847  1
  I  I128  1  0.66674024  0.16865574  0.83704083  1
  I  I129  1  0.66656245  0.49940249  0.16600837  1
  I  I130  1  0.66908143  0.50134622  0.50296228  1
  I  I131  1  0.66715391  0.49998403  0.83062840  1
  I  I132  1  0.66627009  0.83892406  0.17109263  1
  I  I133  1  0.66333241  0.82895253  0.49204904  1
  I  I134  1  0.66681522  0.82910018  0.83572885  1
