# generated using pymatgen
data_Cs27Sn13Pb14I81
_symmetry_space_group_name_H-M   'P 1'
_cell_length_a   18.98429677
_cell_length_b   19.00758679
_cell_length_c   18.98481415
_cell_angle_alpha   89.99939612
_cell_angle_beta   89.99727335
_cell_angle_gamma   90.00060903
_symmetry_Int_Tables_number   1
_chemical_formula_structural   Cs27Sn13Pb14I81
_chemical_formula_sum   'Cs27 Sn13 Pb14 I81'
_cell_volume   6850.58794416
_cell_formula_units_Z   1
loop_
 _symmetry_equiv_pos_site_id
 _symmetry_equiv_pos_as_xyz
  1  'x, y, z'
loop_
 _atom_site_type_symbol
 _atom_site_label
 _atom_site_symmetry_multiplicity
 _atom_site_fract_x
 _atom_site_fract_y
 _atom_site_fract_z
 _atom_site_occupancy
  Cs  Cs0  1  0.00197441  -0.00122171  0.00095433  1
  Cs  Cs1  1  0.00007854  0.00323562  0.33212699  1
  Cs  Cs2  1  -0.00021360  0.00005868  0.66731966  1
  Cs  Cs3  1  0.00162147  0.33278855  0.00425119  1
  Cs  Cs4  1  0.00074080  0.33696149  0.33384493  1
  Cs  Cs5  1  -0.00352556  0.33426257  0.66199773  1
  Cs  Cs6  1  0.00015785  0.66841443  0.00042715  1
  Cs  Cs7  1  0.00154757  0.65797319  0.33321851  1
  Cs  Cs8  1  -0.00260480  0.66569715  0.66537686  1
  Cs  Cs9  1  0.33035404  -0.00278164  -0.00156480  1
  Cs  Cs10  1  0.33561563  -0.00069150  0.33457670  1
  Cs  Cs11  1  0.33211934  -0.00049752  0.66656514  1
  Cs  Cs12  1  0.33575360  0.33246791  -0.00181548  1
  Cs  Cs13  1  0.33464958  0.33306134  0.33514857  1
  Cs  Cs14  1  0.33445534  0.33199718  0.66698646  1
  Cs  Cs15  1  0.33155638  0.67078343  -0.00247413  1
  Cs  Cs16  1  0.33595114  0.66687031  0.33331057  1
  Cs  Cs17  1  0.33186023  0.66914381  0.66852485  1
  Cs  Cs18  1  0.66867102  0.00256601  0.00027345  1
  Cs  Cs19  1  0.66440610  -0.00113804  0.33456518  1
  Cs  Cs20  1  0.67676526  -0.00034269  0.66556347  1
  Cs  Cs21  1  0.66435484  0.33425799  -0.00130653  1
  Cs  Cs22  1  0.66451452  0.33248855  0.33106892  1
  Cs  Cs23  1  0.66965579  0.33273525  0.67380755  1
  Cs  Cs24  1  0.66875987  0.66317200  0.00089049  1
  Cs  Cs25  1  0.66305456  0.66951822  0.33279120  1
  Cs  Cs26  1  0.67543738  0.66834941  0.66704726  1
  Sn  Sn27  1  0.16691689  0.16694131  0.83228660  1
  Sn  Sn28  1  0.50033034  0.83359820  0.83297326  1
  Sn  Sn29  1  0.16680214  0.83389961  0.50018902  1
  Sn  Sn30  1  0.16754973  0.16590586  0.50086042  1
  Sn  Sn31  1  0.83331701  0.83335313  0.16717170  1
  Sn  Sn32  1  0.83226837  0.16680425  0.16694387  1
  Sn  Sn33  1  0.83230764  0.49972234  0.16673307  1
  Sn  Sn34  1  0.16677777  0.49975192  0.83323293  1
  Sn  Sn35  1  0.50000142  0.49933885  0.50031566  1
  Sn  Sn36  1  0.16732089  0.83336546  0.83208963  1
  Sn  Sn37  1  0.50039734  0.16704241  0.16704827  1
  Sn  Sn38  1  0.49967969  0.16743632  0.50002633  1
  Sn  Sn39  1  0.50027936  0.49938296  0.16717458  1
  Pb  Pb40  1  0.49854393  0.50199417  0.83317205  1
  Pb  Pb41  1  0.82974250  0.49973491  0.49755827  1
  Pb  Pb42  1  0.83611787  0.49975171  0.83580456  1
  Pb  Pb43  1  0.49843228  0.16456994  0.83294790  1
  Pb  Pb44  1  0.16805060  0.49992487  0.16466870  1
  Pb  Pb45  1  0.49859210  0.83371637  0.50235245  1
  Pb  Pb46  1  0.50161677  0.83355948  0.16468079  1
  Pb  Pb47  1  0.16467044  0.83329616  0.16729503  1
  Pb  Pb48  1  0.83305239  0.16682354  0.49768789  1
  Pb  Pb49  1  0.16890084  0.49962504  0.50208203  1
  Pb  Pb50  1  0.83655160  0.16683741  0.83602801  1
  Pb  Pb51  1  0.83681704  0.83329390  0.49708560  1
  Pb  Pb52  1  0.83398926  0.83341905  0.83521371  1
  Pb  Pb53  1  0.16774245  0.16669944  0.16746779  1
  I  I54  1  0.16525233  0.00013443  0.16154196  1
  I  I55  1  0.17223412  0.00091196  0.50761854  1
  I  I56  1  0.17059536  -0.00028928  0.83032116  1
  I  I57  1  0.16055164  0.33321915  0.16492679  1
  I  I58  1  0.16847222  0.33033541  0.50379602  1
  I  I59  1  0.16664521  0.33259736  0.83153451  1
  I  I60  1  0.16562703  0.66659967  0.16613083  1
  I  I61  1  0.16739018  0.66891279  0.50403376  1
  I  I62  1  0.17106994  0.66777545  0.83148645  1
  I  I63  1  0.50381883  0.00295648  0.17012518  1
  I  I64  1  0.49651769  0.00309314  0.49463383  1
  I  I65  1  0.49213870  -0.00283868  0.83545883  1
  I  I66  1  0.50760713  0.33305554  0.16917098  1
  I  I67  1  0.49241042  0.33233121  0.49416895  1
  I  I68  1  0.49708209  0.33319685  0.83459198  1
  I  I69  1  0.50381516  0.66394340  0.16978838  1
  I  I70  1  0.49780671  0.66436206  0.49455023  1
  I  I71  1  0.49179833  0.66948774  0.83489426  1
  I  I72  1  0.83056752  0.00076865  0.16580929  1
  I  I73  1  0.82870897  0.00003565  0.49589497  1
  I  I74  1  0.83441714  0.00006377  0.83794266  1
  I  I75  1  0.82958929  0.33331077  0.16593866  1
  I  I76  1  0.84121455  0.33326582  0.49746539  1
  I  I77  1  0.83423269  0.33326381  0.83610296  1
  I  I78  1  0.83014224  0.66591306  0.16534815  1
  I  I79  1  0.83372165  0.66658380  0.49709787  1
  I  I80  1  0.83532370  0.66667947  0.83735037  1
  I  I81  1  0.16554846  0.16489015  -0.00252897  1
  I  I82  1  0.16715754  0.16099871  0.33656919  1
  I  I83  1  0.17363073  0.16529988  0.66625020  1
  I  I84  1  0.16748068  0.50090473  -0.00336521  1
  I  I85  1  0.16367260  0.50039607  0.33351998  1
  I  I86  1  0.17028059  0.50089844  0.66992085  1
  I  I87  1  0.16883140  0.83441195  -0.00316274  1
  I  I88  1  0.16522097  0.83975491  0.33661424  1
  I  I89  1  0.17149718  0.83443546  0.66771481  1
  I  I90  1  0.50290288  0.17036749  0.00286060  1
  I  I91  1  0.49737967  0.16972174  0.33304297  1
  I  I92  1  0.49513848  0.17095273  0.66355528  1
  I  I93  1  0.50331871  0.49627781  0.00308113  1
  I  I94  1  0.50271796  0.49687624  0.33236974  1
  I  I95  1  0.49477265  0.49559473  0.66400359  1
  I  I96  1  0.49168848  0.83330918  -0.00289751  1
  I  I97  1  0.49896734  0.83278319  0.33343376  1
  I  I98  1  0.49546851  0.83267174  0.66994830  1
  I  I99  1  0.82819793  0.16679246  0.00438452  1
  I  I100  1  0.83551575  0.16684218  0.32931870  1
  I  I101  1  0.83045974  0.16554817  0.66650740  1
  I  I102  1  0.82630090  0.49987134  0.00420306  1
  I  I103  1  0.83584102  0.49963317  0.32906422  1
  I  I104  1  0.83252324  0.50121233  0.66656232  1
  I  I105  1  0.83597257  0.83334194  0.00323240  1
  I  I106  1  0.83265831  0.83387501  0.32911316  1
  I  I107  1  0.83103207  0.83335152  0.66658056  1
  I  I108  1  -0.00238271  0.16697179  0.16483911  1
  I  I109  1  0.00327482  0.16152615  0.50323469  1
  I  I110  1  0.00497598  0.16281354  0.82887601  1
  I  I111  1  -0.00257440  0.49961268  0.16350686  1
  I  I112  1  0.00014490  0.50054990  0.49907375  1
  I  I113  1  0.00435636  0.50348841  0.83443125  1
  I  I114  1  -0.00339830  0.83400825  0.16414273  1
  I  I115  1  0.00481342  0.83968355  0.50785809  1
  I  I116  1  0.00384072  0.83372812  0.83146504  1
  I  I117  1  0.33668888  0.17248763  0.16721322  1
  I  I118  1  0.33333929  0.16660040  0.49678288  1
  I  I119  1  0.33010511  0.16763165  0.83570921  1
  I  I120  1  0.33718186  0.49405342  0.16947698  1
  I  I121  1  0.33641112  0.49882953  0.49167302  1
  I  I122  1  0.33045666  0.49904055  0.83669416  1
  I  I123  1  0.33339377  0.83319012  0.16658673  1
  I  I124  1  0.33042241  0.83494759  0.50130135  1
  I  I125  1  0.33142838  0.83291940  0.83247113  1
  I  I126  1  0.66574079  0.16683351  0.17197355  1
  I  I127  1  0.66309004  0.17031189  0.49654940  1
  I  I128  1  0.66653688  0.16411249  0.83115105  1
  I  I129  1  0.66608532  0.49952522  0.16987169  1
  I  I130  1  0.66168727  0.49395215  0.49954336  1
  I  I131  1  0.66647473  0.50285503  0.83186129  1
  I  I132  1  0.66952196  0.83335139  0.16370164  1
  I  I133  1  0.66665562  0.83361381  0.50223191  1
  I  I134  1  0.66432195  0.83276052  0.83559406  1
