# generated using pymatgen
data_Cs27Sn14Pb13I81
_symmetry_space_group_name_H-M   'P 1'
_cell_length_a   18.98744259
_cell_length_b   18.97042667
_cell_length_c   18.97109017
_cell_angle_alpha   89.99969716
_cell_angle_beta   89.99901763
_cell_angle_gamma   90.00048115
_symmetry_Int_Tables_number   1
_chemical_formula_structural   Cs27Sn14Pb13I81
_chemical_formula_sum   'Cs27 Sn14 Pb13 I81'
_cell_volume   6833.38453818
_cell_formula_units_Z   1
loop_
 _symmetry_equiv_pos_site_id
 _symmetry_equiv_pos_as_xyz
  1  'x, y, z'
loop_
 _atom_site_type_symbol
 _atom_site_label
 _atom_site_symmetry_multiplicity
 _atom_site_fract_x
 _atom_site_fract_y
 _atom_site_fract_z
 _atom_site_occupancy
  Cs  Cs0  1  0.00062661  0.00292156  -0.00025031  1
  Cs  Cs1  1  0.00012530  0.00010781  0.33306157  1
  Cs  Cs2  1  -0.00133280  0.00056122  0.66669113  1
  Cs  Cs3  1  0.00420047  0.33362438  -0.00024138  1
  Cs  Cs4  1  0.00238768  0.33483670  0.33146771  1
  Cs  Cs5  1  0.00588094  0.32662402  0.66770672  1
  Cs  Cs6  1  -0.00105930  0.66285303  0.00558883  1
  Cs  Cs7  1  -0.00272954  0.66439032  0.32706041  1
  Cs  Cs8  1  -0.00336076  0.66980708  0.66702474  1
  Cs  Cs9  1  0.33672488  0.00049171  0.00242060  1
  Cs  Cs10  1  0.33347636  -0.00066084  0.33033680  1
  Cs  Cs11  1  0.33229322  -0.00356237  0.66650827  1
  Cs  Cs12  1  0.33579862  0.33216183  -0.00119385  1
  Cs  Cs13  1  0.33471027  0.33380352  0.34124910  1
  Cs  Cs14  1  0.32753210  0.33541058  0.65869064  1
  Cs  Cs15  1  0.33345798  0.66605723  -0.00043042  1
  Cs  Cs16  1  0.32985937  0.66674159  0.33441387  1
  Cs  Cs17  1  0.33308508  0.66764605  0.66657609  1
  Cs  Cs18  1  0.66385866  0.00106475  0.00032085  1
  Cs  Cs19  1  0.66644856  0.00056613  0.33240153  1
  Cs  Cs20  1  0.66880207  -0.00157392  0.66700795  1
  Cs  Cs21  1  0.66525015  0.33361097  -0.00030285  1
  Cs  Cs22  1  0.66498485  0.33221105  0.33430208  1
  Cs  Cs23  1  0.66717627  0.33497603  0.66492325  1
  Cs  Cs24  1  0.66651810  0.66481262  -0.00197317  1
  Cs  Cs25  1  0.67006735  0.66695864  0.33351342  1
  Cs  Cs26  1  0.66724281  0.66707793  0.66771032  1
  Sn  Sn27  1  0.83295480  0.16682120  0.16636496  1
  Sn  Sn28  1  0.83289957  0.50027475  0.83228194  1
  Sn  Sn29  1  0.50032841  0.83333311  0.50067175  1
  Sn  Sn30  1  0.50011328  0.83327297  0.83263516  1
  Sn  Sn31  1  0.50010514  0.16797971  0.16605235  1
  Sn  Sn32  1  0.50037645  0.49965875  0.83353627  1
  Sn  Sn33  1  0.50016922  0.49940055  0.16631650  1
  Sn  Sn34  1  0.50004987  0.16712289  0.83296290  1
  Sn  Sn35  1  0.83339118  0.83272673  0.83315294  1
  Sn  Sn36  1  0.16733705  0.16678953  0.16652519  1
  Sn  Sn37  1  0.83337695  0.50034827  0.50131461  1
  Sn  Sn38  1  0.16641375  0.83309254  0.83332110  1
  Sn  Sn39  1  0.83335945  0.83256836  0.50062162  1
  Sn  Sn40  1  0.16618318  0.83313521  0.50048566  1
  Pb  Pb41  1  0.16971352  0.16417865  0.83483676  1
  Pb  Pb42  1  0.16307443  0.50300741  0.50031091  1
  Pb  Pb43  1  0.16665072  0.16393147  0.49785473  1
  Pb  Pb44  1  0.83141509  0.16703548  0.83488276  1
  Pb  Pb45  1  0.16658245  0.50235692  0.83321955  1
  Pb  Pb46  1  0.50012565  0.16412385  0.50043713  1
  Pb  Pb47  1  0.83322821  0.83520122  0.16607768  1
  Pb  Pb48  1  0.17016212  0.49732206  0.16652485  1
  Pb  Pb49  1  0.83127605  0.49765744  0.16612781  1
  Pb  Pb50  1  0.50013784  0.83283839  0.16637737  1
  Pb  Pb51  1  0.16657954  0.83478496  0.16630377  1
  Pb  Pb52  1  0.83327039  0.16667608  0.49807307  1
  Pb  Pb53  1  0.50172606  0.50258547  0.50049993  1
  I  I54  1  0.17083287  0.00287492  0.16679831  1
  I  I55  1  0.16404374  -0.00441700  0.50405065  1
  I  I56  1  0.16537671  -0.00414547  0.82975739  1
  I  I57  1  0.16273409  0.32926378  0.16513040  1
  I  I58  1  0.16577913  0.33351957  0.49808479  1
  I  I59  1  0.16564445  0.33315160  0.83593640  1
  I  I60  1  0.16794743  0.66651171  0.16750687  1
  I  I61  1  0.17137377  0.67122733  0.50359710  1
  I  I62  1  0.17220964  0.67086228  0.82960899  1
  I  I63  1  0.49959527  0.00298115  0.16377005  1
  I  I64  1  0.50290714  -0.00430222  0.50318823  1
  I  I65  1  0.50004454  -0.00095207  0.83475989  1
  I  I66  1  0.50055573  0.33237544  0.15784177  1
  I  I67  1  0.50221912  0.33364664  0.50129189  1
  I  I68  1  0.50682113  0.33386964  0.84138955  1
  I  I69  1  0.50166906  0.66392725  0.16284944  1
  I  I70  1  0.49802131  0.67071984  0.50334572  1
  I  I71  1  0.50078615  0.66711617  0.83422693  1
  I  I72  1  0.82943531  0.00323592  0.16673967  1
  I  I73  1  0.83345137  -0.00381465  0.50338742  1
  I  I74  1  0.83228654  -0.00322486  0.83024630  1
  I  I75  1  0.83425510  0.32990711  0.16680932  1
  I  I76  1  0.83056877  0.33651772  0.50315359  1
  I  I77  1  0.82706414  0.33646524  0.83077805  1
  I  I78  1  0.83165081  0.66626074  0.16741431  1
  I  I79  1  0.83251349  0.66816570  0.50321331  1
  I  I80  1  0.82798369  0.66762335  0.83001859  1
  I  I81  1  0.16481656  0.16292031  0.00293096  1
  I  I82  1  0.16986685  0.16381531  0.32960371  1
  I  I83  1  0.16790114  0.16779306  0.66684520  1
  I  I84  1  0.16128736  0.50428790  -0.00006603  1
  I  I85  1  0.16650958  0.50288188  0.33336964  1
  I  I86  1  0.17330456  0.49568912  0.66672967  1
  I  I87  1  0.16820125  0.83508069  -0.00340302  1
  I  I88  1  0.16721610  0.83567172  0.33648550  1
  I  I89  1  0.16779905  0.83417365  0.66703317  1
  I  I90  1  0.50029128  0.16377674  0.00018475  1
  I  I91  1  0.49983608  0.16964341  0.33000777  1
  I  I92  1  0.50169969  0.16780254  0.67010784  1
  I  I93  1  0.50571987  0.50166036  -0.00154452  1
  I  I94  1  0.50158283  0.49539249  0.33118326  1
  I  I95  1  0.50248731  0.49818008  0.67013799  1
  I  I96  1  0.50024283  0.83427754  -0.00363542  1
  I  I97  1  0.50002237  0.83419239  0.33619343  1
  I  I98  1  0.49994374  0.83392957  0.66818090  1
  I  I99  1  0.83380434  0.16519357  0.00298120  1
  I  I100  1  0.82969272  0.16532557  0.32977126  1
  I  I101  1  0.83098852  0.16595193  0.66692920  1
  I  I102  1  0.83061502  0.50506398  -0.00319026  1
  I  I103  1  0.83217808  0.50480358  0.33554009  1
  I  I104  1  0.82545999  0.50562078  0.66776325  1
  I  I105  1  0.83192018  0.83002742  -0.00387961  1
  I  I106  1  0.83339548  0.83041777  0.33662171  1
  I  I107  1  0.83256494  0.83065019  0.66721939  1
  I  I108  1  -0.00002816  0.16274318  0.16821690  1
  I  I109  1  -0.00011626  0.16438356  0.49741632  1
  I  I110  1  0.00006694  0.16600630  0.83654035  1
  I  I111  1  -0.00020574  0.49826806  0.16694861  1
  I  I112  1  -0.00490236  0.50527368  0.50467360  1
  I  I113  1  -0.00360391  0.50494290  0.82992477  1
  I  I114  1  -0.00015579  0.83677508  0.16650888  1
  I  I115  1  -0.00073213  0.83108935  0.50619390  1
  I  I116  1  -0.00097297  0.83013354  0.82742562  1
  I  I117  1  0.33483211  0.16835898  0.16167070  1
  I  I118  1  0.33354717  0.16514378  0.49723973  1
  I  I119  1  0.33792418  0.16595721  0.84041392  1
  I  I120  1  0.33817628  0.49659470  0.15996899  1
  I  I121  1  0.33337682  0.50105856  0.49853432  1
  I  I122  1  0.33690133  0.50116717  0.83924455  1
  I  I123  1  0.33359072  0.83620678  0.16745825  1
  I  I124  1  0.33366739  0.83546394  0.50563448  1
  I  I125  1  0.33456557  0.83433526  0.82814902  1
  I  I126  1  0.66508388  0.16923855  0.16318300  1
  I  I127  1  0.66660112  0.16255429  0.49541235  1
  I  I128  1  0.66331019  0.16096013  0.84045912  1
  I  I129  1  0.66358861  0.49408547  0.16481012  1
  I  I130  1  0.66944820  0.50686679  0.50042859  1
  I  I131  1  0.66599052  0.50526527  0.83424176  1
  I  I132  1  0.66652911  0.83780766  0.16838285  1
  I  I133  1  0.66711674  0.83067627  0.50539062  1
  I  I134  1  0.66625657  0.83330949  0.82817949  1
