# generated using pymatgen
data_Cs27Sn14Pb13I81
_symmetry_space_group_name_H-M   'P 1'
_cell_length_a   18.96402215
_cell_length_b   18.95952162
_cell_length_c   18.95861716
_cell_angle_alpha   90.00174258
_cell_angle_beta   90.00239526
_cell_angle_gamma   90.00078226
_symmetry_Int_Tables_number   1
_chemical_formula_structural   Cs27Sn14Pb13I81
_chemical_formula_sum   'Cs27 Sn14 Pb13 I81'
_cell_volume   6816.54781135
_cell_formula_units_Z   1
loop_
 _symmetry_equiv_pos_site_id
 _symmetry_equiv_pos_as_xyz
  1  'x, y, z'
loop_
 _atom_site_type_symbol
 _atom_site_label
 _atom_site_symmetry_multiplicity
 _atom_site_fract_x
 _atom_site_fract_y
 _atom_site_fract_z
 _atom_site_occupancy
  Cs  Cs0  1  0.00677670  -0.00241313  -0.00020818  1
  Cs  Cs1  1  -0.00106619  -0.00068133  0.33398887  1
  Cs  Cs2  1  -0.00011320  0.00178011  0.66466756  1
  Cs  Cs3  1  -0.00166218  0.33639653  -0.00128316  1
  Cs  Cs4  1  -0.00217770  0.33117960  0.33186364  1
  Cs  Cs5  1  0.00315891  0.33562554  0.66893386  1
  Cs  Cs6  1  -0.00011989  0.66700192  -0.00700953  1
  Cs  Cs7  1  0.00124296  0.67065179  0.33519537  1
  Cs  Cs8  1  -0.00260987  0.66125000  0.66975871  1
  Cs  Cs9  1  0.33237779  0.00037353  0.00097996  1
  Cs  Cs10  1  0.33314536  -0.00015659  0.33258913  1
  Cs  Cs11  1  0.33633317  0.00168382  0.66676247  1
  Cs  Cs12  1  0.33457566  0.33080359  0.00084161  1
  Cs  Cs13  1  0.33424565  0.33571502  0.33311193  1
  Cs  Cs14  1  0.33180670  0.33411283  0.66644012  1
  Cs  Cs15  1  0.33153884  0.67323040  0.00191353  1
  Cs  Cs16  1  0.33305915  0.66464594  0.33395422  1
  Cs  Cs17  1  0.33313920  0.66205350  0.66488540  1
  Cs  Cs18  1  0.66408760  0.00034654  -0.00124693  1
  Cs  Cs19  1  0.66782304  0.00086619  0.33476758  1
  Cs  Cs20  1  0.66539698  -0.00018252  0.66592217  1
  Cs  Cs21  1  0.66732380  0.33507991  0.00169393  1
  Cs  Cs22  1  0.66844529  0.33413958  0.32939883  1
  Cs  Cs23  1  0.66466605  0.32986717  0.66719284  1
  Cs  Cs24  1  0.66969930  0.66393112  -0.00289365  1
  Cs  Cs25  1  0.66597317  0.66619836  0.33339807  1
  Cs  Cs26  1  0.66868387  0.66919533  0.66787529  1
  Sn  Sn27  1  0.49935329  0.16630479  0.49948821  1
  Sn  Sn28  1  0.83316252  0.83232582  0.49931532  1
  Sn  Sn29  1  0.50126500  0.83409409  0.16768164  1
  Sn  Sn30  1  0.83292311  0.16617082  0.83357485  1
  Sn  Sn31  1  0.49973875  0.83396017  0.49903853  1
  Sn  Sn32  1  0.16761215  0.16597091  0.49892223  1
  Sn  Sn33  1  0.16734580  0.16784110  0.16781449  1
  Sn  Sn34  1  0.49960870  0.16611075  0.16714844  1
  Sn  Sn35  1  0.49970991  0.49948975  0.83339237  1
  Sn  Sn36  1  0.83292942  0.50027066  0.49936357  1
  Sn  Sn37  1  0.83237012  0.83361453  0.16693042  1
  Sn  Sn38  1  0.16701461  0.83398593  0.49993927  1
  Sn  Sn39  1  0.16665788  0.49927295  0.16681333  1
  Sn  Sn40  1  0.50093770  0.16768707  0.83343149  1
  Pb  Pb41  1  0.83119549  0.49753493  0.83118303  1
  Pb  Pb42  1  0.83328445  0.83568799  0.83314102  1
  Pb  Pb43  1  0.49868630  0.50050050  0.16478425  1
  Pb  Pb44  1  0.83360336  0.16455642  0.16444603  1
  Pb  Pb45  1  0.83569969  0.50288724  0.16837149  1
  Pb  Pb46  1  0.49987105  0.83372501  0.83326357  1
  Pb  Pb47  1  0.16733950  0.16657641  0.83329535  1
  Pb  Pb48  1  0.16691221  0.83386193  0.16834178  1
  Pb  Pb49  1  0.16471269  0.49938834  0.49838169  1
  Pb  Pb50  1  0.16944473  0.49981922  0.83629191  1
  Pb  Pb51  1  0.16680884  0.83334914  0.82916510  1
  Pb  Pb52  1  0.50180323  0.49989994  0.50138909  1
  Pb  Pb53  1  0.83341549  0.16626524  0.50128967  1
  I  I54  1  0.16798026  0.00281261  0.16820127  1
  I  I55  1  0.16528760  0.00061530  0.49437689  1
  I  I56  1  0.16806152  0.00035479  0.83889299  1
  I  I57  1  0.17232705  0.33109385  0.17219422  1
  I  I58  1  0.16999056  0.32997786  0.49874722  1
  I  I59  1  0.16462165  0.33300712  0.82815151  1
  I  I60  1  0.16745494  0.66532332  0.16850215  1
  I  I61  1  0.16939970  0.66942400  0.49753077  1
  I  I62  1  0.16841138  0.66645391  0.83506719  1
  I  I63  1  0.49774499  0.00084561  0.16527431  1
  I  I64  1  0.50126352  0.00029292  0.50163633  1
  I  I65  1  0.50330308  0.00343092  0.83254018  1
  I  I66  1  0.49740367  0.33007647  0.16887386  1
  I  I67  1  0.49718099  0.32989676  0.49865194  1
  I  I68  1  0.50363582  0.33087429  0.83280553  1
  I  I69  1  0.50095093  0.66991625  0.17000272  1
  I  I70  1  0.49769828  0.66995076  0.49736269  1
  I  I71  1  0.49929092  0.66450554  0.83280269  1
  I  I72  1  0.83353084  -0.00331651  0.17429892  1
  I  I73  1  0.83336999  -0.00293187  0.49800655  1
  I  I74  1  0.82568526  0.00334029  0.83028762  1
  I  I75  1  0.83169418  0.33321742  0.16758830  1
  I  I76  1  0.83352917  0.33490508  0.50326894  1
  I  I77  1  0.83094959  0.32976320  0.83147952  1
  I  I78  1  0.82820877  0.67095312  0.16872188  1
  I  I79  1  0.83329594  0.66876081  0.49685638  1
  I  I80  1  0.83198445  0.66663780  0.83429296  1
  I  I81  1  0.16964838  0.16955260  0.00318875  1
  I  I82  1  0.17342193  0.16634468  0.33364155  1
  I  I83  1  0.16916443  0.16173470  0.66334020  1
  I  I84  1  0.16610050  0.49368708  0.00416093  1
  I  I85  1  0.16845232  0.49825371  0.33069834  1
  I  I86  1  0.16567565  0.50051338  0.66647936  1
  I  I87  1  0.16642141  0.83349590  0.00046437  1
  I  I88  1  0.16613775  0.83496384  0.33654641  1
  I  I89  1  0.16744079  0.84026338  0.66070225  1
  I  I90  1  0.49969960  0.16603933  0.00081818  1
  I  I91  1  0.49529861  0.16161454  0.33346264  1
  I  I92  1  0.50031243  0.16588481  0.66575578  1
  I  I93  1  0.49960438  0.49478240  -0.00295595  1
  I  I94  1  0.50008683  0.49799802  0.33323601  1
  I  I95  1  0.50075444  0.49538495  0.66926103  1
  I  I96  1  0.50377311  0.83619339  0.00332760  1
  I  I97  1  0.50094614  0.84036703  0.33400824  1
  I  I98  1  0.50062713  0.83688796  0.66308586  1
  I  I99  1  0.82818204  0.16532596  -0.00304426  1
  I  I100  1  0.83172871  0.16815578  0.33329950  1
  I  I101  1  0.82830468  0.16487079  0.66893900  1
  I  I102  1  0.83417201  0.50118240  -0.00001449  1
  I  I103  1  0.83175048  0.50002041  0.33642169  1
  I  I104  1  0.83432357  0.50722009  0.66333417  1
  I  I105  1  0.82826004  0.83569007  0.00296143  1
  I  I106  1  0.83246176  0.83126748  0.33462457  1
  I  I107  1  0.83240670  0.83116637  0.66297426  1
  I  I108  1  0.00285428  0.16788459  0.17006576  1
  I  I109  1  0.00263815  0.16349200  0.49758869  1
  I  I110  1  -0.00210998  0.16509516  0.83175253  1
  I  I111  1  0.00340835  0.49362330  0.16828201  1
  I  I112  1  -0.00302558  0.50409649  0.49961433  1
  I  I113  1  -0.00014494  0.49865406  0.83288796  1
  I  I114  1  -0.00192093  0.83412116  0.17167681  1
  I  I115  1  -0.00026014  0.83466633  0.49539020  1
  I  I116  1  -0.00019282  0.83589130  0.83580260  1
  I  I117  1  0.33449073  0.16431975  0.16500823  1
  I  I118  1  0.33421659  0.15991797  0.50159580  1
  I  I119  1  0.33692818  0.16957775  0.83285014  1
  I  I120  1  0.33079357  0.50003936  0.16754177  1
  I  I121  1  0.33338627  0.50270036  0.50114972  1
  I  I122  1  0.33714321  0.49260991  0.83022150  1
  I  I123  1  0.33617186  0.83414664  0.16949840  1
  I  I124  1  0.33427431  0.83831369  0.49631072  1
  I  I125  1  0.33374416  0.83534347  0.83596637  1
  I  I126  1  0.66343095  0.16422071  0.16932024  1
  I  I127  1  0.66359648  0.16383069  0.49895520  1
  I  I128  1  0.66439555  0.16935879  0.83197614  1
  I  I129  1  0.66673547  0.49810547  0.16628100  1
  I  I130  1  0.66949723  0.50404406  0.50057702  1
  I  I131  1  0.66345501  0.49750430  0.83429185  1
  I  I132  1  0.66543121  0.83871737  0.17459296  1
  I  I133  1  0.66604529  0.83417052  0.49676610  1
  I  I134  1  0.66645049  0.83266575  0.82921119  1
