# generated using pymatgen
data_Cs27Sn13Pb14I81
_symmetry_space_group_name_H-M   'P 1'
_cell_length_a   18.98186668
_cell_length_b   18.97791139
_cell_length_c   18.97153276
_cell_angle_alpha   90.00055285
_cell_angle_beta   90.00155553
_cell_angle_gamma   90.00142764
_symmetry_Int_Tables_number   1
_chemical_formula_structural   Cs27Sn13Pb14I81
_chemical_formula_sum   'Cs27 Sn13 Pb14 I81'
_cell_volume   6834.23255793
_cell_formula_units_Z   1
loop_
 _symmetry_equiv_pos_site_id
 _symmetry_equiv_pos_as_xyz
  1  'x, y, z'
loop_
 _atom_site_type_symbol
 _atom_site_label
 _atom_site_symmetry_multiplicity
 _atom_site_fract_x
 _atom_site_fract_y
 _atom_site_fract_z
 _atom_site_occupancy
  Cs  Cs0  1  -0.00416412  -0.00074914  0.00053315  1
  Cs  Cs1  1  0.00133045  0.00166479  0.33514126  1
  Cs  Cs2  1  -0.00133691  -0.00093051  0.66583713  1
  Cs  Cs3  1  0.00048072  0.33086079  -0.00047611  1
  Cs  Cs4  1  0.00092941  0.33497633  0.33194038  1
  Cs  Cs5  1  -0.00191399  0.33203549  0.66669615  1
  Cs  Cs6  1  0.00003168  0.67094048  -0.00349161  1
  Cs  Cs7  1  0.00312850  0.66351390  0.33357390  1
  Cs  Cs8  1  0.00219116  0.67120559  0.66945969  1
  Cs  Cs9  1  0.33699021  0.00310910  0.00321901  1
  Cs  Cs10  1  0.33385085  -0.00060638  0.33407580  1
  Cs  Cs11  1  0.33546503  0.00035925  0.66465834  1
  Cs  Cs12  1  0.33358683  0.33450046  -0.00092677  1
  Cs  Cs13  1  0.33067225  0.33291440  0.33196764  1
  Cs  Cs14  1  0.33438720  0.33277356  0.66810523  1
  Cs  Cs15  1  0.33284761  0.66219824  -0.00090169  1
  Cs  Cs16  1  0.33082566  0.66769680  0.33215960  1
  Cs  Cs17  1  0.33229747  0.66641178  0.66973503  1
  Cs  Cs18  1  0.66690388  -0.00426180  0.00349868  1
  Cs  Cs19  1  0.66434240  -0.00095244  0.33285479  1
  Cs  Cs20  1  0.66577719  0.00195004  0.66657519  1
  Cs  Cs21  1  0.66697588  0.33531829  0.00286497  1
  Cs  Cs22  1  0.66953016  0.34307532  0.33004573  1
  Cs  Cs23  1  0.66801173  0.33213961  0.66596894  1
  Cs  Cs24  1  0.66708649  0.67051471  0.00825959  1
  Cs  Cs25  1  0.66762554  0.65970865  0.32874925  1
  Cs  Cs26  1  0.66543458  0.66515117  0.66475799  1
  Sn  Sn27  1  0.16665847  0.16631230  0.83238224  1
  Sn  Sn28  1  0.83302091  0.49968703  0.83295391  1
  Sn  Sn29  1  0.16670251  0.16758186  0.50100949  1
  Sn  Sn30  1  0.50041772  0.16580975  0.83258134  1
  Sn  Sn31  1  0.83217312  0.83378496  0.50004356  1
  Sn  Sn32  1  0.50115393  0.83369033  0.50079826  1
  Sn  Sn33  1  0.83294569  0.16739276  0.83264117  1
  Sn  Sn34  1  0.50050787  0.16644331  0.50015944  1
  Sn  Sn35  1  0.16655708  0.83304246  0.16655141  1
  Sn  Sn36  1  0.83284241  0.16608993  0.50018288  1
  Sn  Sn37  1  0.16684358  0.49918776  0.50021833  1
  Sn  Sn38  1  0.16648193  0.50093806  0.16686115  1
  Sn  Sn39  1  0.50005508  0.83396399  0.83242812  1
  Pb  Pb40  1  0.49720604  0.49990623  0.16666340  1
  Pb  Pb41  1  0.16487692  0.49786915  0.83307697  1
  Pb  Pb42  1  0.49801399  0.83341330  0.16731899  1
  Pb  Pb43  1  0.50271556  0.49970603  0.83318107  1
  Pb  Pb44  1  0.83092436  0.83396327  0.83137581  1
  Pb  Pb45  1  0.49750088  0.49979194  0.50017194  1
  Pb  Pb46  1  0.50029355  0.16679845  0.16725992  1
  Pb  Pb47  1  0.16662153  0.16676199  0.16682755  1
  Pb  Pb48  1  0.83628048  0.50002331  0.16351855  1
  Pb  Pb49  1  0.83567678  0.49995512  0.50167770  1
  Pb  Pb50  1  0.16922371  0.83649098  0.83555495  1
  Pb  Pb51  1  0.83581048  0.83353098  0.17033828  1
  Pb  Pb52  1  0.83313925  0.16659024  0.16715567  1
  Pb  Pb53  1  0.16706449  0.83383694  0.49914235  1
  I  I54  1  0.16779794  -0.00205750  0.16747539  1
  I  I55  1  0.16632973  0.00324163  0.50172091  1
  I  I56  1  0.16132392  0.00447975  0.82781481  1
  I  I57  1  0.16636431  0.33577002  0.16866505  1
  I  I58  1  0.16651604  0.33172501  0.49741590  1
  I  I59  1  0.17119245  0.32956167  0.83394687  1
  I  I60  1  0.16712054  0.66589583  0.17404273  1
  I  I61  1  0.16598008  0.66476115  0.49646019  1
  I  I62  1  0.16599587  0.66679179  0.83156202  1
  I  I63  1  0.49507243  -0.00002063  0.16620599  1
  I  I64  1  0.49787437  0.00095768  0.50386043  1
  I  I65  1  0.50049477  0.00143946  0.82910329  1
  I  I66  1  0.49696476  0.33322734  0.16614112  1
  I  I67  1  0.50163468  0.32952287  0.50537170  1
  I  I68  1  0.49738423  0.32941137  0.82870720  1
  I  I69  1  0.50038972  0.66693987  0.16596928  1
  I  I70  1  0.50262717  0.67004830  0.50402036  1
  I  I71  1  0.50030563  0.66967100  0.82866969  1
  I  I72  1  0.83753208  -0.00011899  0.16175002  1
  I  I73  1  0.83612641  0.00158709  0.50549619  1
  I  I74  1  0.83617918  0.00349615  0.83098426  1
  I  I75  1  0.83626723  0.33343513  0.17085788  1
  I  I76  1  0.83150750  0.32994033  0.50263855  1
  I  I77  1  0.83274870  0.33083002  0.82751709  1
  I  I78  1  0.83255414  0.66675536  0.16581169  1
  I  I79  1  0.83084483  0.66917888  0.50202299  1
  I  I80  1  0.83403267  0.66499294  0.83127710  1
  I  I81  1  0.16689697  0.16660775  -0.00316643  1
  I  I82  1  0.16672672  0.16727616  0.33688665  1
  I  I83  1  0.16675935  0.17189944  0.66559136  1
  I  I84  1  0.16524285  0.50249531  0.00224632  1
  I  I85  1  0.16618157  0.49756870  0.33415065  1
  I  I86  1  0.16570903  0.49704744  0.66407151  1
  I  I87  1  0.16801192  0.82759848  0.00306030  1
  I  I88  1  0.16795403  0.83373049  0.33133787  1
  I  I89  1  0.16508514  0.83013271  0.66672905  1
  I  I90  1  0.49861347  0.16285698  -0.00394596  1
  I  I91  1  0.49743943  0.16112448  0.33779727  1
  I  I92  1  0.49885360  0.16253896  0.66643411  1
  I  I93  1  0.49764684  0.49941691  -0.00040191  1
  I  I94  1  0.50250012  0.49956805  0.33375834  1
  I  I95  1  0.49573217  0.50138838  0.66666207  1
  I  I96  1  0.49858814  0.83872402  -0.00289986  1
  I  I97  1  0.50130625  0.83923845  0.33709979  1
  I  I98  1  0.50192772  0.83848457  0.66571749  1
  I  I99  1  0.83509565  0.17084047  -0.00389026  1
  I  I100  1  0.83523615  0.16219092  0.33776306  1
  I  I101  1  0.83431961  0.16701395  0.66637597  1
  I  I102  1  0.83468766  0.49230458  -0.00421035  1
  I  I103  1  0.83296743  0.49967226  0.33348053  1
  I  I104  1  0.83632702  0.49655210  0.66927125  1
  I  I105  1  0.83261428  0.83341409  -0.00014671  1
  I  I106  1  0.82741449  0.83989302  0.33840149  1
  I  I107  1  0.83480977  0.83534660  0.66334552  1
  I  I108  1  0.00020796  0.16607421  0.16606438  1
  I  I109  1  0.00002391  0.16588185  0.50529234  1
  I  I110  1  -0.00018604  0.17194166  0.82803919  1
  I  I111  1  0.00394634  0.50289344  0.17234991  1
  I  I112  1  0.00349582  0.49588695  0.49656402  1
  I  I113  1  -0.00277332  0.49375766  0.83285473  1
  I  I114  1  0.00359615  0.83008569  0.16728285  1
  I  I115  1  -0.00190167  0.83691894  0.49799034  1
  I  I116  1  -0.00012440  0.83384736  0.83329251  1
  I  I117  1  0.33314039  0.16720365  0.16603138  1
  I  I118  1  0.33327554  0.16623471  0.50513717  1
  I  I119  1  0.33354695  0.16272686  0.82803433  1
  I  I120  1  0.32889002  0.50325165  0.16960006  1
  I  I121  1  0.32933730  0.49611374  0.49686472  1
  I  I122  1  0.33316933  0.49907944  0.83458950  1
  I  I123  1  0.33027408  0.82965471  0.16936413  1
  I  I124  1  0.33604972  0.83688656  0.50152127  1
  I  I125  1  0.33695656  0.83778918  0.82644345  1
  I  I126  1  0.66669004  0.16595865  0.16588099  1
  I  I127  1  0.66668833  0.16036070  0.50747987  1
  I  I128  1  0.66664046  0.16741020  0.82655687  1
  I  I129  1  0.66716018  0.49955994  0.16645097  1
  I  I130  1  0.66692196  0.49807671  0.50094288  1
  I  I131  1  0.67024494  0.49297280  0.83066180  1
  I  I132  1  0.66661185  0.83388092  0.16454222  1
  I  I133  1  0.66610703  0.84210143  0.50434979  1
  I  I134  1  0.66320559  0.83898067  0.83183478  1
