# generated using pymatgen
data_Cs27Sn14Pb13I81
_symmetry_space_group_name_H-M   'P 1'
_cell_length_a   18.98376910
_cell_length_b   18.98376916
_cell_length_c   18.96358420
_cell_angle_alpha   89.99954619
_cell_angle_beta   89.99954633
_cell_angle_gamma   89.99974784
_symmetry_Int_Tables_number   1
_chemical_formula_structural   Cs27Sn14Pb13I81
_chemical_formula_sum   'Cs27 Sn14 Pb13 I81'
_cell_volume   6834.16266433
_cell_formula_units_Z   1
loop_
 _symmetry_equiv_pos_site_id
 _symmetry_equiv_pos_as_xyz
  1  'x, y, z'
loop_
 _atom_site_type_symbol
 _atom_site_label
 _atom_site_symmetry_multiplicity
 _atom_site_fract_x
 _atom_site_fract_y
 _atom_site_fract_z
 _atom_site_occupancy
  Cs  Cs0  1  0.00052505  -0.00034881  0.00058813  1
  Cs  Cs1  1  -0.00044040  0.00081716  0.33117503  1
  Cs  Cs2  1  0.00063988  -0.00144501  0.66340162  1
  Cs  Cs3  1  0.00060410  0.33393746  0.00176221  1
  Cs  Cs4  1  -0.00050977  0.33282355  0.32945508  1
  Cs  Cs5  1  0.00014930  0.33348273  0.66298475  1
  Cs  Cs6  1  0.00238752  0.66656845  -0.00082787  1
  Cs  Cs7  1  0.00216178  0.66693292  0.33551660  1
  Cs  Cs8  1  -0.00718149  0.66824164  0.66220905  1
  Cs  Cs9  1  0.33304611  -0.00303794  -0.00190138  1
  Cs  Cs10  1  0.33604556  -0.00484070  0.33763413  1
  Cs  Cs11  1  0.33261374  0.00897542  0.66459457  1
  Cs  Cs12  1  0.33323517  0.33572098  -0.00082789  1
  Cs  Cs13  1  0.33359966  0.33549508  0.33551642  1
  Cs  Cs14  1  0.33490836  0.32615193  0.66220917  1
  Cs  Cs15  1  0.33284103  0.66617426  -0.00010371  1
  Cs  Cs16  1  0.33520774  0.66854095  0.33863505  1
  Cs  Cs17  1  0.33225631  0.66558940  0.66806241  1
  Cs  Cs18  1  0.66642474  -0.00024211  0.00064959  1
  Cs  Cs19  1  0.66510466  -0.00156216  0.33186452  1
  Cs  Cs20  1  0.66740020  0.00073336  0.66521013  1
  Cs  Cs21  1  0.66631792  0.33385825  0.00058809  1
  Cs  Cs22  1  0.66748361  0.33289287  0.33117515  1
  Cs  Cs23  1  0.66522144  0.33397318  0.66340176  1
  Cs  Cs24  1  0.66362873  0.66637962  -0.00190141  1
  Cs  Cs25  1  0.66182593  0.66937879  0.33763432  1
  Cs  Cs26  1  0.67564206  0.66594716  0.66459454  1
  Sn  Sn27  1  0.49972878  0.49939785  0.16601395  1
  Sn  Sn28  1  0.16752212  0.83246214  0.83403323  1
  Sn  Sn29  1  0.83313625  0.50078613  0.16617116  1
  Sn  Sn30  1  0.49925343  0.83258676  0.83382219  1
  Sn  Sn31  1  0.83392577  0.83292446  0.16598404  1
  Sn  Sn32  1  0.49959115  0.16725907  0.16598403  1
  Sn  Sn33  1  0.83353536  0.16686867  0.83369756  1
  Sn  Sn34  1  0.16745279  0.16646956  0.16617116  1
  Sn  Sn35  1  0.83345233  0.16678568  0.49953528  1
  Sn  Sn36  1  0.83320326  0.16653657  0.16622602  1
  Sn  Sn37  1  0.16705898  0.50039238  0.16621712  1
  Sn  Sn38  1  0.16732847  0.50066189  0.83391731  1
  Sn  Sn39  1  0.49912884  0.50085546  0.83403327  1
  Sn  Sn40  1  0.16606454  0.83306206  0.16601397  1
  Pb  Pb41  1  0.49989207  0.50014648  0.50072616  1
  Pb  Pb42  1  0.50186724  0.16715897  0.83541038  1
  Pb  Pb43  1  0.83382567  0.83520057  0.83541032  1
  Pb  Pb44  1  0.49945772  0.83279107  0.16545263  1
  Pb  Pb45  1  0.16447590  0.16671928  0.49656948  1
  Pb  Pb46  1  0.83338601  0.49780916  0.49656951  1
  Pb  Pb47  1  0.16681312  0.83322535  0.50072616  1
  Pb  Pb48  1  0.16471137  0.16697062  0.83528457  1
  Pb  Pb49  1  0.49980131  0.83313469  0.50483783  1
  Pb  Pb50  1  0.50230590  0.16673629  0.49655089  1
  Pb  Pb51  1  0.16671261  0.50004594  0.50070082  1
  Pb  Pb52  1  0.83363730  0.49804470  0.83528454  1
  Pb  Pb53  1  0.83340304  0.83563916  0.49655087  1
  I  I54  1  0.16181447  -0.00021069  0.16293141  1
  I  I55  1  0.16553979  0.00007947  0.50008760  1
  I  I56  1  0.16918786  -0.00268575  0.83894922  1
  I  I57  1  0.16307851  0.33374005  0.16346346  1
  I  I58  1  0.16549686  0.33323953  0.50022028  1
  I  I59  1  0.16942045  0.33637571  0.83921688  1
  I  I60  1  0.16252028  0.66635059  0.16281831  1
  I  I61  1  0.16559928  0.66665630  0.49341452  1
  I  I62  1  0.17094662  0.66644897  0.84364996  1
  I  I63  1  0.50232266  0.00215433  0.16506011  1
  I  I64  1  0.50108587  0.00013678  0.49818269  1
  I  I65  1  0.49735736  -0.00215166  0.83633635  1
  I  I66  1  0.50175298  0.33396184  0.16163217  1
  I  I67  1  0.50084647  0.33322803  0.50413202  1
  I  I68  1  0.49690941  0.33645883  0.83682413  1
  I  I69  1  0.50181481  0.66355044  0.16444520  1
  I  I70  1  0.50118114  0.66661690  0.49128418  1
  I  I71  1  0.49669259  0.66576132  0.84187840  1
  I  I72  1  0.83576517  0.00112977  0.16690562  1
  I  I73  1  0.83358970  0.00368321  0.49704314  1
  I  I74  1  0.83288866  0.00311769  0.83811445  1
  I  I75  1  0.83525282  0.33261064  0.16701653  1
  I  I76  1  0.83341326  0.32975590  0.49697268  1
  I  I77  1  0.83320929  0.33016438  0.83799492  1
  I  I78  1  0.83628733  0.66630932  0.16450585  1
  I  I79  1  0.83315239  0.66672095  0.49967115  1
  I  I80  1  0.83232891  0.66658270  0.83543113  1
  I  I81  1  0.16240809  0.16688740  0.00400438  1
  I  I82  1  0.16372321  0.16748829  0.32760204  1
  I  I83  1  0.16382513  0.16650039  0.66682177  1
  I  I84  1  0.16694724  0.50028037  0.00176249  1
  I  I85  1  0.16597050  0.49930361  0.32880960  1
  I  I86  1  0.17104077  0.50437450  0.67093383  1
  I  I87  1  0.16585075  0.83303569  0.00131148  1
  I  I88  1  0.16150061  0.83369559  0.32933414  1
  I  I89  1  0.17045922  0.82861466  0.67087077  1
  I  I90  1  0.50426901  0.16831979  0.00379132  1
  I  I91  1  0.50203198  0.17219963  0.32790537  1
  I  I92  1  0.50290305  0.16637439  0.66682486  1
  I  I93  1  0.49970184  0.49918422  0.00131148  1
  I  I94  1  0.50036196  0.49483438  0.32933415  1
  I  I95  1  0.49528206  0.50379225  0.67087073  1
  I  I96  1  0.49940385  0.83273699  -0.00226042  1
  I  I97  1  0.50094566  0.83427878  0.33306863  1
  I  I98  1  0.49455371  0.82788731  0.67285455  1
  I  I99  1  0.83328147  0.16661484  0.00264477  1
  I  I100  1  0.83369747  0.16703055  0.33066764  1
  I  I101  1  0.83302201  0.16635558  0.66702691  1
  I  I102  1  0.83355433  0.49574148  0.00400434  1
  I  I103  1  0.83415503  0.49705636  0.32760206  1
  I  I104  1  0.83316672  0.49715872  0.66682175  1
  I  I105  1  0.83498639  0.83760235  0.00379130  1
  I  I106  1  0.83886640  0.83536583  0.32790538  1
  I  I107  1  0.83304084  0.83623590  0.66682487  1
  I  I108  1  -0.00072270  0.16858584  0.16701659  1
  I  I109  1  -0.00357741  0.16674586  0.49697262  1
  I  I110  1  -0.00316897  0.16654237  0.83799495  1
  I  I111  1  0.00040674  0.49641184  0.16346346  1
  I  I112  1  -0.00009383  0.49883144  0.50022040  1
  I  I113  1  0.00304233  0.50275366  0.83921694  1
  I  I114  1  0.00062846  0.83508674  0.16163206  1
  I  I115  1  -0.00010528  0.83417926  0.50413251  1
  I  I116  1  0.00312554  0.83024284  0.83682403  1
  I  I117  1  0.33297599  0.16962051  0.16450571  1
  I  I118  1  0.33338759  0.16648624  0.49967162  1
  I  I119  1  0.33324929  0.16566234  0.83543092  1
  I  I120  1  0.33301723  0.49585389  0.16281836  1
  I  I121  1  0.33332291  0.49893164  0.49341524  1
  I  I122  1  0.33311562  0.50427997  0.84364943  1
  I  I123  1  0.33021708  0.83514804  0.16444532  1
  I  I124  1  0.33328361  0.83451482  0.49128371  1
  I  I125  1  0.33242800  0.83002586  0.84187874  1
  I  I126  1  0.66779644  0.16909906  0.16690587  1
  I  I127  1  0.67034993  0.16692318  0.49704260  1
  I  I128  1  0.66978437  0.16622231  0.83811464  1
  I  I129  1  0.66645596  0.49514750  0.16293125  1
  I  I130  1  0.66674615  0.49887308  0.50008705  1
  I  I131  1  0.66398097  0.50252102  0.83894983  1
  I  I132  1  0.66882101  0.83565580  0.16506009  1
  I  I133  1  0.66680343  0.83441928  0.49818273  1
  I  I134  1  0.66451501  0.83069082  0.83633629  1
