# generated using pymatgen
data_Cs27Sn13Pb14I81
_symmetry_space_group_name_H-M   'P 1'
_cell_length_a   18.97397091
_cell_length_b   18.97494496
_cell_length_c   18.98299786
_cell_angle_alpha   90.00194412
_cell_angle_beta   90.00093646
_cell_angle_gamma   89.99621109
_symmetry_Int_Tables_number   1
_chemical_formula_structural   Cs27Sn13Pb14I81
_chemical_formula_sum   'Cs27 Sn13 Pb14 I81'
_cell_volume   6834.44971994
_cell_formula_units_Z   1
loop_
 _symmetry_equiv_pos_site_id
 _symmetry_equiv_pos_as_xyz
  1  'x, y, z'
loop_
 _atom_site_type_symbol
 _atom_site_label
 _atom_site_symmetry_multiplicity
 _atom_site_fract_x
 _atom_site_fract_y
 _atom_site_fract_z
 _atom_site_occupancy
  Cs  Cs0  1  0.00449142  0.01042715  -0.00278318  1
  Cs  Cs1  1  0.00228135  -0.00099716  0.33004889  1
  Cs  Cs2  1  -0.00264434  -0.00049360  0.67339593  1
  Cs  Cs3  1  0.00244862  0.33027424  -0.00072301  1
  Cs  Cs4  1  -0.00280398  0.33238142  0.33416205  1
  Cs  Cs5  1  -0.00060258  0.33260345  0.66661958  1
  Cs  Cs6  1  -0.00146405  0.66454183  0.00038384  1
  Cs  Cs7  1  -0.00005254  0.66846231  0.33222850  1
  Cs  Cs8  1  0.00413938  0.66711352  0.66877463  1
  Cs  Cs9  1  0.33142315  0.00027414  0.00138534  1
  Cs  Cs10  1  0.33238054  -0.00062672  0.33491884  1
  Cs  Cs11  1  0.33618180  -0.00143178  0.66258973  1
  Cs  Cs12  1  0.33317830  0.33437100  -0.00190974  1
  Cs  Cs13  1  0.33609312  0.33488661  0.33482335  1
  Cs  Cs14  1  0.33300251  0.33279893  0.66658789  1
  Cs  Cs15  1  0.33113182  0.66567573  -0.00284587  1
  Cs  Cs16  1  0.33311636  0.66664219  0.33313173  1
  Cs  Cs17  1  0.32908997  0.66932788  0.66900668  1
  Cs  Cs18  1  0.66690949  -0.00215352  -0.00158706  1
  Cs  Cs19  1  0.66614470  -0.00059748  0.33297157  1
  Cs  Cs20  1  0.66601851  -0.00142454  0.66892052  1
  Cs  Cs21  1  0.66508369  0.33465054  0.00126234  1
  Cs  Cs22  1  0.66704568  0.33535523  0.33605800  1
  Cs  Cs23  1  0.66758426  0.33405692  0.66317473  1
  Cs  Cs24  1  0.66798075  0.66753876  0.00131106  1
  Cs  Cs25  1  0.66707575  0.66516960  0.33220059  1
  Cs  Cs26  1  0.66778652  0.66762567  0.66679563  1
  Sn  Sn27  1  0.83407211  0.50035395  0.16611752  1
  Sn  Sn28  1  0.50103940  0.83374916  0.49891770  1
  Sn  Sn29  1  0.50020852  0.16758546  0.83317500  1
  Sn  Sn30  1  0.16698788  0.16743332  0.49978583  1
  Sn  Sn31  1  0.83225457  0.49997000  0.83407539  1
  Sn  Sn32  1  0.50105339  0.49952750  0.83314978  1
  Sn  Sn33  1  0.16574269  0.49993912  0.16777437  1
  Sn  Sn34  1  0.16669025  0.49915225  0.49887694  1
  Sn  Sn35  1  0.83289085  0.83311021  0.16719260  1
  Sn  Sn36  1  0.49967825  0.16618444  0.49972902  1
  Sn  Sn37  1  0.83264306  0.83335438  0.49920884  1
  Sn  Sn38  1  0.50063611  0.83399420  0.16754962  1
  Sn  Sn39  1  0.50032054  0.16595394  0.16699414  1
  Pb  Pb40  1  0.16650560  0.83141853  0.16651096  1
  Pb  Pb41  1  0.16953613  0.16675706  0.83041030  1
  Pb  Pb42  1  0.16943040  0.16932404  0.16903592  1
  Pb  Pb43  1  0.83110899  0.16651557  0.16677380  1
  Pb  Pb44  1  0.16640541  0.83381566  0.83383060  1
  Pb  Pb45  1  0.83565531  0.50220537  0.49984016  1
  Pb  Pb46  1  0.49822092  0.50073606  0.50235588  1
  Pb  Pb47  1  0.83326090  0.16369416  0.49985112  1
  Pb  Pb48  1  0.50021370  0.50049308  0.16513219  1
  Pb  Pb49  1  0.83063108  0.16956213  0.83335013  1
  Pb  Pb50  1  0.16638152  0.49981932  0.83342162  1
  Pb  Pb51  1  0.49994652  0.83344325  0.83363893  1
  Pb  Pb52  1  0.83332107  0.83133666  0.83427623  1
  Pb  Pb53  1  0.16650678  0.83386900  0.49989868  1
  I  I54  1  0.16445786  0.00034833  0.16771202  1
  I  I55  1  0.17058905  0.00283983  0.50084916  1
  I  I56  1  0.16790707  0.00069602  0.83172998  1
  I  I57  1  0.16213486  0.33724399  0.16799153  1
  I  I58  1  0.17330884  0.33333738  0.49664248  1
  I  I59  1  0.16584911  0.33346535  0.83457413  1
  I  I60  1  0.16852383  0.66311728  0.17287996  1
  I  I61  1  0.16702684  0.66415377  0.49749830  1
  I  I62  1  0.17101624  0.66582600  0.82949706  1
  I  I63  1  0.50527573  -0.00037899  0.16573691  1
  I  I64  1  0.49742526  0.00051385  0.50168444  1
  I  I65  1  0.49829565  0.00302473  0.83234015  1
  I  I66  1  0.49918336  0.33105931  0.16858387  1
  I  I67  1  0.49715346  0.33070420  0.49800501  1
  I  I68  1  0.50338139  0.33296594  0.83388524  1
  I  I69  1  0.50082469  0.66935773  0.17040959  1
  I  I70  1  0.50210881  0.66967049  0.49615333  1
  I  I71  1  0.50291742  0.66392337  0.83373145  1
  I  I72  1  0.82978218  -0.00339846  0.17216466  1
  I  I73  1  0.83298815  -0.00425322  0.49345773  1
  I  I74  1  0.83297848  0.00000235  0.83280945  1
  I  I75  1  0.83567248  0.33662764  0.16227831  1
  I  I76  1  0.83123023  0.33352142  0.50001794  1
  I  I77  1  0.83193263  0.33768821  0.83894755  1
  I  I78  1  0.83042561  0.66648827  0.16690372  1
  I  I79  1  0.82734622  0.66988711  0.49863824  1
  I  I80  1  0.82611459  0.66315180  0.83457272  1
  I  I81  1  0.16786677  0.16753207  0.00019823  1
  I  I82  1  0.17365589  0.16832892  0.33673455  1
  I  I83  1  0.17246598  0.17371310  0.66243815  1
  I  I84  1  0.16635847  0.50219040  0.00274650  1
  I  I85  1  0.16268667  0.49708363  0.33319323  1
  I  I86  1  0.16772340  0.49712463  0.66395534  1
  I  I87  1  0.16907702  0.82941083  0.00067776  1
  I  I88  1  0.16725813  0.83339947  0.33339149  1
  I  I89  1  0.16749418  0.82916108  0.66594309  1
  I  I90  1  0.50229385  0.16716502  0.00026074  1
  I  I91  1  0.49594093  0.16198201  0.33388456  1
  I  I92  1  0.49562204  0.16664188  0.66579111  1
  I  I93  1  0.49893665  0.49629009  -0.00267712  1
  I  I94  1  0.50133201  0.49735888  0.33339590  1
  I  I95  1  0.50410385  0.49618064  0.67009802  1
  I  I96  1  0.50437943  0.83560753  0.00331762  1
  I  I97  1  0.50341903  0.84035277  0.33346534  1
  I  I98  1  0.50297089  0.83615448  0.66356745  1
  I  I99  1  0.83142776  0.16230752  0.00010470  1
  I  I100  1  0.83012023  0.17258005  0.33335568  1
  I  I101  1  0.83164166  0.16670860  0.66649391  1
  I  I102  1  0.83425349  0.50631164  0.00119607  1
  I  I103  1  0.83522894  0.50251458  0.33048863  1
  I  I104  1  0.83024882  0.50100207  0.66885362  1
  I  I105  1  0.82637741  0.82893084  0.00383015  1
  I  I106  1  0.82829363  0.82686930  0.33252037  1
  I  I107  1  0.82896451  0.83284102  0.66395698  1
  I  I108  1  0.00026588  0.16425956  0.16812302  1
  I  I109  1  0.00285218  0.17072886  0.49953213  1
  I  I110  1  0.00009520  0.16677495  0.83182211  1
  I  I111  1  -0.00110315  0.50640886  0.16484011  1
  I  I112  1  0.00348999  0.49569047  0.50092239  1
  I  I113  1  -0.00287857  0.50325200  0.83436798  1
  I  I114  1  -0.00352456  0.82847040  0.17254055  1
  I  I115  1  -0.00288829  0.83132205  0.49556879  1
  I  I116  1  -0.00064828  0.82930679  0.83015427  1
  I  I117  1  0.33769495  0.16216536  0.16439474  1
  I  I118  1  0.33515505  0.16510270  0.50042027  1
  I  I119  1  0.33792070  0.17439297  0.83600691  1
  I  I120  1  0.33149329  0.49937545  0.16878842  1
  I  I121  1  0.33040770  0.50053753  0.49540606  1
  I  I122  1  0.33602966  0.49643574  0.83379343  1
  I  I123  1  0.33679574  0.83596591  0.17116308  1
  I  I124  1  0.33655301  0.83463677  0.49655759  1
  I  I125  1  0.33413365  0.82855678  0.83235627  1
  I  I126  1  0.66245878  0.16847856  0.16967973  1
  I  I127  1  0.66289776  0.16508559  0.50041117  1
  I  I128  1  0.66221201  0.16782533  0.82997599  1
  I  I129  1  0.66906890  0.50139991  0.16364987  1
  I  I130  1  0.66666679  0.49773093  0.49847582  1
  I  I131  1  0.66653269  0.49650979  0.83882484  1
  I  I132  1  0.66620027  0.83043354  0.17102473  1
  I  I133  1  0.66533015  0.83777561  0.49657040  1
  I  I134  1  0.66643469  0.83430076  0.83197654  1
