# generated using pymatgen
data_Cs27Sn14Pb13I81
_symmetry_space_group_name_H-M   'P 1'
_cell_length_a   18.97073606
_cell_length_b   18.97270622
_cell_length_c   18.98537038
_cell_angle_alpha   90.00125110
_cell_angle_beta   89.99940060
_cell_angle_gamma   90.00374810
_symmetry_Int_Tables_number   1
_chemical_formula_structural   Cs27Sn14Pb13I81
_chemical_formula_sum   'Cs27 Sn14 Pb13 I81'
_cell_volume   6833.33223936
_cell_formula_units_Z   1
loop_
 _symmetry_equiv_pos_site_id
 _symmetry_equiv_pos_as_xyz
  1  'x, y, z'
loop_
 _atom_site_type_symbol
 _atom_site_label
 _atom_site_symmetry_multiplicity
 _atom_site_fract_x
 _atom_site_fract_y
 _atom_site_fract_z
 _atom_site_occupancy
  Cs  Cs0  1  0.00292161  0.00125630  -0.00536160  1
  Cs  Cs1  1  0.00144753  -0.00078022  0.33417965  1
  Cs  Cs2  1  0.00035422  -0.00477462  0.67238412  1
  Cs  Cs3  1  -0.00312540  0.33110548  0.00273350  1
  Cs  Cs4  1  -0.00145093  0.33384916  0.33132340  1
  Cs  Cs5  1  0.00025743  0.33409220  0.66571518  1
  Cs  Cs6  1  0.00092757  0.66800405  -0.00119740  1
  Cs  Cs7  1  0.00031784  0.66629927  0.33356549  1
  Cs  Cs8  1  0.00175150  0.67109023  0.66880399  1
  Cs  Cs9  1  0.33447787  0.00141593  -0.00072798  1
  Cs  Cs10  1  0.33237572  -0.00125592  0.33535784  1
  Cs  Cs11  1  0.33450135  0.00051250  0.66487047  1
  Cs  Cs12  1  0.33313184  0.33336130  -0.00052549  1
  Cs  Cs13  1  0.33193793  0.33131543  0.33911003  1
  Cs  Cs14  1  0.32868539  0.34198771  0.65812239  1
  Cs  Cs15  1  0.33417217  0.66558095  -0.00006373  1
  Cs  Cs16  1  0.33166274  0.66915671  0.33252520  1
  Cs  Cs17  1  0.33307222  0.66064597  0.66718257  1
  Cs  Cs18  1  0.66447640  0.00147884  -0.00004015  1
  Cs  Cs19  1  0.66571725  -0.00177624  0.33266428  1
  Cs  Cs20  1  0.66572270  0.00123939  0.66748143  1
  Cs  Cs21  1  0.66805131  0.33245622  -0.00033114  1
  Cs  Cs22  1  0.66829501  0.33285731  0.33348453  1
  Cs  Cs23  1  0.66590771  0.33249977  0.66740504  1
  Cs  Cs24  1  0.66506062  0.66654973  0.00325015  1
  Cs  Cs25  1  0.66809599  0.66954546  0.32959707  1
  Cs  Cs26  1  0.66623464  0.66644280  0.66706374  1
  Sn  Sn27  1  0.83310348  0.49956285  0.49995078  1
  Sn  Sn28  1  0.83243982  0.16693219  0.16678996  1
  Sn  Sn29  1  0.50018681  0.83372477  0.83231525  1
  Sn  Sn30  1  0.83329419  0.16701437  0.49996889  1
  Sn  Sn31  1  0.16656005  0.83297444  0.16698257  1
  Sn  Sn32  1  0.16756606  0.83331855  0.49939428  1
  Sn  Sn33  1  0.16665089  0.50057446  0.16669078  1
  Sn  Sn34  1  0.83312662  0.49940904  0.83357884  1
  Sn  Sn35  1  0.83318019  0.49952784  0.16656654  1
  Sn  Sn36  1  0.50004138  0.16678813  0.83342613  1
  Sn  Sn37  1  0.50060936  0.16773988  0.16625560  1
  Sn  Sn38  1  0.83238601  0.16759634  0.83340764  1
  Sn  Sn39  1  0.49995257  0.49867600  0.16693594  1
  Sn  Sn40  1  0.49952207  0.83321850  0.50106888  1
  Pb  Pb41  1  0.50184240  0.16524390  0.50002064  1
  Pb  Pb42  1  0.16745910  0.16709500  0.83305877  1
  Pb  Pb43  1  0.16696337  0.16694947  0.16665658  1
  Pb  Pb44  1  0.50180297  0.49902570  0.83515507  1
  Pb  Pb45  1  0.49817098  0.83393146  0.16652974  1
  Pb  Pb46  1  0.83332576  0.83341862  0.49996309  1
  Pb  Pb47  1  0.16345975  0.16422125  0.50015808  1
  Pb  Pb48  1  0.83067587  0.83360880  0.83364596  1
  Pb  Pb49  1  0.50240898  0.50238683  0.49711147  1
  Pb  Pb50  1  0.16998646  0.83330484  0.83336342  1
  Pb  Pb51  1  0.83592135  0.83403811  0.16641871  1
  Pb  Pb52  1  0.16392975  0.50208616  0.49770814  1
  Pb  Pb53  1  0.16365698  0.49973117  0.83597218  1
  I  I54  1  0.16678494  -0.00252408  0.17083654  1
  I  I55  1  0.16850279  -0.00384234  0.49175640  1
  I  I56  1  0.16001286  -0.00013919  0.83643328  1
  I  I57  1  0.16466378  0.33641666  0.16526797  1
  I  I58  1  0.16826459  0.33365756  0.49900201  1
  I  I59  1  0.17146664  0.33356874  0.83541353  1
  I  I60  1  0.16619714  0.66594954  0.17077018  1
  I  I61  1  0.16816518  0.66995882  0.49710906  1
  I  I62  1  0.16531963  0.66665774  0.83257823  1
  I  I63  1  0.50439716  0.00283633  0.16582051  1
  I  I64  1  0.49949108  -0.00288698  0.49815986  1
  I  I65  1  0.50618250  0.00102794  0.83630991  1
  I  I66  1  0.50027539  0.33289220  0.16048715  1
  I  I67  1  0.49886004  0.33352098  0.50219562  1
  I  I68  1  0.50441391  0.33005958  0.83791648  1
  I  I69  1  0.50350412  0.66432887  0.16694265  1
  I  I70  1  0.49866453  0.67031559  0.50450540  1
  I  I71  1  0.50133311  0.66860112  0.83168872  1
  I  I72  1  0.82886129  0.00381012  0.16711842  1
  I  I73  1  0.83321328  0.00304635  0.49945140  1
  I  I74  1  0.83241907  0.00359859  0.83335464  1
  I  I75  1  0.83510835  0.33388479  0.16662064  1
  I  I76  1  0.83261630  0.33332055  0.49875054  1
  I  I77  1  0.82774264  0.33253582  0.83428858  1
  I  I78  1  0.83024656  0.66320848  0.16760967  1
  I  I79  1  0.83323362  0.66375569  0.49815330  1
  I  I80  1  0.83282887  0.66359780  0.83380808  1
  I  I81  1  0.16167773  0.16324771  0.00027163  1
  I  I82  1  0.16656733  0.16708768  0.33316646  1
  I  I83  1  0.16569938  0.16317160  0.66652037  1
  I  I84  1  0.16486013  0.50734749  0.00451423  1
  I  I85  1  0.16393969  0.50208868  0.32956759  1
  I  I86  1  0.16542972  0.50182440  0.66635517  1
  I  I87  1  0.16613704  0.82908406  0.00276300  1
  I  I88  1  0.17226660  0.82986470  0.33307902  1
  I  I89  1  0.16642409  0.83499962  0.66388865  1
  I  I90  1  0.50821317  0.16329408  0.00040793  1
  I  I91  1  0.50464003  0.16859009  0.33040259  1
  I  I92  1  0.50659427  0.16120513  0.66938336  1
  I  I93  1  0.50248899  0.50268763  0.00348936  1
  I  I94  1  0.50270308  0.49592916  0.32895393  1
  I  I95  1  0.50218281  0.49939427  0.66648445  1
  I  I96  1  0.49998700  0.83462740  -0.00186200  1
  I  I97  1  0.49811903  0.83292007  0.33509016  1
  I  I98  1  0.49605914  0.83953418  0.66674009  1
  I  I99  1  0.82950065  0.17294975  0.00034574  1
  I  I100  1  0.83005752  0.17227624  0.33233530  1
  I  I101  1  0.82962338  0.17226987  0.66738036  1
  I  I102  1  0.83375635  0.49461608  0.00114780  1
  I  I103  1  0.83377611  0.49456269  0.33209197  1
  I  I104  1  0.83229410  0.49414080  0.66675422  1
  I  I105  1  0.83374145  0.83190747  0.00009032  1
  I  I106  1  0.82879566  0.83378143  0.33325506  1
  I  I107  1  0.83800778  0.83235702  0.66667411  1
  I  I108  1  -0.00343384  0.16949216  0.16609452  1
  I  I109  1  -0.00510409  0.16933203  0.49783311  1
  I  I110  1  -0.00395955  0.17012569  0.83551412  1
  I  I111  1  -0.00151933  0.50024827  0.16705933  1
  I  I112  1  -0.00418302  0.49800391  0.49739256  1
  I  I113  1  -0.00495480  0.49429496  0.83511312  1
  I  I114  1  0.00372155  0.82927068  0.17370444  1
  I  I115  1  0.00234236  0.83308708  0.49417448  1
  I  I116  1  0.00006750  0.83378760  0.83247554  1
  I  I117  1  0.33673373  0.16883518  0.16095607  1
  I  I118  1  0.33353331  0.16608929  0.49931919  1
  I  I119  1  0.33751209  0.15967299  0.84146994  1
  I  I120  1  0.33369171  0.50131512  0.16562057  1
  I  I121  1  0.33336462  0.49956504  0.49874772  1
  I  I122  1  0.33359108  0.50067174  0.83572559  1
  I  I123  1  0.33050009  0.82873682  0.16797450  1
  I  I124  1  0.33361098  0.83450377  0.49850113  1
  I  I125  1  0.33772523  0.84014222  0.83359426  1
  I  I126  1  0.66736385  0.17341270  0.16588253  1
  I  I127  1  0.67021386  0.16778783  0.49924291  1
  I  I128  1  0.66756143  0.16565984  0.83509232  1
  I  I129  1  0.66772862  0.49622423  0.16650119  1
  I  I130  1  0.67053947  0.49855825  0.49730719  1
  I  I131  1  0.67024265  0.49938946  0.83610701  1
  I  I132  1  0.66642494  0.83018041  0.16793426  1
  I  I133  1  0.66417312  0.83338003  0.50358005  1
  I  I134  1  0.66299744  0.83506178  0.82777617  1
