# generated using pymatgen
data_Cs27Sn14Pb13I81
_symmetry_space_group_name_H-M   'P 1'
_cell_length_a   18.97297363
_cell_length_b   18.98109154
_cell_length_c   18.97523333
_cell_angle_alpha   89.99913093
_cell_angle_beta   90.00007560
_cell_angle_gamma   89.99891757
_symmetry_Int_Tables_number   1
_chemical_formula_structural   Cs27Sn14Pb13I81
_chemical_formula_sum   'Cs27 Sn14 Pb13 I81'
_cell_volume   6833.50807036
_cell_formula_units_Z   1
loop_
 _symmetry_equiv_pos_site_id
 _symmetry_equiv_pos_as_xyz
  1  'x, y, z'
loop_
 _atom_site_type_symbol
 _atom_site_label
 _atom_site_symmetry_multiplicity
 _atom_site_fract_x
 _atom_site_fract_y
 _atom_site_fract_z
 _atom_site_occupancy
  Cs  Cs0  1  -0.00558645  -0.00020797  -0.00199385  1
  Cs  Cs1  1  0.00005160  0.00140181  0.33660155  1
  Cs  Cs2  1  0.00109046  -0.00309694  0.66181805  1
  Cs  Cs3  1  -0.00245425  0.33329981  0.00179938  1
  Cs  Cs4  1  0.00229661  0.33121951  0.33062010  1
  Cs  Cs5  1  0.00229402  0.33382061  0.66791096  1
  Cs  Cs6  1  -0.00203459  0.66699700  -0.00325864  1
  Cs  Cs7  1  0.00178208  0.66668352  0.33335253  1
  Cs  Cs8  1  -0.00000926  0.66801842  0.66862523  1
  Cs  Cs9  1  0.33612085  -0.00090830  -0.00165599  1
  Cs  Cs10  1  0.33327600  0.00175501  0.33355655  1
  Cs  Cs11  1  0.33449725  0.00089853  0.66800776  1
  Cs  Cs12  1  0.33326175  0.33499402  0.00108633  1
  Cs  Cs13  1  0.33293101  0.33218007  0.33120984  1
  Cs  Cs14  1  0.33282615  0.33377855  0.66860509  1
  Cs  Cs15  1  0.33216750  0.66467405  0.00140316  1
  Cs  Cs16  1  0.33359346  0.66567669  0.33206171  1
  Cs  Cs17  1  0.33241994  0.66511533  0.66809084  1
  Cs  Cs18  1  0.67103458  -0.00391288  -0.00683398  1
  Cs  Cs19  1  0.66628874  -0.00176089  0.33290062  1
  Cs  Cs20  1  0.66422485  0.00252602  0.66894989  1
  Cs  Cs21  1  0.67182612  0.32950074  -0.00265765  1
  Cs  Cs22  1  0.66550965  0.33534713  0.33403677  1
  Cs  Cs23  1  0.66734322  0.33508923  0.66847928  1
  Cs  Cs24  1  0.67271335  0.67507781  0.00207067  1
  Cs  Cs25  1  0.66805743  0.66735948  0.33548459  1
  Cs  Cs26  1  0.67138931  0.66132628  0.66135077  1
  Sn  Sn27  1  0.16698894  0.16712842  0.83482999  1
  Sn  Sn28  1  0.16701971  0.50075904  0.49978656  1
  Sn  Sn29  1  0.83188283  0.16641301  0.49958058  1
  Sn  Sn30  1  0.16759101  0.16619808  0.16525940  1
  Sn  Sn31  1  0.16738417  0.83235670  0.49912006  1
  Sn  Sn32  1  0.83324494  0.83444189  0.49960672  1
  Sn  Sn33  1  0.49945427  0.50038395  0.83513672  1
  Sn  Sn34  1  0.49966995  0.49927216  0.16526875  1
  Sn  Sn35  1  0.50082793  0.16616206  0.49933281  1
  Sn  Sn36  1  0.49955530  0.83404881  0.49997987  1
  Sn  Sn37  1  0.16720735  0.50009369  0.16641376  1
  Sn  Sn38  1  0.16750766  0.49891898  0.83387664  1
  Sn  Sn39  1  0.16696570  0.83366494  0.16722341  1
  Sn  Sn40  1  0.49958362  0.16703703  0.16687719  1
  Pb  Pb41  1  0.83262925  0.49986481  0.16672463  1
  Pb  Pb42  1  0.83265918  0.16663553  0.16878830  1
  Pb  Pb43  1  0.49791186  0.49955268  0.49955278  1
  Pb  Pb44  1  0.83321382  0.83339003  0.83014509  1
  Pb  Pb45  1  0.49819686  0.16842660  0.83384077  1
  Pb  Pb46  1  0.83660607  0.16675597  0.83024708  1
  Pb  Pb47  1  0.16730393  0.16654513  0.49978669  1
  Pb  Pb48  1  0.49815492  0.83344224  0.16828652  1
  Pb  Pb49  1  0.16689656  0.83324518  0.83362902  1
  Pb  Pb50  1  0.83323020  0.49988888  0.83357592  1
  Pb  Pb51  1  0.83633523  0.83349747  0.16920514  1
  Pb  Pb52  1  0.83658986  0.49950777  0.49970420  1
  Pb  Pb53  1  0.49976788  0.82981950  0.83045619  1
  I  I54  1  0.17042454  0.00070476  0.16932925  1
  I  I55  1  0.16579994  -0.00248989  0.49735177  1
  I  I56  1  0.16619344  0.00281054  0.83452387  1
  I  I57  1  0.16991093  0.33359835  0.16797182  1
  I  I58  1  0.16696355  0.33551755  0.49844791  1
  I  I59  1  0.17005643  0.33442060  0.83334235  1
  I  I60  1  0.17039614  0.66578465  0.16890815  1
  I  I61  1  0.16665355  0.66725625  0.49737178  1
  I  I62  1  0.17000795  0.66335628  0.83395984  1
  I  I63  1  0.49358664  0.00297068  0.17170906  1
  I  I64  1  0.49774320  0.00056425  0.49460802  1
  I  I65  1  0.49830287  0.00003708  0.83427710  1
  I  I66  1  0.49042549  0.33308527  0.17107901  1
  I  I67  1  0.50244324  0.33059588  0.49906840  1
  I  I68  1  0.49556528  0.33641891  0.83031807  1
  I  I69  1  0.49417137  0.66374475  0.16514329  1
  I  I70  1  0.50161941  0.66890801  0.50042871  1
  I  I71  1  0.49020365  0.66188461  0.83771220  1
  I  I72  1  0.83500300  0.00006618  0.16650539  1
  I  I73  1  0.83734966  -0.00051929  0.49926937  1
  I  I74  1  0.83537710  0.00028015  0.83517170  1
  I  I75  1  0.83937892  0.33312374  0.17109916  1
  I  I76  1  0.82967288  0.33030670  0.50015538  1
  I  I77  1  0.83301886  0.33318855  0.82848203  1
  I  I78  1  0.83292530  0.66677527  0.17013859  1
  I  I79  1  0.83066687  0.66964338  0.50012596  1
  I  I80  1  0.83624912  0.66655970  0.83008500  1
  I  I81  1  0.17237824  0.16981904  0.00150814  1
  I  I82  1  0.16693324  0.16943116  0.33089863  1
  I  I83  1  0.16604918  0.17066851  0.66819771  1
  I  I84  1  0.17089422  0.49963575  0.00067333  1
  I  I85  1  0.16984381  0.50037044  0.33258488  1
  I  I86  1  0.17011222  0.49925753  0.66688582  1
  I  I87  1  0.16828512  0.83075411  0.00327093  1
  I  I88  1  0.16627453  0.82994613  0.33442626  1
  I  I89  1  0.16514961  0.83061389  0.66316564  1
  I  I90  1  0.49508510  0.16990599  0.00324266  1
  I  I91  1  0.49645820  0.16907470  0.33335632  1
  I  I92  1  0.50134998  0.16408594  0.66390187  1
  I  I93  1  0.48835126  0.49349777  0.00115913  1
  I  I94  1  0.49439495  0.49884830  0.33073748  1
  I  I95  1  0.49419828  0.50070898  0.66830132  1
  I  I96  1  0.49735644  0.83576208  0.00014302  1
  I  I97  1  0.50069055  0.83216715  0.33688552  1
  I  I98  1  0.49596323  0.83904927  0.66169361  1
  I  I99  1  0.83196841  0.16755646  -0.00007727  1
  I  I100  1  0.83632952  0.16223831  0.33690968  1
  I  I101  1  0.82886509  0.16212519  0.66221114  1
  I  I102  1  0.83891469  0.49968849  0.00005640  1
  I  I103  1  0.83389340  0.50043730  0.33361465  1
  I  I104  1  0.83359094  0.50084529  0.66634587  1
  I  I105  1  0.83494448  0.83220469  0.00022173  1
  I  I106  1  0.83204224  0.83705629  0.33751418  1
  I  I107  1  0.83859716  0.83665267  0.66155798  1
  I  I108  1  0.00362735  0.16827860  0.16544200  1
  I  I109  1  -0.00116026  0.16370572  0.50089963  1
  I  I110  1  0.00480408  0.17370300  0.83798936  1
  I  I111  1  0.00425184  0.49924836  0.16720963  1
  I  I112  1  0.00509807  0.50297414  0.50006782  1
  I  I113  1  0.00402735  0.49708372  0.83275747  1
  I  I114  1  0.00513307  0.83243976  0.17259140  1
  I  I115  1  0.00096566  0.83424239  0.49641031  1
  I  I116  1  0.00052310  0.83117339  0.83099531  1
  I  I117  1  0.33232488  0.16826173  0.17093286  1
  I  I118  1  0.33574333  0.16387719  0.49886810  1
  I  I119  1  0.33003031  0.16890266  0.83040780  1
  I  I120  1  0.33181410  0.49927163  0.16704432  1
  I  I121  1  0.32967942  0.50369425  0.49995323  1
  I  I122  1  0.33158695  0.49635397  0.83292284  1
  I  I123  1  0.32971581  0.83271730  0.17443294  1
  I  I124  1  0.33249447  0.83344181  0.49628529  1
  I  I125  1  0.33305329  0.83559904  0.82764408  1
  I  I126  1  0.66283046  0.17331243  0.17086951  1
  I  I127  1  0.66527409  0.15913064  0.49478483  1
  I  I128  1  0.66658121  0.16882157  0.83463087  1
  I  I129  1  0.66247517  0.49406840  0.16336405  1
  I  I130  1  0.66646665  0.50297219  0.50062094  1
  I  I131  1  0.66318878  0.49968221  0.83555357  1
  I  I132  1  0.66647727  0.83193675  0.16879883  1
  I  I133  1  0.66630789  0.83791082  0.50116615  1
  I  I134  1  0.66637182  0.83189886  0.83353069  1
