# generated using pymatgen
data_Cs27Sn14Pb13I81
_symmetry_space_group_name_H-M   'P 1'
_cell_length_a   18.97906144
_cell_length_b   18.98370275
_cell_length_c   18.96720046
_cell_angle_alpha   90.00048503
_cell_angle_beta   90.00095702
_cell_angle_gamma   89.99885532
_symmetry_Int_Tables_number   1
_chemical_formula_structural   Cs27Sn14Pb13I81
_chemical_formula_sum   'Cs27 Sn14 Pb13 I81'
_cell_volume   6833.74691214
_cell_formula_units_Z   1
loop_
 _symmetry_equiv_pos_site_id
 _symmetry_equiv_pos_as_xyz
  1  'x, y, z'
loop_
 _atom_site_type_symbol
 _atom_site_label
 _atom_site_symmetry_multiplicity
 _atom_site_fract_x
 _atom_site_fract_y
 _atom_site_fract_z
 _atom_site_occupancy
  Cs  Cs0  1  0.00119962  0.00093557  0.00170872  1
  Cs  Cs1  1  0.00062380  0.00066749  0.33207557  1
  Cs  Cs2  1  -0.00409246  -0.00310987  0.66273537  1
  Cs  Cs3  1  0.00321537  0.33039503  -0.00147840  1
  Cs  Cs4  1  -0.00070041  0.33260611  0.33391689  1
  Cs  Cs5  1  0.00299543  0.34369894  0.66567264  1
  Cs  Cs6  1  -0.00193022  0.66841510  -0.00035097  1
  Cs  Cs7  1  0.00358090  0.66566998  0.33553109  1
  Cs  Cs8  1  -0.00579129  0.65802453  0.66069697  1
  Cs  Cs9  1  0.33195916  -0.00011002  -0.00059334  1
  Cs  Cs10  1  0.33267117  -0.00051854  0.33653691  1
  Cs  Cs11  1  0.33583467  -0.00042253  0.66569333  1
  Cs  Cs12  1  0.33334665  0.33125810  -0.00190037  1
  Cs  Cs13  1  0.33427647  0.33328563  0.33226858  1
  Cs  Cs14  1  0.33165330  0.33471591  0.66873035  1
  Cs  Cs15  1  0.33612056  0.66961714  0.00170900  1
  Cs  Cs16  1  0.33203394  0.66699852  0.33369878  1
  Cs  Cs17  1  0.33138996  0.66656088  0.66374191  1
  Cs  Cs18  1  0.66667494  0.00004528  -0.00038552  1
  Cs  Cs19  1  0.66635071  0.00269747  0.33765117  1
  Cs  Cs20  1  0.66676864  0.00146844  0.66164406  1
  Cs  Cs21  1  0.66429861  0.33164573  0.00154847  1
  Cs  Cs22  1  0.66659291  0.33176988  0.33339757  1
  Cs  Cs23  1  0.66658950  0.33085532  0.66412330  1
  Cs  Cs24  1  0.66584037  0.66735675  0.00069938  1
  Cs  Cs25  1  0.66468619  0.66578063  0.32878065  1
  Cs  Cs26  1  0.67373453  0.66731143  0.66851371  1
  Sn  Sn27  1  0.50047668  0.16538824  0.16601275  1
  Sn  Sn28  1  0.83237307  0.16664953  0.16567141  1
  Sn  Sn29  1  0.83317329  0.83359472  0.16629717  1
  Sn  Sn30  1  0.16673993  0.16659243  0.50044242  1
  Sn  Sn31  1  0.16593779  0.50062080  0.16583893  1
  Sn  Sn32  1  0.49935264  0.83335648  0.83401726  1
  Sn  Sn33  1  0.50077443  0.16630499  0.83418016  1
  Sn  Sn34  1  0.49992930  0.83491372  0.16600054  1
  Sn  Sn35  1  0.50006091  0.50036730  0.83218792  1
  Sn  Sn36  1  0.83298052  0.16667231  0.83405389  1
  Sn  Sn37  1  0.83469009  0.49965501  0.16606978  1
  Sn  Sn38  1  0.16669483  0.83313500  0.83352289  1
  Sn  Sn39  1  0.16687580  0.83243667  0.16576990  1
  Sn  Sn40  1  0.50017396  0.50023577  0.50130700  1
  Pb  Pb41  1  0.83060594  0.49985884  0.49712829  1
  Pb  Pb42  1  0.83320129  0.83527526  0.83506705  1
  Pb  Pb43  1  0.83320794  0.83325323  0.49680275  1
  Pb  Pb44  1  0.16878123  0.50294240  0.83575132  1
  Pb  Pb45  1  0.16869719  0.49822453  0.49751475  1
  Pb  Pb46  1  0.50008177  0.83094169  0.50035910  1
  Pb  Pb47  1  0.49994768  0.49990262  0.16584961  1
  Pb  Pb48  1  0.83569305  0.16689207  0.50022927  1
  Pb  Pb49  1  0.16674537  0.83474039  0.50041945  1
  Pb  Pb50  1  0.83091612  0.49742426  0.83598847  1
  Pb  Pb51  1  0.16641381  0.16427763  0.83105270  1
  Pb  Pb52  1  0.49853550  0.16831071  0.50023245  1
  Pb  Pb53  1  0.16687089  0.16617470  0.16755684  1
  I  I54  1  0.16511529  -0.00295972  0.16471150  1
  I  I55  1  0.16854428  0.00230385  0.49588617  1
  I  I56  1  0.17322081  -0.00324077  0.84210497  1
  I  I57  1  0.16489651  0.33513138  0.17024673  1
  I  I58  1  0.16755392  0.33074429  0.49807432  1
  I  I59  1  0.16793376  0.33335214  0.83371355  1
  I  I60  1  0.16524813  0.66781517  0.16420520  1
  I  I61  1  0.16811974  0.66645030  0.49980817  1
  I  I62  1  0.17303153  0.67085168  0.83641578  1
  I  I63  1  0.50182669  -0.00018204  0.16025166  1
  I  I64  1  0.49876507  0.00004394  0.50055540  1
  I  I65  1  0.49919673  0.00002927  0.83948937  1
  I  I66  1  0.50236362  0.33093996  0.16460142  1
  I  I67  1  0.49830205  0.33598349  0.50134765  1
  I  I68  1  0.50437780  0.33244852  0.83489303  1
  I  I69  1  0.50215220  0.66915401  0.16432360  1
  I  I70  1  0.49832035  0.66324449  0.50060991  1
  I  I71  1  0.49468262  0.66759204  0.83555920  1
  I  I72  1  0.83336724  0.00028688  0.16269076  1
  I  I73  1  0.83307154  0.00037024  0.49772578  1
  I  I74  1  0.82834070  0.00314286  0.84016670  1
  I  I75  1  0.83201345  0.33255318  0.16383758  1
  I  I76  1  0.83359350  0.33331593  0.49597365  1
  I  I77  1  0.82837228  0.32950136  0.84002700  1
  I  I78  1  0.83208052  0.66720416  0.16802551  1
  I  I79  1  0.83386131  0.66634556  0.50009674  1
  I  I80  1  0.83188471  0.66665412  0.83496074  1
  I  I81  1  0.16703526  0.16875853  -0.00011379  1
  I  I82  1  0.16790458  0.16578504  0.33491595  1
  I  I83  1  0.16886030  0.16460357  0.66399056  1
  I  I84  1  0.16549109  0.49913833  0.00385515  1
  I  I85  1  0.16629069  0.50622039  0.32942291  1
  I  I86  1  0.16640819  0.50030304  0.66691303  1
  I  I87  1  0.16887419  0.83101024  0.00168199  1
  I  I88  1  0.16708977  0.83071225  0.32958451  1
  I  I89  1  0.17495202  0.83798433  0.67001118  1
  I  I90  1  0.50294103  0.16863919  0.00023496  1
  I  I91  1  0.50283770  0.16475447  0.33013938  1
  I  I92  1  0.50308474  0.16389367  0.67016497  1
  I  I93  1  0.50019681  0.49974433  -0.00243389  1
  I  I94  1  0.49996224  0.49911806  0.33425863  1
  I  I95  1  0.49830088  0.49841763  0.66817822  1
  I  I96  1  0.49910649  0.83177962  0.00086396  1
  I  I97  1  0.49977995  0.83577455  0.32951103  1
  I  I98  1  0.49402335  0.83687219  0.67053742  1
  I  I99  1  0.82901115  0.16661716  0.00170776  1
  I  I100  1  0.82953556  0.16624729  0.32951475  1
  I  I101  1  0.82763175  0.16463105  0.66989823  1
  I  I102  1  0.83385168  0.50274472  0.00421227  1
  I  I103  1  0.83393862  0.49763363  0.32854811  1
  I  I104  1  0.83458771  0.49817505  0.66705138  1
  I  I105  1  0.83286491  0.83134393  0.00390214  1
  I  I106  1  0.83299959  0.83679782  0.32736854  1
  I  I107  1  0.83326651  0.83626793  0.66721625  1
  I  I108  1  -0.00273964  0.16484883  0.16443622  1
  I  I109  1  0.00298883  0.16558344  0.49708119  1
  I  I110  1  -0.00265367  0.16385399  0.83910451  1
  I  I111  1  -0.00033406  0.50246172  0.16750453  1
  I  I112  1  0.00001677  0.49894948  0.50031595  1
  I  I113  1  -0.00009884  0.49920610  0.83255014  1
  I  I114  1  0.00028500  0.83352145  0.16300853  1
  I  I115  1  0.00016382  0.83479219  0.50057044  1
  I  I116  1  0.00236900  0.83778204  0.83969063  1
  I  I117  1  0.33627018  0.16538389  0.16388541  1
  I  I118  1  0.33120743  0.16732186  0.49746428  1
  I  I119  1  0.33673341  0.16843620  0.83739147  1
  I  I120  1  0.33156861  0.50300714  0.16730351  1
  I  I121  1  0.33632904  0.49895827  0.50053345  1
  I  I122  1  0.33704935  0.49385327  0.83345765  1
  I  I123  1  0.33380353  0.83248549  0.16307203  1
  I  I124  1  0.33349190  0.83360725  0.49380924  1
  I  I125  1  0.33483050  0.83537613  0.84250202  1
  I  I126  1  0.66620766  0.16512204  0.16398479  1
  I  I127  1  0.66665085  0.16816584  0.49875184  1
  I  I128  1  0.66509864  0.16526515  0.83812533  1
  I  I129  1  0.66863087  0.50203161  0.16695675  1
  I  I130  1  0.66294348  0.49791350  0.50145634  1
  I  I131  1  0.66264082  0.50559272  0.83297518  1
  I  I132  1  0.66599847  0.83226748  0.16292898  1
  I  I133  1  0.66636213  0.83440085  0.49972070  1
  I  I134  1  0.66326883  0.83100748  0.83829134  1
