# generated using pymatgen
data_Cs27Sn13Pb14I81
_symmetry_space_group_name_H-M   'P 1'
_cell_length_a   18.97606193
_cell_length_b   18.97920061
_cell_length_c   18.97571582
_cell_angle_alpha   89.99894211
_cell_angle_beta   90.00200412
_cell_angle_gamma   90.00029533
_symmetry_Int_Tables_number   1
_chemical_formula_structural   Cs27Sn13Pb14I81
_chemical_formula_sum   'Cs27 Sn13 Pb14 I81'
_cell_volume   6834.11327622
_cell_formula_units_Z   1
loop_
 _symmetry_equiv_pos_site_id
 _symmetry_equiv_pos_as_xyz
  1  'x, y, z'
loop_
 _atom_site_type_symbol
 _atom_site_label
 _atom_site_symmetry_multiplicity
 _atom_site_fract_x
 _atom_site_fract_y
 _atom_site_fract_z
 _atom_site_occupancy
  Cs  Cs0  1  -0.00284766  0.00205534  0.00001335  1
  Cs  Cs1  1  0.00091428  -0.00012998  0.33497618  1
  Cs  Cs2  1  -0.00021138  -0.00596056  0.66595730  1
  Cs  Cs3  1  0.00516543  0.33274571  0.00091581  1
  Cs  Cs4  1  -0.00115240  0.33003222  0.33351333  1
  Cs  Cs5  1  0.00259543  0.33421535  0.66608497  1
  Cs  Cs6  1  -0.00225214  0.66492719  -0.00163583  1
  Cs  Cs7  1  0.00155427  0.66982790  0.33676217  1
  Cs  Cs8  1  -0.00124362  0.66952170  0.66605145  1
  Cs  Cs9  1  0.33358293  0.00497980  0.00635954  1
  Cs  Cs10  1  0.33385711  -0.00258154  0.32531875  1
  Cs  Cs11  1  0.33441921  0.00203961  0.66717577  1
  Cs  Cs12  1  0.32301897  0.32951023  -0.00186960  1
  Cs  Cs13  1  0.33217731  0.33391564  0.33670411  1
  Cs  Cs14  1  0.33208415  0.33091474  0.66590007  1
  Cs  Cs15  1  0.33367014  0.66568785  0.00258033  1
  Cs  Cs16  1  0.33336992  0.66791138  0.33253387  1
  Cs  Cs17  1  0.33564874  0.66543241  0.66621933  1
  Cs  Cs18  1  0.66718980  -0.00088092  0.00075289  1
  Cs  Cs19  1  0.66658672  0.01091600  0.33045602  1
  Cs  Cs20  1  0.66544471  0.00106838  0.66719233  1
  Cs  Cs21  1  0.66748324  0.33560162  -0.00038490  1
  Cs  Cs22  1  0.66878161  0.33006798  0.33447699  1
  Cs  Cs23  1  0.66512124  0.33418692  0.66492393  1
  Cs  Cs24  1  0.66673735  0.66685743  -0.00135010  1
  Cs  Cs25  1  0.66529772  0.66426938  0.33197844  1
  Cs  Cs26  1  0.66610824  0.66544903  0.66833033  1
  Sn  Sn27  1  0.50016600  0.50040525  0.83388735  1
  Sn  Sn28  1  0.50039531  0.49996204  0.16612862  1
  Sn  Sn29  1  0.16722426  0.49973111  0.50032713  1
  Sn  Sn30  1  0.83279180  0.49972788  0.83391220  1
  Sn  Sn31  1  0.49950384  0.83273662  0.83289784  1
  Sn  Sn32  1  0.16691253  0.16665742  0.50016847  1
  Sn  Sn33  1  0.16752536  0.83303005  0.83378596  1
  Sn  Sn34  1  0.49926382  0.50085758  0.50007614  1
  Sn  Sn35  1  0.50065418  0.83282818  0.50027665  1
  Sn  Sn36  1  0.83293920  0.83227076  0.16633150  1
  Sn  Sn37  1  0.83265583  0.50116264  0.16594416  1
  Sn  Sn38  1  0.83303563  0.16715402  0.83285969  1
  Sn  Sn39  1  0.83298394  0.83316777  0.83394298  1
  Pb  Pb40  1  0.50006448  0.17072413  0.16632829  1
  Pb  Pb41  1  0.16640699  0.16662375  0.16948046  1
  Pb  Pb42  1  0.49808790  0.16659103  0.50011881  1
  Pb  Pb43  1  0.50226419  0.83163149  0.16627086  1
  Pb  Pb44  1  0.50172846  0.16689802  0.83343166  1
  Pb  Pb45  1  0.83291939  0.50014718  0.49988781  1
  Pb  Pb46  1  0.83333498  0.16730583  0.16429674  1
  Pb  Pb47  1  0.16425316  0.16382751  0.83157069  1
  Pb  Pb48  1  0.83006206  0.83334873  0.49968083  1
  Pb  Pb49  1  0.16937632  0.83313605  0.50169931  1
  Pb  Pb50  1  0.83564779  0.16653886  0.50272373  1
  Pb  Pb51  1  0.16675508  0.50176313  0.83141006  1
  Pb  Pb52  1  0.16366399  0.83290995  0.16372195  1
  Pb  Pb53  1  0.16606860  0.50022343  0.16933238  1
  I  I54  1  0.16525364  -0.00039288  0.16918438  1
  I  I55  1  0.16596817  0.00194970  0.50345257  1
  I  I56  1  0.16649732  -0.00404223  0.82950451  1
  I  I57  1  0.16509335  0.33374035  0.16343207  1
  I  I58  1  0.17228788  0.33474964  0.50151179  1
  I  I59  1  0.16601704  0.33342178  0.83334463  1
  I  I60  1  0.16779369  0.66654916  0.17034710  1
  I  I61  1  0.16886238  0.66411602  0.50095711  1
  I  I62  1  0.16159700  0.66951455  0.82988566  1
  I  I63  1  0.50128911  -0.00029324  0.16797446  1
  I  I64  1  0.50000596  -0.00316523  0.50698366  1
  I  I65  1  0.50150755  -0.00369651  0.82710471  1
  I  I66  1  0.50825981  0.33925925  0.16797849  1
  I  I67  1  0.49856310  0.33705756  0.50105630  1
  I  I68  1  0.50533545  0.33733451  0.83177719  1
  I  I69  1  0.50231256  0.66328428  0.16721302  1
  I  I70  1  0.49456460  0.66522304  0.50177705  1
  I  I71  1  0.50481340  0.66633291  0.83149133  1
  I  I72  1  0.83379030  -0.00284445  0.16191464  1
  I  I73  1  0.83395497  -0.00027259  0.50046551  1
  I  I74  1  0.83403364  -0.00173715  0.83604024  1
  I  I75  1  0.82903530  0.33715480  0.16330821  1
  I  I76  1  0.82967916  0.33365833  0.50053726  1
  I  I77  1  0.82850961  0.33507841  0.83608089  1
  I  I78  1  0.82990135  0.66579373  0.15767927  1
  I  I79  1  0.83913388  0.66660976  0.50386897  1
  I  I80  1  0.83247950  0.66667668  0.83706501  1
  I  I81  1  0.16592598  0.16613434  -0.00039550  1
  I  I82  1  0.16618240  0.17127312  0.33760071  1
  I  I83  1  0.16625879  0.17193866  0.66398547  1
  I  I84  1  0.16909982  0.50103796  -0.00024029  1
  I  I85  1  0.17048048  0.49714257  0.33737006  1
  I  I86  1  0.17036287  0.49751325  0.66360621  1
  I  I87  1  0.17144920  0.83223543  -0.00450361  1
  I  I88  1  0.16609125  0.83421093  0.33347798  1
  I  I89  1  0.16046588  0.83253159  0.66966891  1
  I  I90  1  0.49982645  0.16438400  -0.00026997  1
  I  I91  1  0.50013079  0.16491177  0.33341958  1
  I  I92  1  0.50123732  0.17035279  0.66676513  1
  I  I93  1  0.50668869  0.50508324  -0.00113278  1
  I  I94  1  0.49999070  0.50419917  0.33386886  1
  I  I95  1  0.50095524  0.50411179  0.66723934  1
  I  I96  1  0.49964266  0.82911893  -0.00352349  1
  I  I97  1  0.49995601  0.82812203  0.33563114  1
  I  I98  1  0.50195652  0.82561663  0.66817637  1
  I  I99  1  0.83396287  0.16551772  -0.00373688  1
  I  I100  1  0.83446009  0.16642161  0.33318659  1
  I  I101  1  0.83257469  0.16629163  0.67085290  1
  I  I102  1  0.82589751  0.50135677  -0.00135396  1
  I  I103  1  0.83046184  0.50476937  0.33020361  1
  I  I104  1  0.83071010  0.50156388  0.67014526  1
  I  I105  1  0.83181574  0.83268306  -0.00209839  1
  I  I106  1  0.83269250  0.82690151  0.33027379  1
  I  I107  1  0.83544458  0.83197826  0.67035663  1
  I  I108  1  -0.00044322  0.16889551  0.16656086  1
  I  I109  1  0.00347156  0.17371619  0.50067102  1
  I  I110  1  -0.00377813  0.16786907  0.83258986  1
  I  I111  1  -0.00371579  0.50283834  0.16175418  1
  I  I112  1  0.00238073  0.49586649  0.50093548  1
  I  I113  1  -0.00318314  0.50125889  0.83607191  1
  I  I114  1  -0.00459888  0.82678408  0.16189809  1
  I  I115  1  0.00002719  0.83305087  0.50149803  1
  I  I116  1  -0.00148863  0.83333862  0.83639373  1
  I  I117  1  0.33330355  0.16655641  0.16516066  1
  I  I118  1  0.33046144  0.16990600  0.50315318  1
  I  I119  1  0.33301644  0.16683512  0.83211978  1
  I  I120  1  0.33657260  0.50037973  0.16430852  1
  I  I121  1  0.33489242  0.49977087  0.50062597  1
  I  I122  1  0.33661087  0.50525684  0.83496217  1
  I  I123  1  0.33375122  0.83256264  0.16623861  1
  I  I124  1  0.33717010  0.83081622  0.50623689  1
  I  I125  1  0.33475400  0.82732176  0.82664824  1
  I  I126  1  0.66696903  0.16416733  0.16863110  1
  I  I127  1  0.66655350  0.16704632  0.49967041  1
  I  I128  1  0.66997074  0.16274268  0.83309213  1
  I  I129  1  0.66690300  0.50433914  0.16724751  1
  I  I130  1  0.66327543  0.50460512  0.50102554  1
  I  I131  1  0.66668802  0.50385992  0.83154595  1
  I  I132  1  0.67010724  0.83047626  0.16029819  1
  I  I133  1  0.66235361  0.82504572  0.50694559  1
  I  I134  1  0.66692806  0.83229044  0.83277757  1
