# generated using pymatgen
data_Cs27Sn14Pb13I81
_symmetry_space_group_name_H-M   'P 1'
_cell_length_a   18.96746729
_cell_length_b   18.95975403
_cell_length_c   18.95524307
_cell_angle_alpha   89.99810530
_cell_angle_beta   89.99913568
_cell_angle_gamma   89.99814938
_symmetry_Int_Tables_number   1
_chemical_formula_structural   Cs27Sn14Pb13I81
_chemical_formula_sum   'Cs27 Sn14 Pb13 I81'
_cell_volume   6816.65634281
_cell_formula_units_Z   1
loop_
 _symmetry_equiv_pos_site_id
 _symmetry_equiv_pos_as_xyz
  1  'x, y, z'
loop_
 _atom_site_type_symbol
 _atom_site_label
 _atom_site_symmetry_multiplicity
 _atom_site_fract_x
 _atom_site_fract_y
 _atom_site_fract_z
 _atom_site_occupancy
  Cs  Cs0  1  0.00272380  -0.00203620  -0.00230890  1
  Cs  Cs1  1  0.00061223  0.00262837  0.33585004  1
  Cs  Cs2  1  -0.00206556  0.00163307  0.66718504  1
  Cs  Cs3  1  -0.00069953  0.33486318  -0.00094722  1
  Cs  Cs4  1  -0.00213946  0.33301174  0.33325037  1
  Cs  Cs5  1  0.00068905  0.33249429  0.66638022  1
  Cs  Cs6  1  0.00071077  0.66665021  0.00099218  1
  Cs  Cs7  1  0.00254435  0.66422725  0.32968862  1
  Cs  Cs8  1  -0.00046352  0.66594920  0.66878741  1
  Cs  Cs9  1  0.33245613  0.00140829  -0.00006413  1
  Cs  Cs10  1  0.33202500  -0.00071568  0.33219378  1
  Cs  Cs11  1  0.33326394  -0.00231626  0.66722998  1
  Cs  Cs12  1  0.33444422  0.33109558  -0.00199021  1
  Cs  Cs13  1  0.33277688  0.33471142  0.33623257  1
  Cs  Cs14  1  0.33258201  0.33448250  0.66554102  1
  Cs  Cs15  1  0.33212114  0.66733041  0.00089758  1
  Cs  Cs16  1  0.33331591  0.66649484  0.33274042  1
  Cs  Cs17  1  0.33426236  0.66609064  0.66660181  1
  Cs  Cs18  1  0.66464785  0.00502960  0.00147395  1
  Cs  Cs19  1  0.66904418  0.00056208  0.33351937  1
  Cs  Cs20  1  0.66770604  -0.01088804  0.66483499  1
  Cs  Cs21  1  0.66597256  0.32846232  -0.00124859  1
  Cs  Cs22  1  0.66696699  0.33188865  0.33180781  1
  Cs  Cs23  1  0.66564424  0.33669269  0.66913809  1
  Cs  Cs24  1  0.66611033  0.66695194  0.00010599  1
  Cs  Cs25  1  0.66459465  0.66756710  0.33461587  1
  Cs  Cs26  1  0.66587596  0.66923518  0.66604990  1
  Sn  Sn27  1  0.50019487  0.16698839  0.50041654  1
  Sn  Sn28  1  0.16640790  0.83247443  0.49939363  1
  Sn  Sn29  1  0.16589997  0.16769871  0.83400342  1
  Sn  Sn30  1  0.49987156  0.50021623  0.16713973  1
  Sn  Sn31  1  0.83354357  0.83332928  0.16672696  1
  Sn  Sn32  1  0.16628113  0.50077882  0.50071885  1
  Sn  Sn33  1  0.83393876  0.16721171  0.83296785  1
  Sn  Sn34  1  0.50013903  0.49907245  0.49908634  1
  Sn  Sn35  1  0.83417992  0.49925845  0.83269019  1
  Sn  Sn36  1  0.16601570  0.49921786  0.83254047  1
  Sn  Sn37  1  0.16656357  0.83420265  0.16756463  1
  Sn  Sn38  1  0.16657007  0.16638658  0.16623339  1
  Sn  Sn39  1  0.50005870  0.83268007  0.16691022  1
  Sn  Sn40  1  0.83350366  0.50001787  0.50037706  1
  Pb  Pb41  1  0.83618031  0.83071115  0.49778116  1
  Pb  Pb42  1  0.49800341  0.83286121  0.49807043  1
  Pb  Pb43  1  0.49791951  0.16678481  0.16860647  1
  Pb  Pb44  1  0.49990924  0.16661083  0.83030715  1
  Pb  Pb45  1  0.49999806  0.50013051  0.83314594  1
  Pb  Pb46  1  0.49995029  0.83340437  0.83657244  1
  Pb  Pb47  1  0.16830911  0.49980813  0.16636640  1
  Pb  Pb48  1  0.83079593  0.50133483  0.16615196  1
  Pb  Pb49  1  0.83595840  0.16454897  0.16462246  1
  Pb  Pb50  1  0.83067492  0.16881465  0.50251459  1
  Pb  Pb51  1  0.16774561  0.16690100  0.50047978  1
  Pb  Pb52  1  0.83337220  0.83296924  0.83551110  1
  Pb  Pb53  1  0.16670943  0.83311243  0.83319566  1
  I  I54  1  0.16900541  -0.00111794  0.16659132  1
  I  I55  1  0.17025000  -0.00211324  0.49801058  1
  I  I56  1  0.16331294  0.00291243  0.83448953  1
  I  I57  1  0.16936754  0.33119510  0.16579147  1
  I  I58  1  0.16650257  0.33648015  0.50049840  1
  I  I59  1  0.16337262  0.33385089  0.83358106  1
  I  I60  1  0.16630987  0.66914873  0.16758714  1
  I  I61  1  0.16897110  0.66522974  0.49918635  1
  I  I62  1  0.16292171  0.66339291  0.83272126  1
  I  I63  1  0.50041330  -0.00268852  0.16800309  1
  I  I64  1  0.49655734  0.00184419  0.49944916  1
  I  I65  1  0.49959204  0.00035915  0.83193667  1
  I  I66  1  0.49791698  0.33587911  0.16925313  1
  I  I67  1  0.49680256  0.33580653  0.49445873  1
  I  I68  1  0.49952062  0.33349171  0.83855378  1
  I  I69  1  0.49742621  0.66671414  0.17200182  1
  I  I70  1  0.50075535  0.66339160  0.49777448  1
  I  I71  1  0.49964027  0.66626915  0.82987513  1
  I  I72  1  0.82835558  -0.00356421  0.16525210  1
  I  I73  1  0.83241615  -0.00018547  0.50091899  1
  I  I74  1  0.83820886  0.00281850  0.83582548  1
  I  I75  1  0.83337556  0.33335211  0.16806416  1
  I  I76  1  0.83894187  0.33738125  0.49972386  1
  I  I77  1  0.83807216  0.33444331  0.83053207  1
  I  I78  1  0.83859760  0.66934648  0.16520419  1
  I  I79  1  0.82806061  0.66243168  0.50630008  1
  I  I80  1  0.83755655  0.66308328  0.83090173  1
  I  I81  1  0.16491385  0.16616070  -0.00044079  1
  I  I82  1  0.16998537  0.16478004  0.33134068  1
  I  I83  1  0.16471238  0.16787970  0.66944173  1
  I  I84  1  0.16359705  0.49963647  -0.00257718  1
  I  I85  1  0.16555524  0.50100900  0.33598216  1
  I  I86  1  0.16850330  0.49999379  0.66600227  1
  I  I87  1  0.16741469  0.83386570  0.00323449  1
  I  I88  1  0.16735188  0.83279321  0.33224447  1
  I  I89  1  0.16772169  0.83198668  0.66384135  1
  I  I90  1  0.50066286  0.16625586  0.00004575  1
  I  I91  1  0.49694082  0.16947266  0.33628638  1
  I  I92  1  0.49651658  0.17520917  0.66271530  1
  I  I93  1  0.49897922  0.50545143  0.00272428  1
  I  I94  1  0.49888441  0.50063027  0.33444461  1
  I  I95  1  0.49899311  0.49564970  0.66335549  1
  I  I96  1  0.49624284  0.82717741  0.00525227  1
  I  I97  1  0.50016021  0.83101959  0.32992335  1
  I  I98  1  0.49812282  0.83334144  0.66608005  1
  I  I99  1  0.83371104  0.17374484  -0.00340768  1
  I  I100  1  0.83400261  0.16726229  0.33343750  1
  I  I101  1  0.84155549  0.16791689  0.67044986  1
  I  I102  1  0.83753626  0.49865884  -0.00299864  1
  I  I103  1  0.83581443  0.50278726  0.33601834  1
  I  I104  1  0.83267703  0.49676797  0.66661498  1
  I  I105  1  0.83621329  0.83047142  0.00361904  1
  I  I106  1  0.83144068  0.83152379  0.32979860  1
  I  I107  1  0.83483959  0.83504980  0.66643390  1
  I  I108  1  0.00411042  0.16244991  0.16678833  1
  I  I109  1  -0.00006881  0.16677278  0.49803520  1
  I  I110  1  0.00116495  0.17108037  0.83706726  1
  I  I111  1  0.00011120  0.50151412  0.16906845  1
  I  I112  1  0.00081610  0.50479273  0.50428999  1
  I  I113  1  0.00065458  0.49653918  0.82647958  1
  I  I114  1  0.00139043  0.83675886  0.16954264  1
  I  I115  1  0.00415173  0.82946023  0.49406846  1
  I  I116  1  0.00020777  0.83277041  0.83678955  1
  I  I117  1  0.32996038  0.16158885  0.16110480  1
  I  I118  1  0.33540748  0.17269752  0.50060875  1
  I  I119  1  0.32992923  0.17062225  0.83636672  1
  I  I120  1  0.33612377  0.50485056  0.17068073  1
  I  I121  1  0.33288144  0.50002919  0.49982685  1
  I  I122  1  0.33012754  0.49633076  0.83066199  1
  I  I123  1  0.33258241  0.83299395  0.17060669  1
  I  I124  1  0.33003288  0.82851969  0.49460252  1
  I  I125  1  0.33281897  0.83326477  0.83499866  1
  I  I126  1  0.66665706  0.16528688  0.16545072  1
  I  I127  1  0.66305853  0.17208930  0.49923515  1
  I  I128  1  0.66958219  0.17236731  0.83317765  1
  I  I129  1  0.66294232  0.50559471  0.17057505  1
  I  I130  1  0.66631586  0.49525701  0.49991575  1
  I  I131  1  0.66975875  0.49633674  0.83133666  1
  I  I132  1  0.66592476  0.82711168  0.16519744  1
  I  I133  1  0.66671567  0.83317198  0.49854457  1
  I  I134  1  0.66695294  0.83306959  0.83397876  1
