# generated using pymatgen
data_Cs27Sn14Pb13I81
_symmetry_space_group_name_H-M   'P 1'
_cell_length_a   18.96136886
_cell_length_b   18.95706167
_cell_length_c   18.96460288
_cell_angle_alpha   90.00008790
_cell_angle_beta   90.00140849
_cell_angle_gamma   89.99962340
_symmetry_Int_Tables_number   1
_chemical_formula_structural   Cs27Sn14Pb13I81
_chemical_formula_sum   'Cs27 Sn14 Pb13 I81'
_cell_volume   6816.86137755
_cell_formula_units_Z   1
loop_
 _symmetry_equiv_pos_site_id
 _symmetry_equiv_pos_as_xyz
  1  'x, y, z'
loop_
 _atom_site_type_symbol
 _atom_site_label
 _atom_site_symmetry_multiplicity
 _atom_site_fract_x
 _atom_site_fract_y
 _atom_site_fract_z
 _atom_site_occupancy
  Cs  Cs0  1  0.00112638  0.00203127  -0.00162239  1
  Cs  Cs1  1  -0.00240205  0.00139495  0.33418761  1
  Cs  Cs2  1  0.00108208  0.00053411  0.66583886  1
  Cs  Cs3  1  -0.00038802  0.33086015  0.00222203  1
  Cs  Cs4  1  0.00045931  0.33250250  0.33290756  1
  Cs  Cs5  1  -0.00052290  0.33410672  0.66609798  1
  Cs  Cs6  1  0.00169655  0.67015322  -0.00082394  1
  Cs  Cs7  1  0.00346501  0.66613748  0.33447457  1
  Cs  Cs8  1  -0.00403593  0.66479320  0.66617984  1
  Cs  Cs9  1  0.33734167  -0.00684190  -0.00657079  1
  Cs  Cs10  1  0.33525438  -0.00103333  0.33402417  1
  Cs  Cs11  1  0.33150442  0.00272276  0.66999766  1
  Cs  Cs12  1  0.33370146  0.33399951  -0.00486521  1
  Cs  Cs13  1  0.33256268  0.33397011  0.33364462  1
  Cs  Cs14  1  0.33453418  0.33267338  0.67016982  1
  Cs  Cs15  1  0.33151741  0.67015139  0.00207728  1
  Cs  Cs16  1  0.33026678  0.66659346  0.33250349  1
  Cs  Cs17  1  0.33504061  0.66469520  0.66476107  1
  Cs  Cs18  1  0.66269686  -0.00264564  0.00107809  1
  Cs  Cs19  1  0.66827962  0.00134994  0.33402807  1
  Cs  Cs20  1  0.66557188  -0.00113447  0.66449092  1
  Cs  Cs21  1  0.66758976  0.33489235  0.00332895  1
  Cs  Cs22  1  0.66691215  0.33147274  0.33147370  1
  Cs  Cs23  1  0.66644185  0.33527384  0.66655755  1
  Cs  Cs24  1  0.66681471  0.66578327  -0.00310018  1
  Cs  Cs25  1  0.66652180  0.66742395  0.33445083  1
  Cs  Cs26  1  0.66794494  0.66534512  0.66809893  1
  Sn  Sn27  1  0.50006357  0.83258083  0.49980692  1
  Sn  Sn28  1  0.83405468  0.16616321  0.50021270  1
  Sn  Sn29  1  0.83344532  0.83340814  0.16731676  1
  Sn  Sn30  1  0.16671184  0.50023325  0.83338256  1
  Sn  Sn31  1  0.50034837  0.49985225  0.16694170  1
  Sn  Sn32  1  0.16683776  0.16635900  0.16699268  1
  Sn  Sn33  1  0.16603129  0.16607682  0.49900202  1
  Sn  Sn34  1  0.83355069  0.83384902  0.49911057  1
  Sn  Sn35  1  0.49918637  0.50004274  0.83353111  1
  Sn  Sn36  1  0.83295992  0.16653470  0.83331060  1
  Sn  Sn37  1  0.83391847  0.16628472  0.16651966  1
  Sn  Sn38  1  0.83312455  0.50046142  0.16704354  1
  Sn  Sn39  1  0.50018219  0.50049501  0.49957304  1
  Sn  Sn40  1  0.16639056  0.83405750  0.49987425  1
  Pb  Pb41  1  0.49976412  0.16645228  0.49992872  1
  Pb  Pb42  1  0.16446676  0.83628639  0.16866168  1
  Pb  Pb43  1  0.16502209  0.16802683  0.83323553  1
  Pb  Pb44  1  0.83330222  0.49825560  0.83589663  1
  Pb  Pb45  1  0.83151167  0.49981298  0.49788208  1
  Pb  Pb46  1  0.50009997  0.83075187  0.83061784  1
  Pb  Pb47  1  0.49954477  0.16823303  0.16653302  1
  Pb  Pb48  1  0.83334548  0.83593771  0.83316240  1
  Pb  Pb49  1  0.50216294  0.83091049  0.16885401  1
  Pb  Pb50  1  0.16667154  0.49809561  0.16484235  1
  Pb  Pb51  1  0.16880723  0.49937810  0.50153450  1
  Pb  Pb52  1  0.50278468  0.16865067  0.83349079  1
  Pb  Pb53  1  0.16645438  0.83079089  0.83044201  1
  I  I54  1  0.15999084  0.00439833  0.16823618  1
  I  I55  1  0.16700913  0.00046152  0.49665694  1
  I  I56  1  0.16502994  0.00012936  0.83438744  1
  I  I57  1  0.15985743  0.33019940  0.17329538  1
  I  I58  1  0.16235208  0.33023333  0.49787273  1
  I  I59  1  0.17063662  0.33593580  0.83102816  1
  I  I60  1  0.16518714  0.66680400  0.16708009  1
  I  I61  1  0.16400406  0.66921614  0.50218492  1
  I  I62  1  0.17010554  0.66277771  0.83335808  1
  I  I63  1  0.50157030  -0.00039577  0.16918622  1
  I  I64  1  0.50142774  -0.00294419  0.49902194  1
  I  I65  1  0.50051569  -0.00020308  0.83198892  1
  I  I66  1  0.50645894  0.33702684  0.16968971  1
  I  I67  1  0.50069258  0.33627127  0.50042919  1
  I  I68  1  0.49671151  0.33731337  0.82969446  1
  I  I69  1  0.50521733  0.66248023  0.16481969  1
  I  I70  1  0.50068514  0.66662376  0.50037536  1
  I  I71  1  0.49852451  0.66231331  0.83528123  1
  I  I72  1  0.83784690  0.00080863  0.16845010  1
  I  I73  1  0.83147052  0.00024311  0.49603172  1
  I  I74  1  0.83556031  0.00401644  0.83661461  1
  I  I75  1  0.83239576  0.33249015  0.16669224  1
  I  I76  1  0.83626276  0.33028071  0.49896549  1
  I  I77  1  0.83299661  0.33030564  0.83207643  1
  I  I78  1  0.82805623  0.66669858  0.17133690  1
  I  I79  1  0.83540383  0.66949216  0.49590909  1
  I  I80  1  0.83277853  0.66642937  0.83304114  1
  I  I81  1  0.16002049  0.17152622  0.00252801  1
  I  I82  1  0.15839985  0.16556920  0.33425139  1
  I  I83  1  0.16240392  0.16431063  0.66348989  1
  I  I84  1  0.17119905  0.49659694  -0.00276659  1
  I  I85  1  0.16785641  0.50072349  0.33338120  1
  I  I86  1  0.17165317  0.49819899  0.66923512  1
  I  I87  1  0.16510594  0.83375974  0.00023335  1
  I  I88  1  0.16848726  0.83243382  0.33715606  1
  I  I89  1  0.16418664  0.83989552  0.66182268  1
  I  I90  1  0.50052916  0.16975872  0.00010580  1
  I  I91  1  0.50372598  0.17086062  0.33347759  1
  I  I92  1  0.50103048  0.16991534  0.66637230  1
  I  I93  1  0.50160063  0.49646114  0.00034288  1
  I  I94  1  0.50517888  0.50296751  0.33338779  1
  I  I95  1  0.49613620  0.50331750  0.66634886  1
  I  I96  1  0.50191105  0.83252157  0.00024069  1
  I  I97  1  0.49884737  0.82741595  0.33720047  1
  I  I98  1  0.50383974  0.82808821  0.66207042  1
  I  I99  1  0.83712641  0.16877938  0.00161474  1
  I  I100  1  0.83665276  0.16624440  0.33336754  1
  I  I101  1  0.83668811  0.16328655  0.66503301  1
  I  I102  1  0.82816378  0.49920601  0.00400906  1
  I  I103  1  0.82860814  0.49556660  0.32982168  1
  I  I104  1  0.83192058  0.49916601  0.66658040  1
  I  I105  1  0.83287777  0.83333569  0.00329236  1
  I  I106  1  0.83237180  0.83765565  0.33429238  1
  I  I107  1  0.83313512  0.83704420  0.66278532  1
  I  I108  1  -0.00194727  0.16973822  0.16802144  1
  I  I109  1  -0.00102225  0.16035938  0.49940152  1
  I  I110  1  -0.00305378  0.17065095  0.83347690  1
  I  I111  1  -0.00287710  0.49992612  0.16516497  1
  I  I112  1  -0.00005245  0.50220602  0.50110046  1
  I  I113  1  0.00193831  0.49781677  0.83364669  1
  I  I114  1  -0.00406455  0.82793580  0.17223980  1
  I  I115  1  -0.00084805  0.83825217  0.49659757  1
  I  I116  1  -0.00022374  0.82855174  0.83102818  1
  I  I117  1  0.33010829  0.17065190  0.17338944  1
  I  I118  1  0.33012035  0.16469916  0.49565409  1
  I  I119  1  0.33321073  0.16780564  0.83237532  1
  I  I120  1  0.33606138  0.49757167  0.16844700  1
  I  I121  1  0.33700209  0.50355951  0.49581033  1
  I  I122  1  0.33446600  0.49803713  0.83379501  1
  I  I123  1  0.33327068  0.83271714  0.16873884  1
  I  I124  1  0.33327492  0.83247404  0.50112157  1
  I  I125  1  0.33333209  0.83586653  0.83225807  1
  I  I126  1  0.67039352  0.16631094  0.16846499  1
  I  I127  1  0.67005400  0.16455117  0.49838785  1
  I  I128  1  0.67104540  0.16880954  0.83300556  1
  I  I129  1  0.66717380  0.49731597  0.16549250  1
  I  I130  1  0.66336617  0.50309499  0.50430147  1
  I  I131  1  0.66398743  0.49823643  0.83162875  1
  I  I132  1  0.67062291  0.83865235  0.17250904  1
  I  I133  1  0.66768366  0.83352386  0.49653113  1
  I  I134  1  0.66685179  0.83148681  0.83072199  1
