# generated using pymatgen
data_Cs27Sn14Pb13I81
_symmetry_space_group_name_H-M   'P 1'
_cell_length_a   18.98641936
_cell_length_b   18.97660407
_cell_length_c   18.96547526
_cell_angle_alpha   89.99911463
_cell_angle_beta   89.99873537
_cell_angle_gamma   89.99900517
_symmetry_Int_Tables_number   1
_chemical_formula_structural   Cs27Sn14Pb13I81
_chemical_formula_sum   'Cs27 Sn14 Pb13 I81'
_cell_volume   6833.21830718
_cell_formula_units_Z   1
loop_
 _symmetry_equiv_pos_site_id
 _symmetry_equiv_pos_as_xyz
  1  'x, y, z'
loop_
 _atom_site_type_symbol
 _atom_site_label
 _atom_site_symmetry_multiplicity
 _atom_site_fract_x
 _atom_site_fract_y
 _atom_site_fract_z
 _atom_site_occupancy
  Cs  Cs0  1  -0.00055394  -0.00025608  0.00062531  1
  Cs  Cs1  1  -0.00166558  0.00140857  0.33044964  1
  Cs  Cs2  1  0.00435285  -0.00231406  0.66906177  1
  Cs  Cs3  1  0.00032119  0.33324815  -0.00055136  1
  Cs  Cs4  1  -0.00030274  0.33183391  0.33413597  1
  Cs  Cs5  1  -0.00273925  0.33510401  0.66791309  1
  Cs  Cs6  1  -0.00411090  0.66431305  0.00107668  1
  Cs  Cs7  1  0.00068453  0.66752542  0.33464680  1
  Cs  Cs8  1  0.00265850  0.66718553  0.66154524  1
  Cs  Cs9  1  0.33272531  0.00243348  0.00055242  1
  Cs  Cs10  1  0.33283357  0.00117854  0.33174286  1
  Cs  Cs11  1  0.33216380  -0.00957123  0.66604260  1
  Cs  Cs12  1  0.33386136  0.33304563  0.00017085  1
  Cs  Cs13  1  0.33509629  0.33406960  0.33235364  1
  Cs  Cs14  1  0.33317624  0.33306971  0.67058623  1
  Cs  Cs15  1  0.33567348  0.66257748  0.00187353  1
  Cs  Cs16  1  0.33393000  0.66505444  0.33742703  1
  Cs  Cs17  1  0.33211559  0.67717511  0.65809338  1
  Cs  Cs18  1  0.66771607  -0.00102836  0.00140681  1
  Cs  Cs19  1  0.66823639  0.00247233  0.33406106  1
  Cs  Cs20  1  0.66308512  -0.00082866  0.66297360  1
  Cs  Cs21  1  0.66604231  0.33381646  -0.00065114  1
  Cs  Cs22  1  0.66549334  0.33268560  0.33954170  1
  Cs  Cs23  1  0.66970454  0.33183761  0.66511911  1
  Cs  Cs24  1  0.66895725  0.66602165  -0.00137820  1
  Cs  Cs25  1  0.66529645  0.66322023  0.33388057  1
  Cs  Cs26  1  0.66450700  0.67097856  0.66789481  1
  Sn  Sn27  1  0.16747426  0.83301617  0.16618400  1
  Sn  Sn28  1  0.83338453  0.83360576  0.49974683  1
  Sn  Sn29  1  0.16675961  0.50027234  0.83390239  1
  Sn  Sn30  1  0.83392227  0.49870162  0.16628032  1
  Sn  Sn31  1  0.83308565  0.16788377  0.16595296  1
  Sn  Sn32  1  0.49996896  0.49938938  0.83345447  1
  Sn  Sn33  1  0.16675425  0.16720901  0.49967049  1
  Sn  Sn34  1  0.83248650  0.16702380  0.83426320  1
  Sn  Sn35  1  0.50078526  0.16725611  0.83411937  1
  Sn  Sn36  1  0.49939889  0.83400461  0.16621483  1
  Sn  Sn37  1  0.50028692  0.16610091  0.16591576  1
  Sn  Sn38  1  0.83329665  0.49919561  0.83417107  1
  Sn  Sn39  1  0.16586779  0.49998983  0.16598803  1
  Sn  Sn40  1  0.16663393  0.16692608  0.16731383  1
  Pb  Pb41  1  0.49994324  0.49962776  0.50429533  1
  Pb  Pb42  1  0.49996831  0.83389787  0.83588011  1
  Pb  Pb43  1  0.16494517  0.83584785  0.49685337  1
  Pb  Pb44  1  0.83335681  0.83358512  0.83115903  1
  Pb  Pb45  1  0.16674009  0.16806810  0.83382581  1
  Pb  Pb46  1  0.16653484  0.82976049  0.83650190  1
  Pb  Pb47  1  0.83319021  0.83314793  0.16774796  1
  Pb  Pb48  1  0.50030238  0.49941852  0.16553023  1
  Pb  Pb49  1  0.16666561  0.49768666  0.49956463  1
  Pb  Pb50  1  0.83338124  0.50175398  0.50010928  1
  Pb  Pb51  1  0.50224283  0.83363560  0.49636125  1
  Pb  Pb52  1  0.49741349  0.16679280  0.50059142  1
  Pb  Pb53  1  0.83521913  0.16525391  0.50052704  1
  I  I54  1  0.16667786  0.00117600  0.17195802  1
  I  I55  1  0.16562333  0.00344575  0.49540766  1
  I  I56  1  0.16639836  0.00009992  0.83258706  1
  I  I57  1  0.16603480  0.33301406  0.16659934  1
  I  I58  1  0.16489767  0.33015498  0.49241133  1
  I  I59  1  0.16662153  0.33621182  0.83918350  1
  I  I60  1  0.16591996  0.66576737  0.16077237  1
  I  I61  1  0.16585558  0.66688001  0.50056922  1
  I  I62  1  0.16528955  0.66137355  0.83833873  1
  I  I63  1  0.49714069  0.00182826  0.16140803  1
  I  I64  1  0.49988524  0.00018327  0.50532798  1
  I  I65  1  0.50546408  0.00368466  0.83550613  1
  I  I66  1  0.49695145  0.33015435  0.16419243  1
  I  I67  1  0.50059323  0.33292673  0.49300716  1
  I  I68  1  0.50017952  0.33275079  0.84055687  1
  I  I69  1  0.49743553  0.66837241  0.16540242  1
  I  I70  1  0.49975997  0.66689235  0.49904327  1
  I  I71  1  0.50173361  0.66358947  0.83581016  1
  I  I72  1  0.83585727  0.00312494  0.16410915  1
  I  I73  1  0.83481532  -0.00216819  0.49743720  1
  I  I74  1  0.82889140  0.00375998  0.83782979  1
  I  I75  1  0.83715125  0.33268847  0.16313872  1
  I  I76  1  0.83461035  0.33317452  0.49985571  1
  I  I77  1  0.83300142  0.33344784  0.83701548  1
  I  I78  1  0.83620577  0.66371751  0.16357943  1
  I  I79  1  0.83449906  0.66935520  0.49813244  1
  I  I80  1  0.83268917  0.66294496  0.83810307  1
  I  I81  1  0.16679535  0.16504180  0.00350179  1
  I  I82  1  0.16577004  0.16792267  0.33009658  1
  I  I83  1  0.16508961  0.16970348  0.66516779  1
  I  I84  1  0.16547259  0.49756974  0.00120056  1
  I  I85  1  0.16139467  0.50201887  0.32928199  1
  I  I86  1  0.16512674  0.49596944  0.66988131  1
  I  I87  1  0.16824058  0.84110345  0.00461419  1
  I  I88  1  0.16998454  0.82818994  0.32881052  1
  I  I89  1  0.16566053  0.83413145  0.66641477  1
  I  I90  1  0.49833371  0.16664932  0.00103835  1
  I  I91  1  0.50251461  0.16222348  0.32974208  1
  I  I92  1  0.50446020  0.17284088  0.67047954  1
  I  I93  1  0.49971890  0.49873341  -0.00266147  1
  I  I94  1  0.50015898  0.50075666  0.33300252  1
  I  I95  1  0.50142500  0.49228123  0.67278561  1
  I  I96  1  0.49744998  0.83550665  0.00382079  1
  I  I97  1  0.49561829  0.83937990  0.32846319  1
  I  I98  1  0.50089213  0.83256473  0.66660325  1
  I  I99  1  0.83507790  0.16958224  0.00113340  1
  I  I100  1  0.83163472  0.16910642  0.32983063  1
  I  I101  1  0.83065115  0.17040997  0.67014534  1
  I  I102  1  0.83502572  0.49732587  0.00016107  1
  I  I103  1  0.83871922  0.49710719  0.32972201  1
  I  I104  1  0.83389353  0.49582070  0.67055594  1
  I  I105  1  0.83346938  0.83297035  0.00021952  1
  I  I106  1  0.83409174  0.83426286  0.33508970  1
  I  I107  1  0.83407010  0.83357784  0.66362620  1
  I  I108  1  -0.00004435  0.16635214  0.16689550  1
  I  I109  1  0.00272334  0.16568447  0.49400789  1
  I  I110  1  -0.00258332  0.17039174  0.83588777  1
  I  I111  1  0.00023752  0.49803632  0.15934013  1
  I  I112  1  0.00004546  0.50082229  0.50447600  1
  I  I113  1  -0.00057995  0.49546353  0.83801148  1
  I  I114  1  0.00244995  0.83557280  0.16872917  1
  I  I115  1  -0.00229541  0.83321202  0.49779179  1
  I  I116  1  -0.00001796  0.83561588  0.83514123  1
  I  I117  1  0.33309426  0.16575767  0.16671130  1
  I  I118  1  0.32976606  0.16682175  0.49414596  1
  I  I119  1  0.33579878  0.17193527  0.83724358  1
  I  I120  1  0.33066651  0.49797212  0.16232255  1
  I  I121  1  0.33309425  0.50046302  0.49806378  1
  I  I122  1  0.33320853  0.49401731  0.83971880  1
  I  I123  1  0.33274437  0.83689201  0.16584536  1
  I  I124  1  0.33317798  0.83384709  0.50204986  1
  I  I125  1  0.33323347  0.83442843  0.83021255  1
  I  I126  1  0.66695054  0.16523775  0.16190579  1
  I  I127  1  0.66675572  0.16495830  0.49742806  1
  I  I128  1  0.66697110  0.17467088  0.84135613  1
  I  I129  1  0.66945249  0.49915163  0.16270960  1
  I  I130  1  0.66686772  0.50037703  0.49636326  1
  I  I131  1  0.66740497  0.49636383  0.83839310  1
  I  I132  1  0.66443852  0.83688308  0.16826842  1
  I  I133  1  0.66957709  0.83443257  0.49863585  1
  I  I134  1  0.66667188  0.82802930  0.83561628  1
