# generated using pymatgen
data_Cs27Sn14Pb13I81
_symmetry_space_group_name_H-M   'P 1'
_cell_length_a   18.97370034
_cell_length_b   18.97871741
_cell_length_c   18.97296423
_cell_angle_alpha   89.99946895
_cell_angle_beta   89.99794448
_cell_angle_gamma   89.99868701
_symmetry_Int_Tables_number   1
_chemical_formula_structural   Cs27Sn14Pb13I81
_chemical_formula_sum   'Cs27 Sn14 Pb13 I81'
_cell_volume   6832.09795052
_cell_formula_units_Z   1
loop_
 _symmetry_equiv_pos_site_id
 _symmetry_equiv_pos_as_xyz
  1  'x, y, z'
loop_
 _atom_site_type_symbol
 _atom_site_label
 _atom_site_symmetry_multiplicity
 _atom_site_fract_x
 _atom_site_fract_y
 _atom_site_fract_z
 _atom_site_occupancy
  Cs  Cs0  1  -0.00307770  0.00114956  -0.01168773  1
  Cs  Cs1  1  0.00169025  -0.00080226  0.33374883  1
  Cs  Cs2  1  -0.00024048  -0.00282197  0.67392108  1
  Cs  Cs3  1  0.00002498  0.32831682  0.00257962  1
  Cs  Cs4  1  0.00068321  0.33400514  0.33244291  1
  Cs  Cs5  1  0.00127035  0.33464644  0.66635497  1
  Cs  Cs6  1  0.00138041  0.67070179  -0.00542644  1
  Cs  Cs7  1  0.00027251  0.66599148  0.33523451  1
  Cs  Cs8  1  -0.00167898  0.66765994  0.66584697  1
  Cs  Cs9  1  0.33381666  -0.00036103  0.00419458  1
  Cs  Cs10  1  0.33191453  0.00123591  0.33100230  1
  Cs  Cs11  1  0.33761303  0.00074879  0.66644729  1
  Cs  Cs12  1  0.33250435  0.33508916  -0.00289534  1
  Cs  Cs13  1  0.32917997  0.32946354  0.33527021  1
  Cs  Cs14  1  0.33326003  0.33390788  0.66802990  1
  Cs  Cs15  1  0.33684514  0.66483698  0.00205917  1
  Cs  Cs16  1  0.33103709  0.67037247  0.33055512  1
  Cs  Cs17  1  0.33255858  0.66444283  0.66807899  1
  Cs  Cs18  1  0.66843786  0.00070577  -0.00276672  1
  Cs  Cs19  1  0.66617221  -0.00019740  0.33479249  1
  Cs  Cs20  1  0.66463165  -0.00097939  0.66694232  1
  Cs  Cs21  1  0.66828330  0.33530676  0.00504179  1
  Cs  Cs22  1  0.66921042  0.33329333  0.33424228  1
  Cs  Cs23  1  0.66438901  0.33586850  0.66244487  1
  Cs  Cs24  1  0.66229427  0.66427397  0.00390907  1
  Cs  Cs25  1  0.66798299  0.66746192  0.33224126  1
  Cs  Cs26  1  0.66792589  0.66730073  0.66577398  1
  Sn  Sn27  1  0.49966937  0.50120477  0.49952615  1
  Sn  Sn28  1  0.83328169  0.49958522  0.83303680  1
  Sn  Sn29  1  0.50012770  0.16648891  0.83468146  1
  Sn  Sn30  1  0.83267330  0.83360039  0.49905336  1
  Sn  Sn31  1  0.49980312  0.16694228  0.16569734  1
  Sn  Sn32  1  0.83468433  0.16633260  0.50008163  1
  Sn  Sn33  1  0.16673518  0.49933108  0.49923948  1
  Sn  Sn34  1  0.83377952  0.83359214  0.16726390  1
  Sn  Sn35  1  0.16535887  0.16698789  0.49976732  1
  Sn  Sn36  1  0.50009740  0.83370599  0.83269889  1
  Sn  Sn37  1  0.16713780  0.16730896  0.16725338  1
  Sn  Sn38  1  0.16641368  0.49958032  0.16736226  1
  Sn  Sn39  1  0.50044439  0.83226667  0.50043439  1
  Sn  Sn40  1  0.83337402  0.49998243  0.50054924  1
  Pb  Pb41  1  0.16673454  0.83354776  0.50026239  1
  Pb  Pb42  1  0.83402555  0.16462137  0.16865087  1
  Pb  Pb43  1  0.83583294  0.50185724  0.16709010  1
  Pb  Pb44  1  0.83098482  0.83129594  0.83277657  1
  Pb  Pb45  1  0.16384320  0.83397256  0.16668237  1
  Pb  Pb46  1  0.50178741  0.83534105  0.16720415  1
  Pb  Pb47  1  0.50187390  0.49995343  0.83144177  1
  Pb  Pb48  1  0.16427630  0.49983818  0.83317695  1
  Pb  Pb49  1  0.16899557  0.16669617  0.83307315  1
  Pb  Pb50  1  0.83060914  0.16915295  0.83024778  1
  Pb  Pb51  1  0.17042025  0.83318514  0.83329147  1
  Pb  Pb52  1  0.49973717  0.16651953  0.49976050  1
  Pb  Pb53  1  0.49765403  0.49747328  0.16983970  1
  I  I54  1  0.17133340  0.00364984  0.17311943  1
  I  I55  1  0.16509675  0.00328597  0.49492177  1
  I  I56  1  0.16236229  0.00023441  0.83297490  1
  I  I57  1  0.16959264  0.33266639  0.17227268  1
  I  I58  1  0.16435265  0.33369131  0.49600798  1
  I  I59  1  0.16992920  0.33329510  0.83217858  1
  I  I60  1  0.16449578  0.66390195  0.17266705  1
  I  I61  1  0.16475688  0.66337134  0.49602520  1
  I  I62  1  0.16790353  0.66625111  0.83348680  1
  I  I63  1  0.49371667  0.00318743  0.16894306  1
  I  I64  1  0.50377872  -0.00216053  0.50124024  1
  I  I65  1  0.50081671  -0.00017603  0.82905402  1
  I  I66  1  0.50042327  0.32957370  0.16215429  1
  I  I67  1  0.50291102  0.33545330  0.49999941  1
  I  I68  1  0.50068265  0.33092252  0.83454896  1
  I  I69  1  0.49894063  0.66653063  0.16367774  1
  I  I70  1  0.50339330  0.66695760  0.50580861  1
  I  I71  1  0.50218754  0.66905145  0.82989167  1
  I  I72  1  0.83338543  -0.00297612  0.17385956  1
  I  I73  1  0.83147284  -0.00036641  0.49422763  1
  I  I74  1  0.83426473  0.00003925  0.83285156  1
  I  I75  1  0.83113361  0.33321323  0.16696451  1
  I  I76  1  0.83228177  0.33398404  0.50436721  1
  I  I77  1  0.83130101  0.33660226  0.82711621  1
  I  I78  1  0.83337345  0.66945235  0.17314324  1
  I  I79  1  0.83264025  0.66630152  0.50032071  1
  I  I80  1  0.83214258  0.66387384  0.82661396  1
  I  I81  1  0.16936233  0.17134019  0.00320010  1
  I  I82  1  0.16968261  0.17092659  0.33394833  1
  I  I83  1  0.16441211  0.17157663  0.66319042  1
  I  I84  1  0.16475717  0.49535103  0.00305543  1
  I  I85  1  0.16472103  0.49536400  0.33518042  1
  I  I86  1  0.16857485  0.49556933  0.66279529  1
  I  I87  1  0.16413297  0.83253733  0.00030730  1
  I  I88  1  0.17151725  0.83360590  0.33356012  1
  I  I89  1  0.16153858  0.83317981  0.66627795  1
  I  I90  1  0.49464165  0.16067563  0.00021448  1
  I  I91  1  0.49854956  0.16672187  0.33161860  1
  I  I92  1  0.50092168  0.16527576  0.66801392  1
  I  I93  1  0.50056053  0.50250806  0.00028083  1
  I  I94  1  0.50663183  0.50461177  0.33797450  1
  I  I95  1  0.49633369  0.49811162  0.66285738  1
  I  I96  1  0.50213020  0.83623886  -0.00220470  1
  I  I97  1  0.50272935  0.83085788  0.33648513  1
  I  I98  1  0.50586033  0.83635039  0.66519979  1
  I  I99  1  0.83525805  0.16604520  -0.00016041  1
  I  I100  1  0.83097296  0.17183017  0.33710058  1
  I  I101  1  0.83747225  0.16175478  0.66192893  1
  I  I102  1  0.83363115  0.50286064  -0.00192210  1
  I  I103  1  0.83160464  0.49860914  0.33703836  1
  I  I104  1  0.83484466  0.50207240  0.66360163  1
  I  I105  1  0.83308149  0.83167805  0.00188417  1
  I  I106  1  0.82721454  0.83111812  0.33609980  1
  I  I107  1  0.83116785  0.83436248  0.66316433  1
  I  I108  1  0.00301136  0.17052501  0.17095136  1
  I  I109  1  0.00024856  0.17041687  0.49359645  1
  I  I110  1  -0.00036134  0.16743314  0.83585982  1
  I  I111  1  0.00343737  0.49288714  0.17352484  1
  I  I112  1  -0.00037701  0.49952718  0.49994521  1
  I  I113  1  -0.00343883  0.50132924  0.82590610  1
  I  I114  1  -0.00381023  0.83322701  0.17579236  1
  I  I115  1  -0.00322714  0.83078702  0.49539020  1
  I  I116  1  -0.00061175  0.83242842  0.83357214  1
  I  I117  1  0.33274703  0.16879247  0.17027261  1
  I  I118  1  0.33104081  0.17011218  0.49936712  1
  I  I119  1  0.33698407  0.16360169  0.83066411  1
  I  I120  1  0.32973097  0.49994093  0.17172303  1
  I  I121  1  0.33298698  0.49878161  0.49629618  1
  I  I122  1  0.33356156  0.50066151  0.83172368  1
  I  I123  1  0.33335027  0.83217647  0.16617830  1
  I  I124  1  0.33655880  0.83081991  0.50467419  1
  I  I125  1  0.33856391  0.83637945  0.82612361  1
  I  I126  1  0.66457477  0.16394719  0.16515025  1
  I  I127  1  0.66869290  0.16912200  0.50015724  1
  I  I128  1  0.66292637  0.16229054  0.83726197  1
  I  I129  1  0.66673193  0.49939683  0.16705778  1
  I  I130  1  0.66735518  0.49968250  0.50522054  1
  I  I131  1  0.66955683  0.50022524  0.82574607  1
  I  I132  1  0.66953997  0.83398311  0.16985902  1
  I  I133  1  0.66703667  0.83103629  0.50014069  1
  I  I134  1  0.66347858  0.83756209  0.83019592  1
