# generated using pymatgen
data_Cs27Sn14Pb13I81
_symmetry_space_group_name_H-M   'P 1'
_cell_length_a   18.97981285
_cell_length_b   18.96787347
_cell_length_c   18.97868775
_cell_angle_alpha   90.00021467
_cell_angle_beta   90.00271434
_cell_angle_gamma   89.99977293
_symmetry_Int_Tables_number   1
_chemical_formula_structural   Cs27Sn14Pb13I81
_chemical_formula_sum   'Cs27 Sn14 Pb13 I81'
_cell_volume   6832.45452423
_cell_formula_units_Z   1
loop_
 _symmetry_equiv_pos_site_id
 _symmetry_equiv_pos_as_xyz
  1  'x, y, z'
loop_
 _atom_site_type_symbol
 _atom_site_label
 _atom_site_symmetry_multiplicity
 _atom_site_fract_x
 _atom_site_fract_y
 _atom_site_fract_z
 _atom_site_occupancy
  Cs  Cs0  1  -0.00044381  -0.00214586  -0.00098227  1
  Cs  Cs1  1  -0.00354739  -0.00138394  0.33323308  1
  Cs  Cs2  1  0.00236701  0.00107065  0.66796482  1
  Cs  Cs3  1  -0.00293339  0.33190570  -0.00128268  1
  Cs  Cs4  1  0.00068526  0.33365284  0.33517219  1
  Cs  Cs5  1  -0.00123759  0.33476845  0.66623348  1
  Cs  Cs6  1  0.00132854  0.67349831  0.00250009  1
  Cs  Cs7  1  0.00116393  0.66766340  0.33020454  1
  Cs  Cs8  1  0.00062441  0.65990139  0.66726442  1
  Cs  Cs9  1  0.33427704  0.00103943  -0.00198807  1
  Cs  Cs10  1  0.33577229  0.00223284  0.33615480  1
  Cs  Cs11  1  0.33304901  -0.00009057  0.66723419  1
  Cs  Cs12  1  0.33503715  0.33173235  0.00100136  1
  Cs  Cs13  1  0.33184298  0.33595751  0.33224760  1
  Cs  Cs14  1  0.33121751  0.33139832  0.66763094  1
  Cs  Cs15  1  0.33143631  0.66686066  0.00305829  1
  Cs  Cs16  1  0.33302167  0.65470967  0.33579656  1
  Cs  Cs17  1  0.33486843  0.66736818  0.66202794  1
  Cs  Cs18  1  0.66570622  0.00129024  0.00029974  1
  Cs  Cs19  1  0.66723574  -0.00250263  0.33440354  1
  Cs  Cs20  1  0.66480157  0.00015190  0.66625260  1
  Cs  Cs21  1  0.66764892  0.33423645  -0.00059845  1
  Cs  Cs22  1  0.66884396  0.33205895  0.32975087  1
  Cs  Cs23  1  0.67249816  0.33888798  0.66957978  1
  Cs  Cs24  1  0.66688614  0.66389882  -0.00184131  1
  Cs  Cs25  1  0.66452464  0.67330333  0.34176349  1
  Cs  Cs26  1  0.66628653  0.66039306  0.66202581  1
  Sn  Sn27  1  0.50106034  0.83403114  0.83414084  1
  Sn  Sn28  1  0.16658320  0.16735993  0.83352738  1
  Sn  Sn29  1  0.83335594  0.16724072  0.16573415  1
  Sn  Sn30  1  0.50002698  0.16591798  0.16677274  1
  Sn  Sn31  1  0.16741270  0.16547750  0.49995818  1
  Sn  Sn32  1  0.50034053  0.16630267  0.83293804  1
  Sn  Sn33  1  0.83208811  0.83416634  0.83291658  1
  Sn  Sn34  1  0.16651728  0.16623161  0.16660820  1
  Sn  Sn35  1  0.16655089  0.83433444  0.49973597  1
  Sn  Sn36  1  0.83320613  0.16560908  0.83407787  1
  Sn  Sn37  1  0.49964160  0.16672584  0.50024054  1
  Sn  Sn38  1  0.83299676  0.49979459  0.16672451  1
  Sn  Sn39  1  0.49945699  0.83403976  0.16594597  1
  Sn  Sn40  1  0.16712241  0.49921979  0.83401059  1
  Pb  Pb41  1  0.83103574  0.83399175  0.16483635  1
  Pb  Pb42  1  0.16971523  0.83579008  0.16920412  1
  Pb  Pb43  1  0.16727940  0.83373566  0.83200871  1
  Pb  Pb44  1  0.16660045  0.49906160  0.50205868  1
  Pb  Pb45  1  0.50232400  0.49995866  0.16651093  1
  Pb  Pb46  1  0.83532173  0.50018776  0.83507369  1
  Pb  Pb47  1  0.83352957  0.49994615  0.49636580  1
  Pb  Pb48  1  0.16453251  0.49740483  0.16423540  1
  Pb  Pb49  1  0.49774541  0.50010397  0.83354585  1
  Pb  Pb50  1  0.83333495  0.16662893  0.50016562  1
  Pb  Pb51  1  0.83606399  0.83372512  0.50348781  1
  Pb  Pb52  1  0.50008391  0.49590466  0.50005180  1
  Pb  Pb53  1  0.49815089  0.83529874  0.50034659  1
  I  I54  1  0.16161183  0.00452193  0.16020795  1
  I  I55  1  0.17050129  0.00278296  0.50374079  1
  I  I56  1  0.16654305  0.00366227  0.83464563  1
  I  I57  1  0.17206031  0.32850121  0.17113026  1
  I  I58  1  0.17088011  0.32918056  0.49815666  1
  I  I59  1  0.16634411  0.32992892  0.83113785  1
  I  I60  1  0.16596857  0.66677508  0.16665314  1
  I  I61  1  0.16665703  0.66906188  0.50365900  1
  I  I62  1  0.16534677  0.66499255  0.83024910  1
  I  I63  1  0.50192496  0.00247093  0.16544493  1
  I  I64  1  0.49703473  0.00370510  0.50015270  1
  I  I65  1  0.49823488  0.00191745  0.83421836  1
  I  I66  1  0.49773963  0.32915752  0.16584028  1
  I  I67  1  0.49191436  0.32748839  0.49970575  1
  I  I68  1  0.50225685  0.32923799  0.83423398  1
  I  I69  1  0.50148218  0.66982738  0.16052893  1
  I  I70  1  0.49762058  0.66699662  0.49941969  1
  I  I71  1  0.50270469  0.67022872  0.83847907  1
  I  I72  1  0.83536660  0.00366905  0.16463281  1
  I  I73  1  0.83263373  0.00034876  0.49471481  1
  I  I74  1  0.83558729  0.00209233  0.83917077  1
  I  I75  1  0.83146508  0.33015701  0.16055153  1
  I  I76  1  0.83481255  0.33280665  0.50564936  1
  I  I77  1  0.83088018  0.32982836  0.83488684  1
  I  I78  1  0.83281043  0.66487222  0.16343834  1
  I  I79  1  0.83550308  0.66697404  0.50053351  1
  I  I80  1  0.83135125  0.66943053  0.83515387  1
  I  I81  1  0.16862852  0.17148616  -0.00049024  1
  I  I82  1  0.16950400  0.16189856  0.33316226  1
  I  I83  1  0.16946520  0.16656557  0.66742265  1
  I  I84  1  0.16692360  0.49449942  -0.00337955  1
  I  I85  1  0.16543558  0.49978891  0.33309543  1
  I  I86  1  0.16483835  0.49332538  0.66985874  1
  I  I87  1  0.16482533  0.83279823  0.00006983  1
  I  I88  1  0.16732047  0.84042043  0.33666086  1
  I  I89  1  0.16830036  0.84047476  0.66449365  1
  I  I90  1  0.49762274  0.16342697  -0.00027174  1
  I  I91  1  0.49732042  0.16329958  0.33238548  1
  I  I92  1  0.49586744  0.16222804  0.66789671  1
  I  I93  1  0.49902137  0.49548270  -0.00002553  1
  I  I94  1  0.49969802  0.50094534  0.33312777  1
  I  I95  1  0.50012492  0.50129759  0.66698053  1
  I  I96  1  0.50255747  0.84261577  -0.00089212  1
  I  I97  1  0.49978554  0.83905881  0.33090250  1
  I  I98  1  0.50130460  0.83853099  0.66981223  1
  I  I99  1  0.83393034  0.16704773  -0.00040423  1
  I  I100  1  0.83348948  0.17131207  0.32997866  1
  I  I101  1  0.83377715  0.16272094  0.67026872  1
  I  I102  1  0.83384554  0.49513201  0.00251234  1
  I  I103  1  0.83434683  0.49036251  0.32853972  1
  I  I104  1  0.83480615  0.49961144  0.66708145  1
  I  I105  1  0.83441498  0.83598004  -0.00323301  1
  I  I106  1  0.83234855  0.83269887  0.33324355  1
  I  I107  1  0.82707394  0.84113337  0.67158166  1
  I  I108  1  -0.00006423  0.17147375  0.16393507  1
  I  I109  1  0.00334986  0.16413105  0.50046623  1
  I  I110  1  0.00007613  0.16653120  0.83563418  1
  I  I111  1  -0.00310765  0.49382799  0.16515656  1
  I  I112  1  0.00036930  0.49728501  0.50183412  1
  I  I113  1  0.00291060  0.49438284  0.83319210  1
  I  I114  1  0.00008672  0.83360514  0.16602032  1
  I  I115  1  0.00383337  0.84212368  0.50118377  1
  I  I116  1  -0.00188217  0.83717068  0.83190742  1
  I  I117  1  0.33366185  0.16210557  0.16411532  1
  I  I118  1  0.33266933  0.16262539  0.50083454  1
  I  I119  1  0.33346482  0.16673951  0.83500665  1
  I  I120  1  0.33322479  0.49970994  0.16678319  1
  I  I121  1  0.33307321  0.50258426  0.49931397  1
  I  I122  1  0.33003091  0.49370996  0.83329510  1
  I  I123  1  0.33738343  0.84017488  0.15815262  1
  I  I124  1  0.33051944  0.83804389  0.50389072  1
  I  I125  1  0.33630537  0.83757123  0.83542204  1
  I  I126  1  0.66633043  0.16760100  0.16432361  1
  I  I127  1  0.66355425  0.16606012  0.49941514  1
  I  I128  1  0.66643536  0.16218563  0.83593553  1
  I  I129  1  0.66978635  0.49091781  0.16330594  1
  I  I130  1  0.66673758  0.49988033  0.50246842  1
  I  I131  1  0.66685926  0.49737634  0.83415947  1
  I  I132  1  0.66326665  0.84032464  0.16590696  1
  I  I133  1  0.66634307  0.83434259  0.49784606  1
  I  I134  1  0.66593007  0.84271022  0.83745047  1
