# generated using pymatgen
data_Cs27Sn13Pb14I81
_symmetry_space_group_name_H-M   'P 1'
_cell_length_a   18.98208026
_cell_length_b   18.97389290
_cell_length_c   18.97441443
_cell_angle_alpha   89.99688997
_cell_angle_beta   89.99958740
_cell_angle_gamma   89.99929405
_symmetry_Int_Tables_number   1
_chemical_formula_structural   Cs27Sn13Pb14I81
_chemical_formula_sum   'Cs27 Sn13 Pb14 I81'
_cell_volume   6833.90019085
_cell_formula_units_Z   1
loop_
 _symmetry_equiv_pos_site_id
 _symmetry_equiv_pos_as_xyz
  1  'x, y, z'
loop_
 _atom_site_type_symbol
 _atom_site_label
 _atom_site_symmetry_multiplicity
 _atom_site_fract_x
 _atom_site_fract_y
 _atom_site_fract_z
 _atom_site_occupancy
  Cs  Cs0  1  0.00080441  0.00353756  -0.00148781  1
  Cs  Cs1  1  -0.00027972  -0.00158132  0.33155692  1
  Cs  Cs2  1  0.00079035  -0.00171942  0.66804111  1
  Cs  Cs3  1  -0.00787376  0.33062954  -0.00051008  1
  Cs  Cs4  1  0.00129077  0.33351896  0.33281967  1
  Cs  Cs5  1  -0.00076660  0.33346920  0.66683816  1
  Cs  Cs6  1  0.00046303  0.66495751  -0.00128375  1
  Cs  Cs7  1  -0.00058809  0.66753236  0.33519715  1
  Cs  Cs8  1  0.00264099  0.66899348  0.66562229  1
  Cs  Cs9  1  0.33197770  0.00092763  0.00022503  1
  Cs  Cs10  1  0.33445107  0.00068508  0.33501983  1
  Cs  Cs11  1  0.33392271  0.00124445  0.66562169  1
  Cs  Cs12  1  0.33238004  0.33274596  0.00220877  1
  Cs  Cs13  1  0.33390835  0.33312043  0.33277317  1
  Cs  Cs14  1  0.33310771  0.33337802  0.66618573  1
  Cs  Cs15  1  0.33438388  0.66680425  -0.00199271  1
  Cs  Cs16  1  0.33047398  0.66358519  0.33216280  1
  Cs  Cs17  1  0.33241644  0.66715975  0.67094730  1
  Cs  Cs18  1  0.66835025  -0.00203715  0.00121656  1
  Cs  Cs19  1  0.66396706  -0.01022848  0.33447612  1
  Cs  Cs20  1  0.66335517  0.00117442  0.66499112  1
  Cs  Cs21  1  0.67410881  0.33346288  -0.00139696  1
  Cs  Cs22  1  0.66337470  0.33519428  0.33647389  1
  Cs  Cs23  1  0.66865107  0.33200012  0.66492066  1
  Cs  Cs24  1  0.66542637  0.66860971  0.00118888  1
  Cs  Cs25  1  0.66966211  0.66943626  0.32935464  1
  Cs  Cs26  1  0.66306981  0.66869391  0.67022055  1
  Sn  Sn27  1  0.83432655  0.16679989  0.49948612  1
  Sn  Sn28  1  0.49931499  0.16723617  0.83464041  1
  Sn  Sn29  1  0.16567181  0.16743747  0.50064611  1
  Sn  Sn30  1  0.16676333  0.49899388  0.49938094  1
  Sn  Sn31  1  0.49970764  0.49996023  0.49942163  1
  Sn  Sn32  1  0.16732181  0.16639262  0.83271629  1
  Sn  Sn33  1  0.16686564  0.83255772  0.16584986  1
  Sn  Sn34  1  0.83352843  0.49954918  0.50002100  1
  Sn  Sn35  1  0.16591154  0.83426895  0.83437974  1
  Sn  Sn36  1  0.49924517  0.49884010  0.16715662  1
  Sn  Sn37  1  0.83417213  0.83336041  0.83329359  1
  Sn  Sn38  1  0.50024647  0.16749859  0.16580822  1
  Sn  Sn39  1  0.16707107  0.50043395  0.16704532  1
  Pb  Pb40  1  0.16773205  0.16720916  0.16681783  1
  Pb  Pb41  1  0.83342173  0.49983434  0.16887939  1
  Pb  Pb42  1  0.16685317  0.83343726  0.50014051  1
  Pb  Pb43  1  0.83351330  0.16506501  0.83126832  1
  Pb  Pb44  1  0.16659046  0.49932754  0.83382130  1
  Pb  Pb45  1  0.49974008  0.16808420  0.49969838  1
  Pb  Pb46  1  0.49969619  0.82924095  0.49986192  1
  Pb  Pb47  1  0.83347382  0.83331178  0.50205433  1
  Pb  Pb48  1  0.49920812  0.83611887  0.83349430  1
  Pb  Pb49  1  0.82969823  0.16660653  0.17016568  1
  Pb  Pb50  1  0.83654539  0.83331638  0.16407307  1
  Pb  Pb51  1  0.83330748  0.50258694  0.83048263  1
  Pb  Pb52  1  0.49735547  0.83279509  0.16657135  1
  Pb  Pb53  1  0.49997523  0.49725940  0.83412898  1
  I  I54  1  0.16818409  -0.00183037  0.16561112  1
  I  I55  1  0.16211154  0.00326395  0.50081617  1
  I  I56  1  0.16672872  0.00050475  0.83323632  1
  I  I57  1  0.17032097  0.33614797  0.16915397  1
  I  I58  1  0.16642044  0.33378690  0.50017321  1
  I  I59  1  0.17146900  0.33003005  0.83105974  1
  I  I60  1  0.17201435  0.66547939  0.16730662  1
  I  I61  1  0.16654774  0.66330333  0.49921556  1
  I  I62  1  0.16281692  0.66921761  0.83319523  1
  I  I63  1  0.49867600  0.00279797  0.16262231  1
  I  I64  1  0.50064335  0.00039843  0.49974926  1
  I  I65  1  0.49818312  0.00413860  0.83776161  1
  I  I66  1  0.49236420  0.33425966  0.16774491  1
  I  I67  1  0.49935574  0.33625779  0.49880903  1
  I  I68  1  0.49277231  0.32936443  0.83321822  1
  I  I69  1  0.49805585  0.66309577  0.17243586  1
  I  I70  1  0.49943216  0.66078602  0.49428930  1
  I  I71  1  0.50000449  0.66667461  0.83189328  1
  I  I72  1  0.83303597  0.00002860  0.17022776  1
  I  I73  1  0.83866647  0.00304914  0.50172057  1
  I  I74  1  0.83592282  -0.00259614  0.83022206  1
  I  I75  1  0.83872731  0.33322485  0.16257138  1
  I  I76  1  0.83425316  0.33380758  0.50130964  1
  I  I77  1  0.83396947  0.33306124  0.83397002  1
  I  I78  1  0.82900321  0.66654987  0.16889099  1
  I  I79  1  0.83421287  0.66327987  0.50091040  1
  I  I80  1  0.84053133  0.67039120  0.83135696  1
  I  I81  1  0.17008374  0.16492576  -0.00245707  1
  I  I82  1  0.16507267  0.16760499  0.33610201  1
  I  I83  1  0.16912804  0.16626671  0.66658248  1
  I  I84  1  0.17337221  0.50195351  0.00321207  1
  I  I85  1  0.16773825  0.50029177  0.33410039  1
  I  I86  1  0.16736237  0.49946988  0.66342310  1
  I  I87  1  0.16354084  0.83348232  -0.00062497  1
  I  I88  1  0.16860250  0.83208035  0.33077364  1
  I  I89  1  0.16298022  0.83403156  0.66961173  1
  I  I90  1  0.49274084  0.17132763  -0.00012249  1
  I  I91  1  0.49889025  0.16981930  0.33104354  1
  I  I92  1  0.49875326  0.16694941  0.66853188  1
  I  I93  1  0.49308281  0.49898240  0.00365151  1
  I  I94  1  0.49812859  0.49310571  0.33329970  1
  I  I95  1  0.49902558  0.49887761  0.66357803  1
  I  I96  1  0.50198870  0.82857743  -0.00004859  1
  I  I97  1  0.49887149  0.84079748  0.33304458  1
  I  I98  1  0.49805069  0.83368497  0.66692116  1
  I  I99  1  0.83543635  0.16539386  -0.00010383  1
  I  I100  1  0.84042299  0.17117240  0.33807725  1
  I  I101  1  0.83256194  0.17079917  0.66342765  1
  I  I102  1  0.83326180  0.50099261  0.00005196  1
  I  I103  1  0.83375701  0.49662892  0.33730075  1
  I  I104  1  0.83398008  0.49542906  0.66199395  1
  I  I105  1  0.83463354  0.83479239  -0.00378778  1
  I  I106  1  0.83329066  0.83343309  0.33343882  1
  I  I107  1  0.84180697  0.83283572  0.66964848  1
  I  I108  1  0.00006366  0.16690410  0.16435329  1
  I  I109  1  0.00147269  0.17473328  0.50594421  1
  I  I110  1  0.00307831  0.16428355  0.83071076  1
  I  I111  1  0.00343705  0.50435286  0.17083019  1
  I  I112  1  0.00115917  0.49612257  0.49672455  1
  I  I113  1  0.00023824  0.49605448  0.83389724  1
  I  I114  1  0.00462111  0.82776878  0.16653742  1
  I  I115  1  0.00033312  0.82895027  0.49845046  1
  I  I116  1  0.00199308  0.83926841  0.83619007  1
  I  I117  1  0.33569547  0.16804880  0.16758466  1
  I  I118  1  0.33052853  0.17023478  0.50144515  1
  I  I119  1  0.33199416  0.16117321  0.83022877  1
  I  I120  1  0.33289892  0.49999791  0.17517839  1
  I  I121  1  0.33240872  0.49566404  0.49555309  1
  I  I122  1  0.33313113  0.50440471  0.82766962  1
  I  I123  1  0.32952144  0.83152991  0.16004268  1
  I  I124  1  0.33289438  0.83595327  0.50295568  1
  I  I125  1  0.32974988  0.83480513  0.83651402  1
  I  I126  1  0.66172440  0.17376906  0.16063097  1
  I  I127  1  0.66853929  0.17157818  0.50108995  1
  I  I128  1  0.66418227  0.16597063  0.83489780  1
  I  I129  1  0.66331947  0.49573739  0.17095784  1
  I  I130  1  0.66648370  0.49500315  0.49729245  1
  I  I131  1  0.66655747  0.50049416  0.83251050  1
  I  I132  1  0.66656537  0.83291726  0.16564924  1
  I  I133  1  0.66676007  0.83573814  0.50314626  1
  I  I134  1  0.66893500  0.83354571  0.83017875  1
