# generated using pymatgen
data_Cs27Sn14Pb13I81
_symmetry_space_group_name_H-M   'P 1'
_cell_length_a   18.97729193
_cell_length_b   18.98180371
_cell_length_c   18.96856016
_cell_angle_alpha   89.99929062
_cell_angle_beta   89.99790340
_cell_angle_gamma   90.00035631
_symmetry_Int_Tables_number   1
_chemical_formula_structural   Cs27Sn14Pb13I81
_chemical_formula_sum   'Cs27 Sn14 Pb13 I81'
_cell_volume   6832.91601083
_cell_formula_units_Z   1
loop_
 _symmetry_equiv_pos_site_id
 _symmetry_equiv_pos_as_xyz
  1  'x, y, z'
loop_
 _atom_site_type_symbol
 _atom_site_label
 _atom_site_symmetry_multiplicity
 _atom_site_fract_x
 _atom_site_fract_y
 _atom_site_fract_z
 _atom_site_occupancy
  Cs  Cs0  1  -0.00354308  -0.00018518  0.00218330  1
  Cs  Cs1  1  -0.00078924  0.00233171  0.33396656  1
  Cs  Cs2  1  -0.00091115  0.00007268  0.66444945  1
  Cs  Cs3  1  0.00055426  0.33458868  -0.00074533  1
  Cs  Cs4  1  0.00095294  0.33043628  0.33348368  1
  Cs  Cs5  1  -0.00074722  0.33254946  0.66724377  1
  Cs  Cs6  1  0.00703635  0.66433667  0.00132130  1
  Cs  Cs7  1  0.00351396  0.66748252  0.33546168  1
  Cs  Cs8  1  -0.00314205  0.66741039  0.66480189  1
  Cs  Cs9  1  0.33630381  -0.00589409  -0.00917268  1
  Cs  Cs10  1  0.33290552  0.00178725  0.33509866  1
  Cs  Cs11  1  0.33585690  0.00220863  0.67136351  1
  Cs  Cs12  1  0.33232219  0.33446022  0.00049398  1
  Cs  Cs13  1  0.33510868  0.33193353  0.33275596  1
  Cs  Cs14  1  0.33573745  0.32860555  0.66825117  1
  Cs  Cs15  1  0.32856040  0.67056692  0.00075895  1
  Cs  Cs16  1  0.33073255  0.66802034  0.33255638  1
  Cs  Cs17  1  0.33121752  0.66937618  0.66614878  1
  Cs  Cs18  1  0.66766430  -0.00370631  0.00332994  1
  Cs  Cs19  1  0.66827485  -0.00002978  0.33002402  1
  Cs  Cs20  1  0.66682420  0.00021715  0.66734634  1
  Cs  Cs21  1  0.66786165  0.33569293  0.00205286  1
  Cs  Cs22  1  0.66321482  0.33603144  0.33145453  1
  Cs  Cs23  1  0.66524889  0.33554560  0.66621511  1
  Cs  Cs24  1  0.66543247  0.66373671  -0.00074892  1
  Cs  Cs25  1  0.66489572  0.66437471  0.33351685  1
  Cs  Cs26  1  0.66984259  0.66412638  0.66625541  1
  Sn  Sn27  1  0.50051209  0.83349857  0.49987996  1
  Sn  Sn28  1  0.16619960  0.16685043  0.49954454  1
  Sn  Sn29  1  0.16812020  0.16641459  0.16670277  1
  Sn  Sn30  1  0.83283386  0.50011018  0.83434417  1
  Sn  Sn31  1  0.83326926  0.50015710  0.16627651  1
  Sn  Sn32  1  0.16683675  0.49915638  0.50034382  1
  Sn  Sn33  1  0.16674115  0.83406470  0.50005400  1
  Sn  Sn34  1  0.50028230  0.49956852  0.16559548  1
  Sn  Sn35  1  0.83291127  0.83418637  0.50039034  1
  Sn  Sn36  1  0.50021747  0.50003788  0.83395895  1
  Sn  Sn37  1  0.83320368  0.16675032  0.83265148  1
  Sn  Sn38  1  0.83336355  0.83311253  0.83296094  1
  Sn  Sn39  1  0.83339351  0.16636238  0.50066443  1
  Sn  Sn40  1  0.49869434  0.16675873  0.16639118  1
  Pb  Pb41  1  0.16662325  0.83684310  0.16869397  1
  Pb  Pb42  1  0.49998618  0.83292937  0.16837812  1
  Pb  Pb43  1  0.16448124  0.16660289  0.83335733  1
  Pb  Pb44  1  0.50046860  0.16481137  0.49845954  1
  Pb  Pb45  1  0.16706432  0.49815471  0.16864314  1
  Pb  Pb46  1  0.49737256  0.50180100  0.50002147  1
  Pb  Pb47  1  0.83327740  0.16855434  0.16700213  1
  Pb  Pb48  1  0.83469724  0.49964833  0.49999303  1
  Pb  Pb49  1  0.83339036  0.83006330  0.16699644  1
  Pb  Pb50  1  0.16376967  0.83348757  0.83083855  1
  Pb  Pb51  1  0.50253685  0.83070594  0.83106096  1
  Pb  Pb52  1  0.16670535  0.49987951  0.83087235  1
  Pb  Pb53  1  0.50295539  0.16863789  0.83623835  1
  I  I54  1  0.16995684  0.00484544  0.17345072  1
  I  I55  1  0.16395804  0.00038710  0.49486267  1
  I  I56  1  0.16637581  0.00009714  0.83258772  1
  I  I57  1  0.16665946  0.33048676  0.17500212  1
  I  I58  1  0.16067178  0.33185783  0.49629668  1
  I  I59  1  0.16277612  0.33329410  0.82849665  1
  I  I60  1  0.16641225  0.66659631  0.16928370  1
  I  I61  1  0.16554323  0.66744671  0.50123254  1
  I  I62  1  0.16416901  0.66658296  0.83079349  1
  I  I63  1  0.49676716  0.00282646  0.17054084  1
  I  I64  1  0.49689948  -0.00311238  0.49795595  1
  I  I65  1  0.50060571  -0.00007430  0.83412396  1
  I  I66  1  0.50094651  0.33410591  0.16554729  1
  I  I67  1  0.49984799  0.33341268  0.50104848  1
  I  I68  1  0.50645110  0.33657749  0.83213405  1
  I  I69  1  0.50580237  0.66318131  0.16483032  1
  I  I70  1  0.50173956  0.66966431  0.49883652  1
  I  I71  1  0.50641850  0.66291460  0.83893718  1
  I  I72  1  0.83315135  0.00014608  0.16433722  1
  I  I73  1  0.83796905  -0.00002657  0.50686069  1
  I  I74  1  0.83546041  0.00005164  0.82696873  1
  I  I75  1  0.83229173  0.33627698  0.16361325  1
  I  I76  1  0.83905395  0.33072277  0.50234271  1
  I  I77  1  0.83056713  0.33371800  0.83251028  1
  I  I78  1  0.82658395  0.66213757  0.16443109  1
  I  I79  1  0.83496365  0.66917728  0.50250911  1
  I  I80  1  0.82905118  0.66631972  0.83089265  1
  I  I81  1  0.16807130  0.17030789  0.00295319  1
  I  I82  1  0.16341302  0.16665929  0.33501316  1
  I  I83  1  0.16375637  0.16599381  0.66300146  1
  I  I84  1  0.16531037  0.49767247  0.00008054  1
  I  I85  1  0.16525993  0.50272674  0.33672348  1
  I  I86  1  0.16521095  0.49846905  0.66260759  1
  I  I87  1  0.16545279  0.83332070  -0.00015343  1
  I  I88  1  0.16264294  0.82990712  0.33773089  1
  I  I89  1  0.16877114  0.83588971  0.66200657  1
  I  I90  1  0.49494411  0.16835650  0.00417850  1
  I  I91  1  0.50157179  0.17341631  0.33060388  1
  I  I92  1  0.49752717  0.16768217  0.66687674  1
  I  I93  1  0.50602416  0.49557429  0.00058668  1
  I  I94  1  0.50423008  0.49761587  0.33055323  1
  I  I95  1  0.50551415  0.50250968  0.66902092  1
  I  I96  1  0.50240043  0.83558420  -0.00031840  1
  I  I97  1  0.50269266  0.83088612  0.33686340  1
  I  I98  1  0.49703819  0.83245062  0.66294738  1
  I  I99  1  0.83323297  0.16469743  -0.00246205  1
  I  I100  1  0.83529688  0.16285040  0.33617984  1
  I  I101  1  0.83914181  0.16801486  0.66574807  1
  I  I102  1  0.82949390  0.49883759  -0.00090003  1
  I  I103  1  0.82991134  0.49897429  0.33121848  1
  I  I104  1  0.83039560  0.50016674  0.66932509  1
  I  I105  1  0.83161698  0.83760489  -0.00310816  1
  I  I106  1  0.83461689  0.83763810  0.33712860  1
  I  I107  1  0.83412586  0.83116283  0.66553766  1
  I  I108  1  0.00183657  0.16822848  0.16947714  1
  I  I109  1  -0.00001588  0.16274644  0.49765718  1
  I  I110  1  -0.00407824  0.16973428  0.83347618  1
  I  I111  1  -0.00230869  0.49882033  0.16303253  1
  I  I112  1  0.00256092  0.50371089  0.49947279  1
  I  I113  1  -0.00367143  0.50020863  0.83661075  1
  I  I114  1  -0.00019262  0.83269749  0.16861071  1
  I  I115  1  -0.00038344  0.83372997  0.50410552  1
  I  I116  1  -0.00460323  0.83030291  0.82734713  1
  I  I117  1  0.33319196  0.17406421  0.17579688  1
  I  I118  1  0.33059201  0.16616232  0.49662769  1
  I  I119  1  0.33371103  0.16912750  0.83051144  1
  I  I120  1  0.33627735  0.49745342  0.16431169  1
  I  I121  1  0.32965249  0.49971043  0.49928012  1
  I  I122  1  0.33629806  0.49964302  0.83655086  1
  I  I123  1  0.33328613  0.82799630  0.16995305  1
  I  I124  1  0.33245978  0.83148991  0.49678588  1
  I  I125  1  0.33357615  0.83130212  0.83157649  1
  I  I126  1  0.66468220  0.16973624  0.16722856  1
  I  I127  1  0.66983302  0.16216630  0.50232230  1
  I  I128  1  0.67101004  0.16502941  0.82698665  1
  I  I129  1  0.66635454  0.49396201  0.16471625  1
  I  I130  1  0.66653919  0.50073349  0.49928196  1
  I  I131  1  0.66817837  0.50011959  0.83644253  1
  I  I132  1  0.66686438  0.83873448  0.17163654  1
  I  I133  1  0.66817689  0.83719320  0.50358811  1
  I  I134  1  0.67057863  0.83538849  0.82606215  1
