# generated using pymatgen
data_Cs27Sn13Pb14I81
_symmetry_space_group_name_H-M   'P 1'
_cell_length_a   18.97815044
_cell_length_b   18.97292558
_cell_length_c   18.97794391
_cell_angle_alpha   90.00117423
_cell_angle_beta   90.00025453
_cell_angle_gamma   89.99960273
_symmetry_Int_Tables_number   1
_chemical_formula_structural   Cs27Sn13Pb14I81
_chemical_formula_sum   'Cs27 Sn13 Pb14 I81'
_cell_volume   6833.40792126
_cell_formula_units_Z   1
loop_
 _symmetry_equiv_pos_site_id
 _symmetry_equiv_pos_as_xyz
  1  'x, y, z'
loop_
 _atom_site_type_symbol
 _atom_site_label
 _atom_site_symmetry_multiplicity
 _atom_site_fract_x
 _atom_site_fract_y
 _atom_site_fract_z
 _atom_site_occupancy
  Cs  Cs0  1  0.00034594  0.00005810  0.00149736  1
  Cs  Cs1  1  0.00129494  0.00295305  0.32975720  1
  Cs  Cs2  1  -0.00243534  -0.00249549  0.66573837  1
  Cs  Cs3  1  0.00020652  0.33259307  -0.00070695  1
  Cs  Cs4  1  -0.00180564  0.33128680  0.33273987  1
  Cs  Cs5  1  0.00201295  0.33493980  0.66851459  1
  Cs  Cs6  1  0.00124217  0.67055920  -0.00011944  1
  Cs  Cs7  1  -0.00041637  0.66540990  0.34003137  1
  Cs  Cs8  1  0.00017052  0.66762693  0.65804557  1
  Cs  Cs9  1  0.33231902  -0.00049302  -0.00099275  1
  Cs  Cs10  1  0.33339086  -0.00031270  0.33433132  1
  Cs  Cs11  1  0.34268612  0.00162795  0.66567492  1
  Cs  Cs12  1  0.33088284  0.33303465  -0.00290583  1
  Cs  Cs13  1  0.33401074  0.33142678  0.33225613  1
  Cs  Cs14  1  0.33561384  0.33469716  0.67099646  1
  Cs  Cs15  1  0.33328838  0.66765090  0.00257964  1
  Cs  Cs16  1  0.33422814  0.67011661  0.33301943  1
  Cs  Cs17  1  0.32930825  0.66274692  0.66149730  1
  Cs  Cs18  1  0.66866619  -0.00299780  -0.00207708  1
  Cs  Cs19  1  0.66412099  0.00226342  0.33429621  1
  Cs  Cs20  1  0.66151310  -0.00601682  0.66780354  1
  Cs  Cs21  1  0.66878622  0.33612097  0.00050676  1
  Cs  Cs22  1  0.66811807  0.33467199  0.33297403  1
  Cs  Cs23  1  0.66363928  0.33326789  0.66768288  1
  Cs  Cs24  1  0.66293428  0.66560893  -0.00031866  1
  Cs  Cs25  1  0.66493521  0.66174930  0.33289528  1
  Cs  Cs26  1  0.66927932  0.67131279  0.66866178  1
  Sn  Sn27  1  0.83307055  0.16597408  0.16647643  1
  Sn  Sn28  1  0.83341014  0.16709517  0.83308279  1
  Sn  Sn29  1  0.50012128  0.16668841  0.16604823  1
  Sn  Sn30  1  0.16622057  0.16672814  0.49999523  1
  Sn  Sn31  1  0.83385808  0.16677811  0.50039104  1
  Sn  Sn32  1  0.83316557  0.49978881  0.83355522  1
  Sn  Sn33  1  0.16686108  0.16665099  0.16707464  1
  Sn  Sn34  1  0.83386804  0.83363366  0.16687755  1
  Sn  Sn35  1  0.16671765  0.83360071  0.83332519  1
  Sn  Sn36  1  0.50020613  0.49978795  0.50058188  1
  Sn  Sn37  1  0.50053870  0.49995382  0.83262996  1
  Sn  Sn38  1  0.16622563  0.50000420  0.16679520  1
  Sn  Sn39  1  0.16547785  0.83336941  0.16596493  1
  Pb  Pb40  1  0.50012678  0.83016317  0.49981908  1
  Pb  Pb41  1  0.16609825  0.50208068  0.83496139  1
  Pb  Pb42  1  0.50273922  0.16831678  0.83586628  1
  Pb  Pb43  1  0.16669952  0.83633806  0.49945187  1
  Pb  Pb44  1  0.83329857  0.83603823  0.49657608  1
  Pb  Pb45  1  0.16838260  0.49713965  0.49743447  1
  Pb  Pb46  1  0.50003391  0.83588721  0.16658417  1
  Pb  Pb47  1  0.83537459  0.50016331  0.16502562  1
  Pb  Pb48  1  0.83502747  0.83315920  0.83517192  1
  Pb  Pb49  1  0.83163472  0.49756501  0.50260238  1
  Pb  Pb50  1  0.16473604  0.16476197  0.83303911  1
  Pb  Pb51  1  0.50022566  0.16814012  0.49827452  1
  Pb  Pb52  1  0.49783938  0.49795661  0.16627637  1
  Pb  Pb53  1  0.49700598  0.83023824  0.83344819  1
  I  I54  1  0.16536762  0.00103377  0.16669668  1
  I  I55  1  0.16301029  0.00423123  0.49307658  1
  I  I56  1  0.16345159  -0.00272733  0.84076391  1
  I  I57  1  0.16673523  0.33169741  0.17035347  1
  I  I58  1  0.16262465  0.32934526  0.49372170  1
  I  I59  1  0.16778014  0.33325117  0.83509065  1
  I  I60  1  0.16352187  0.66753082  0.16078121  1
  I  I61  1  0.16885869  0.66654544  0.49867081  1
  I  I62  1  0.16608115  0.66966864  0.84156420  1
  I  I63  1  0.49656121  0.00409496  0.16798839  1
  I  I64  1  0.49927109  0.00049357  0.49824431  1
  I  I65  1  0.50059258  0.00007541  0.83444508  1
  I  I66  1  0.50073112  0.33001045  0.16697567  1
  I  I67  1  0.49950299  0.33578355  0.50313386  1
  I  I68  1  0.49962472  0.33624724  0.83077359  1
  I  I69  1  0.49939861  0.66641009  0.16716069  1
  I  I70  1  0.49892842  0.66209196  0.50226015  1
  I  I71  1  0.50800744  0.66235295  0.83174256  1
  I  I72  1  0.83811807  0.00206402  0.16464016  1
  I  I73  1  0.83684099  0.00469911  0.50404452  1
  I  I74  1  0.83633108  0.00293087  0.83355230  1
  I  I75  1  0.83458424  0.32987761  0.16789544  1
  I  I76  1  0.83656536  0.32933766  0.49306895  1
  I  I77  1  0.83088814  0.33231258  0.83656920  1
  I  I78  1  0.83847368  0.66921592  0.16327771  1
  I  I79  1  0.83191219  0.66646704  0.50001953  1
  I  I80  1  0.82980843  0.66404301  0.83700889  1
  I  I81  1  0.16580599  0.16805927  0.00339481  1
  I  I82  1  0.16263165  0.16577409  0.33112560  1
  I  I83  1  0.16157861  0.16560868  0.66413409  1
  I  I84  1  0.16858942  0.49440061  0.00307850  1
  I  I85  1  0.16811943  0.50370831  0.32935282  1
  I  I86  1  0.16594017  0.50061816  0.66660389  1
  I  I87  1  0.16314559  0.83549652  0.00231329  1
  I  I88  1  0.16332170  0.83227035  0.32948341  1
  I  I89  1  0.16611060  0.83312461  0.66900440  1
  I  I90  1  0.49750715  0.16926469  0.00384247  1
  I  I91  1  0.50303391  0.16989316  0.33023634  1
  I  I92  1  0.49902183  0.16673815  0.66685051  1
  I  I93  1  0.50302133  0.49832613  -0.00250818  1
  I  I94  1  0.49765130  0.49735208  0.33504462  1
  I  I95  1  0.50270459  0.49733193  0.66741754  1
  I  I96  1  0.50108065  0.83083218  0.00014087  1
  I  I97  1  0.49783269  0.83096826  0.33283593  1
  I  I98  1  0.49861970  0.83814009  0.66691396  1
  I  I99  1  0.83375401  0.16718139  0.00118297  1
  I  I100  1  0.83460387  0.16240013  0.33199554  1
  I  I101  1  0.83952577  0.17304608  0.66672753  1
  I  I102  1  0.82744641  0.49327583  -0.00277198  1
  I  I103  1  0.83191739  0.49961397  0.33327149  1
  I  I104  1  0.83345411  0.49481360  0.67065133  1
  I  I105  1  0.83653835  0.84014050  0.00325102  1
  I  I106  1  0.84083082  0.83791091  0.32841641  1
  I  I107  1  0.83521924  0.83411746  0.66674160  1
  I  I108  1  0.00000499  0.16595697  0.16740102  1
  I  I109  1  -0.00036762  0.16732207  0.49356058  1
  I  I110  1  -0.00344470  0.17284129  0.83839075  1
  I  I111  1  0.00323242  0.49499821  0.16400144  1
  I  I112  1  -0.00000550  0.50080450  0.50068977  1
  I  I113  1  -0.00267540  0.49551913  0.83736857  1
  I  I114  1  0.00096957  0.83929755  0.16206330  1
  I  I115  1  0.00004629  0.82944510  0.50254990  1
  I  I116  1  0.00273544  0.83233388  0.83815050  1
  I  I117  1  0.33171730  0.16725704  0.17182849  1
  I  I118  1  0.33080632  0.16735467  0.49329258  1
  I  I119  1  0.33333391  0.16749162  0.83399783  1
  I  I120  1  0.32989597  0.49941621  0.16473869  1
  I  I121  1  0.33606106  0.49666208  0.50689901  1
  I  I122  1  0.33549084  0.50145271  0.83133924  1
  I  I123  1  0.32971897  0.83396983  0.16346901  1
  I  I124  1  0.33302990  0.83641953  0.49781618  1
  I  I125  1  0.32934065  0.83375120  0.84213769  1
  I  I126  1  0.66831113  0.16318594  0.16718493  1
  I  I127  1  0.66963956  0.16885334  0.49708790  1
  I  I128  1  0.67098229  0.16765218  0.83371889  1
  I  I129  1  0.66672287  0.49941424  0.16768262  1
  I  I130  1  0.66383489  0.49626088  0.49866025  1
  I  I131  1  0.66709795  0.49467474  0.83167539  1
  I  I132  1  0.66985286  0.83891470  0.16636307  1
  I  I133  1  0.66696072  0.83703205  0.49889607  1
  I  I134  1  0.66682898  0.83481781  0.83507630  1
