# generated using pymatgen
data_Cs27Sn13Pb14I81
_symmetry_space_group_name_H-M   'P 1'
_cell_length_a   18.97430950
_cell_length_b   18.98280484
_cell_length_c   18.97294269
_cell_angle_alpha   90.00034467
_cell_angle_beta   90.00072946
_cell_angle_gamma   90.00184207
_symmetry_Int_Tables_number   1
_chemical_formula_structural   Cs27Sn13Pb14I81
_chemical_formula_sum   'Cs27 Sn13 Pb14 I81'
_cell_volume   6833.78101009
_cell_formula_units_Z   1
loop_
 _symmetry_equiv_pos_site_id
 _symmetry_equiv_pos_as_xyz
  1  'x, y, z'
loop_
 _atom_site_type_symbol
 _atom_site_label
 _atom_site_symmetry_multiplicity
 _atom_site_fract_x
 _atom_site_fract_y
 _atom_site_fract_z
 _atom_site_occupancy
  Cs  Cs0  1  -0.00091460  -0.00098210  0.00098071  1
  Cs  Cs1  1  0.00223401  0.00172659  0.33176409  1
  Cs  Cs2  1  -0.00541369  -0.00603486  0.66113823  1
  Cs  Cs3  1  -0.00013826  0.33282313  0.00090878  1
  Cs  Cs4  1  0.00063071  0.33462404  0.33910480  1
  Cs  Cs5  1  -0.00130096  0.33362115  0.65448580  1
  Cs  Cs6  1  0.00209534  0.66778949  -0.00147691  1
  Cs  Cs7  1  -0.00087828  0.66354451  0.33783801  1
  Cs  Cs8  1  0.00745087  0.67240917  0.66181073  1
  Cs  Cs9  1  0.33318120  0.00289127  0.00034186  1
  Cs  Cs10  1  0.33327158  -0.00090417  0.33459212  1
  Cs  Cs11  1  0.33320038  -0.00041259  0.66565405  1
  Cs  Cs12  1  0.33289407  0.33289090  -0.00040165  1
  Cs  Cs13  1  0.33249158  0.33350964  0.33274374  1
  Cs  Cs14  1  0.33630194  0.33273786  0.66875796  1
  Cs  Cs15  1  0.33193107  0.66315695  0.00031334  1
  Cs  Cs16  1  0.33558100  0.66827708  0.33078491  1
  Cs  Cs17  1  0.32811663  0.66939288  0.66888282  1
  Cs  Cs18  1  0.66831471  0.00112828  -0.00038302  1
  Cs  Cs19  1  0.66487683  -0.00397708  0.33175108  1
  Cs  Cs20  1  0.67115979  -0.00174290  0.66838878  1
  Cs  Cs21  1  0.66692512  0.33350223  -0.00151459  1
  Cs  Cs22  1  0.66666265  0.33404688  0.33381275  1
  Cs  Cs23  1  0.66545814  0.33391968  0.66814422  1
  Cs  Cs24  1  0.66556887  0.66421415  0.00119806  1
  Cs  Cs25  1  0.66459814  0.66959791  0.33397769  1
  Cs  Cs26  1  0.66735935  0.66506905  0.66536465  1
  Sn  Sn27  1  0.50022928  0.16726428  0.50027742  1
  Sn  Sn28  1  0.16661349  0.16617226  0.16565434  1
  Sn  Sn29  1  0.50013023  0.83337155  0.83381202  1
  Sn  Sn30  1  0.83353076  0.49981984  0.83361083  1
  Sn  Sn31  1  0.16627634  0.16692692  0.83342792  1
  Sn  Sn32  1  0.49955896  0.16642321  0.83317967  1
  Sn  Sn33  1  0.49995283  0.49942419  0.50084724  1
  Sn  Sn34  1  0.50063102  0.50016273  0.83264527  1
  Sn  Sn35  1  0.83420355  0.83311050  0.16610217  1
  Sn  Sn36  1  0.83319083  0.49992739  0.16562366  1
  Sn  Sn37  1  0.49996775  0.16687711  0.16680681  1
  Sn  Sn38  1  0.83347680  0.16701098  0.16633803  1
  Sn  Sn39  1  0.16608763  0.83390105  0.16614178  1
  Pb  Pb40  1  0.17037326  0.49992599  0.50013987  1
  Pb  Pb41  1  0.83160816  0.83054007  0.83541159  1
  Pb  Pb42  1  0.16616262  0.49726528  0.83325946  1
  Pb  Pb43  1  0.49978389  0.83558360  0.16456163  1
  Pb  Pb44  1  0.16375105  0.49957628  0.16657278  1
  Pb  Pb45  1  0.50000121  0.83339412  0.50294666  1
  Pb  Pb46  1  0.83314372  0.83323344  0.49715067  1
  Pb  Pb47  1  0.83034605  0.16646988  0.49708556  1
  Pb  Pb48  1  0.16699724  0.83368511  0.49680869  1
  Pb  Pb49  1  0.50168290  0.49780037  0.16645116  1
  Pb  Pb50  1  0.16858315  0.83619550  0.83554057  1
  Pb  Pb51  1  0.83107117  0.50012500  0.50046331  1
  Pb  Pb52  1  0.16902128  0.16656725  0.50015168  1
  Pb  Pb53  1  0.83394085  0.16844514  0.83463796  1
  I  I54  1  0.16257632  0.00164873  0.16308516  1
  I  I55  1  0.17050209  0.00040196  0.50115961  1
  I  I56  1  0.17392080  0.00420924  0.83731402  1
  I  I57  1  0.16789188  0.32958838  0.16325239  1
  I  I58  1  0.16449921  0.33297016  0.49654764  1
  I  I59  1  0.17481924  0.32929699  0.84229716  1
  I  I60  1  0.16337962  0.66950167  0.16698956  1
  I  I61  1  0.16878363  0.66680866  0.49847137  1
  I  I62  1  0.16901709  0.66679603  0.83546924  1
  I  I63  1  0.50406543  0.00400290  0.16661235  1
  I  I64  1  0.49919061  0.00336393  0.49877988  1
  I  I65  1  0.49561091  0.00166321  0.83484394  1
  I  I66  1  0.49950759  0.32935270  0.16291459  1
  I  I67  1  0.50057693  0.33246633  0.50406199  1
  I  I68  1  0.50009411  0.33265541  0.83310847  1
  I  I69  1  0.50016908  0.66665665  0.16694971  1
  I  I70  1  0.50147723  0.66354271  0.50328986  1
  I  I71  1  0.50539585  0.66553809  0.82975448  1
  I  I72  1  0.83301114  0.00077552  0.16730468  1
  I  I73  1  0.82996958  0.00011974  0.50001262  1
  I  I74  1  0.83065775  0.00008762  0.83585061  1
  I  I75  1  0.83124000  0.33276242  0.16258620  1
  I  I76  1  0.83469370  0.33329082  0.49637225  1
  I  I77  1  0.82552788  0.33626490  0.84152689  1
  I  I78  1  0.83667133  0.66654766  0.16231983  1
  I  I79  1  0.82890887  0.66641020  0.49647481  1
  I  I80  1  0.82550842  0.66264096  0.84067217  1
  I  I81  1  0.17283690  0.16415490  0.00133026  1
  I  I82  1  0.16721119  0.16292293  0.32961566  1
  I  I83  1  0.17385871  0.16925004  0.66982249  1
  I  I84  1  0.17230469  0.50073645  0.00003337  1
  I  I85  1  0.16664447  0.49804313  0.33301662  1
  I  I86  1  0.16170929  0.49787736  0.66695879  1
  I  I87  1  0.16294224  0.83635658  0.00360317  1
  I  I88  1  0.16453279  0.84109010  0.32829945  1
  I  I89  1  0.16825842  0.83402213  0.66708611  1
  I  I90  1  0.49952575  0.16679334  -0.00018245  1
  I  I91  1  0.50086162  0.17131402  0.33251588  1
  I  I92  1  0.49456340  0.16814213  0.66803069  1
  I  I93  1  0.50225725  0.49874874  -0.00305096  1
  I  I94  1  0.50150950  0.49459449  0.33537148  1
  I  I95  1  0.50594020  0.49390598  0.66827261  1
  I  I96  1  0.50075297  0.83273912  -0.00311891  1
  I  I97  1  0.50024157  0.83329832  0.33293446  1
  I  I98  1  0.50013800  0.83804019  0.67084891  1
  I  I99  1  0.82813046  0.16540180  0.00361064  1
  I  I100  1  0.83435652  0.16940888  0.32801740  1
  I  I101  1  0.83356925  0.16934738  0.66669094  1
  I  I102  1  0.82585879  0.49913839  0.00068780  1
  I  I103  1  0.83240967  0.49952316  0.33007441  1
  I  I104  1  0.82849470  0.49731891  0.66990137  1
  I  I105  1  0.83550431  0.83649314  0.00388772  1
  I  I106  1  0.83441062  0.83170960  0.32800964  1
  I  I107  1  0.83155878  0.83255956  0.66715986  1
  I  I108  1  0.00015485  0.16539580  0.16064089  1
  I  I109  1  -0.00001116  0.16686706  0.50000633  1
  I  I110  1  0.00267209  0.16890931  0.84179901  1
  I  I111  1  -0.00449353  0.49559278  0.16038799  1
  I  I112  1  -0.00020065  0.50001916  0.49960974  1
  I  I113  1  -0.00317707  0.49783140  0.84141067  1
  I  I114  1  -0.00050596  0.83945705  0.16552678  1
  I  I115  1  0.00006544  0.83300683  0.50365299  1
  I  I116  1  0.00003909  0.83315678  0.83331018  1
  I  I117  1  0.33370511  0.16225138  0.16599468  1
  I  I118  1  0.33746634  0.17088429  0.49544644  1
  I  I119  1  0.33550060  0.16856457  0.83876079  1
  I  I120  1  0.33347612  0.50026900  0.16705416  1
  I  I121  1  0.33856632  0.49436668  0.50537207  1
  I  I122  1  0.33690326  0.50074731  0.82957470  1
  I  I123  1  0.33095752  0.83900888  0.16552158  1
  I  I124  1  0.33385334  0.83284047  0.49642911  1
  I  I125  1  0.33680532  0.82890380  0.83591601  1
  I  I126  1  0.66640768  0.16676449  0.16649395  1
  I  I127  1  0.66198927  0.17106842  0.50136375  1
  I  I128  1  0.66323143  0.16599201  0.83479098  1
  I  I129  1  0.66977174  0.50000217  0.16542235  1
  I  I130  1  0.66305618  0.49461765  0.50135942  1
  I  I131  1  0.66498676  0.49722432  0.83458200  1
  I  I132  1  0.66919017  0.83469278  0.16540136  1
  I  I133  1  0.66618183  0.83394032  0.49589242  1
  I  I134  1  0.66338529  0.83931272  0.83621897  1
