# generated using pymatgen
data_Cs27Sn13Pb14I81
_symmetry_space_group_name_H-M   'P 1'
_cell_length_a   18.97237477
_cell_length_b   18.97656891
_cell_length_c   18.98196436
_cell_angle_alpha   90.00130919
_cell_angle_beta   89.99876154
_cell_angle_gamma   89.99628210
_symmetry_Int_Tables_number   1
_chemical_formula_structural   Cs27Sn13Pb14I81
_chemical_formula_sum   'Cs27 Sn13 Pb14 I81'
_cell_volume   6834.08756465
_cell_formula_units_Z   1
loop_
 _symmetry_equiv_pos_site_id
 _symmetry_equiv_pos_as_xyz
  1  'x, y, z'
loop_
 _atom_site_type_symbol
 _atom_site_label
 _atom_site_symmetry_multiplicity
 _atom_site_fract_x
 _atom_site_fract_y
 _atom_site_fract_z
 _atom_site_occupancy
  Cs  Cs0  1  0.00260526  0.00258516  -0.00294253  1
  Cs  Cs1  1  -0.00007121  0.00154146  0.33306529  1
  Cs  Cs2  1  0.00087396  0.00162488  0.66997374  1
  Cs  Cs3  1  -0.00294413  0.33029926  -0.00084655  1
  Cs  Cs4  1  -0.00058973  0.33290171  0.33178071  1
  Cs  Cs5  1  -0.00026221  0.33267486  0.66825890  1
  Cs  Cs6  1  0.00257837  0.66743344  0.00007910  1
  Cs  Cs7  1  0.00522558  0.66426225  0.33236888  1
  Cs  Cs8  1  -0.00218520  0.66576182  0.66716952  1
  Cs  Cs9  1  0.33327044  0.00069173  0.00045224  1
  Cs  Cs10  1  0.33497534  0.00117165  0.33311131  1
  Cs  Cs11  1  0.33346069  -0.00104369  0.66583718  1
  Cs  Cs12  1  0.33765145  0.33337845  -0.00035522  1
  Cs  Cs13  1  0.33242131  0.33471276  0.33500500  1
  Cs  Cs14  1  0.33681723  0.33574940  0.66516118  1
  Cs  Cs15  1  0.33362760  0.66567174  0.00183687  1
  Cs  Cs16  1  0.32218018  0.65956907  0.33997005  1
  Cs  Cs17  1  0.33087816  0.66364655  0.65935882  1
  Cs  Cs18  1  0.66606652  -0.00091043  0.00094262  1
  Cs  Cs19  1  0.66469675  -0.00117326  0.33264779  1
  Cs  Cs20  1  0.66603958  -0.00177481  0.66589927  1
  Cs  Cs21  1  0.66620145  0.33367194  0.00307550  1
  Cs  Cs22  1  0.66690024  0.33382582  0.33045066  1
  Cs  Cs23  1  0.66528063  0.33503199  0.66646390  1
  Cs  Cs24  1  0.66541672  0.66818477  -0.00201897  1
  Cs  Cs25  1  0.66738079  0.66952098  0.33170861  1
  Cs  Cs26  1  0.66918393  0.66767854  0.66889081  1
  Sn  Sn27  1  0.16594559  0.16629714  0.49960101  1
  Sn  Sn28  1  0.50039398  0.83415780  0.83386128  1
  Sn  Sn29  1  0.50046869  0.16570776  0.83391090  1
  Sn  Sn30  1  0.83315273  0.83364251  0.16629171  1
  Sn  Sn31  1  0.49921966  0.16581054  0.16582182  1
  Sn  Sn32  1  0.83420447  0.50058490  0.83300396  1
  Sn  Sn33  1  0.83387003  0.16659643  0.50006540  1
  Sn  Sn34  1  0.16593099  0.50002417  0.83368623  1
  Sn  Sn35  1  0.83321505  0.50002253  0.50045160  1
  Sn  Sn36  1  0.50007275  0.83355989  0.16632195  1
  Sn  Sn37  1  0.16735622  0.16638632  0.16703078  1
  Sn  Sn38  1  0.83344228  0.83337905  0.49990181  1
  Sn  Sn39  1  0.83293046  0.83294043  0.83372778  1
  Pb  Pb40  1  0.16644292  0.49676863  0.16402320  1
  Pb  Pb41  1  0.16740589  0.83539686  0.16657543  1
  Pb  Pb42  1  0.50156731  0.83308948  0.49963924  1
  Pb  Pb43  1  0.50304490  0.50029734  0.49979571  1
  Pb  Pb44  1  0.50013917  0.16661900  0.49954886  1
  Pb  Pb45  1  0.16736465  0.83126551  0.83333520  1
  Pb  Pb46  1  0.16383135  0.49719456  0.50201252  1
  Pb  Pb47  1  0.49993769  0.50104579  0.16688362  1
  Pb  Pb48  1  0.50063425  0.50098563  0.83337764  1
  Pb  Pb49  1  0.83328172  0.50298087  0.16620202  1
  Pb  Pb50  1  0.16936228  0.16854869  0.83310423  1
  Pb  Pb51  1  0.83102396  0.16658815  0.83136210  1
  Pb  Pb52  1  0.83287010  0.16444288  0.16872101  1
  Pb  Pb53  1  0.16370458  0.83584868  0.50010032  1
  I  I54  1  0.16739637  0.00352287  0.16917067  1
  I  I55  1  0.16107269  0.00391512  0.49787123  1
  I  I56  1  0.16388408  0.00030477  0.83325850  1
  I  I57  1  0.17219581  0.32877225  0.17153691  1
  I  I58  1  0.16094386  0.32957254  0.49621449  1
  I  I59  1  0.16002679  0.33610230  0.83309518  1
  I  I60  1  0.16711205  0.66659974  0.16647987  1
  I  I61  1  0.16726301  0.66622731  0.50052456  1
  I  I62  1  0.16558436  0.66345612  0.83264903  1
  I  I63  1  0.50091860  0.00017783  0.16225783  1
  I  I64  1  0.50322416  0.00004626  0.50140017  1
  I  I65  1  0.50555096  -0.00071578  0.83675600  1
  I  I66  1  0.49686717  0.32985923  0.16253825  1
  I  I67  1  0.50301428  0.33293828  0.50142639  1
  I  I68  1  0.49981068  0.33089731  0.83679654  1
  I  I69  1  0.50762209  0.67102917  0.15994841  1
  I  I70  1  0.50103967  0.66697679  0.50108842  1
  I  I71  1  0.50301824  0.67028709  0.83853743  1
  I  I72  1  0.83198159  -0.00363251  0.16602510  1
  I  I73  1  0.83664975  -0.00042502  0.50012501  1
  I  I74  1  0.83081656  -0.00301857  0.83212774  1
  I  I75  1  0.83299846  0.33304653  0.16734886  1
  I  I76  1  0.83708523  0.33326260  0.50526184  1
  I  I77  1  0.83532922  0.33578415  0.82793267  1
  I  I78  1  0.82670674  0.67124975  0.17033762  1
  I  I79  1  0.83020761  0.66714060  0.50212805  1
  I  I80  1  0.83141833  0.66766755  0.82857334  1
  I  I81  1  0.16903663  0.16784723  0.00239748  1
  I  I82  1  0.16792863  0.16576609  0.33326961  1
  I  I83  1  0.16260365  0.16810132  0.66422616  1
  I  I84  1  0.15925483  0.49910116  -0.00368353  1
  I  I85  1  0.16602476  0.50118343  0.33358699  1
  I  I86  1  0.16510719  0.49800440  0.66964553  1
  I  I87  1  0.16018174  0.83551095  -0.00007783  1
  I  I88  1  0.16639146  0.83137106  0.33332355  1
  I  I89  1  0.16762632  0.83640302  0.66675685  1
  I  I90  1  0.49494947  0.16327736  0.00054099  1
  I  I91  1  0.49970806  0.16164244  0.33015003  1
  I  I92  1  0.50088743  0.16302771  0.66924487  1
  I  I93  1  0.50263206  0.49779947  -0.00018412  1
  I  I94  1  0.50177798  0.49848854  0.33326115  1
  I  I95  1  0.49734167  0.49795555  0.66707913  1
  I  I96  1  0.50978528  0.83839222  -0.00031703  1
  I  I97  1  0.50704515  0.84054504  0.32980056  1
  I  I98  1  0.50503781  0.83806048  0.66993127  1
  I  I99  1  0.83600561  0.16731745  0.00000440  1
  I  I100  1  0.83276789  0.16711112  0.33686669  1
  I  I101  1  0.83754401  0.16267148  0.66332238  1
  I  I102  1  0.83599052  0.50381334  -0.00348901  1
  I  I103  1  0.83220915  0.49986572  0.33641001  1
  I  I104  1  0.83657784  0.50448670  0.66702291  1
  I  I105  1  0.82878725  0.82870628  -0.00085732  1
  I  I106  1  0.82861829  0.83481796  0.33342163  1
  I  I107  1  0.82953674  0.83235104  0.66713713  1
  I  I108  1  0.00198403  0.16566472  0.16970461  1
  I  I109  1  -0.00085322  0.16619509  0.49483720  1
  I  I110  1  -0.00014938  0.16492910  0.83515432  1
  I  I111  1  -0.00025676  0.50004154  0.16795992  1
  I  I112  1  -0.00418202  0.50318036  0.50248905  1
  I  I113  1  -0.00203626  0.50447296  0.82903761  1
  I  I114  1  -0.00309918  0.83407243  0.16682550  1
  I  I115  1  -0.00514862  0.83087724  0.50039193  1
  I  I116  1  -0.00348814  0.83136005  0.83295495  1
  I  I117  1  0.33423559  0.16092952  0.16827065  1
  I  I118  1  0.33078653  0.16722149  0.49932456  1
  I  I119  1  0.33708484  0.16254035  0.83271506  1
  I  I120  1  0.33311921  0.50420082  0.16389349  1
  I  I121  1  0.33258563  0.49851526  0.50202602  1
  I  I122  1  0.33123928  0.49774006  0.83468127  1
  I  I123  1  0.33706249  0.83700273  0.15882787  1
  I  I124  1  0.33317277  0.83509437  0.50070019  1
  I  I125  1  0.33708398  0.83667655  0.83972823  1
  I  I126  1  0.66380469  0.16466128  0.16421438  1
  I  I127  1  0.66986602  0.16648231  0.50072007  1
  I  I128  1  0.66329020  0.16720358  0.83783477  1
  I  I129  1  0.66686726  0.49347901  0.16579265  1
  I  I130  1  0.67184254  0.49669940  0.50767041  1
  I  I131  1  0.66998449  0.50166234  0.82815950  1
  I  I132  1  0.66693270  0.83937507  0.16629762  1
  I  I133  1  0.67077681  0.83664616  0.50056008  1
  I  I134  1  0.66790540  0.83154380  0.83332548  1
