# generated using pymatgen
data_Cs27Sn14Pb13I81
_symmetry_space_group_name_H-M   'P 1'
_cell_length_a   18.97209505
_cell_length_b   18.98599054
_cell_length_c   18.96771111
_cell_angle_alpha   90.00014081
_cell_angle_beta   89.99751612
_cell_angle_gamma   89.99992802
_symmetry_Int_Tables_number   1
_chemical_formula_structural   Cs27Sn14Pb13I81
_chemical_formula_sum   'Cs27 Sn14 Pb13 I81'
_cell_volume   6832.24573333
_cell_formula_units_Z   1
loop_
 _symmetry_equiv_pos_site_id
 _symmetry_equiv_pos_as_xyz
  1  'x, y, z'
loop_
 _atom_site_type_symbol
 _atom_site_label
 _atom_site_symmetry_multiplicity
 _atom_site_fract_x
 _atom_site_fract_y
 _atom_site_fract_z
 _atom_site_occupancy
  Cs  Cs0  1  -0.00072015  -0.01231914  -0.00014596  1
  Cs  Cs1  1  0.00122706  0.00064337  0.33593338  1
  Cs  Cs2  1  -0.00101289  0.00079618  0.66594385  1
  Cs  Cs3  1  0.00289040  0.33798188  -0.00001220  1
  Cs  Cs4  1  -0.00152333  0.33491892  0.33326297  1
  Cs  Cs5  1  -0.00021738  0.33058436  0.66610140  1
  Cs  Cs6  1  0.00611393  0.67496349  0.00850062  1
  Cs  Cs7  1  -0.00020694  0.66371955  0.32725248  1
  Cs  Cs8  1  -0.00104304  0.66989070  0.66777769  1
  Cs  Cs9  1  0.33465546  -0.00053694  -0.00005733  1
  Cs  Cs10  1  0.33327808  0.00215435  0.33556987  1
  Cs  Cs11  1  0.33263839  0.00204904  0.66496189  1
  Cs  Cs12  1  0.33425922  0.33593162  -0.00255274  1
  Cs  Cs13  1  0.33249481  0.32949930  0.33442041  1
  Cs  Cs14  1  0.33194570  0.33147309  0.66785299  1
  Cs  Cs15  1  0.33166056  0.66516962  0.00196644  1
  Cs  Cs16  1  0.33505657  0.66811323  0.33405805  1
  Cs  Cs17  1  0.33695023  0.66569638  0.66470532  1
  Cs  Cs18  1  0.66674882  -0.00007296  0.00172222  1
  Cs  Cs19  1  0.66691585  0.00313934  0.33125149  1
  Cs  Cs20  1  0.66800175  -0.00015143  0.66726436  1
  Cs  Cs21  1  0.66428531  0.33243662  -0.00122362  1
  Cs  Cs22  1  0.67092933  0.33393496  0.33015779  1
  Cs  Cs23  1  0.66822718  0.33453264  0.66834726  1
  Cs  Cs24  1  0.66539689  0.66819865  -0.00276288  1
  Cs  Cs25  1  0.66516011  0.66088402  0.33652646  1
  Cs  Cs26  1  0.66448425  0.66396744  0.66678782  1
  Sn  Sn27  1  0.50070683  0.16701207  0.50066684  1
  Sn  Sn28  1  0.50019283  0.83252613  0.16626202  1
  Sn  Sn29  1  0.83315153  0.16605867  0.50059904  1
  Sn  Sn30  1  0.50078628  0.16648347  0.83232927  1
  Sn  Sn31  1  0.16661446  0.50007158  0.50038873  1
  Sn  Sn32  1  0.50007578  0.50054624  0.16619160  1
  Sn  Sn33  1  0.83354777  0.49969732  0.83358157  1
  Sn  Sn34  1  0.16568432  0.83307704  0.50009421  1
  Sn  Sn35  1  0.16630077  0.16658870  0.16656270  1
  Sn  Sn36  1  0.49987391  0.83356946  0.83391031  1
  Sn  Sn37  1  0.16628819  0.16675179  0.49921661  1
  Sn  Sn38  1  0.83373662  0.83373048  0.49988026  1
  Sn  Sn39  1  0.83286555  0.16737150  0.83320285  1
  Sn  Sn40  1  0.50057662  0.49982696  0.83403888  1
  Pb  Pb41  1  0.83625624  0.16662357  0.16556480  1
  Pb  Pb42  1  0.49854536  0.49698611  0.50022639  1
  Pb  Pb43  1  0.83130884  0.83335236  0.83151559  1
  Pb  Pb44  1  0.16957063  0.83322360  0.83076810  1
  Pb  Pb45  1  0.16908998  0.49797443  0.16899130  1
  Pb  Pb46  1  0.16630599  0.50020847  0.83155808  1
  Pb  Pb47  1  0.50042931  0.83546025  0.49999342  1
  Pb  Pb48  1  0.83094817  0.49992063  0.16303598  1
  Pb  Pb49  1  0.83037619  0.83334191  0.17001374  1
  Pb  Pb50  1  0.83554579  0.49980138  0.50192569  1
  Pb  Pb51  1  0.49869884  0.16687861  0.16599859  1
  Pb  Pb52  1  0.16582738  0.16652427  0.83354097  1
  Pb  Pb53  1  0.16913463  0.83548198  0.16937764  1
  I  I54  1  0.16995077  0.00303795  0.17302158  1
  I  I55  1  0.16699602  0.00118994  0.49639363  1
  I  I56  1  0.16784789  0.00010968  0.83157552  1
  I  I57  1  0.16959712  0.33031816  0.17377727  1
  I  I58  1  0.16817906  0.33167474  0.49672327  1
  I  I59  1  0.17191545  0.33314600  0.83046749  1
  I  I60  1  0.16660487  0.66679596  0.16870536  1
  I  I61  1  0.16394748  0.66727016  0.50303171  1
  I  I62  1  0.16672072  0.66671623  0.82929987  1
  I  I63  1  0.49776538  -0.00180412  0.16432425  1
  I  I64  1  0.49529362  0.00341363  0.50311444  1
  I  I65  1  0.50277847  0.00096325  0.83272316  1
  I  I66  1  0.49751772  0.33539491  0.16371932  1
  I  I67  1  0.49910983  0.32893375  0.50315334  1
  I  I68  1  0.50317701  0.33298216  0.83328181  1
  I  I69  1  0.49910702  0.66655759  0.15924387  1
  I  I70  1  0.49864639  0.66658325  0.50192468  1
  I  I71  1  0.50328149  0.66614549  0.83674316  1
  I  I72  1  0.83021166  0.00004442  0.16232124  1
  I  I73  1  0.83743973  0.00182596  0.50572262  1
  I  I74  1  0.82898073  0.00295635  0.82985928  1
  I  I75  1  0.83104100  0.33320486  0.17266093  1
  I  I76  1  0.83383350  0.33005999  0.50217505  1
  I  I77  1  0.82394351  0.33216752  0.82603909  1
  I  I78  1  0.83601485  0.66665050  0.16793160  1
  I  I79  1  0.83720722  0.66903866  0.50173960  1
  I  I80  1  0.82693881  0.66436717  0.82934445  1
  I  I81  1  0.17033824  0.16830935  0.00236040  1
  I  I82  1  0.16914802  0.16626294  0.33623976  1
  I  I83  1  0.16800366  0.16633662  0.66319938  1
  I  I84  1  0.16586403  0.49672775  0.00019111  1
  I  I85  1  0.16824849  0.50100778  0.33718440  1
  I  I86  1  0.17039967  0.49532876  0.66327504  1
  I  I87  1  0.16536274  0.83533398  0.00035578  1
  I  I88  1  0.16621407  0.83283181  0.33756692  1
  I  I89  1  0.16575128  0.83845126  0.66237809  1
  I  I90  1  0.50243209  0.16655871  -0.00330041  1
  I  I91  1  0.50053437  0.16563955  0.33592257  1
  I  I92  1  0.49734109  0.16617344  0.66698762  1
  I  I93  1  0.50292361  0.49768319  -0.00142595  1
  I  I94  1  0.49629795  0.50423332  0.33129486  1
  I  I95  1  0.50207265  0.50276371  0.66971345  1
  I  I96  1  0.50041312  0.83581889  -0.00100155  1
  I  I97  1  0.49884125  0.83026914  0.33135246  1
  I  I98  1  0.49953277  0.83101453  0.66908600  1
  I  I99  1  0.82712052  0.17140923  -0.00387559  1
  I  I100  1  0.83030311  0.16251365  0.33669104  1
  I  I101  1  0.83411424  0.16659691  0.66572197  1
  I  I102  1  0.83111867  0.49121658  -0.00506763  1
  I  I103  1  0.83235886  0.49971192  0.33344330  1
  I  I104  1  0.82490137  0.49829239  0.66961724  1
  I  I105  1  0.83421497  0.83430124  -0.00017717  1
  I  I106  1  0.83574225  0.84108176  0.33805348  1
  I  I107  1  0.83508790  0.83609112  0.66351102  1
  I  I108  1  0.00389082  0.16751794  0.17382575  1
  I  I109  1  0.00000765  0.16575670  0.50058927  1
  I  I110  1  -0.00349091  0.17285975  0.82824256  1
  I  I111  1  0.00027482  0.49861934  0.16596518  1
  I  I112  1  0.00331985  0.49458214  0.50247098  1
  I  I113  1  -0.00318045  0.49161407  0.82799681  1
  I  I114  1  0.00021316  0.83444383  0.16468178  1
  I  I115  1  0.00038607  0.83975011  0.50177468  1
  I  I116  1  -0.00026608  0.83393716  0.83353770  1
  I  I117  1  0.33111867  0.16605384  0.17379986  1
  I  I118  1  0.33305987  0.16618139  0.50004031  1
  I  I119  1  0.33644037  0.16748620  0.82963852  1
  I  I120  1  0.33697875  0.50284245  0.15947082  1
  I  I121  1  0.33066301  0.49982362  0.50178269  1
  I  I122  1  0.33690716  0.49841170  0.83551018  1
  I  I123  1  0.33692311  0.83044096  0.16459731  1
  I  I124  1  0.33127008  0.83557020  0.50017153  1
  I  I125  1  0.33812552  0.83424329  0.83430859  1
  I  I126  1  0.66659706  0.16672946  0.17082537  1
  I  I127  1  0.66697875  0.16108603  0.50464342  1
  I  I128  1  0.66552299  0.16743785  0.82511633  1
  I  I129  1  0.66253120  0.50171475  0.16842148  1
  I  I130  1  0.66660426  0.50082443  0.49783571  1
  I  I131  1  0.66510456  0.49853659  0.83521135  1
  I  I132  1  0.66235392  0.83222899  0.16431510  1
  I  I133  1  0.66890914  0.83909331  0.50043265  1
  I  I134  1  0.66299332  0.83382298  0.83343366  1
