# generated using pymatgen
data_Cs27Sn13Pb14I81
_symmetry_space_group_name_H-M   'P 1'
_cell_length_a   18.99388554
_cell_length_b   18.99074547
_cell_length_c   18.99056070
_cell_angle_alpha   90.00178995
_cell_angle_beta   89.99939120
_cell_angle_gamma   89.99922663
_symmetry_Int_Tables_number   1
_chemical_formula_structural   Cs27Sn13Pb14I81
_chemical_formula_sum   'Cs27 Sn13 Pb14 I81'
_cell_volume   6850.04803273
_cell_formula_units_Z   1
loop_
 _symmetry_equiv_pos_site_id
 _symmetry_equiv_pos_as_xyz
  1  'x, y, z'
loop_
 _atom_site_type_symbol
 _atom_site_label
 _atom_site_symmetry_multiplicity
 _atom_site_fract_x
 _atom_site_fract_y
 _atom_site_fract_z
 _atom_site_occupancy
  Cs  Cs0  1  -0.00059406  -0.00099529  -0.00143116  1
  Cs  Cs1  1  -0.00343231  -0.00045929  0.33756611  1
  Cs  Cs2  1  -0.00106995  -0.00098099  0.66689272  1
  Cs  Cs3  1  -0.00143467  0.33442274  -0.00230541  1
  Cs  Cs4  1  -0.00723608  0.34045398  0.33296644  1
  Cs  Cs5  1  0.00066179  0.33242469  0.67147524  1
  Cs  Cs6  1  0.00085185  0.66677001  0.00138042  1
  Cs  Cs7  1  0.00889073  0.65755730  0.33964289  1
  Cs  Cs8  1  0.00109032  0.66763605  0.66168136  1
  Cs  Cs9  1  0.33307388  0.00040678  0.00078638  1
  Cs  Cs10  1  0.33391660  0.00201332  0.33063215  1
  Cs  Cs11  1  0.33266982  -0.00010936  0.66653104  1
  Cs  Cs12  1  0.33438816  0.33122030  -0.00002727  1
  Cs  Cs13  1  0.33307742  0.33133686  0.33341915  1
  Cs  Cs14  1  0.33311701  0.33183971  0.66651245  1
  Cs  Cs15  1  0.33346984  0.67146270  0.00037854  1
  Cs  Cs16  1  0.32439914  0.66433857  0.33774592  1
  Cs  Cs17  1  0.34147662  0.67259264  0.65978124  1
  Cs  Cs18  1  0.66757858  -0.00089556  0.00163131  1
  Cs  Cs19  1  0.66852749  0.00022190  0.33187775  1
  Cs  Cs20  1  0.66838616  -0.00113859  0.66425657  1
  Cs  Cs21  1  0.66674625  0.33408211  -0.00026231  1
  Cs  Cs22  1  0.67346736  0.33468533  0.33160359  1
  Cs  Cs23  1  0.66562343  0.33543650  0.66811919  1
  Cs  Cs24  1  0.66569065  0.66892006  -0.00125198  1
  Cs  Cs25  1  0.66726255  0.66714591  0.33878988  1
  Cs  Cs26  1  0.65822776  0.66671866  0.66027737  1
  Sn  Sn27  1  0.50060921  0.83302038  0.16668595  1
  Sn  Sn28  1  0.49985065  0.50018361  0.16652361  1
  Sn  Sn29  1  0.16637617  0.16671975  0.16686415  1
  Sn  Sn30  1  0.16694036  0.16699233  0.49966751  1
  Sn  Sn31  1  0.49963262  0.16678204  0.49963606  1
  Sn  Sn32  1  0.49973202  0.16687060  0.16683664  1
  Sn  Sn33  1  0.83370493  0.50080749  0.83361872  1
  Sn  Sn34  1  0.83318843  0.16646214  0.83381879  1
  Sn  Sn35  1  0.16705366  0.49989267  0.83343515  1
  Sn  Sn36  1  0.49997730  0.16647103  0.83332754  1
  Sn  Sn37  1  0.83324902  0.83274727  0.83404370  1
  Sn  Sn38  1  0.16681254  0.16716815  0.83363706  1
  Sn  Sn39  1  0.83328301  0.83287106  0.16633155  1
  Pb  Pb40  1  0.83337781  0.83324405  0.49962296  1
  Pb  Pb41  1  0.83132873  0.50322693  0.16442383  1
  Pb  Pb42  1  0.49984185  0.49690285  0.49678978  1
  Pb  Pb43  1  0.16618451  0.83550364  0.16663522  1
  Pb  Pb44  1  0.16679211  0.83626448  0.50006174  1
  Pb  Pb45  1  0.16699877  0.49680291  0.50343880  1
  Pb  Pb46  1  0.83337676  0.16685929  0.50280827  1
  Pb  Pb47  1  0.83350645  0.16532870  0.16464192  1
  Pb  Pb48  1  0.50208410  0.83593896  0.83510330  1
  Pb  Pb49  1  0.49993811  0.83623670  0.49634254  1
  Pb  Pb50  1  0.16458224  0.83308316  0.83328549  1
  Pb  Pb51  1  0.16881281  0.49724105  0.16406697  1
  Pb  Pb52  1  0.49940651  0.49844399  0.83486055  1
  Pb  Pb53  1  0.83323648  0.49989492  0.50341985  1
  I  I54  1  0.17318645  0.00433121  0.16277270  1
  I  I55  1  0.17075996  0.00511382  0.50368503  1
  I  I56  1  0.16666415  0.00399978  0.83329541  1
  I  I57  1  0.17294187  0.32881904  0.16732292  1
  I  I58  1  0.17235679  0.32873659  0.49853828  1
  I  I59  1  0.16129637  0.33077618  0.83357556  1
  I  I60  1  0.16843334  0.66640019  0.16400949  1
  I  I61  1  0.16542186  0.66604396  0.50080836  1
  I  I62  1  0.16071444  0.66349083  0.83611731  1
  I  I63  1  0.50008362  0.00163150  0.16620704  1
  I  I64  1  0.49591405  0.00446744  0.50005554  1
  I  I65  1  0.49828375  0.00481460  0.83568490  1
  I  I66  1  0.49471609  0.33131658  0.16566008  1
  I  I67  1  0.49542364  0.32863077  0.49995633  1
  I  I68  1  0.50425824  0.32933955  0.83628868  1
  I  I69  1  0.50689421  0.66710410  0.16254341  1
  I  I70  1  0.50117563  0.66669446  0.50070369  1
  I  I71  1  0.49991480  0.66682442  0.83618748  1
  I  I72  1  0.82716253  -0.00233752  0.15898816  1
  I  I73  1  0.83394717  0.00033493  0.50336728  1
  I  I74  1  0.83287321  0.00087160  0.83709605  1
  I  I75  1  0.83220608  0.33347958  0.16532860  1
  I  I76  1  0.83231520  0.33296691  0.49941579  1
  I  I77  1  0.83443852  0.33239789  0.83254729  1
  I  I78  1  0.82644620  0.67087306  0.15834807  1
  I  I79  1  0.83269901  0.66668529  0.50189179  1
  I  I80  1  0.83955129  0.66666082  0.83991206  1
  I  I81  1  0.17012193  0.16938837  -0.00076160  1
  I  I82  1  0.17697258  0.16344702  0.33291239  1
  I  I83  1  0.16942424  0.17030913  0.66787314  1
  I  I84  1  0.16226361  0.49174196  -0.00349516  1
  I  I85  1  0.16743652  0.49954581  0.33333616  1
  I  I86  1  0.16139792  0.49194919  0.67127796  1
  I  I87  1  0.16888345  0.83770020  -0.00002031  1
  I  I88  1  0.16427345  0.83523899  0.33308520  1
  I  I89  1  0.16385286  0.83647745  0.66696783  1
  I  I90  1  0.49751123  0.16660448  0.00035921  1
  I  I91  1  0.49166252  0.16569687  0.33211463  1
  I  I92  1  0.49766305  0.16729118  0.66757579  1
  I  I93  1  0.50069351  0.49522814  0.00272697  1
  I  I94  1  0.50065918  0.49774724  0.32876500  1
  I  I95  1  0.50133032  0.49804282  0.66669276  1
  I  I96  1  0.50148847  0.83740872  0.00320158  1
  I  I97  1  0.50815687  0.83706590  0.32839238  1
  I  I98  1  0.50154250  0.83430539  0.66644678  1
  I  I99  1  0.83312335  0.16827889  -0.00387580  1
  I  I100  1  0.83346174  0.16346754  0.33322893  1
  I  I101  1  0.83317387  0.16421107  0.67159037  1
  I  I102  1  0.83650534  0.49547853  -0.00362442  1
  I  I103  1  0.83213784  0.50051803  0.33294300  1
  I  I104  1  0.83645033  0.49946216  0.67209947  1
  I  I105  1  0.82884517  0.83535898  -0.00085902  1
  I  I106  1  0.82674553  0.83805512  0.32975543  1
  I  I107  1  0.83553280  0.83585083  0.67023310  1
  I  I108  1  0.00271515  0.16379616  0.16528349  1
  I  I109  1  0.00316503  0.16564882  0.50051650  1
  I  I110  1  0.00028065  0.16695003  0.83345845  1
  I  I111  1  0.00002975  0.49951278  0.16748911  1
  I  I112  1  0.00026851  0.49742459  0.49593873  1
  I  I113  1  -0.00035756  0.49240461  0.83458538  1
  I  I114  1  -0.00321484  0.83787469  0.15989275  1
  I  I115  1  -0.00008693  0.83747192  0.49862672  1
  I  I116  1  -0.00376453  0.84037130  0.84086762  1
  I  I117  1  0.33469926  0.16452149  0.16204069  1
  I  I118  1  0.33360041  0.16650913  0.50444160  1
  I  I119  1  0.33309723  0.17168984  0.83390771  1
  I  I120  1  0.33669041  0.50318975  0.16322316  1
  I  I121  1  0.33342293  0.50163425  0.50294569  1
  I  I122  1  0.33069318  0.49082116  0.83588487  1
  I  I123  1  0.33642012  0.83422161  0.16642726  1
  I  I124  1  0.33369871  0.83185254  0.49981059  1
  I  I125  1  0.33353261  0.83391787  0.83514229  1
  I  I126  1  0.66331822  0.16775257  0.16622144  1
  I  I127  1  0.66349750  0.16577209  0.49927116  1
  I  I128  1  0.66655166  0.16676170  0.83434284  1
  I  I129  1  0.66352598  0.49156518  0.16335410  1
  I  I130  1  0.66633320  0.49708554  0.50263260  1
  I  I131  1  0.66919800  0.49708627  0.83593308  1
  I  I132  1  0.66590707  0.83771367  0.16096040  1
  I  I133  1  0.66647127  0.83694099  0.50281008  1
  I  I134  1  0.67021484  0.83410475  0.83614540  1
