# generated using pymatgen
data_Cs27Sn13Pb14I81
_symmetry_space_group_name_H-M   'P 1'
_cell_length_a   18.97716247
_cell_length_b   18.98192448
_cell_length_c   18.97107786
_cell_angle_alpha   89.99922678
_cell_angle_beta   90.00184762
_cell_angle_gamma   89.99857876
_symmetry_Int_Tables_number   1
_chemical_formula_structural   Cs27Sn13Pb14I81
_chemical_formula_sum   'Cs27 Sn13 Pb14 I81'
_cell_volume   6833.81980569
_cell_formula_units_Z   1
loop_
 _symmetry_equiv_pos_site_id
 _symmetry_equiv_pos_as_xyz
  1  'x, y, z'
loop_
 _atom_site_type_symbol
 _atom_site_label
 _atom_site_symmetry_multiplicity
 _atom_site_fract_x
 _atom_site_fract_y
 _atom_site_fract_z
 _atom_site_occupancy
  Cs  Cs0  1  -0.00027983  0.00190416  -0.00140422  1
  Cs  Cs1  1  -0.00156232  0.00040050  0.33453230  1
  Cs  Cs2  1  -0.00172028  -0.00283894  0.67042161  1
  Cs  Cs3  1  0.00246100  0.32824875  0.00065018  1
  Cs  Cs4  1  -0.00258448  0.33461844  0.33610373  1
  Cs  Cs5  1  0.00192310  0.33548464  0.66509627  1
  Cs  Cs6  1  -0.00028097  0.66869551  0.00129220  1
  Cs  Cs7  1  0.01077963  0.66437590  0.33768152  1
  Cs  Cs8  1  -0.00854166  0.66582057  0.66116766  1
  Cs  Cs9  1  0.33304167  0.00044929  -0.00083089  1
  Cs  Cs10  1  0.33468053  -0.00219392  0.33591177  1
  Cs  Cs11  1  0.33417664  0.00166822  0.66707602  1
  Cs  Cs12  1  0.33396926  0.33214548  -0.00177380  1
  Cs  Cs13  1  0.33377282  0.33447382  0.33335582  1
  Cs  Cs14  1  0.33313583  0.33117706  0.67023580  1
  Cs  Cs15  1  0.33422209  0.66731774  0.00113258  1
  Cs  Cs16  1  0.32709633  0.66680387  0.33436431  1
  Cs  Cs17  1  0.33381799  0.66696978  0.66661587  1
  Cs  Cs18  1  0.66652782  -0.00109818  0.00165635  1
  Cs  Cs19  1  0.66635246  0.00315030  0.33689339  1
  Cs  Cs20  1  0.66698342  -0.00207210  0.65948349  1
  Cs  Cs21  1  0.66540377  0.33505498  0.00150112  1
  Cs  Cs22  1  0.66753357  0.33062362  0.33220973  1
  Cs  Cs23  1  0.66780784  0.33746722  0.66444867  1
  Cs  Cs24  1  0.66591505  0.66688719  -0.00111622  1
  Cs  Cs25  1  0.66416477  0.66634494  0.32987206  1
  Cs  Cs26  1  0.67635777  0.66564357  0.66871875  1
  Sn  Sn27  1  0.83312356  0.50121933  0.16629261  1
  Sn  Sn28  1  0.49992689  0.50029503  0.49932918  1
  Sn  Sn29  1  0.83135264  0.16680503  0.83339767  1
  Sn  Sn30  1  0.50165974  0.16579793  0.83387767  1
  Sn  Sn31  1  0.16657790  0.50171103  0.83366018  1
  Sn  Sn32  1  0.16704632  0.16639785  0.49871553  1
  Sn  Sn33  1  0.49904833  0.16636476  0.16602110  1
  Sn  Sn34  1  0.16725914  0.83164538  0.83360087  1
  Sn  Sn35  1  0.83283186  0.83220502  0.16660119  1
  Sn  Sn36  1  0.49945171  0.83410109  0.83382237  1
  Sn  Sn37  1  0.16763460  0.16658354  0.16809929  1
  Sn  Sn38  1  0.50035393  0.50016938  0.16763653  1
  Sn  Sn39  1  0.50061018  0.83349596  0.16604433  1
  Pb  Pb40  1  0.83596024  0.16674103  0.50324221  1
  Pb  Pb41  1  0.83276785  0.16657230  0.16560724  1
  Pb  Pb42  1  0.49872565  0.16835823  0.50010543  1
  Pb  Pb43  1  0.50006747  0.83064419  0.50012431  1
  Pb  Pb44  1  0.83084887  0.50001628  0.49663166  1
  Pb  Pb45  1  0.16698670  0.83571056  0.16509031  1
  Pb  Pb46  1  0.16887085  0.49821436  0.50262097  1
  Pb  Pb47  1  0.16729383  0.16616224  0.83348027  1
  Pb  Pb48  1  0.83598549  0.49780607  0.83600834  1
  Pb  Pb49  1  0.16690516  0.83571137  0.50333799  1
  Pb  Pb50  1  0.16699614  0.49789600  0.16512247  1
  Pb  Pb51  1  0.83317730  0.83320009  0.49586684  1
  Pb  Pb52  1  0.49906798  0.50038819  0.83380080  1
  Pb  Pb53  1  0.83256205  0.83497462  0.83517789  1
  I  I54  1  0.17006864  0.00364383  0.16591308  1
  I  I55  1  0.16897522  0.00365900  0.49754940  1
  I  I56  1  0.16799096  -0.00200961  0.83404762  1
  I  I57  1  0.17043493  0.32997008  0.16490988  1
  I  I58  1  0.16792856  0.33039859  0.49941616  1
  I  I59  1  0.16740325  0.33449482  0.83399239  1
  I  I60  1  0.16819363  0.66679168  0.16574119  1
  I  I61  1  0.16756630  0.66657031  0.49920746  1
  I  I62  1  0.17431937  0.66740886  0.83610282  1
  I  I63  1  0.49972888  0.00019019  0.16077948  1
  I  I64  1  0.49854695  0.00002286  0.49832105  1
  I  I65  1  0.49639460  0.00028846  0.84164859  1
  I  I66  1  0.49992791  0.33296224  0.16576157  1
  I  I67  1  0.49828773  0.33603430  0.49598980  1
  I  I68  1  0.49982046  0.33074779  0.83695986  1
  I  I69  1  0.50526177  0.66686898  0.16525874  1
  I  I70  1  0.49819837  0.66297732  0.49529299  1
  I  I71  1  0.49586872  0.66946159  0.83725140  1
  I  I72  1  0.83083895  -0.00220971  0.16360066  1
  I  I73  1  0.83296110  0.00023082  0.49802158  1
  I  I74  1  0.83634080  0.00277150  0.83771172  1
  I  I75  1  0.82996498  0.33538373  0.16441470  1
  I  I76  1  0.83368504  0.33335277  0.49803403  1
  I  I77  1  0.82956245  0.33003285  0.83708725  1
  I  I78  1  0.82383655  0.66665690  0.16399560  1
  I  I79  1  0.83329326  0.66641116  0.50553801  1
  I  I80  1  0.83204601  0.66671073  0.83305166  1
  I  I81  1  0.16800850  0.16726445  0.00199115  1
  I  I82  1  0.17253908  0.16763537  0.33180470  1
  I  I83  1  0.16686563  0.16756089  0.66524900  1
  I  I84  1  0.16973419  0.49905905  -0.00260271  1
  I  I85  1  0.16500224  0.49936662  0.33315296  1
  I  I86  1  0.16994150  0.49891157  0.67041385  1
  I  I87  1  0.16888074  0.83371394  -0.00292017  1
  I  I88  1  0.16648093  0.83324839  0.33315456  1
  I  I89  1  0.17374493  0.83365619  0.67159319  1
  I  I90  1  0.49690476  0.16855679  0.00080882  1
  I  I91  1  0.49767787  0.16466432  0.32989399  1
  I  I92  1  0.50003725  0.16420810  0.66990191  1
  I  I93  1  0.50206599  0.49901689  0.00319545  1
  I  I94  1  0.50326294  0.49840705  0.33080541  1
  I  I95  1  0.49495156  0.49760009  0.66519772  1
  I  I96  1  0.49947172  0.83269268  0.00071711  1
  I  I97  1  0.50468141  0.83698295  0.32949824  1
  I  I98  1  0.49430880  0.83812014  0.67024440  1
  I  I99  1  0.83554780  0.16675238  -0.00219663  1
  I  I100  1  0.83242326  0.16656408  0.33321199  1
  I  I101  1  0.82942960  0.16603101  0.67130480  1
  I  I102  1  0.82507881  0.50255533  0.00364105  1
  I  I103  1  0.83283265  0.50137277  0.32851613  1
  I  I104  1  0.83276722  0.49811172  0.66680023  1
  I  I105  1  0.83123163  0.83077811  0.00311870  1
  I  I106  1  0.82600851  0.83264449  0.32764679  1
  I  I107  1  0.83375768  0.83533029  0.66695926  1
  I  I108  1  0.00202717  0.16700937  0.16605513  1
  I  I109  1  0.00389099  0.16810188  0.49479518  1
  I  I110  1  -0.00126650  0.16708391  0.83480809  1
  I  I111  1  -0.00226259  0.50208706  0.16237585  1
  I  I112  1  0.00009738  0.49841806  0.50001764  1
  I  I113  1  0.00371033  0.50180471  0.83524155  1
  I  I114  1  -0.00221013  0.83132725  0.16386713  1
  I  I115  1  0.00018101  0.83386863  0.50066973  1
  I  I116  1  0.00209175  0.83404920  0.83557547  1
  I  I117  1  0.33503918  0.16757105  0.16306420  1
  I  I118  1  0.33092117  0.16830734  0.50151969  1
  I  I119  1  0.33605111  0.16633326  0.83508463  1
  I  I120  1  0.33667716  0.50152695  0.16836192  1
  I  I121  1  0.33639686  0.49929071  0.49217794  1
  I  I122  1  0.33125739  0.49715076  0.83583293  1
  I  I123  1  0.33673216  0.83135279  0.16387076  1
  I  I124  1  0.33350541  0.83299799  0.49575730  1
  I  I125  1  0.33458737  0.83622714  0.83949125  1
  I  I126  1  0.66326985  0.16729092  0.16328011  1
  I  I127  1  0.66654903  0.16783052  0.49823873  1
  I  I128  1  0.66448114  0.16253950  0.84087878  1
  I  I129  1  0.66497137  0.49784144  0.16911960  1
  I  I130  1  0.66288401  0.49785138  0.50081087  1
  I  I131  1  0.66671259  0.50094221  0.83126346  1
  I  I132  1  0.66474377  0.83388801  0.16022137  1
  I  I133  1  0.66634321  0.83424106  0.50576947  1
  I  I134  1  0.66328905  0.83572990  0.83653930  1
