# generated using pymatgen
data_Cs27Sn14Pb13I81
_symmetry_space_group_name_H-M   'P 1'
_cell_length_a   18.98314017
_cell_length_b   18.96592646
_cell_length_c   18.97827185
_cell_angle_alpha   90.00193697
_cell_angle_beta   90.00008970
_cell_angle_gamma   90.00066527
_symmetry_Int_Tables_number   1
_chemical_formula_structural   Cs27Sn14Pb13I81
_chemical_formula_sum   'Cs27 Sn14 Pb13 I81'
_cell_volume   6832.80111485
_cell_formula_units_Z   1
loop_
 _symmetry_equiv_pos_site_id
 _symmetry_equiv_pos_as_xyz
  1  'x, y, z'
loop_
 _atom_site_type_symbol
 _atom_site_label
 _atom_site_symmetry_multiplicity
 _atom_site_fract_x
 _atom_site_fract_y
 _atom_site_fract_z
 _atom_site_occupancy
  Cs  Cs0  1  0.00233448  -0.00030397  0.00149603  1
  Cs  Cs1  1  -0.00525996  0.00620818  0.33179954  1
  Cs  Cs2  1  -0.00326694  -0.00602267  0.66586849  1
  Cs  Cs3  1  0.00038203  0.33313010  0.00056299  1
  Cs  Cs4  1  -0.00235819  0.32896093  0.33153149  1
  Cs  Cs5  1  0.00067818  0.33401015  0.66758268  1
  Cs  Cs6  1  -0.00056385  0.66711176  0.00065666  1
  Cs  Cs7  1  0.00311256  0.66595382  0.33149408  1
  Cs  Cs8  1  0.00296247  0.67177136  0.66561796  1
  Cs  Cs9  1  0.33554769  -0.00048358  -0.00086170  1
  Cs  Cs10  1  0.33567590  0.00197245  0.33098723  1
  Cs  Cs11  1  0.33401210  -0.00186459  0.66982347  1
  Cs  Cs12  1  0.33294397  0.33290583  -0.00114604  1
  Cs  Cs13  1  0.33309385  0.33304200  0.33507843  1
  Cs  Cs14  1  0.33392341  0.33374372  0.66603949  1
  Cs  Cs15  1  0.33200418  0.66601098  0.00235494  1
  Cs  Cs16  1  0.33301321  0.66768268  0.33402633  1
  Cs  Cs17  1  0.32651600  0.66794815  0.66138845  1
  Cs  Cs18  1  0.65924832  -0.00564902  -0.00536987  1
  Cs  Cs19  1  0.66735173  -0.00169921  0.33809341  1
  Cs  Cs20  1  0.66985561  -0.00660424  0.66687238  1
  Cs  Cs21  1  0.66705812  0.33567105  -0.00195378  1
  Cs  Cs22  1  0.66799626  0.33411209  0.33480783  1
  Cs  Cs23  1  0.66572400  0.33332077  0.66728015  1
  Cs  Cs24  1  0.66815180  0.66524144  0.00260994  1
  Cs  Cs25  1  0.66354292  0.66624699  0.33085449  1
  Cs  Cs26  1  0.66933391  0.66672759  0.66590703  1
  Sn  Sn27  1  0.49926541  0.16745167  0.49964647  1
  Sn  Sn28  1  0.16563200  0.16749456  0.83214584  1
  Sn  Sn29  1  0.16723413  0.16691780  0.50126875  1
  Sn  Sn30  1  0.83415421  0.16728776  0.83358354  1
  Sn  Sn31  1  0.83304490  0.49969649  0.50062082  1
  Sn  Sn32  1  0.49895641  0.49873679  0.16674361  1
  Sn  Sn33  1  0.50079770  0.49925591  0.50007932  1
  Sn  Sn34  1  0.16567463  0.83285252  0.16674232  1
  Sn  Sn35  1  0.16652720  0.49922137  0.83405747  1
  Sn  Sn36  1  0.83405726  0.83339657  0.16663792  1
  Sn  Sn37  1  0.16727740  0.50022779  0.16610921  1
  Sn  Sn38  1  0.50039593  0.16794025  0.16735916  1
  Sn  Sn39  1  0.83380182  0.49928016  0.83227861  1
  Sn  Sn40  1  0.49961314  0.49973616  0.83299424  1
  Pb  Pb41  1  0.49961272  0.83306899  0.16678468  1
  Pb  Pb42  1  0.49992798  0.16819255  0.83263968  1
  Pb  Pb43  1  0.82973444  0.16435324  0.16354944  1
  Pb  Pb44  1  0.16667391  0.83740263  0.49676688  1
  Pb  Pb45  1  0.83351868  0.83279278  0.83531888  1
  Pb  Pb46  1  0.49977242  0.83331088  0.50009901  1
  Pb  Pb47  1  0.16656418  0.49841113  0.49976541  1
  Pb  Pb48  1  0.49967864  0.82893477  0.83304302  1
  Pb  Pb49  1  0.83281307  0.16856827  0.50233208  1
  Pb  Pb50  1  0.16826987  0.16717530  0.16620928  1
  Pb  Pb51  1  0.83345996  0.50075628  0.16656786  1
  Pb  Pb52  1  0.16671505  0.83340086  0.83534640  1
  Pb  Pb53  1  0.83348463  0.82989015  0.49726188  1
  I  I54  1  0.16474839  -0.00184794  0.16713682  1
  I  I55  1  0.17328835  0.00531304  0.50579478  1
  I  I56  1  0.16209523  0.00356177  0.83093808  1
  I  I57  1  0.16970232  0.33619944  0.16481870  1
  I  I58  1  0.16879497  0.33068261  0.49879359  1
  I  I59  1  0.16615705  0.33452907  0.83653471  1
  I  I60  1  0.16865080  0.66469261  0.16115012  1
  I  I61  1  0.16693986  0.66646719  0.50216910  1
  I  I62  1  0.16686109  0.66289343  0.83558272  1
  I  I63  1  0.49980929  0.00291358  0.17102265  1
  I  I64  1  0.49580016  0.00384431  0.49335297  1
  I  I65  1  0.50040877  0.00033410  0.83493707  1
  I  I66  1  0.49405991  0.33512624  0.16723499  1
  I  I67  1  0.49971581  0.33442275  0.49843097  1
  I  I68  1  0.50003109  0.33680122  0.83437235  1
  I  I69  1  0.49956157  0.66298238  0.16623050  1
  I  I70  1  0.50428181  0.66241718  0.49890282  1
  I  I71  1  0.50114616  0.66021399  0.83589317  1
  I  I72  1  0.84041576  -0.00305488  0.16548543  1
  I  I73  1  0.83266382  0.00016897  0.50099471  1
  I  I74  1  0.83772209  0.00288876  0.83517435  1
  I  I75  1  0.83572879  0.33322437  0.16814200  1
  I  I76  1  0.83108899  0.33665217  0.49992804  1
  I  I77  1  0.83399491  0.33501544  0.83111611  1
  I  I78  1  0.83268003  0.66853042  0.16484055  1
  I  I79  1  0.82709376  0.66175788  0.50745537  1
  I  I80  1  0.83265467  0.66267086  0.83099412  1
  I  I81  1  0.16459250  0.16801640  -0.00268392  1
  I  I82  1  0.16997438  0.16687580  0.33515303  1
  I  I83  1  0.16953611  0.17458254  0.66763467  1
  I  I84  1  0.16947575  0.49835470  -0.00047804  1
  I  I85  1  0.16975432  0.50263097  0.33067732  1
  I  I86  1  0.16925437  0.49690956  0.66945000  1
  I  I87  1  0.16362163  0.83301964  0.00332273  1
  I  I88  1  0.16419704  0.82515920  0.32901838  1
  I  I89  1  0.16720036  0.83005595  0.66653812  1
  I  I90  1  0.49978263  0.17027215  0.00191769  1
  I  I91  1  0.49359399  0.17448999  0.33373607  1
  I  I92  1  0.49831246  0.17256638  0.66396657  1
  I  I93  1  0.49981928  0.49613852  0.00026562  1
  I  I94  1  0.50056154  0.49683337  0.33312238  1
  I  I95  1  0.50130924  0.49508298  0.66651783  1
  I  I96  1  0.50046272  0.83622301  0.00032093  1
  I  I97  1  0.50031706  0.82883193  0.33316037  1
  I  I98  1  0.50115107  0.83594331  0.66655951  1
  I  I99  1  0.83936965  0.17513397  -0.00388587  1
  I  I100  1  0.83615834  0.16713810  0.33329982  1
  I  I101  1  0.83239797  0.16950915  0.67022131  1
  I  I102  1  0.83079757  0.49841694  -0.00286749  1
  I  I103  1  0.82954295  0.50247123  0.33545952  1
  I  I104  1  0.82902675  0.49580021  0.66779418  1
  I  I105  1  0.83670269  0.83010374  0.00291397  1
  I  I106  1  0.83709169  0.83249966  0.32961916  1
  I  I107  1  0.83196830  0.83493775  0.66669288  1
  I  I108  1  -0.00010351  0.16828298  0.16938507  1
  I  I109  1  0.00223562  0.16892256  0.50103664  1
  I  I110  1  0.00099644  0.17562903  0.82935731  1
  I  I111  1  0.00263895  0.50283649  0.16374546  1
  I  I112  1  -0.00214165  0.49846961  0.50262842  1
  I  I113  1  0.00035078  0.49575239  0.83444791  1
  I  I114  1  0.00106972  0.82602040  0.16537096  1
  I  I115  1  0.00010685  0.83208551  0.50106377  1
  I  I116  1  0.00010551  0.82902048  0.83374401  1
  I  I117  1  0.33616026  0.16649837  0.16564627  1
  I  I118  1  0.33410823  0.17366969  0.50094594  1
  I  I119  1  0.33079126  0.17098965  0.83342557  1
  I  I120  1  0.33355222  0.50232831  0.16341563  1
  I  I121  1  0.33608614  0.49767192  0.50171819  1
  I  I122  1  0.33295708  0.49557874  0.83541702  1
  I  I123  1  0.33069953  0.83113140  0.16584234  1
  I  I124  1  0.33308247  0.82714524  0.49732908  1
  I  I125  1  0.33306827  0.83603508  0.83761717  1
  I  I126  1  0.66219202  0.17312288  0.17170641  1
  I  I127  1  0.66362236  0.16983420  0.49604906  1
  I  I128  1  0.66868427  0.17169428  0.83540913  1
  I  I129  1  0.66385998  0.49878083  0.16444374  1
  I  I130  1  0.66530690  0.49464657  0.50211269  1
  I  I131  1  0.66667965  0.49586128  0.83378987  1
  I  I132  1  0.66857208  0.83211404  0.16559518  1
  I  I133  1  0.66678473  0.83771451  0.49693358  1
  I  I134  1  0.66679458  0.83586704  0.83759622  1
