# generated using pymatgen
data_Cs27Sn13Pb14I81
_symmetry_space_group_name_H-M   'P 1'
_cell_length_a   18.97610608
_cell_length_b   18.97058485
_cell_length_c   18.98074292
_cell_angle_alpha   90.00080399
_cell_angle_beta   90.00023777
_cell_angle_gamma   89.99898638
_symmetry_Int_Tables_number   1
_chemical_formula_structural   Cs27Sn13Pb14I81
_chemical_formula_sum   'Cs27 Sn13 Pb14 I81'
_cell_volume   6832.83646375
_cell_formula_units_Z   1
loop_
 _symmetry_equiv_pos_site_id
 _symmetry_equiv_pos_as_xyz
  1  'x, y, z'
loop_
 _atom_site_type_symbol
 _atom_site_label
 _atom_site_symmetry_multiplicity
 _atom_site_fract_x
 _atom_site_fract_y
 _atom_site_fract_z
 _atom_site_occupancy
  Cs  Cs0  1  0.00072406  -0.00117309  -0.00057767  1
  Cs  Cs1  1  0.00353689  -0.00230033  0.33506565  1
  Cs  Cs2  1  0.00075504  0.00070445  0.66607596  1
  Cs  Cs3  1  -0.00568457  0.33340378  0.00535740  1
  Cs  Cs4  1  0.00018401  0.33580632  0.33313318  1
  Cs  Cs5  1  -0.00213450  0.33089460  0.66490746  1
  Cs  Cs6  1  0.00118133  0.66828603  0.00005192  1
  Cs  Cs7  1  -0.00072272  0.66726279  0.33194138  1
  Cs  Cs8  1  -0.00108624  0.66751281  0.66817428  1
  Cs  Cs9  1  0.33238189  -0.00108531  -0.00006333  1
  Cs  Cs10  1  0.33176598  0.00089364  0.33204306  1
  Cs  Cs11  1  0.33124658  0.00198210  0.66832123  1
  Cs  Cs12  1  0.33578043  0.33905020  -0.00051472  1
  Cs  Cs13  1  0.33226230  0.33656826  0.33480657  1
  Cs  Cs14  1  0.33471305  0.33435675  0.66595246  1
  Cs  Cs15  1  0.33403525  0.65958068  -0.00503298  1
  Cs  Cs16  1  0.34038034  0.66091868  0.33453547  1
  Cs  Cs17  1  0.33380579  0.65600707  0.67052460  1
  Cs  Cs18  1  0.66586883  0.00144110  0.00004086  1
  Cs  Cs19  1  0.66147098  -0.00416929  0.33310086  1
  Cs  Cs20  1  0.66732740  -0.00026654  0.66668560  1
  Cs  Cs21  1  0.67006556  0.33332272  0.00730743  1
  Cs  Cs22  1  0.66840213  0.33301146  0.32480057  1
  Cs  Cs23  1  0.66798930  0.33291655  0.66827105  1
  Cs  Cs24  1  0.66643082  0.66647299  -0.00033428  1
  Cs  Cs25  1  0.65988314  0.67168165  0.33451653  1
  Cs  Cs26  1  0.66745874  0.66703214  0.66519434  1
  Sn  Sn27  1  0.50043970  0.83412487  0.83291751  1
  Sn  Sn28  1  0.16637215  0.83368724  0.16762206  1
  Sn  Sn29  1  0.16718859  0.83335094  0.49951141  1
  Sn  Sn30  1  0.16661691  0.16613465  0.16663088  1
  Sn  Sn31  1  0.16721717  0.16661014  0.83360246  1
  Sn  Sn32  1  0.49943723  0.16578757  0.83275503  1
  Sn  Sn33  1  0.83346117  0.49945230  0.50044953  1
  Sn  Sn34  1  0.83352911  0.50070445  0.83265356  1
  Sn  Sn35  1  0.83303767  0.16713923  0.49986630  1
  Sn  Sn36  1  0.50001426  0.16639713  0.50054711  1
  Sn  Sn37  1  0.83381648  0.83386147  0.16601016  1
  Sn  Sn38  1  0.83265591  0.83291301  0.83395910  1
  Sn  Sn39  1  0.16684212  0.16595314  0.49997434  1
  Pb  Pb40  1  0.50333909  0.49665388  0.50013990  1
  Pb  Pb41  1  0.49711962  0.16652492  0.16638656  1
  Pb  Pb42  1  0.83345485  0.50323615  0.16729087  1
  Pb  Pb43  1  0.49634110  0.83527676  0.50284566  1
  Pb  Pb44  1  0.16681504  0.83458428  0.83329022  1
  Pb  Pb45  1  0.16453258  0.49997165  0.50009491  1
  Pb  Pb46  1  0.49868961  0.83346443  0.16394102  1
  Pb  Pb47  1  0.16655051  0.50072521  0.16676926  1
  Pb  Pb48  1  0.83463730  0.83352041  0.50013713  1
  Pb  Pb49  1  0.50298587  0.49896958  0.83320477  1
  Pb  Pb50  1  0.83555349  0.16374240  0.17002302  1
  Pb  Pb51  1  0.50010013  0.50006884  0.16667655  1
  Pb  Pb52  1  0.83307356  0.16629636  0.83216792  1
  Pb  Pb53  1  0.16345099  0.49604506  0.83330167  1
  I  I54  1  0.16237199  0.00017871  0.16803864  1
  I  I55  1  0.16315954  0.00173377  0.49959999  1
  I  I56  1  0.16489799  0.00296420  0.83206993  1
  I  I57  1  0.16719838  0.32981377  0.16803346  1
  I  I58  1  0.16808496  0.32937119  0.49970827  1
  I  I59  1  0.17233374  0.32780794  0.83123530  1
  I  I60  1  0.16135288  0.67083440  0.17095368  1
  I  I61  1  0.16303369  0.66978788  0.49544860  1
  I  I62  1  0.16929060  0.66662862  0.83332116  1
  I  I63  1  0.50320257  0.00004934  0.16797222  1
  I  I64  1  0.50549197  0.00366211  0.50217302  1
  I  I65  1  0.50265678  0.00080630  0.82998287  1
  I  I66  1  0.49942742  0.33264700  0.16409408  1
  I  I67  1  0.49285702  0.32832491  0.50747916  1
  I  I68  1  0.49549523  0.32957420  0.82860396  1
  I  I69  1  0.49867701  0.66732445  0.16567989  1
  I  I70  1  0.49976359  0.66674868  0.50041284  1
  I  I71  1  0.50143425  0.66927502  0.83495996  1
  I  I72  1  0.83561221  -0.00377255  0.16038090  1
  I  I73  1  0.83363608  0.00276979  0.50126152  1
  I  I74  1  0.83296593  -0.00257846  0.83498346  1
  I  I75  1  0.83426339  0.33304822  0.16405372  1
  I  I76  1  0.83577113  0.33226270  0.50698728  1
  I  I77  1  0.83481962  0.33503648  0.82944868  1
  I  I78  1  0.84082955  0.67096466  0.16630817  1
  I  I79  1  0.83727202  0.66478120  0.50180360  1
  I  I80  1  0.82884182  0.66790410  0.83086665  1
  I  I81  1  0.17032282  0.16153336  -0.00019984  1
  I  I82  1  0.16557603  0.16203061  0.33429575  1
  I  I83  1  0.16642916  0.16233015  0.66579860  1
  I  I84  1  0.16474719  0.50029004  -0.00016288  1
  I  I85  1  0.16332432  0.49574751  0.33352709  1
  I  I86  1  0.16661361  0.50174806  0.66676950  1
  I  I87  1  0.16429831  0.83927940  0.00229401  1
  I  I88  1  0.15848400  0.84334299  0.33319466  1
  I  I89  1  0.16464895  0.83979737  0.66446436  1
  I  I90  1  0.49602949  0.16289932  -0.00349626  1
  I  I91  1  0.50018196  0.16734340  0.33650674  1
  I  I92  1  0.49527402  0.16280960  0.66682002  1
  I  I93  1  0.50162826  0.49802477  -0.00069748  1
  I  I94  1  0.50208131  0.49910539  0.33389653  1
  I  I95  1  0.49866350  0.50207741  0.66670905  1
  I  I96  1  0.50070298  0.84049948  -0.00401688  1
  I  I97  1  0.50334976  0.83422722  0.33362908  1
  I  I98  1  0.50653279  0.83653523  0.67044244  1
  I  I99  1  0.83387792  0.16944664  0.00025752  1
  I  I100  1  0.83302810  0.17214239  0.33807240  1
  I  I101  1  0.83833830  0.16534440  0.66401698  1
  I  I102  1  0.83321921  0.50125427  -0.00269341  1
  I  I103  1  0.83493906  0.49463400  0.33631958  1
  I  I104  1  0.83405659  0.50172124  0.66682621  1
  I  I105  1  0.83603710  0.82871572  -0.00107067  1
  I  I106  1  0.83735887  0.83438948  0.33136478  1
  I  I107  1  0.83195004  0.83284520  0.66917545  1
  I  I108  1  0.00368503  0.16479262  0.16470985  1
  I  I109  1  0.00082107  0.16677628  0.50135473  1
  I  I110  1  0.00241282  0.16600382  0.83128280  1
  I  I111  1  -0.00021133  0.49718339  0.16600972  1
  I  I112  1  -0.00333871  0.49355811  0.50409538  1
  I  I113  1  -0.00418268  0.50593218  0.82936012  1
  I  I114  1  0.00040149  0.83728661  0.16421230  1
  I  I115  1  0.00253731  0.83984745  0.50132786  1
  I  I116  1  -0.00244281  0.83162840  0.83403468  1
  I  I117  1  0.32892718  0.15889310  0.17065477  1
  I  I118  1  0.33236788  0.16078522  0.50103813  1
  I  I119  1  0.33328627  0.15960032  0.82846595  1
  I  I120  1  0.33299923  0.50151274  0.16627923  1
  I  I121  1  0.33352775  0.50016970  0.49944037  1
  I  I122  1  0.33342080  0.50322612  0.83431433  1
  I  I123  1  0.32949554  0.83969703  0.16992964  1
  I  I124  1  0.32858687  0.84063186  0.49451915  1
  I  I125  1  0.33549035  0.83802302  0.83298913  1
  I  I126  1  0.66685706  0.16662279  0.16655117  1
  I  I127  1  0.66669308  0.17072412  0.50707062  1
  I  I128  1  0.66424111  0.16525262  0.82710953  1
  I  I129  1  0.66744313  0.49948658  0.16605712  1
  I  I130  1  0.67125246  0.49689637  0.50519587  1
  I  I131  1  0.67069567  0.49997985  0.82864844  1
  I  I132  1  0.66915539  0.83193762  0.16506896  1
  I  I133  1  0.66641781  0.83434185  0.49756284  1
  I  I134  1  0.66773123  0.83583865  0.83775916  1
