# generated using pymatgen
data_Cs27Sn14Pb13I81
_symmetry_space_group_name_H-M   'P 1'
_cell_length_a   18.96330469
_cell_length_b   18.97243549
_cell_length_c   18.99160749
_cell_angle_alpha   90.00000010
_cell_angle_beta   90.00000001
_cell_angle_gamma   89.99996046
_symmetry_Int_Tables_number   1
_chemical_formula_structural   Cs27Sn14Pb13I81
_chemical_formula_sum   'Cs27 Sn14 Pb13 I81'
_cell_volume   6832.80196624
_cell_formula_units_Z   1
loop_
 _symmetry_equiv_pos_site_id
 _symmetry_equiv_pos_as_xyz
  1  'x, y, z'
loop_
 _atom_site_type_symbol
 _atom_site_label
 _atom_site_symmetry_multiplicity
 _atom_site_fract_x
 _atom_site_fract_y
 _atom_site_fract_z
 _atom_site_occupancy
  Cs  Cs0  1  -0.00108410  0.00266091  -0.00106053  1
  Cs  Cs1  1  0.00282132  0.00259713  0.33333335  1
  Cs  Cs2  1  -0.00108418  0.00266099  0.66772720  1
  Cs  Cs3  1  -0.00016020  0.33006021  -0.00208966  1
  Cs  Cs4  1  0.00151700  0.33168946  0.33333327  1
  Cs  Cs5  1  -0.00016017  0.33006009  0.66875628  1
  Cs  Cs6  1  -0.00123630  0.66729483  -0.00328005  1
  Cs  Cs7  1  -0.00290238  0.66433977  0.33333330  1
  Cs  Cs8  1  -0.00123636  0.66729478  0.66994677  1
  Cs  Cs9  1  0.33445064  -0.00185786  0.00275122  1
  Cs  Cs10  1  0.33214616  -0.00190842  0.33333332  1
  Cs  Cs11  1  0.33445062  -0.00185794  0.66391547  1
  Cs  Cs12  1  0.33897982  0.33662961  -0.00120162  1
  Cs  Cs13  1  0.33348496  0.33391586  0.33333326  1
  Cs  Cs14  1  0.33897997  0.33662962  0.66786815  1
  Cs  Cs15  1  0.33227523  0.66743574  -0.00316714  1
  Cs  Cs16  1  0.33136064  0.67146159  0.33333326  1
  Cs  Cs17  1  0.33227522  0.66743580  0.66983388  1
  Cs  Cs18  1  0.66626316  -0.00054504  -0.00047844  1
  Cs  Cs19  1  0.66487747  -0.00088124  0.33333333  1
  Cs  Cs20  1  0.66626318  -0.00054499  0.66714510  1
  Cs  Cs21  1  0.66191658  0.33500818  -0.00049046  1
  Cs  Cs22  1  0.66015957  0.34197667  0.33333330  1
  Cs  Cs23  1  0.66191629  0.33500806  0.66715707  1
  Cs  Cs24  1  0.66959935  0.66670945  0.00527797  1
  Cs  Cs25  1  0.67533665  0.65970538  0.33333339  1
  Cs  Cs26  1  0.66959928  0.66670947  0.66138881  1
  Sn  Sn27  1  0.16642386  0.16700108  0.50024736  1
  Sn  Sn28  1  0.50004058  0.83341232  0.83333332  1
  Sn  Sn29  1  0.16676840  0.83309975  0.49943686  1
  Sn  Sn30  1  0.49957264  0.83335266  0.16725858  1
  Sn  Sn31  1  0.83363192  0.49899910  0.83333328  1
  Sn  Sn32  1  0.16642383  0.16700106  0.16641929  1
  Sn  Sn33  1  0.49957264  0.83335261  0.49940806  1
  Sn  Sn34  1  0.16676840  0.83309975  0.16722980  1
  Sn  Sn35  1  0.83343473  0.16678017  0.49957394  1
  Sn  Sn36  1  0.16644153  0.49990757  0.16700873  1
  Sn  Sn37  1  0.83365161  0.16785242  0.83333331  1
  Sn  Sn38  1  0.16704440  0.16653572  0.83333334  1
  Sn  Sn39  1  0.16644149  0.49990757  0.49965792  1
  Sn  Sn40  1  0.83343473  0.16678014  0.16709274  1
  Pb  Pb41  1  0.16539570  0.49742333  0.83333331  1
  Pb  Pb42  1  0.50312623  0.50314308  0.83333335  1
  Pb  Pb43  1  0.49958892  0.16494234  0.49980101  1
  Pb  Pb44  1  0.83443362  0.83556864  0.16689854  1
  Pb  Pb45  1  0.50018624  0.16496826  0.83333334  1
  Pb  Pb46  1  0.83612310  0.49680241  0.16486759  1
  Pb  Pb47  1  0.16789367  0.83573986  0.83333333  1
  Pb  Pb48  1  0.83612309  0.49680237  0.50179908  1
  Pb  Pb49  1  0.49701592  0.50332672  0.49986148  1
  Pb  Pb50  1  0.83091366  0.83396281  0.83333333  1
  Pb  Pb51  1  0.49958894  0.16494236  0.16686566  1
  Pb  Pb52  1  0.83443364  0.83556859  0.49976810  1
  Pb  Pb53  1  0.49701594  0.50332666  0.16680521  1
  I  I54  1  0.16716901  0.00033142  0.16893529  1
  I  I55  1  0.16716914  0.00033142  0.49773149  1
  I  I56  1  0.16041601  0.00385635  0.83333323  1
  I  I57  1  0.16065188  0.33224578  0.16972958  1
  I  I58  1  0.16065163  0.33224579  0.49693719  1
  I  I59  1  0.16425257  0.32919751  0.83333332  1
  I  I60  1  0.17250473  0.66746026  0.17348940  1
  I  I61  1  0.17250489  0.66746025  0.49317716  1
  I  I62  1  0.16539203  0.66664901  0.83333342  1
  I  I63  1  0.49377184  -0.00342657  0.16690329  1
  I  I64  1  0.49377189  -0.00342660  0.49976355  1
  I  I65  1  0.50119048  -0.00307731  0.83333317  1
  I  I66  1  0.49962339  0.33362775  0.16521074  1
  I  I67  1  0.49962345  0.33362775  0.50145577  1
  I  I68  1  0.49804809  0.33350556  0.83333359  1
  I  I69  1  0.49460256  0.67163662  0.16588555  1
  I  I70  1  0.49460236  0.67163662  0.50078109  1
  I  I71  1  0.49809867  0.67107779  0.83333330  1
  I  I72  1  0.83927469  0.00380155  0.16308982  1
  I  I73  1  0.83927447  0.00380154  0.50357672  1
  I  I74  1  0.83639422  0.00385801  0.83333343  1
  I  I75  1  0.84043213  0.32870600  0.16879386  1
  I  I76  1  0.84043241  0.32870600  0.49787292  1
  I  I77  1  0.83929641  0.33100992  0.83333333  1
  I  I78  1  0.83333265  0.66631224  0.16352834  1
  I  I79  1  0.83333257  0.66631221  0.50313839  1
  I  I80  1  0.83251259  0.66423420  0.83333325  1
  I  I81  1  0.16050578  0.16515624  0.00072257  1
  I  I82  1  0.16110835  0.16535279  0.33333335  1
  I  I83  1  0.16050562  0.16515630  0.66594409  1
  I  I84  1  0.16514969  0.50105454  0.00273108  1
  I  I85  1  0.16672697  0.49627294  0.33333332  1
  I  I86  1  0.16514912  0.50105475  0.66393559  1
  I  I87  1  0.17074270  0.83362132  0.00295558  1
  I  I88  1  0.17493722  0.83866577  0.33333333  1
  I  I89  1  0.17074291  0.83362110  0.66371106  1
  I  I90  1  0.49911957  0.16160487  0.00007589  1
  I  I91  1  0.50113787  0.16285267  0.33333332  1
  I  I92  1  0.49911972  0.16160534  0.66659077  1
  I  I93  1  0.49712400  0.50252753  0.00003608  1
  I  I94  1  0.50430801  0.50012547  0.33333333  1
  I  I95  1  0.49712425  0.50252720  0.66663058  1
  I  I96  1  0.49559224  0.83499153  0.00087365  1
  I  I97  1  0.49257618  0.83608589  0.33333336  1
  I  I98  1  0.49559220  0.83499137  0.66579302  1
  I  I99  1  0.84092359  0.16864740  -0.00013482  1
  I  I100  1  0.84184712  0.16240419  0.33333335  1
  I  I101  1  0.84092364  0.16864725  0.66680145  1
  I  I102  1  0.83583955  0.49478716  -0.00277807  1
  I  I103  1  0.83161351  0.50003124  0.33333333  1
  I  I104  1  0.83584038  0.49478723  0.66944474  1
  I  I105  1  0.83300365  0.83593610  0.00008195  1
  I  I106  1  0.82775746  0.83474563  0.33333335  1
  I  I107  1  0.83300351  0.83593629  0.66658472  1
  I  I108  1  0.00170856  0.16369874  0.16623862  1
  I  I109  1  0.00170855  0.16369846  0.50042802  1
  I  I110  1  0.00016841  0.16825115  0.83333340  1
  I  I111  1  0.00422094  0.50589819  0.17079842  1
  I  I112  1  0.00422089  0.50589843  0.49586790  1
  I  I113  1  -0.00243766  0.49846007  0.83333387  1
  I  I114  1  0.00416016  0.83250597  0.17201574  1
  I  I115  1  0.00416018  0.83250605  0.49465098  1
  I  I116  1  -0.00005305  0.83232677  0.83333323  1
  I  I117  1  0.32913868  0.16747916  0.16721521  1
  I  I118  1  0.32913868  0.16747930  0.49945162  1
  I  I119  1  0.33019756  0.16448971  0.83333329  1
  I  I120  1  0.32865250  0.49292620  0.16914315  1
  I  I121  1  0.32865248  0.49292593  0.49752382  1
  I  I122  1  0.33323283  0.49880209  0.83333313  1
  I  I123  1  0.33175938  0.83633796  0.16716887  1
  I  I124  1  0.33175939  0.83633809  0.49949766  1
  I  I125  1  0.33585155  0.83596153  0.83333335  1
  I  I126  1  0.66967122  0.16284547  0.16461126  1
  I  I127  1  0.66967124  0.16284566  0.50205542  1
  I  I128  1  0.67024470  0.16841820  0.83333336  1
  I  I129  1  0.66696094  0.50047688  0.16495826  1
  I  I130  1  0.66696094  0.50047689  0.50170849  1
  I  I131  1  0.67074220  0.49060297  0.83333308  1
  I  I132  1  0.66401509  0.83701468  0.16582280  1
  I  I133  1  0.66401509  0.83701456  0.50084382  1
  I  I134  1  0.66283809  0.83614221  0.83333336  1
