# generated using pymatgen
data_Cs27Sn13Pb14I81
_symmetry_space_group_name_H-M   'P 1'
_cell_length_a   19.01323536
_cell_length_b   19.00694998
_cell_length_c   18.99985148
_cell_angle_alpha   89.99818215
_cell_angle_beta   89.99850413
_cell_angle_gamma   89.99970124
_symmetry_Int_Tables_number   1
_chemical_formula_structural   Cs27Sn13Pb14I81
_chemical_formula_sum   'Cs27 Sn13 Pb14 I81'
_cell_volume   6866.23497816
_cell_formula_units_Z   1
loop_
 _symmetry_equiv_pos_site_id
 _symmetry_equiv_pos_as_xyz
  1  'x, y, z'
loop_
 _atom_site_type_symbol
 _atom_site_label
 _atom_site_symmetry_multiplicity
 _atom_site_fract_x
 _atom_site_fract_y
 _atom_site_fract_z
 _atom_site_occupancy
  Cs  Cs0  1  0.00391268  0.00119590  0.00430792  1
  Cs  Cs1  1  -0.01048752  -0.01162577  0.32856451  1
  Cs  Cs2  1  0.00119626  0.00176290  0.66450515  1
  Cs  Cs3  1  0.00423447  0.33439662  -0.00199988  1
  Cs  Cs4  1  -0.00197873  0.33274487  0.33778048  1
  Cs  Cs5  1  0.00121648  0.33411283  0.66691433  1
  Cs  Cs6  1  -0.00142021  0.66502444  -0.00109832  1
  Cs  Cs7  1  0.00322489  0.67437942  0.33112064  1
  Cs  Cs8  1  0.00079971  0.66263180  0.66901490  1
  Cs  Cs9  1  0.33375392  0.00482420  0.00184563  1
  Cs  Cs10  1  0.32893919  -0.00250771  0.33185696  1
  Cs  Cs11  1  0.33438950  0.00102231  0.66596716  1
  Cs  Cs12  1  0.33184429  0.33022651  0.00674878  1
  Cs  Cs13  1  0.33809096  0.33553454  0.32880758  1
  Cs  Cs14  1  0.33124862  0.33076255  0.66556184  1
  Cs  Cs15  1  0.33358641  0.66738412  0.00151041  1
  Cs  Cs16  1  0.33404213  0.66795033  0.33234351  1
  Cs  Cs17  1  0.33553676  0.66912302  0.66555726  1
  Cs  Cs18  1  0.66393856  -0.00163205  0.00136461  1
  Cs  Cs19  1  0.68007936  0.00246098  0.32891148  1
  Cs  Cs20  1  0.66430041  0.00033078  0.66561535  1
  Cs  Cs21  1  0.66607264  0.33389222  -0.00092511  1
  Cs  Cs22  1  0.66295433  0.33091933  0.33116317  1
  Cs  Cs23  1  0.66713651  0.33339776  0.66668663  1
  Cs  Cs24  1  0.66806163  0.66810859  -0.00348677  1
  Cs  Cs25  1  0.66214926  0.66679649  0.33599301  1
  Cs  Cs26  1  0.66218035  0.66686879  0.66874889  1
  Sn  Sn27  1  0.83392285  0.50011444  0.50003133  1
  Sn  Sn28  1  0.49922898  0.49886969  0.83328742  1
  Sn  Sn29  1  0.83442707  0.83386071  0.83292958  1
  Sn  Sn30  1  0.16724715  0.50068443  0.83250321  1
  Sn  Sn31  1  0.50064717  0.16780678  0.83244769  1
  Sn  Sn32  1  0.16704179  0.16734103  0.49972505  1
  Sn  Sn33  1  0.16606640  0.83261551  0.83301940  1
  Sn  Sn34  1  0.83327312  0.49967126  0.83295868  1
  Sn  Sn35  1  0.49924989  0.16639298  0.50054230  1
  Sn  Sn36  1  0.50023067  0.83322335  0.16667512  1
  Sn  Sn37  1  0.83345826  0.49981965  0.16711637  1
  Sn  Sn38  1  0.83278406  0.16658694  0.83320567  1
  Sn  Sn39  1  0.16628408  0.49911060  0.50084396  1
  Pb  Pb40  1  0.16622272  0.16692775  0.17146400  1
  Pb  Pb41  1  0.50010126  0.16478528  0.16682426  1
  Pb  Pb42  1  0.83325842  0.83000726  0.50308274  1
  Pb  Pb43  1  0.83352218  0.16948679  0.16344560  1
  Pb  Pb44  1  0.16663089  0.83291456  0.50241454  1
  Pb  Pb45  1  0.83167003  0.83052216  0.16366783  1
  Pb  Pb46  1  0.16427927  0.49982697  0.16718513  1
  Pb  Pb47  1  0.50020170  0.83695311  0.49729931  1
  Pb  Pb48  1  0.49951385  0.49837879  0.50210559  1
  Pb  Pb49  1  0.16857786  0.83307114  0.16337463  1
  Pb  Pb50  1  0.50226084  0.50159246  0.16383872  1
  Pb  Pb51  1  0.83354335  0.16870649  0.50209393  1
  Pb  Pb52  1  0.49965176  0.83381054  0.83405417  1
  Pb  Pb53  1  0.16676562  0.16697593  0.83231464  1
  I  I54  1  0.16761733  -0.00011211  0.16399909  1
  I  I55  1  0.17397222  0.00291596  0.50387448  1
  I  I56  1  0.16342872  -0.00200435  0.83204140  1
  I  I57  1  0.16766723  0.33359001  0.15818398  1
  I  I58  1  0.16541649  0.33457665  0.50886735  1
  I  I59  1  0.16292495  0.33642917  0.83113219  1
  I  I60  1  0.16760662  0.66644362  0.17129347  1
  I  I61  1  0.16091876  0.66308240  0.50259495  1
  I  I62  1  0.16334941  0.66479751  0.82831393  1
  I  I63  1  0.50031068  -0.00250717  0.16103925  1
  I  I64  1  0.49262808  0.00478797  0.51105763  1
  I  I65  1  0.50356649  0.00292943  0.83145220  1
  I  I66  1  0.50109596  0.33325347  0.16757439  1
  I  I67  1  0.49958462  0.33062444  0.50268720  1
  I  I68  1  0.50512602  0.33363583  0.82992345  1
  I  I69  1  0.50091190  0.66892568  0.16270343  1
  I  I70  1  0.50016069  0.66664529  0.50088661  1
  I  I71  1  0.50349270  0.66412367  0.83536588  1
  I  I72  1  0.83221946  -0.00024749  0.16646593  1
  I  I73  1  0.83310750  0.00009759  0.50134740  1
  I  I74  1  0.83213084  0.00015183  0.83248623  1
  I  I75  1  0.83163990  0.33731161  0.16343128  1
  I  I76  1  0.83469970  0.33672019  0.50436467  1
  I  I77  1  0.83227655  0.33490988  0.83326299  1
  I  I78  1  0.83280420  0.66311232  0.16265030  1
  I  I79  1  0.84015642  0.66167782  0.50252854  1
  I  I80  1  0.83339837  0.66491598  0.83388345  1
  I  I81  1  0.16726151  0.16619049  -0.00023837  1
  I  I82  1  0.17605455  0.17641704  0.33932229  1
  I  I83  1  0.16775529  0.16891445  0.66460158  1
  I  I84  1  0.16528655  0.50440535  -0.00358130  1
  I  I85  1  0.16188043  0.49436266  0.33710103  1
  I  I86  1  0.16052525  0.49978562  0.66811233  1
  I  I87  1  0.16153464  0.82617697  -0.00473206  1
  I  I88  1  0.16871136  0.83349364  0.33336313  1
  I  I89  1  0.16374118  0.83048382  0.67039047  1
  I  I90  1  0.50481020  0.16938313  -0.00335579  1
  I  I91  1  0.49389438  0.16666937  0.33654422  1
  I  I92  1  0.50061086  0.17035754  0.66818795  1
  I  I93  1  0.50008623  0.49397798  -0.00480908  1
  I  I94  1  0.50101099  0.49955437  0.33338857  1
  I  I95  1  0.50598852  0.50043490  0.67043655  1
  I  I96  1  0.50105485  0.83387354  0.00126779  1
  I  I97  1  0.49957544  0.83114427  0.32973936  1
  I  I98  1  0.50040506  0.83153112  0.66689543  1
  I  I99  1  0.82608537  0.16876457  -0.00517154  1
  I  I100  1  0.83223914  0.16849290  0.33352260  1
  I  I101  1  0.83168270  0.16982920  0.67032801  1
  I  I102  1  0.83222185  0.50079108  -0.00264913  1
  I  I103  1  0.83873197  0.49856585  0.33414475  1
  I  I104  1  0.83464226  0.49973791  0.66857482  1
  I  I105  1  0.83626691  0.82981427  -0.00430496  1
  I  I106  1  0.83170139  0.83324749  0.33317500  1
  I  I107  1  0.83521004  0.83077494  0.67131811  1
  I  I108  1  -0.00022206  0.16575736  0.16387497  1
  I  I109  1  0.00248877  0.17135299  0.50410915  1
  I  I110  1  -0.00248537  0.16976344  0.83189552  1
  I  I111  1  -0.00339964  0.50091278  0.15864986  1
  I  I112  1  0.00016977  0.49288978  0.50718652  1
  I  I113  1  -0.00085593  0.50076512  0.83325724  1
  I  I114  1  -0.00024351  0.83334488  0.16852926  1
  I  I115  1  -0.00003707  0.84031814  0.49627184  1
  I  I116  1  -0.00058745  0.82833458  0.83302022  1
  I  I117  1  0.33347758  0.16644496  0.15919222  1
  I  I118  1  0.33338243  0.17293328  0.50905400  1
  I  I119  1  0.33597068  0.16889116  0.83146194  1
  I  I120  1  0.33344012  0.50110830  0.16597816  1
  I  I121  1  0.33029961  0.49823220  0.50679420  1
  I  I122  1  0.33282894  0.50180256  0.82745443  1
  I  I123  1  0.33611165  0.83274496  0.16314704  1
  I  I124  1  0.33336897  0.82802695  0.50294805  1
  I  I125  1  0.33095786  0.82861888  0.83496756  1
  I  I126  1  0.66675179  0.16606954  0.17205264  1
  I  I127  1  0.66440141  0.16791750  0.50320381  1
  I  I128  1  0.66642886  0.17044872  0.82762678  1
  I  I129  1  0.66998643  0.50057666  0.16581021  1
  I  I130  1  0.66938318  0.49928819  0.50218631  1
  I  I131  1  0.66792405  0.50038099  0.83336957  1
  I  I132  1  0.66444695  0.83347593  0.16213484  1
  I  I133  1  0.66671989  0.83203285  0.50358509  1
  I  I134  1  0.66904727  0.82946322  0.83542419  1
