# generated using pymatgen
data_Cs27Sn14Pb13I81
_symmetry_space_group_name_H-M   'P 1'
_cell_length_a   18.97122490
_cell_length_b   18.98937429
_cell_length_c   18.96695632
_cell_angle_alpha   90.00016346
_cell_angle_beta   90.00032636
_cell_angle_gamma   89.99983761
_symmetry_Int_Tables_number   1
_chemical_formula_structural   Cs27Sn14Pb13I81
_chemical_formula_sum   'Cs27 Sn14 Pb13 I81'
_cell_volume   6832.87807410
_cell_formula_units_Z   1
loop_
 _symmetry_equiv_pos_site_id
 _symmetry_equiv_pos_as_xyz
  1  'x, y, z'
loop_
 _atom_site_type_symbol
 _atom_site_label
 _atom_site_symmetry_multiplicity
 _atom_site_fract_x
 _atom_site_fract_y
 _atom_site_fract_z
 _atom_site_occupancy
  Cs  Cs0  1  -0.00010923  0.00289293  0.00317172  1
  Cs  Cs1  1  0.00214137  -0.00077919  0.33355698  1
  Cs  Cs2  1  -0.00229310  -0.00041448  0.66547972  1
  Cs  Cs3  1  0.00757100  0.33124601  0.00931490  1
  Cs  Cs4  1  0.00332324  0.34082781  0.32699686  1
  Cs  Cs5  1  -0.00354640  0.33633238  0.66465339  1
  Cs  Cs6  1  -0.00043323  0.66560180  0.00172652  1
  Cs  Cs7  1  0.00091714  0.66165680  0.33224540  1
  Cs  Cs8  1  -0.00070245  0.66497714  0.66611771  1
  Cs  Cs9  1  0.33060579  -0.00004495  -0.00653111  1
  Cs  Cs10  1  0.33484649  -0.00194207  0.33526080  1
  Cs  Cs11  1  0.33186744  -0.00105214  0.66678777  1
  Cs  Cs12  1  0.32607629  0.33259066  -0.00559387  1
  Cs  Cs13  1  0.33632167  0.33365476  0.33308657  1
  Cs  Cs14  1  0.33167968  0.33395190  0.67214911  1
  Cs  Cs15  1  0.33290261  0.66769503  -0.00715821  1
  Cs  Cs16  1  0.33635469  0.66914249  0.33411776  1
  Cs  Cs17  1  0.33073606  0.66696212  0.67278990  1
  Cs  Cs18  1  0.66838838  -0.00005383  0.00040256  1
  Cs  Cs19  1  0.66460155  -0.00039289  0.33425228  1
  Cs  Cs20  1  0.66877635  0.00117150  0.66536666  1
  Cs  Cs21  1  0.66592123  0.33294479  -0.00223003  1
  Cs  Cs22  1  0.66396922  0.33406158  0.33376024  1
  Cs  Cs23  1  0.66846580  0.33161612  0.66716607  1
  Cs  Cs24  1  0.66720859  0.66688536  0.00003130  1
  Cs  Cs25  1  0.66432089  0.66677099  0.33215587  1
  Cs  Cs26  1  0.66862756  0.66676304  0.66730977  1
  Sn  Sn27  1  0.49987913  0.50002068  0.16676655  1
  Sn  Sn28  1  0.83395911  0.16625284  0.49969103  1
  Sn  Sn29  1  0.16642572  0.16641076  0.49981986  1
  Sn  Sn30  1  0.16792929  0.83350397  0.16765997  1
  Sn  Sn31  1  0.83316649  0.83357469  0.83265763  1
  Sn  Sn32  1  0.83338477  0.49954305  0.83365572  1
  Sn  Sn33  1  0.49885277  0.83360674  0.16706300  1
  Sn  Sn34  1  0.50003016  0.50014286  0.50006635  1
  Sn  Sn35  1  0.83332717  0.16682363  0.83296165  1
  Sn  Sn36  1  0.49971982  0.16670743  0.49968030  1
  Sn  Sn37  1  0.49994260  0.16635489  0.16693602  1
  Sn  Sn38  1  0.83337715  0.83378379  0.50029989  1
  Sn  Sn39  1  0.16667765  0.83396261  0.49919662  1
  Sn  Sn40  1  0.49992254  0.83315068  0.49988315  1
  Pb  Pb41  1  0.16322662  0.16639767  0.83015868  1
  Pb  Pb42  1  0.83077000  0.49987019  0.16411034  1
  Pb  Pb43  1  0.16323330  0.49993517  0.83322752  1
  Pb  Pb44  1  0.17027479  0.50309616  0.16697143  1
  Pb  Pb45  1  0.16348734  0.83352419  0.83299412  1
  Pb  Pb46  1  0.16981982  0.16425965  0.16943218  1
  Pb  Pb47  1  0.50179880  0.16645195  0.83286962  1
  Pb  Pb48  1  0.83119019  0.49993009  0.50087745  1
  Pb  Pb49  1  0.83320207  0.83343125  0.16778958  1
  Pb  Pb50  1  0.50228201  0.83357220  0.83313899  1
  Pb  Pb51  1  0.16975112  0.50030223  0.49998169  1
  Pb  Pb52  1  0.50152857  0.49996333  0.83331467  1
  Pb  Pb53  1  0.83134687  0.16663741  0.16807345  1
  I  I54  1  0.17132999  -0.00350358  0.16871858  1
  I  I55  1  0.17004873  -0.00085446  0.49690336  1
  I  I56  1  0.16557374  -0.00011607  0.83599706  1
  I  I57  1  0.16652266  0.33315899  0.16666824  1
  I  I58  1  0.16572413  0.33019338  0.50198808  1
  I  I59  1  0.16577004  0.33297775  0.83194955  1
  I  I60  1  0.16996642  0.67097141  0.17397941  1
  I  I61  1  0.16531614  0.67046313  0.49669214  1
  I  I62  1  0.16472887  0.66708332  0.83122313  1
  I  I63  1  0.49836560  -0.00063410  0.17380309  1
  I  I64  1  0.50130794  -0.00019936  0.49487591  1
  I  I65  1  0.50367883  -0.00006471  0.83454533  1
  I  I66  1  0.50442628  0.33303358  0.17466449  1
  I  I67  1  0.50164505  0.33239124  0.49413641  1
  I  I68  1  0.50498428  0.33320446  0.83257977  1
  I  I69  1  0.49793852  0.66753552  0.17366164  1
  I  I70  1  0.50168092  0.66786731  0.49421676  1
  I  I71  1  0.50443850  0.66685941  0.83278523  1
  I  I72  1  0.83035740  -0.00013244  0.16042898  1
  I  I73  1  0.82841877  -0.00033217  0.50811821  1
  I  I74  1  0.83201460  -0.00003857  0.82767236  1
  I  I75  1  0.83097555  0.33314983  0.16660415  1
  I  I76  1  0.83185322  0.33022768  0.50511906  1
  I  I77  1  0.83028462  0.33239295  0.82690211  1
  I  I78  1  0.83092899  0.66694504  0.16591188  1
  I  I79  1  0.83287304  0.66981902  0.50404543  1
  I  I80  1  0.83180994  0.66752207  0.82892878  1
  I  I81  1  0.16648643  0.16588400  0.00026349  1
  I  I82  1  0.16074622  0.16429564  0.33754195  1
  I  I83  1  0.17372472  0.15920326  0.66196335  1
  I  I84  1  0.16880373  0.50175157  0.00026834  1
  I  I85  1  0.16063640  0.49777985  0.33350497  1
  I  I86  1  0.17121868  0.50265094  0.66630575  1
  I  I87  1  0.17168789  0.83163825  0.00285223  1
  I  I88  1  0.16591969  0.83750283  0.33499086  1
  I  I89  1  0.17013728  0.83690835  0.66283473  1
  I  I90  1  0.50359161  0.16631915  0.00299615  1
  I  I91  1  0.50302528  0.16628639  0.33503933  1
  I  I92  1  0.49904847  0.16616276  0.66247474  1
  I  I93  1  0.50314107  0.50156258  0.00320891  1
  I  I94  1  0.50181477  0.50033385  0.33394653  1
  I  I95  1  0.50155648  0.50004498  0.66346151  1
  I  I96  1  0.49716558  0.83242612  0.00340768  1
  I  I97  1  0.50223988  0.83326256  0.33460681  1
  I  I98  1  0.49780734  0.83374826  0.66271878  1
  I  I99  1  0.82938162  0.16513599  -0.00259367  1
  I  I100  1  0.83316545  0.15924068  0.33771099  1
  I  I101  1  0.83030935  0.16557482  0.66515772  1
  I  I102  1  0.82982731  0.50215030  -0.00416752  1
  I  I103  1  0.83423197  0.50041734  0.33327367  1
  I  I104  1  0.82903258  0.50048793  0.66900318  1
  I  I105  1  0.83211944  0.83345168  -0.00255387  1
  I  I106  1  0.83193037  0.83942973  0.33725462  1
  I  I107  1  0.83219552  0.83384931  0.66506637  1
  I  I108  1  0.00045255  0.16497113  0.16584100  1
  I  I109  1  -0.00072237  0.15727112  0.50716431  1
  I  I110  1  -0.00498783  0.16497107  0.82805374  1
  I  I111  1  0.00042492  0.50118495  0.16433459  1
  I  I112  1  -0.00005668  0.50022651  0.50326532  1
  I  I113  1  -0.00497865  0.50193010  0.82969940  1
  I  I114  1  0.00262870  0.83405742  0.16932630  1
  I  I115  1  -0.00030096  0.84067403  0.50063026  1
  I  I116  1  -0.00456754  0.83339197  0.82875397  1
  I  I117  1  0.33797499  0.16926537  0.17290650  1
  I  I118  1  0.33429400  0.16346878  0.49420143  1
  I  I119  1  0.33304033  0.16780932  0.83314795  1
  I  I120  1  0.33823963  0.49707360  0.17240316  1
  I  I121  1  0.33808786  0.50002899  0.49528374  1
  I  I122  1  0.33338683  0.50037968  0.83352635  1
  I  I123  1  0.33482217  0.83308619  0.17615918  1
  I  I124  1  0.33409036  0.83625108  0.49453191  1
  I  I125  1  0.33314466  0.83203816  0.83121713  1
  I  I126  1  0.66288290  0.16298029  0.17229027  1
  I  I127  1  0.66632200  0.16390619  0.50076965  1
  I  I128  1  0.67008083  0.16593307  0.82711458  1
  I  I129  1  0.66245307  0.50414117  0.17136903  1
  I  I130  1  0.66299752  0.50055580  0.49690167  1
  I  I131  1  0.66962667  0.50055057  0.83286033  1
  I  I132  1  0.66315720  0.83289468  0.16945292  1
  I  I133  1  0.66614594  0.83557606  0.50025811  1
  I  I134  1  0.67040857  0.83368715  0.82921635  1
