# generated using pymatgen
data_Cs27Sn13Pb14I81
_symmetry_space_group_name_H-M   'P 1'
_cell_length_a   18.97496193
_cell_length_b   18.97961731
_cell_length_c   18.97845434
_cell_angle_alpha   89.99950833
_cell_angle_beta   90.00257430
_cell_angle_gamma   89.99956489
_symmetry_Int_Tables_number   1
_chemical_formula_structural   Cs27Sn13Pb14I81
_chemical_formula_sum   'Cs27 Sn13 Pb14 I81'
_cell_volume   6834.85339211
_cell_formula_units_Z   1
loop_
 _symmetry_equiv_pos_site_id
 _symmetry_equiv_pos_as_xyz
  1  'x, y, z'
loop_
 _atom_site_type_symbol
 _atom_site_label
 _atom_site_symmetry_multiplicity
 _atom_site_fract_x
 _atom_site_fract_y
 _atom_site_fract_z
 _atom_site_occupancy
  Cs  Cs0  1  0.00040422  -0.00030100  -0.00071328  1
  Cs  Cs1  1  0.00068025  0.00163675  0.33399127  1
  Cs  Cs2  1  -0.00065362  0.00019432  0.66566499  1
  Cs  Cs3  1  -0.00100710  0.33545067  -0.00238695  1
  Cs  Cs4  1  0.00107203  0.32850128  0.33440700  1
  Cs  Cs5  1  0.00142513  0.33419878  0.66792302  1
  Cs  Cs6  1  -0.00307321  0.66373183  -0.00022205  1
  Cs  Cs7  1  -0.00034260  0.66910835  0.33047477  1
  Cs  Cs8  1  0.00090962  0.66529631  0.66999770  1
  Cs  Cs9  1  0.33840605  0.00192559  -0.00081031  1
  Cs  Cs10  1  0.33027470  0.00130366  0.33177916  1
  Cs  Cs11  1  0.33488655  -0.00096304  0.66770988  1
  Cs  Cs12  1  0.33689266  0.32973136  0.00084212  1
  Cs  Cs13  1  0.33230537  0.33524034  0.33148028  1
  Cs  Cs14  1  0.33266237  0.34004711  0.66617192  1
  Cs  Cs15  1  0.33160448  0.66756664  0.00104130  1
  Cs  Cs16  1  0.33478801  0.66454221  0.33315360  1
  Cs  Cs17  1  0.33217105  0.66248980  0.66613312  1
  Cs  Cs18  1  0.65876426  -0.00516539  -0.00138330  1
  Cs  Cs19  1  0.66881370  -0.00087550  0.33736721  1
  Cs  Cs20  1  0.66601560  0.00063590  0.66615796  1
  Cs  Cs21  1  0.66383220  0.33414388  0.00239851  1
  Cs  Cs22  1  0.66653005  0.33655555  0.33383704  1
  Cs  Cs23  1  0.66662226  0.33115048  0.66589672  1
  Cs  Cs24  1  0.67119449  0.67096462  0.00586461  1
  Cs  Cs25  1  0.66507887  0.66337746  0.32900510  1
  Cs  Cs26  1  0.66684789  0.66721110  0.66718830  1
  Sn  Sn27  1  0.83356668  0.16629124  0.83369906  1
  Sn  Sn28  1  0.83383104  0.50004153  0.50026810  1
  Sn  Sn29  1  0.83280311  0.16688227  0.50025768  1
  Sn  Sn30  1  0.50068871  0.50047887  0.83362696  1
  Sn  Sn31  1  0.16648219  0.50010027  0.16675487  1
  Sn  Sn32  1  0.83298689  0.16617870  0.16622583  1
  Sn  Sn33  1  0.16677334  0.83350051  0.50014911  1
  Sn  Sn34  1  0.49984878  0.83396736  0.50003808  1
  Sn  Sn35  1  0.16641937  0.83413707  0.83323986  1
  Sn  Sn36  1  0.16619335  0.16601116  0.83291182  1
  Sn  Sn37  1  0.50007296  0.16638204  0.50002389  1
  Sn  Sn38  1  0.16648586  0.83282243  0.16655253  1
  Sn  Sn39  1  0.83328156  0.83280544  0.50014640  1
  Pb  Pb40  1  0.50288736  0.16651178  0.16984294  1
  Pb  Pb41  1  0.49774429  0.83118057  0.83112370  1
  Pb  Pb42  1  0.83115270  0.49780895  0.83174174  1
  Pb  Pb43  1  0.16430867  0.50263714  0.49809762  1
  Pb  Pb44  1  0.49748373  0.83349929  0.16946121  1
  Pb  Pb45  1  0.50010077  0.16792252  0.83103310  1
  Pb  Pb46  1  0.49795774  0.50009356  0.16400613  1
  Pb  Pb47  1  0.16682689  0.16503626  0.50197645  1
  Pb  Pb48  1  0.83510862  0.83536276  0.83143451  1
  Pb  Pb49  1  0.83535093  0.49782442  0.16880349  1
  Pb  Pb50  1  0.16499962  0.16617059  0.16412449  1
  Pb  Pb51  1  0.50203834  0.50016386  0.50106061  1
  Pb  Pb52  1  0.83533070  0.83553998  0.16871187  1
  Pb  Pb53  1  0.16789185  0.49999898  0.83536801  1
  I  I54  1  0.16443887  -0.00298901  0.17006804  1
  I  I55  1  0.16242985  -0.00342706  0.49564682  1
  I  I56  1  0.16279812  -0.00045566  0.83386937  1
  I  I57  1  0.16453415  0.33517947  0.16505754  1
  I  I58  1  0.16661459  0.33337513  0.49989326  1
  I  I59  1  0.16359563  0.33070020  0.83440186  1
  I  I60  1  0.16628760  0.66808509  0.16622093  1
  I  I61  1  0.16749621  0.67114031  0.50523573  1
  I  I62  1  0.16935473  0.66965632  0.83021225  1
  I  I63  1  0.49675860  0.00006544  0.16349950  1
  I  I64  1  0.50517519  -0.00031328  0.50136024  1
  I  I65  1  0.50058571  -0.00009791  0.83322407  1
  I  I66  1  0.49613643  0.33320125  0.16927844  1
  I  I67  1  0.50608755  0.33078512  0.50216040  1
  I  I68  1  0.49723713  0.33527342  0.82931463  1
  I  I69  1  0.50189074  0.66682985  0.16939285  1
  I  I70  1  0.49965281  0.66974446  0.50198806  1
  I  I71  1  0.49675855  0.66396817  0.82882153  1
  I  I72  1  0.83730359  0.00339613  0.17044989  1
  I  I73  1  0.83322146  0.00042083  0.49981217  1
  I  I74  1  0.83499378  0.00381319  0.82979736  1
  I  I75  1  0.83702792  0.32986550  0.17000329  1
  I  I76  1  0.82816113  0.33155984  0.49988550  1
  I  I77  1  0.84036746  0.32936564  0.82938816  1
  I  I78  1  0.83334316  0.66687339  0.16927658  1
  I  I79  1  0.83431794  0.66774882  0.50024894  1
  I  I80  1  0.83466796  0.66676894  0.83009922  1
  I  I81  1  0.16158593  0.16218224  -0.00369653  1
  I  I82  1  0.16555164  0.16578859  0.33343217  1
  I  I83  1  0.16133817  0.16197539  0.66976051  1
  I  I84  1  0.16656132  0.50584023  0.00283330  1
  I  I85  1  0.16635467  0.50411740  0.33043203  1
  I  I86  1  0.16701190  0.50058330  0.66670299  1
  I  I87  1  0.16620644  0.83335025  -0.00027358  1
  I  I88  1  0.16598669  0.82909886  0.33415094  1
  I  I89  1  0.16607607  0.83879553  0.66612686  1
  I  I90  1  0.50048375  0.16884207  -0.00023822  1
  I  I91  1  0.50418206  0.16352253  0.33811719  1
  I  I92  1  0.50614953  0.16285658  0.66324957  1
  I  I93  1  0.49889539  0.49708397  -0.00356569  1
  I  I94  1  0.49996001  0.49975432  0.33345031  1
  I  I95  1  0.49785153  0.49920207  0.66851924  1
  I  I96  1  0.49826674  0.83256756  -0.00014790  1
  I  I97  1  0.49908572  0.83626746  0.33810014  1
  I  I98  1  0.49868432  0.83713441  0.66273881  1
  I  I99  1  0.84147715  0.16832358  -0.00072402  1
  I  I100  1  0.82993504  0.16625606  0.33513640  1
  I  I101  1  0.83354748  0.16609350  0.66537478  1
  I  I102  1  0.83340985  0.49755243  0.00010781  1
  I  I103  1  0.83275929  0.49840548  0.33707554  1
  I  I104  1  0.83412077  0.49831882  0.66332066  1
  I  I105  1  0.83552118  0.83484597  -0.00001339  1
  I  I106  1  0.83607469  0.83654955  0.33756350  1
  I  I107  1  0.83594021  0.83610228  0.66252960  1
  I  I108  1  -0.00280059  0.16597825  0.17380264  1
  I  I109  1  -0.00324319  0.16562896  0.49860952  1
  I  I110  1  -0.00044538  0.16358673  0.83006311  1
  I  I111  1  0.00306855  0.50521722  0.16563979  1
  I  I112  1  -0.00362064  0.49688734  0.50081078  1
  I  I113  1  -0.00007567  0.50069693  0.83295572  1
  I  I114  1  0.00362880  0.83079787  0.16957912  1
  I  I115  1  -0.00004401  0.83446605  0.49963000  1
  I  I116  1  0.00365490  0.83413588  0.83021698  1
  I  I117  1  0.33314533  0.16718833  0.16682480  1
  I  I118  1  0.33570625  0.16156315  0.50261988  1
  I  I119  1  0.33073735  0.16377436  0.83211498  1
  I  I120  1  0.32977357  0.50349391  0.16847011  1
  I  I121  1  0.33325814  0.49941485  0.50014694  1
  I  I122  1  0.33535760  0.49779534  0.83091827  1
  I  I123  1  0.32890907  0.83088654  0.16897969  1
  I  I124  1  0.33291114  0.83863900  0.50016466  1
  I  I125  1  0.32923884  0.83963274  0.83123139  1
  I  I126  1  0.67107761  0.16780537  0.16259394  1
  I  I127  1  0.66850951  0.16168445  0.50207203  1
  I  I128  1  0.66959541  0.16974087  0.83245997  1
  I  I129  1  0.66700195  0.49828731  0.16724319  1
  I  I130  1  0.66997917  0.50249448  0.50071464  1
  I  I131  1  0.66382163  0.49718316  0.83007813  1
  I  I132  1  0.66687852  0.83408789  0.16784592  1
  I  I133  1  0.66736149  0.83579932  0.50093133  1
  I  I134  1  0.66663895  0.83414108  0.83096307  1
