# generated using pymatgen
data_Cs27Sn13Pb14I81
_symmetry_space_group_name_H-M   'P 1'
_cell_length_a   18.98348832
_cell_length_b   18.98065056
_cell_length_c   18.96917606
_cell_angle_alpha   89.99953327
_cell_angle_beta   90.00008884
_cell_angle_gamma   89.99949288
_symmetry_Int_Tables_number   1
_chemical_formula_structural   Cs27Sn13Pb14I81
_chemical_formula_sum   'Cs27 Sn13 Pb14 I81'
_cell_volume   6834.95375766
_cell_formula_units_Z   1
loop_
 _symmetry_equiv_pos_site_id
 _symmetry_equiv_pos_as_xyz
  1  'x, y, z'
loop_
 _atom_site_type_symbol
 _atom_site_label
 _atom_site_symmetry_multiplicity
 _atom_site_fract_x
 _atom_site_fract_y
 _atom_site_fract_z
 _atom_site_occupancy
  Cs  Cs0  1  0.00125024  0.00104038  -0.00055178  1
  Cs  Cs1  1  -0.00773534  0.00220689  0.33321138  1
  Cs  Cs2  1  -0.00031734  -0.00195084  0.66677229  1
  Cs  Cs3  1  0.00113132  0.33356052  -0.00073780  1
  Cs  Cs4  1  -0.00552188  0.33198046  0.33864212  1
  Cs  Cs5  1  0.00377282  0.33341696  0.66638315  1
  Cs  Cs6  1  0.00137315  0.66547425  -0.00188880  1
  Cs  Cs7  1  -0.00845401  0.66567035  0.33363568  1
  Cs  Cs8  1  -0.00019035  0.66855527  0.66819041  1
  Cs  Cs9  1  0.33306183  0.00137019  0.00171089  1
  Cs  Cs10  1  0.33245030  -0.00323453  0.33033076  1
  Cs  Cs11  1  0.33424450  -0.00001464  0.66684399  1
  Cs  Cs12  1  0.33299834  0.33358186  -0.00081806  1
  Cs  Cs13  1  0.33277056  0.33407684  0.33651511  1
  Cs  Cs14  1  0.33456542  0.33179103  0.66192942  1
  Cs  Cs15  1  0.33314886  0.66538241  0.00053599  1
  Cs  Cs16  1  0.33439005  0.66901171  0.33242807  1
  Cs  Cs17  1  0.33346078  0.66702966  0.66669426  1
  Cs  Cs18  1  0.66702804  0.00000131  0.00091074  1
  Cs  Cs19  1  0.67699474  0.00004533  0.33066693  1
  Cs  Cs20  1  0.66507203  -0.00092870  0.66564319  1
  Cs  Cs21  1  0.66545596  0.33357901  -0.00003525  1
  Cs  Cs22  1  0.67334175  0.33364338  0.33709503  1
  Cs  Cs23  1  0.66042014  0.33130725  0.66450582  1
  Cs  Cs24  1  0.66553622  0.66573968  -0.00049314  1
  Cs  Cs25  1  0.67331541  0.66509243  0.33399200  1
  Cs  Cs26  1  0.66655400  0.66897134  0.66659550  1
  Sn  Sn27  1  0.49962496  0.50061790  0.83384620  1
  Sn  Sn28  1  0.49912180  0.16781737  0.16673753  1
  Sn  Sn29  1  0.16798663  0.83335469  0.83272373  1
  Sn  Sn30  1  0.49900675  0.83345694  0.50032337  1
  Sn  Sn31  1  0.16752923  0.83323738  0.50034144  1
  Sn  Sn32  1  0.49903020  0.49879889  0.16615563  1
  Sn  Sn33  1  0.16720661  0.49968141  0.83367642  1
  Sn  Sn34  1  0.16771221  0.16797030  0.16615058  1
  Sn  Sn35  1  0.83313230  0.49878350  0.83351365  1
  Sn  Sn36  1  0.16625657  0.16694194  0.83381530  1
  Sn  Sn37  1  0.16749111  0.49893476  0.16629087  1
  Sn  Sn38  1  0.49879017  0.83269031  0.83292734  1
  Sn  Sn39  1  0.83402679  0.16763102  0.83354760  1
  Pb  Pb40  1  0.83342446  0.16677773  0.50394401  1
  Pb  Pb41  1  0.49949243  0.16663662  0.83454971  1
  Pb  Pb42  1  0.83391290  0.16711521  0.16411663  1
  Pb  Pb43  1  0.49970520  0.16362800  0.49594547  1
  Pb  Pb44  1  0.16638282  0.83301399  0.16656390  1
  Pb  Pb45  1  0.49976130  0.50204837  0.49948648  1
  Pb  Pb46  1  0.16690513  0.16419628  0.49956611  1
  Pb  Pb47  1  0.83353382  0.83310182  0.16600964  1
  Pb  Pb48  1  0.16676704  0.50239285  0.49948467  1
  Pb  Pb49  1  0.83337880  0.83329026  0.50058705  1
  Pb  Pb50  1  0.50006396  0.83282134  0.16654889  1
  Pb  Pb51  1  0.83337749  0.49988968  0.50393884  1
  Pb  Pb52  1  0.83326517  0.83338407  0.83358793  1
  Pb  Pb53  1  0.83358530  0.49978329  0.16425003  1
  I  I54  1  0.17120823  0.00299765  0.16214916  1
  I  I55  1  0.17121662  -0.00378447  0.50547722  1
  I  I56  1  0.16592588  0.00012058  0.83385274  1
  I  I57  1  0.17140081  0.33354929  0.15622394  1
  I  I58  1  0.16584632  0.33333643  0.50314160  1
  I  I59  1  0.16507413  0.33372614  0.83829839  1
  I  I60  1  0.17177469  0.66328082  0.16203145  1
  I  I61  1  0.17115377  0.67033625  0.50547044  1
  I  I62  1  0.16632897  0.66606680  0.83367579  1
  I  I63  1  0.49517223  0.00253769  0.16528932  1
  I  I64  1  0.49505379  -0.00425448  0.50846460  1
  I  I65  1  0.49759816  -0.00248416  0.83162329  1
  I  I66  1  0.49575211  0.33433752  0.15821104  1
  I  I67  1  0.50086665  0.33328197  0.50341660  1
  I  I68  1  0.49905816  0.33625479  0.83626746  1
  I  I69  1  0.49488840  0.66327498  0.16409553  1
  I  I70  1  0.49503087  0.67007146  0.50125606  1
  I  I71  1  0.49797240  0.66592870  0.83528158  1
  I  I72  1  0.83255335  0.00062957  0.16414272  1
  I  I73  1  0.83323536  -0.00015086  0.50111458  1
  I  I74  1  0.83695083  0.00282709  0.83413384  1
  I  I75  1  0.83213926  0.33342047  0.16727420  1
  I  I76  1  0.83333875  0.33332425  0.49717824  1
  I  I77  1  0.83710350  0.33389831  0.83500599  1
  I  I78  1  0.83331639  0.66598130  0.16446648  1
  I  I79  1  0.83359390  0.66680523  0.50075901  1
  I  I80  1  0.83566010  0.66361001  0.83401372  1
  I  I81  1  0.16639056  0.16456845  -0.00130048  1
  I  I82  1  0.17166481  0.16965559  0.32963529  1
  I  I83  1  0.16248053  0.16901341  0.67029456  1
  I  I84  1  0.16706023  0.50193257  -0.00168335  1
  I  I85  1  0.17257717  0.49718771  0.32957237  1
  I  I86  1  0.16683670  0.49772576  0.67056859  1
  I  I87  1  0.17085604  0.83332758  -0.00367789  1
  I  I88  1  0.17243388  0.83322402  0.33604072  1
  I  I89  1  0.16998832  0.83313492  0.66911855  1
  I  I90  1  0.49863184  0.16511666  0.00242637  1
  I  I91  1  0.49253812  0.17173328  0.32799427  1
  I  I92  1  0.50081335  0.16857334  0.66674759  1
  I  I93  1  0.49945435  0.50287366  -0.00140147  1
  I  I94  1  0.49394632  0.49821504  0.32960614  1
  I  I95  1  0.49973867  0.50205052  0.67035858  1
  I  I96  1  0.49557746  0.83191349  -0.00327271  1
  I  I97  1  0.49401896  0.83407913  0.33600663  1
  I  I98  1  0.49650641  0.82809848  0.66864195  1
  I  I99  1  0.83534979  0.16991403  -0.00374838  1
  I  I100  1  0.83352339  0.16415359  0.33312834  1
  I  I101  1  0.83964757  0.17020230  0.67204460  1
  I  I102  1  0.83358455  0.49696529  -0.00407360  1
  I  I103  1  0.83322573  0.50223975  0.33316819  1
  I  I104  1  0.83423511  0.49742991  0.67239826  1
  I  I105  1  0.83256997  0.83392398  -0.00109787  1
  I  I106  1  0.83330131  0.83364301  0.33372418  1
  I  I107  1  0.83335891  0.83316568  0.66728445  1
  I  I108  1  0.00371371  0.16934325  0.16393447  1
  I  I109  1  0.00028612  0.16306368  0.49533347  1
  I  I110  1  0.00191589  0.16838914  0.83862144  1
  I  I111  1  0.00367345  0.49760163  0.16194743  1
  I  I112  1  0.00021820  0.50374376  0.49899499  1
  I  I113  1  0.00149424  0.50073526  0.83687905  1
  I  I114  1  0.00074968  0.83338735  0.16636805  1
  I  I115  1  0.00333392  0.83309800  0.50561792  1
  I  I116  1  0.00349516  0.83114976  0.83014414  1
  I  I117  1  0.33226862  0.16923287  0.15941160  1
  I  I118  1  0.33332797  0.16740266  0.50589554  1
  I  I119  1  0.33020772  0.16717995  0.83569733  1
  I  I120  1  0.33313467  0.49673609  0.15744403  1
  I  I121  1  0.33325888  0.49954652  0.50485330  1
  I  I122  1  0.33298194  0.50200260  0.83757699  1
  I  I123  1  0.33323282  0.83435478  0.16690815  1
  I  I124  1  0.33315355  0.83299356  0.50589100  1
  I  I125  1  0.33275906  0.83064628  0.82953131  1
  I  I126  1  0.66389980  0.16873749  0.16482880  1
  I  I127  1  0.66647708  0.16349816  0.50039335  1
  I  I128  1  0.66835840  0.16905495  0.83532507  1
  I  I129  1  0.66329787  0.49790328  0.16191232  1
  I  I130  1  0.66647322  0.50380064  0.49922058  1
  I  I131  1  0.66555688  0.50113755  0.83737000  1
  I  I132  1  0.66601465  0.83435759  0.16612608  1
  I  I133  1  0.66331210  0.83293070  0.50547632  1
  I  I134  1  0.66329205  0.83059232  0.83014150  1
