# generated using pymatgen
data_Cs27Sn13Pb14I81
_symmetry_space_group_name_H-M   'P 1'
_cell_length_a   18.98309157
_cell_length_b   18.99566687
_cell_length_c   18.99538759
_cell_angle_alpha   89.99922600
_cell_angle_beta   89.99869258
_cell_angle_gamma   89.99972505
_symmetry_Int_Tables_number   1
_chemical_formula_structural   Cs27Sn13Pb14I81
_chemical_formula_sum   'Cs27 Sn13 Pb14 I81'
_cell_volume   6849.66996617
_cell_formula_units_Z   1
loop_
 _symmetry_equiv_pos_site_id
 _symmetry_equiv_pos_as_xyz
  1  'x, y, z'
loop_
 _atom_site_type_symbol
 _atom_site_label
 _atom_site_symmetry_multiplicity
 _atom_site_fract_x
 _atom_site_fract_y
 _atom_site_fract_z
 _atom_site_occupancy
  Cs  Cs0  1  -0.00181933  -0.00232070  0.00018376  1
  Cs  Cs1  1  -0.00213029  -0.00085878  0.32942935  1
  Cs  Cs2  1  0.00204619  0.00077372  0.66928732  1
  Cs  Cs3  1  0.00115902  0.33528542  -0.00186379  1
  Cs  Cs4  1  0.00232610  0.33243291  0.33343317  1
  Cs  Cs5  1  0.00119938  0.33503641  0.66959971  1
  Cs  Cs6  1  -0.00466587  0.66725755  -0.00133069  1
  Cs  Cs7  1  0.00120934  0.66872101  0.32891047  1
  Cs  Cs8  1  -0.00595621  0.66451715  0.67178646  1
  Cs  Cs9  1  0.33477274  -0.00204499  -0.00219971  1
  Cs  Cs10  1  0.33082900  -0.00214743  0.33472455  1
  Cs  Cs11  1  0.33293521  -0.00071701  0.66860611  1
  Cs  Cs12  1  0.33475052  0.33474772  0.00009200  1
  Cs  Cs13  1  0.33122053  0.33531469  0.33194644  1
  Cs  Cs14  1  0.33150380  0.33173517  0.66771776  1
  Cs  Cs15  1  0.33481779  0.66656511  0.00031070  1
  Cs  Cs16  1  0.33369661  0.66638755  0.33143699  1
  Cs  Cs17  1  0.33356227  0.66848386  0.66787348  1
  Cs  Cs18  1  0.66700645  0.00304625  0.00107193  1
  Cs  Cs19  1  0.67622139  0.00759078  0.34055633  1
  Cs  Cs20  1  0.66747931  -0.00093060  0.65905897  1
  Cs  Cs21  1  0.66123919  0.33098467  0.00337479  1
  Cs  Cs22  1  0.67058328  0.32843077  0.33746085  1
  Cs  Cs23  1  0.66662268  0.33202934  0.65660291  1
  Cs  Cs24  1  0.66263630  0.66659925  -0.00151725  1
  Cs  Cs25  1  0.66377548  0.66521833  0.34162769  1
  Cs  Cs26  1  0.67333914  0.66720985  0.66010980  1
  Sn  Sn27  1  0.16644356  0.49960558  0.16689165  1
  Sn  Sn28  1  0.16697983  0.50058924  0.49961047  1
  Sn  Sn29  1  0.83284591  0.50028685  0.16636375  1
  Sn  Sn30  1  0.16718410  0.16706202  0.16600827  1
  Sn  Sn31  1  0.83359757  0.16703463  0.83367329  1
  Sn  Sn32  1  0.16686831  0.83284776  0.50112430  1
  Sn  Sn33  1  0.16718932  0.83364174  0.83294125  1
  Sn  Sn34  1  0.16682066  0.16645275  0.50005200  1
  Sn  Sn35  1  0.49957927  0.83226568  0.83398291  1
  Sn  Sn36  1  0.50017380  0.50068457  0.83324695  1
  Sn  Sn37  1  0.50048594  0.50077858  0.16616405  1
  Sn  Sn38  1  0.16598509  0.16586952  0.83391533  1
  Sn  Sn39  1  0.50027201  0.83329889  0.16659495  1
  Pb  Pb40  1  0.49807509  0.83333498  0.50000461  1
  Pb  Pb41  1  0.50000082  0.16631964  0.83323437  1
  Pb  Pb42  1  0.83613086  0.16885723  0.16455464  1
  Pb  Pb43  1  0.49719806  0.16656733  0.49980780  1
  Pb  Pb44  1  0.16788037  0.83302686  0.16599214  1
  Pb  Pb45  1  0.83679880  0.49994557  0.49719746  1
  Pb  Pb46  1  0.49759502  0.49996560  0.49970277  1
  Pb  Pb47  1  0.16797276  0.50038078  0.83373269  1
  Pb  Pb48  1  0.82913079  0.83079257  0.16645325  1
  Pb  Pb49  1  0.82951098  0.49745773  0.83540043  1
  Pb  Pb50  1  0.49797753  0.16647531  0.16691750  1
  Pb  Pb51  1  0.83244804  0.83528161  0.83360803  1
  Pb  Pb52  1  0.83689225  0.16683668  0.50263696  1
  Pb  Pb53  1  0.83711479  0.83320408  0.49991212  1
  I  I54  1  0.16927626  0.00233932  0.16907383  1
  I  I55  1  0.16812931  0.00016534  0.50089178  1
  I  I56  1  0.16887378  0.00017501  0.83029867  1
  I  I57  1  0.16875855  0.33418719  0.16955196  1
  I  I58  1  0.16709003  0.33316361  0.49896456  1
  I  I59  1  0.16516155  0.33095559  0.83110953  1
  I  I60  1  0.16609118  0.66361408  0.17060494  1
  I  I61  1  0.16859916  0.66658858  0.49842646  1
  I  I62  1  0.17007796  0.66930579  0.83015596  1
  I  I63  1  0.49445491  -0.00316391  0.15985765  1
  I  I64  1  0.49655135  -0.00032602  0.50075293  1
  I  I65  1  0.49653325  -0.00321234  0.83851671  1
  I  I66  1  0.49928567  0.33687789  0.16113137  1
  I  I67  1  0.49668458  0.33362526  0.50147080  1
  I  I68  1  0.49792240  0.33599868  0.83954694  1
  I  I69  1  0.49558520  0.66534959  0.16153487  1
  I  I70  1  0.49526044  0.66661017  0.49969369  1
  I  I71  1  0.49147151  0.66715582  0.83928320  1
  I  I72  1  0.83387293  0.00022150  0.16642391  1
  I  I73  1  0.83352253  0.00025680  0.49905324  1
  I  I74  1  0.83606797  0.00306773  0.83461415  1
  I  I75  1  0.82870075  0.33666788  0.16542514  1
  I  I76  1  0.83476720  0.33337516  0.50063769  1
  I  I77  1  0.84310729  0.33027771  0.83421715  1
  I  I78  1  0.84309404  0.66280690  0.16501529  1
  I  I79  1  0.83565862  0.66633247  0.50124385  1
  I  I80  1  0.83713577  0.66644194  0.83427021  1
  I  I81  1  0.16358920  0.16760937  -0.00040954  1
  I  I82  1  0.16952479  0.16807330  0.33321325  1
  I  I83  1  0.16327568  0.16649224  0.66706389  1
  I  I84  1  0.16640342  0.49592596  0.00305657  1
  I  I85  1  0.16869010  0.49649183  0.33222081  1
  I  I86  1  0.17008435  0.49691014  0.66462715  1
  I  I87  1  0.16925827  0.83735906  -0.00285122  1
  I  I88  1  0.16863204  0.83563442  0.33526057  1
  I  I89  1  0.17297189  0.83733592  0.66751096  1
  I  I90  1  0.49585724  0.16761883  -0.00004410  1
  I  I91  1  0.49792150  0.16701789  0.33305635  1
  I  I92  1  0.49788016  0.16791769  0.66702783  1
  I  I93  1  0.49603285  0.50340278  0.00110688  1
  I  I94  1  0.49971897  0.50514889  0.32963450  1
  I  I95  1  0.49629951  0.50325782  0.66958251  1
  I  I96  1  0.49168816  0.82838989  -0.00081734  1
  I  I97  1  0.49587208  0.82616628  0.33029292  1
  I  I98  1  0.49613210  0.82991285  0.67006065  1
  I  I99  1  0.84120193  0.16661714  -0.00289212  1
  I  I100  1  0.83328008  0.16735244  0.33335172  1
  I  I101  1  0.83894067  0.16730153  0.67023692  1
  I  I102  1  0.84149814  0.49910143  0.00305782  1
  I  I103  1  0.82777852  0.49888194  0.32927451  1
  I  I104  1  0.83341096  0.49926047  0.66671345  1
  I  I105  1  0.84100240  0.83403647  0.00004308  1
  I  I106  1  0.83435047  0.83429906  0.33308221  1
  I  I107  1  0.82885851  0.83268873  0.66686706  1
  I  I108  1  0.00470854  0.17131759  0.16964058  1
  I  I109  1  0.00515142  0.16687669  0.49686416  1
  I  I110  1  0.00303980  0.16186945  0.83286994  1
  I  I111  1  0.00163722  0.49408710  0.17214060  1
  I  I112  1  0.00519099  0.49899530  0.49606992  1
  I  I113  1  0.00001272  0.50205401  0.83377573  1
  I  I114  1  0.00007669  0.83282065  0.16744640  1
  I  I115  1  0.00586157  0.83378919  0.50567951  1
  I  I116  1  0.00317527  0.83567885  0.82856362  1
  I  I117  1  0.32912223  0.17325810  0.16395264  1
  I  I118  1  0.32801150  0.16717237  0.50384228  1
  I  I119  1  0.32979733  0.16567811  0.83235457  1
  I  I120  1  0.33288020  0.49935096  0.16717191  1
  I  I121  1  0.32922993  0.49884027  0.49368507  1
  I  I122  1  0.33563449  0.49897173  0.83920839  1
  I  I123  1  0.33555420  0.82730260  0.16512793  1
  I  I124  1  0.32936783  0.83425183  0.50135353  1
  I  I125  1  0.33234675  0.83605708  0.83312883  1
  I  I126  1  0.66684978  0.16753172  0.16336079  1
  I  I127  1  0.66743493  0.16657070  0.50170668  1
  I  I128  1  0.66907208  0.16797296  0.83642376  1
  I  I129  1  0.66544956  0.50526403  0.15872227  1
  I  I130  1  0.66672810  0.49981739  0.50014756  1
  I  I131  1  0.66170013  0.50508670  0.84023732  1
  I  I132  1  0.66117187  0.82822999  0.15707199  1
  I  I133  1  0.66654952  0.83324208  0.50073559  1
  I  I134  1  0.66284569  0.83063869  0.83961061  1
