# generated using pymatgen
data_Cs27Sn14Pb13I81
_symmetry_space_group_name_H-M   'P 1'
_cell_length_a   18.96604935
_cell_length_b   18.95357043
_cell_length_c   18.96263216
_cell_angle_alpha   89.99853086
_cell_angle_beta   90.00031785
_cell_angle_gamma   90.00043021
_symmetry_Int_Tables_number   1
_chemical_formula_structural   Cs27Sn14Pb13I81
_chemical_formula_sum   'Cs27 Sn14 Pb13 I81'
_cell_volume   6816.57990772
_cell_formula_units_Z   1
loop_
 _symmetry_equiv_pos_site_id
 _symmetry_equiv_pos_as_xyz
  1  'x, y, z'
loop_
 _atom_site_type_symbol
 _atom_site_label
 _atom_site_symmetry_multiplicity
 _atom_site_fract_x
 _atom_site_fract_y
 _atom_site_fract_z
 _atom_site_occupancy
  Cs  Cs0  1  0.00470714  0.00510928  0.00311887  1
  Cs  Cs1  1  0.00096123  -0.00134208  0.33176492  1
  Cs  Cs2  1  0.00495401  -0.00665138  0.66645850  1
  Cs  Cs3  1  -0.00343097  0.33014212  0.00088373  1
  Cs  Cs4  1  -0.00190793  0.33126096  0.33157680  1
  Cs  Cs5  1  -0.00195824  0.33545731  0.66813423  1
  Cs  Cs6  1  -0.00195282  0.66527688  -0.00101083  1
  Cs  Cs7  1  0.00237555  0.66923721  0.33560505  1
  Cs  Cs8  1  -0.00307176  0.66994949  0.66570160  1
  Cs  Cs9  1  0.33380643  -0.00097156  -0.00194837  1
  Cs  Cs10  1  0.33514839  0.00189473  0.33452663  1
  Cs  Cs11  1  0.32763829  0.00110942  0.66782786  1
  Cs  Cs12  1  0.33337515  0.33420520  -0.00176139  1
  Cs  Cs13  1  0.33482502  0.33430536  0.33651435  1
  Cs  Cs14  1  0.33437755  0.33359187  0.66562406  1
  Cs  Cs15  1  0.33488891  0.66703004  0.00197130  1
  Cs  Cs16  1  0.33429496  0.66531125  0.33104814  1
  Cs  Cs17  1  0.33397462  0.66461829  0.66749609  1
  Cs  Cs18  1  0.66456056  0.00003810  -0.00042088  1
  Cs  Cs19  1  0.66578442  -0.00037884  0.33356453  1
  Cs  Cs20  1  0.66636224  0.00154626  0.66722177  1
  Cs  Cs21  1  0.66828708  0.33356546  -0.00008019  1
  Cs  Cs22  1  0.66672676  0.33311895  0.33352351  1
  Cs  Cs23  1  0.66626959  0.33193721  0.66636573  1
  Cs  Cs24  1  0.66795321  0.66550621  -0.00099155  1
  Cs  Cs25  1  0.66467121  0.66684824  0.33209955  1
  Cs  Cs26  1  0.66834553  0.66844392  0.66817742  1
  Sn  Sn27  1  0.16716710  0.49991883  0.83340595  1
  Sn  Sn28  1  0.83278124  0.16635886  0.83221348  1
  Sn  Sn29  1  0.16691920  0.83257408  0.16665967  1
  Sn  Sn30  1  0.83307543  0.83322799  0.16640092  1
  Sn  Sn31  1  0.16648650  0.49994945  0.50007838  1
  Sn  Sn32  1  0.49999044  0.83268546  0.49975828  1
  Sn  Sn33  1  0.50032739  0.50089853  0.50086282  1
  Sn  Sn34  1  0.50058925  0.16750848  0.83399788  1
  Sn  Sn35  1  0.49961055  0.49924905  0.83258205  1
  Sn  Sn36  1  0.16665375  0.50032905  0.16659195  1
  Sn  Sn37  1  0.83347260  0.16676879  0.50098411  1
  Sn  Sn38  1  0.49991202  0.16624667  0.16594678  1
  Sn  Sn39  1  0.50016877  0.83410084  0.16734514  1
  Sn  Sn40  1  0.83310896  0.49944646  0.49980910  1
  Pb  Pb41  1  0.16687474  0.16893488  0.83317133  1
  Pb  Pb42  1  0.16337892  0.16904382  0.50002968  1
  Pb  Pb43  1  0.16966741  0.16686226  0.16684329  1
  Pb  Pb44  1  0.83107809  0.16476846  0.16683928  1
  Pb  Pb45  1  0.83603662  0.50197710  0.16920924  1
  Pb  Pb46  1  0.83131257  0.83344060  0.49850013  1
  Pb  Pb47  1  0.83339346  0.83678425  0.83596778  1
  Pb  Pb48  1  0.49871171  0.50003962  0.16645834  1
  Pb  Pb49  1  0.16665736  0.83029261  0.83594326  1
  Pb  Pb50  1  0.16946670  0.83108697  0.49805255  1
  Pb  Pb51  1  0.49999639  0.83327645  0.83317146  1
  Pb  Pb52  1  0.50126655  0.16671155  0.50054588  1
  Pb  Pb53  1  0.83299776  0.49851935  0.83141422  1
  I  I54  1  0.16488542  -0.00307123  0.16689560  1
  I  I55  1  0.16695440  -0.00036057  0.49795306  1
  I  I56  1  0.16692100  0.00002638  0.83538609  1
  I  I57  1  0.16856581  0.33673345  0.16709421  1
  I  I58  1  0.17337111  0.33805224  0.49695382  1
  I  I59  1  0.16872562  0.33750739  0.83564816  1
  I  I60  1  0.16963261  0.66641844  0.16722057  1
  I  I61  1  0.16207127  0.66242964  0.50176109  1
  I  I62  1  0.17328312  0.66186985  0.83098308  1
  I  I63  1  0.49852863  -0.00108577  0.16743405  1
  I  I64  1  0.50343528  -0.00221060  0.49711283  1
  I  I65  1  0.50499272  0.00300556  0.83497732  1
  I  I66  1  0.49865136  0.33122171  0.16617797  1
  I  I67  1  0.49804767  0.33639107  0.50001383  1
  I  I68  1  0.49957423  0.33381986  0.83358469  1
  I  I69  1  0.50046622  0.66926592  0.16807189  1
  I  I70  1  0.50135254  0.66518347  0.49863516  1
  I  I71  1  0.49541030  0.66337371  0.83266388  1
  I  I72  1  0.83722982  -0.00322682  0.16870872  1
  I  I73  1  0.82901050  0.00252499  0.50173371  1
  I  I74  1  0.82518558  0.00475639  0.82675878  1
  I  I75  1  0.83355539  0.33327112  0.16601049  1
  I  I76  1  0.83133961  0.33420266  0.50244349  1
  I  I77  1  0.83156478  0.33048048  0.83304969  1
  I  I78  1  0.82724099  0.66993555  0.16846808  1
  I  I79  1  0.83504676  0.66372854  0.49800596  1
  I  I80  1  0.83296674  0.66655632  0.83290337  1
  I  I81  1  0.16232562  0.16964240  0.00010868  1
  I  I82  1  0.16700127  0.16994068  0.33325693  1
  I  I83  1  0.17198922  0.16791633  0.66666260  1
  I  I84  1  0.17293814  0.50417028  -0.00003594  1
  I  I85  1  0.16737145  0.50436501  0.33363873  1
  I  I86  1  0.16867595  0.49724439  0.66630210  1
  I  I87  1  0.17009383  0.82816010  0.00442039  1
  I  I88  1  0.16549761  0.82713739  0.32976821  1
  I  I89  1  0.16795454  0.83305966  0.66646002  1
  I  I90  1  0.50504786  0.16704780  -0.00061906  1
  I  I91  1  0.50119735  0.16549137  0.33142922  1
  I  I92  1  0.50281772  0.16865718  0.66933793  1
  I  I93  1  0.49520475  0.49911854  -0.00247208  1
  I  I94  1  0.49904005  0.50050285  0.33595401  1
  I  I95  1  0.49540299  0.49955866  0.66610541  1
  I  I96  1  0.49929886  0.83415013  0.00330772  1
  I  I97  1  0.49993448  0.83282994  0.33225986  1
  I  I98  1  0.50161031  0.83113486  0.66381243  1
  I  I99  1  0.83084108  0.16544685  -0.00231395  1
  I  I100  1  0.83162495  0.17034312  0.33576884  1
  I  I101  1  0.82589279  0.17216461  0.66666987  1
  I  I102  1  0.83354601  0.49942136  0.00008102  1
  I  I103  1  0.83093840  0.49393352  0.33749284  1
  I  I104  1  0.83671482  0.49904230  0.66311123  1
  I  I105  1  0.82980264  0.83294378  0.00423287  1
  I  I106  1  0.83441064  0.83451777  0.33039139  1
  I  I107  1  0.83131885  0.83177359  0.66643928  1
  I  I108  1  -0.00014277  0.16557290  0.16612504  1
  I  I109  1  -0.00480670  0.17151028  0.50444333  1
  I  I110  1  -0.00286154  0.16839957  0.83032340  1
  I  I111  1  0.00428702  0.50447537  0.16552962  1
  I  I112  1  0.00026248  0.49476577  0.49903239  1
  I  I113  1  0.00254324  0.49904923  0.83339779  1
  I  I114  1  0.00060129  0.82807647  0.16634263  1
  I  I115  1  0.00012197  0.83261793  0.49740116  1
  I  I116  1  0.00001358  0.83271307  0.83412341  1
  I  I117  1  0.33766300  0.16187076  0.16153602  1
  I  I118  1  0.33355910  0.16705953  0.49950761  1
  I  I119  1  0.33668630  0.16867218  0.83780779  1
  I  I120  1  0.33061039  0.50459327  0.17030204  1
  I  I121  1  0.33384433  0.50470743  0.50010043  1
  I  I122  1  0.33422519  0.49488170  0.82920286  1
  I  I123  1  0.33402721  0.83215361  0.17018286  1
  I  I124  1  0.33752530  0.82914549  0.49447545  1
  I  I125  1  0.33356609  0.83766281  0.83522597  1
  I  I126  1  0.66311535  0.16195967  0.16573387  1
  I  I127  1  0.66909467  0.17255929  0.50011823  1
  I  I128  1  0.66543453  0.17287108  0.83408243  1
  I  I129  1  0.66667720  0.50115032  0.16699319  1
  I  I130  1  0.66569824  0.49997455  0.50405169  1
  I  I131  1  0.66359909  0.49810524  0.82938952  1
  I  I132  1  0.66527095  0.83823067  0.17090038  1
  I  I133  1  0.66336161  0.82742093  0.49305699  1
  I  I134  1  0.66645369  0.82812627  0.83661939  1
