# generated using pymatgen
data_Cs27Sn14Pb13I81
_symmetry_space_group_name_H-M   'P 1'
_cell_length_a   18.96000973
_cell_length_b   18.96276638
_cell_length_c   18.95987989
_cell_angle_alpha   89.99996253
_cell_angle_beta   90.00259155
_cell_angle_gamma   90.00038251
_symmetry_Int_Tables_number   1
_chemical_formula_structural   Cs27Sn14Pb13I81
_chemical_formula_sum   'Cs27 Sn14 Pb13 I81'
_cell_volume   6816.72590633
_cell_formula_units_Z   1
loop_
 _symmetry_equiv_pos_site_id
 _symmetry_equiv_pos_as_xyz
  1  'x, y, z'
loop_
 _atom_site_type_symbol
 _atom_site_label
 _atom_site_symmetry_multiplicity
 _atom_site_fract_x
 _atom_site_fract_y
 _atom_site_fract_z
 _atom_site_occupancy
  Cs  Cs0  1  -0.00086669  -0.00037123  0.00249344  1
  Cs  Cs1  1  -0.00062013  0.00100203  0.33338555  1
  Cs  Cs2  1  0.00006626  -0.00231010  0.66419900  1
  Cs  Cs3  1  0.00753654  0.33247684  -0.00088769  1
  Cs  Cs4  1  -0.00177074  0.33044372  0.33335549  1
  Cs  Cs5  1  0.00089346  0.33673110  0.66640888  1
  Cs  Cs6  1  -0.00284786  0.66641053  -0.00362046  1
  Cs  Cs7  1  -0.00059657  0.66781114  0.33541603  1
  Cs  Cs8  1  -0.00140825  0.66609486  0.66665837  1
  Cs  Cs9  1  0.33528803  0.00026382  -0.00118429  1
  Cs  Cs10  1  0.33242900  -0.00395743  0.33343050  1
  Cs  Cs11  1  0.33505466  0.00097145  0.66765044  1
  Cs  Cs12  1  0.32725637  0.33324525  -0.00084707  1
  Cs  Cs13  1  0.33319233  0.34221014  0.33053849  1
  Cs  Cs14  1  0.33494156  0.32803463  0.66973007  1
  Cs  Cs15  1  0.33468735  0.66646978  0.00154494  1
  Cs  Cs16  1  0.33518459  0.66633009  0.33326195  1
  Cs  Cs17  1  0.33390274  0.66867639  0.66431332  1
  Cs  Cs18  1  0.66565605  -0.00066954  0.00045882  1
  Cs  Cs19  1  0.66837859  0.00174215  0.33271310  1
  Cs  Cs20  1  0.66412495  0.00494414  0.66704701  1
  Cs  Cs21  1  0.66607470  0.33209042  -0.00048880  1
  Cs  Cs22  1  0.66822519  0.33408864  0.33470344  1
  Cs  Cs23  1  0.66412689  0.32726243  0.66658235  1
  Cs  Cs24  1  0.66765022  0.66713500  -0.00113679  1
  Cs  Cs25  1  0.66601349  0.66575025  0.33275372  1
  Cs  Cs26  1  0.66825089  0.66642788  0.66868425  1
  Sn  Sn27  1  0.50019412  0.83415734  0.16595835  1
  Sn  Sn28  1  0.83325136  0.83255358  0.16752385  1
  Sn  Sn29  1  0.49987812  0.50074031  0.83330055  1
  Sn  Sn30  1  0.16735465  0.83315525  0.83330971  1
  Sn  Sn31  1  0.16699463  0.16666484  0.49960640  1
  Sn  Sn32  1  0.83383250  0.50093702  0.49922428  1
  Sn  Sn33  1  0.49978998  0.16630508  0.16712335  1
  Sn  Sn34  1  0.49936268  0.83228692  0.83398743  1
  Sn  Sn35  1  0.83408424  0.16657452  0.83358452  1
  Sn  Sn36  1  0.83363819  0.83274253  0.49931094  1
  Sn  Sn37  1  0.16642778  0.83309478  0.16648230  1
  Sn  Sn38  1  0.16610158  0.50020064  0.50004853  1
  Sn  Sn39  1  0.16592104  0.83311628  0.50005396  1
  Sn  Sn40  1  0.83354681  0.50057188  0.16695506  1
  Pb  Pb41  1  0.83180270  0.49772939  0.83304992  1
  Pb  Pb42  1  0.49705041  0.16671875  0.49677202  1
  Pb  Pb43  1  0.50052533  0.50008545  0.50239708  1
  Pb  Pb44  1  0.16450188  0.16400376  0.83150342  1
  Pb  Pb45  1  0.50058834  0.83338675  0.49990495  1
  Pb  Pb46  1  0.50202073  0.50058254  0.16484176  1
  Pb  Pb47  1  0.83297317  0.83467002  0.83311570  1
  Pb  Pb48  1  0.83497188  0.16664831  0.50158980  1
  Pb  Pb49  1  0.83210754  0.16662484  0.16501381  1
  Pb  Pb50  1  0.50108207  0.16610005  0.83534004  1
  Pb  Pb51  1  0.16399867  0.50260383  0.16862590  1
  Pb  Pb52  1  0.16886829  0.50243864  0.83094588  1
  Pb  Pb53  1  0.16898878  0.16448647  0.16882543  1
  I  I54  1  0.16175319  -0.00437886  0.16917935  1
  I  I55  1  0.16288129  -0.00210085  0.49990082  1
  I  I56  1  0.17256229  -0.00440111  0.83096929  1
  I  I57  1  0.16742078  0.33357303  0.16852586  1
  I  I58  1  0.16227280  0.33416399  0.50030450  1
  I  I59  1  0.16780465  0.33340185  0.83125749  1
  I  I60  1  0.17252171  0.67117230  0.16873131  1
  I  I61  1  0.16244648  0.66806068  0.50036339  1
  I  I62  1  0.16643333  0.67092493  0.83161482  1
  I  I63  1  0.50177366  -0.00280658  0.16109999  1
  I  I64  1  0.50060409  -0.00024539  0.50476667  1
  I  I65  1  0.49749274  -0.00323658  0.83543281  1
  I  I66  1  0.50294168  0.33150197  0.16566315  1
  I  I67  1  0.50048565  0.33341286  0.50097467  1
  I  I68  1  0.50397417  0.33521010  0.83325991  1
  I  I69  1  0.49849583  0.67018711  0.16461152  1
  I  I70  1  0.49566802  0.66690977  0.49680617  1
  I  I71  1  0.49789405  0.66870212  0.83852297  1
  I  I72  1  0.83473475  -0.00361522  0.16960275  1
  I  I73  1  0.83767697  -0.00313379  0.49698760  1
  I  I74  1  0.83159910  0.00185358  0.83297067  1
  I  I75  1  0.82949240  0.33598670  0.17047426  1
  I  I76  1  0.83724762  0.33630793  0.49721189  1
  I  I77  1  0.82956437  0.33058542  0.83273604  1
  I  I78  1  0.83119409  0.66845925  0.17002291  1
  I  I79  1  0.84105743  0.66742036  0.49706645  1
  I  I80  1  0.83395691  0.66684031  0.83313691  1
  I  I81  1  0.16644942  0.16533760  0.00014666  1
  I  I82  1  0.16506456  0.16330937  0.33688567  1
  I  I83  1  0.16602327  0.16394549  0.66340460  1
  I  I84  1  0.16573128  0.50087951  -0.00001335  1
  I  I85  1  0.16693662  0.50230862  0.33701226  1
  I  I86  1  0.15992464  0.50313320  0.66272103  1
  I  I87  1  0.16692719  0.83401850  0.00050651  1
  I  I88  1  0.16648374  0.83375458  0.33382527  1
  I  I89  1  0.16636478  0.83332549  0.66557220  1
  I  I90  1  0.50167803  0.16320981  0.00291346  1
  I  I91  1  0.50240682  0.15867070  0.32916999  1
  I  I92  1  0.50088864  0.16638880  0.66678855  1
  I  I93  1  0.50304478  0.50283643  -0.00282660  1
  I  I94  1  0.49868242  0.50001863  0.33321897  1
  I  I95  1  0.50164539  0.50674773  0.67017774  1
  I  I96  1  0.49756652  0.83347790  0.00056050  1
  I  I97  1  0.49790843  0.83682676  0.33005115  1
  I  I98  1  0.49709992  0.82998307  0.66955158  1
  I  I99  1  0.83145222  0.16491282  -0.00244962  1
  I  I100  1  0.83277892  0.16646183  0.33334561  1
  I  I101  1  0.83207600  0.16519442  0.66911128  1
  I  I102  1  0.82977464  0.50490306  0.00251051  1
  I  I103  1  0.83553149  0.50386495  0.33397517  1
  I  I104  1  0.83654900  0.50429815  0.66340243  1
  I  I105  1  0.83531969  0.83099909  0.00285072  1
  I  I106  1  0.83597661  0.83092461  0.33309394  1
  I  I107  1  0.83729648  0.83046334  0.66388280  1
  I  I108  1  0.00025011  0.16563942  0.16598152  1
  I  I109  1  0.00291821  0.16438532  0.50011133  1
  I  I110  1  -0.00288116  0.16566637  0.83440348  1
  I  I111  1  -0.00408996  0.50447985  0.16691054  1
  I  I112  1  -0.00032664  0.50189131  0.49741739  1
  I  I113  1  0.00011923  0.50017004  0.83441098  1
  I  I114  1  -0.00026183  0.82946596  0.16741447  1
  I  I115  1  0.00074905  0.83313912  0.49794175  1
  I  I116  1  0.00241304  0.83597555  0.83442210  1
  I  I117  1  0.33681348  0.16075771  0.16565392  1
  I  I118  1  0.32896808  0.16392189  0.50215148  1
  I  I119  1  0.33309648  0.16795640  0.83259512  1
  I  I120  1  0.33316455  0.50030354  0.16786415  1
  I  I121  1  0.33026028  0.50198612  0.50126460  1
  I  I122  1  0.33667042  0.50112014  0.83315301  1
  I  I123  1  0.33330402  0.83820712  0.16656509  1
  I  I124  1  0.33001910  0.83256527  0.49808798  1
  I  I125  1  0.33337453  0.83061240  0.83527879  1
  I  I126  1  0.66420303  0.15982646  0.16515525  1
  I  I127  1  0.66677281  0.16635759  0.50163601  1
  I  I128  1  0.66880907  0.16406055  0.83206592  1
  I  I129  1  0.66998150  0.50572350  0.17247238  1
  I  I130  1  0.67030324  0.50558062  0.49723789  1
  I  I131  1  0.66403805  0.50720505  0.83253772  1
  I  I132  1  0.66688825  0.83348477  0.16596491  1
  I  I133  1  0.67014064  0.82834807  0.49741510  1
  I  I134  1  0.66408981  0.83173539  0.83674494  1
