# generated using pymatgen
data_Cs27Sn13Pb14I81
_symmetry_space_group_name_H-M   'P 1'
_cell_length_a   18.97907775
_cell_length_b   18.97326892
_cell_length_c   18.97846674
_cell_angle_alpha   90.00008357
_cell_angle_beta   90.00141563
_cell_angle_gamma   90.00198634
_symmetry_Int_Tables_number   1
_chemical_formula_structural   Cs27Sn13Pb14I81
_chemical_formula_sum   'Cs27 Sn13 Pb14 I81'
_cell_volume   6834.05374248
_cell_formula_units_Z   1
loop_
 _symmetry_equiv_pos_site_id
 _symmetry_equiv_pos_as_xyz
  1  'x, y, z'
loop_
 _atom_site_type_symbol
 _atom_site_label
 _atom_site_symmetry_multiplicity
 _atom_site_fract_x
 _atom_site_fract_y
 _atom_site_fract_z
 _atom_site_occupancy
  Cs  Cs0  1  -0.00056222  -0.00161196  0.00232884  1
  Cs  Cs1  1  -0.00031672  -0.00200861  0.32443935  1
  Cs  Cs2  1  0.00058546  -0.00013872  0.66889227  1
  Cs  Cs3  1  -0.00136771  0.33472303  0.00010535  1
  Cs  Cs4  1  0.00359887  0.33236724  0.33343735  1
  Cs  Cs5  1  -0.00010131  0.33502311  0.66571161  1
  Cs  Cs6  1  0.00155315  0.66654933  0.00055298  1
  Cs  Cs7  1  -0.00358380  0.66953840  0.33386742  1
  Cs  Cs8  1  -0.00121881  0.66603412  0.66596901  1
  Cs  Cs9  1  0.33317541  -0.00122770  -0.00062977  1
  Cs  Cs10  1  0.33085728  0.00131098  0.33068023  1
  Cs  Cs11  1  0.33370189  -0.00035485  0.66798049  1
  Cs  Cs12  1  0.33446269  0.33500913  0.00005965  1
  Cs  Cs13  1  0.33204814  0.33484351  0.33676127  1
  Cs  Cs14  1  0.32980233  0.33096645  0.66227505  1
  Cs  Cs15  1  0.33385609  0.66599053  0.00044285  1
  Cs  Cs16  1  0.33598200  0.66296603  0.33393940  1
  Cs  Cs17  1  0.33685232  0.67079784  0.66491899  1
  Cs  Cs18  1  0.66717479  0.00147201  0.00054733  1
  Cs  Cs19  1  0.66917105  -0.00103933  0.33358723  1
  Cs  Cs20  1  0.66599584  0.00048143  0.66582332  1
  Cs  Cs21  1  0.66690379  0.33520782  0.00042159  1
  Cs  Cs22  1  0.66352459  0.33262645  0.33122891  1
  Cs  Cs23  1  0.67077222  0.33250951  0.66845999  1
  Cs  Cs24  1  0.66182786  0.65944434  -0.00276033  1
  Cs  Cs25  1  0.66657698  0.66799158  0.34162286  1
  Cs  Cs26  1  0.66426858  0.66417232  0.65967026  1
  Sn  Sn27  1  0.16591180  0.83321486  0.83262973  1
  Sn  Sn28  1  0.50012681  0.16653143  0.83328510  1
  Sn  Sn29  1  0.83356576  0.16582164  0.83284880  1
  Sn  Sn30  1  0.50073842  0.16620108  0.50017164  1
  Sn  Sn31  1  0.16673559  0.50018104  0.83381414  1
  Sn  Sn32  1  0.83401349  0.50010292  0.16678270  1
  Sn  Sn33  1  0.16636421  0.83377311  0.50039574  1
  Sn  Sn34  1  0.50026606  0.83382592  0.16637868  1
  Sn  Sn35  1  0.83327346  0.16635730  0.50029609  1
  Sn  Sn36  1  0.16553467  0.49996543  0.16608529  1
  Sn  Sn37  1  0.83325572  0.83341329  0.83350106  1
  Sn  Sn38  1  0.49978629  0.16564283  0.16655524  1
  Sn  Sn39  1  0.16630125  0.16673096  0.83368745  1
  Pb  Pb40  1  0.49717231  0.49719149  0.83282450  1
  Pb  Pb41  1  0.83530214  0.83593183  0.50239036  1
  Pb  Pb42  1  0.83145809  0.16805206  0.16633139  1
  Pb  Pb43  1  0.16605060  0.16456536  0.50186423  1
  Pb  Pb44  1  0.49986974  0.49993298  0.16675186  1
  Pb  Pb45  1  0.16646961  0.50269967  0.50041158  1
  Pb  Pb46  1  0.83360535  0.49719130  0.49734178  1
  Pb  Pb47  1  0.49805384  0.83608031  0.49778335  1
  Pb  Pb48  1  0.83519531  0.50010408  0.83438088  1
  Pb  Pb49  1  0.50006844  0.49710231  0.50040221  1
  Pb  Pb50  1  0.16893667  0.16875188  0.16410500  1
  Pb  Pb51  1  0.50029229  0.83506151  0.83456524  1
  Pb  Pb52  1  0.83066723  0.83079815  0.16382773  1
  Pb  Pb53  1  0.16819975  0.83115348  0.16605152  1
  I  I54  1  0.16706997  -0.00002939  0.16613497  1
  I  I55  1  0.16812084  -0.00290126  0.50658967  1
  I  I56  1  0.16712149  0.00022788  0.82857114  1
  I  I57  1  0.16532513  0.33656132  0.16154500  1
  I  I58  1  0.16798976  0.33298273  0.50049547  1
  I  I59  1  0.16782055  0.33251276  0.83830484  1
  I  I60  1  0.16653737  0.66348559  0.16025760  1
  I  I61  1  0.16712719  0.67035107  0.50588865  1
  I  I62  1  0.16122182  0.66738433  0.83431945  1
  I  I63  1  0.49921290  0.00154147  0.16555152  1
  I  I64  1  0.50289369  0.00418503  0.50323933  1
  I  I65  1  0.49526491  0.00383306  0.83220529  1
  I  I66  1  0.49996597  0.33016190  0.16608156  1
  I  I67  1  0.50089416  0.32819207  0.49695443  1
  I  I68  1  0.50165701  0.32818310  0.83728392  1
  I  I69  1  0.49831175  0.66899793  0.16448277  1
  I  I70  1  0.49862194  0.66732749  0.49695233  1
  I  I71  1  0.49972631  0.66684285  0.83782261  1
  I  I72  1  0.83350641  -0.00004385  0.16791466  1
  I  I73  1  0.82864255  0.00390449  0.50161201  1
  I  I74  1  0.83801826  0.00149330  0.83097968  1
  I  I75  1  0.83533484  0.33573577  0.16402176  1
  I  I76  1  0.83018548  0.32899850  0.50787397  1
  I  I77  1  0.83328800  0.32995345  0.83131042  1
  I  I78  1  0.83658488  0.66340860  0.16367581  1
  I  I79  1  0.83423127  0.66703210  0.50058570  1
  I  I80  1  0.83935660  0.66934931  0.83718851  1
  I  I81  1  0.16589334  0.16183871  -0.00442680  1
  I  I82  1  0.16732909  0.16667242  0.33322824  1
  I  I83  1  0.17102270  0.17065890  0.67057545  1
  I  I84  1  0.16356052  0.50075988  -0.00100042  1
  I  I85  1  0.16471326  0.50083105  0.33050430  1
  I  I86  1  0.16712817  0.49639365  0.67018386  1
  I  I87  1  0.16488969  0.83554943  -0.00342353  1
  I  I88  1  0.16968701  0.83277993  0.33515337  1
  I  I89  1  0.16442295  0.83242673  0.66907589  1
  I  I90  1  0.49910145  0.16334875  -0.00062041  1
  I  I91  1  0.50516926  0.16352788  0.33332078  1
  I  I92  1  0.49975393  0.16782845  0.66745004  1
  I  I93  1  0.50120788  0.49684975  -0.00003962  1
  I  I94  1  0.49669509  0.49732232  0.33304694  1
  I  I95  1  0.49846058  0.50048940  0.66688347  1
  I  I96  1  0.49760661  0.83977455  0.00238060  1
  I  I97  1  0.49752863  0.83841931  0.32999984  1
  I  I98  1  0.50006206  0.83459234  0.66665731  1
  I  I99  1  0.83307587  0.16495705  -0.00334986  1
  I  I100  1  0.82795506  0.16951964  0.33561641  1
  I  I101  1  0.82827881  0.16407736  0.66837738  1
  I  I102  1  0.83509911  0.49705777  0.00226946  1
  I  I103  1  0.83973035  0.49854324  0.32943490  1
  I  I104  1  0.83459295  0.50048973  0.66674441  1
  I  I105  1  0.84125156  0.84181950  -0.00388897  1
  I  I106  1  0.83490900  0.83406564  0.33322004  1
  I  I107  1  0.83485700  0.83503890  0.67066672  1
  I  I108  1  0.00008147  0.16671223  0.16725684  1
  I  I109  1  -0.00266323  0.16663309  0.50608226  1
  I  I110  1  -0.00008684  0.16658115  0.82836150  1
  I  I111  1  0.00090720  0.49926342  0.16130815  1
  I  I112  1  0.00018245  0.49604373  0.50095870  1
  I  I113  1  0.00346762  0.49520498  0.83599598  1
  I  I114  1  -0.00007878  0.83368364  0.16821311  1
  I  I115  1  0.00312934  0.83525531  0.50164675  1
  I  I116  1  0.00116880  0.83867443  0.83094261  1
  I  I117  1  0.33706565  0.16540433  0.16701212  1
  I  I118  1  0.33581509  0.16561007  0.50087276  1
  I  I119  1  0.33314347  0.16702092  0.83403919  1
  I  I120  1  0.33063710  0.49971454  0.16179478  1
  I  I121  1  0.33296958  0.49700902  0.49696236  1
  I  I122  1  0.32862306  0.50107330  0.84127662  1
  I  I123  1  0.33590304  0.83656078  0.16418899  1
  I  I124  1  0.33032845  0.83510726  0.50764261  1
  I  I125  1  0.33024082  0.83436431  0.83164715  1
  I  I126  1  0.66335519  0.16661137  0.16201701  1
  I  I127  1  0.66615596  0.16671609  0.50517368  1
  I  I128  1  0.66696904  0.16182703  0.83297354  1
  I  I129  1  0.66881577  0.49791374  0.16541874  1
  I  I130  1  0.66691309  0.50315181  0.49734051  1
  I  I131  1  0.66688032  0.49925063  0.83702216  1
  I  I132  1  0.66324656  0.83744358  0.16504028  1
  I  I133  1  0.66671487  0.83218235  0.50007655  1
  I  I134  1  0.66934628  0.83966081  0.83705541  1
