# generated using pymatgen
data_Cs27Sn14Pb13I81
_symmetry_space_group_name_H-M   'P 1'
_cell_length_a   18.98239544
_cell_length_b   18.98617427
_cell_length_c   18.95837734
_cell_angle_alpha   90.00084854
_cell_angle_beta   90.00006877
_cell_angle_gamma   89.99916881
_symmetry_Int_Tables_number   1
_chemical_formula_structural   Cs27Sn14Pb13I81
_chemical_formula_sum   'Cs27 Sn14 Pb13 I81'
_cell_volume   6832.65735313
_cell_formula_units_Z   1
loop_
 _symmetry_equiv_pos_site_id
 _symmetry_equiv_pos_as_xyz
  1  'x, y, z'
loop_
 _atom_site_type_symbol
 _atom_site_label
 _atom_site_symmetry_multiplicity
 _atom_site_fract_x
 _atom_site_fract_y
 _atom_site_fract_z
 _atom_site_occupancy
  Cs  Cs0  1  -0.00023376  -0.00070862  0.00096061  1
  Cs  Cs1  1  0.00072422  -0.00071692  0.33303503  1
  Cs  Cs2  1  0.00117373  -0.00111275  0.66704179  1
  Cs  Cs3  1  0.00061691  0.33026717  -0.00105666  1
  Cs  Cs4  1  -0.00108163  0.33583538  0.33539464  1
  Cs  Cs5  1  0.00069898  0.33375242  0.66584165  1
  Cs  Cs6  1  -0.00004361  0.67125716  0.00517379  1
  Cs  Cs7  1  -0.00392305  0.66545531  0.32945605  1
  Cs  Cs8  1  0.00238616  0.66763288  0.66658603  1
  Cs  Cs9  1  0.32859382  0.00088075  0.00388012  1
  Cs  Cs10  1  0.34327305  0.00205408  0.32983497  1
  Cs  Cs11  1  0.33215668  -0.00226134  0.66640085  1
  Cs  Cs12  1  0.33376473  0.33298031  0.00262137  1
  Cs  Cs13  1  0.33242990  0.33232935  0.32472406  1
  Cs  Cs14  1  0.33110939  0.33703380  0.66826467  1
  Cs  Cs15  1  0.33069900  0.66716456  0.00370283  1
  Cs  Cs16  1  0.33724287  0.66650890  0.33156567  1
  Cs  Cs17  1  0.33202856  0.66499897  0.66673354  1
  Cs  Cs18  1  0.67092461  0.00030545  -0.00256089  1
  Cs  Cs19  1  0.65682280  -0.00091062  0.33558499  1
  Cs  Cs20  1  0.66624847  -0.00049089  0.66612757  1
  Cs  Cs21  1  0.66553109  0.33277913  -0.00346427  1
  Cs  Cs22  1  0.66886791  0.33267874  0.33492370  1
  Cs  Cs23  1  0.66761359  0.33343736  0.66744162  1
  Cs  Cs24  1  0.66801198  0.66678440  0.00180778  1
  Cs  Cs25  1  0.66807508  0.66795136  0.32284622  1
  Cs  Cs26  1  0.66514216  0.66663369  0.66771806  1
  Sn  Sn27  1  0.49953795  0.49999531  0.50083015  1
  Sn  Sn28  1  0.16692516  0.16675355  0.50072041  1
  Sn  Sn29  1  0.16671165  0.16731023  0.83237518  1
  Sn  Sn30  1  0.83328960  0.16660875  0.16661868  1
  Sn  Sn31  1  0.83358911  0.16662561  0.83345377  1
  Sn  Sn32  1  0.83368358  0.83318313  0.50087062  1
  Sn  Sn33  1  0.16646559  0.49944536  0.83311368  1
  Sn  Sn34  1  0.50037546  0.83315661  0.83287117  1
  Sn  Sn35  1  0.83386391  0.50026970  0.83284113  1
  Sn  Sn36  1  0.16624034  0.83323531  0.50032082  1
  Sn  Sn37  1  0.16765495  0.50005161  0.50070408  1
  Sn  Sn38  1  0.83274516  0.83322181  0.83225267  1
  Sn  Sn39  1  0.49955932  0.16645774  0.83265955  1
  Sn  Sn40  1  0.49968953  0.50027795  0.83271766  1
  Pb  Pb41  1  0.50289733  0.16686239  0.16363498  1
  Pb  Pb42  1  0.83329686  0.83592958  0.16667586  1
  Pb  Pb43  1  0.49722187  0.16944636  0.50256693  1
  Pb  Pb44  1  0.50013559  0.83339417  0.16272236  1
  Pb  Pb45  1  0.16457206  0.16668593  0.16665037  1
  Pb  Pb46  1  0.16662616  0.83354524  0.17120097  1
  Pb  Pb47  1  0.83502884  0.16453335  0.50067218  1
  Pb  Pb48  1  0.16649242  0.49992551  0.16674185  1
  Pb  Pb49  1  0.50007016  0.83088420  0.50201967  1
  Pb  Pb50  1  0.83343766  0.49719633  0.16337796  1
  Pb  Pb51  1  0.83323621  0.50235489  0.50196863  1
  Pb  Pb52  1  0.16663942  0.83319379  0.83228925  1
  Pb  Pb53  1  0.50011182  0.49977945  0.16632406  1
  I  I54  1  0.16498737  0.00026527  0.16351412  1
  I  I55  1  0.15986473  0.00026984  0.50617846  1
  I  I56  1  0.16652342  0.00268231  0.82936351  1
  I  I57  1  0.16535703  0.33325991  0.17007342  1
  I  I58  1  0.16989880  0.33372808  0.50535840  1
  I  I59  1  0.16558764  0.33325513  0.82685338  1
  I  I60  1  0.16533146  0.66662466  0.16289887  1
  I  I61  1  0.16666595  0.66587967  0.50632377  1
  I  I62  1  0.16698906  0.66384305  0.82876706  1
  I  I63  1  0.49998014  0.00026513  0.16783432  1
  I  I64  1  0.49903932  -0.00005218  0.50102602  1
  I  I65  1  0.50376745  0.00029917  0.83369907  1
  I  I66  1  0.50021111  0.33321862  0.16436543  1
  I  I67  1  0.49690622  0.33719587  0.50742899  1
  I  I68  1  0.50290310  0.33362150  0.83028860  1
  I  I69  1  0.50101890  0.66652667  0.16507814  1
  I  I70  1  0.49372291  0.66334647  0.50875362  1
  I  I71  1  0.50299918  0.66591708  0.82903591  1
  I  I72  1  0.83506930  0.00312986  0.15742261  1
  I  I73  1  0.83916393  -0.00325094  0.50670653  1
  I  I74  1  0.83074088  0.00026119  0.83389552  1
  I  I75  1  0.83414784  0.32964427  0.16089657  1
  I  I76  1  0.83400626  0.33344496  0.49976337  1
  I  I77  1  0.83141942  0.33315394  0.83783614  1
  I  I78  1  0.83329627  0.66680048  0.16608854  1
  I  I79  1  0.83914926  0.67003224  0.50738660  1
  I  I80  1  0.83049592  0.66677414  0.82753172  1
  I  I81  1  0.16895903  0.17146071  -0.00400570  1
  I  I82  1  0.16335819  0.16770025  0.33675676  1
  I  I83  1  0.16372003  0.16807517  0.66810035  1
  I  I84  1  0.16789070  0.49458206  -0.00428147  1
  I  I85  1  0.17159207  0.49911733  0.33744829  1
  I  I86  1  0.16732359  0.49865597  0.66757511  1
  I  I87  1  0.16684917  0.83337065  -0.00018799  1
  I  I88  1  0.15858455  0.83250540  0.33954710  1
  I  I89  1  0.16491531  0.83337909  0.66419010  1
  I  I90  1  0.49454494  0.16987893  -0.00540127  1
  I  I91  1  0.50026886  0.16780746  0.33365852  1
  I  I92  1  0.50688566  0.16465607  0.67106637  1
  I  I93  1  0.49992637  0.49955183  -0.00481290  1
  I  I94  1  0.49355648  0.50080794  0.33668038  1
  I  I95  1  0.49848105  0.49996051  0.66893211  1
  I  I96  1  0.50685683  0.83026987  -0.00588791  1
  I  I97  1  0.50025763  0.83160803  0.33371888  1
  I  I98  1  0.50245410  0.83541852  0.67039267  1
  I  I99  1  0.83483649  0.16527229  -0.00358976  1
  I  I100  1  0.83736929  0.16477479  0.33154189  1
  I  I101  1  0.83183579  0.16835070  0.67063344  1
  I  I102  1  0.83262314  0.50554466  -0.00570772  1
  I  I103  1  0.83334965  0.50035824  0.33354864  1
  I  I104  1  0.83325524  0.49414243  0.67073468  1
  I  I105  1  0.82883840  0.83118852  -0.00386409  1
  I  I106  1  0.83976907  0.83369355  0.33644597  1
  I  I107  1  0.83364987  0.83605495  0.66856681  1
  I  I108  1  -0.00284128  0.16604214  0.15773825  1
  I  I109  1  0.00323417  0.17162263  0.50619754  1
  I  I110  1  -0.00000119  0.16929879  0.83367643  1
  I  I111  1  -0.00013858  0.49979437  0.16735857  1
  I  I112  1  0.00308695  0.49801245  0.50470097  1
  I  I113  1  0.00040571  0.49628015  0.82905773  1
  I  I114  1  -0.00025247  0.83391055  0.16072801  1
  I  I115  1  0.00021416  0.83225408  0.50765824  1
  I  I116  1  -0.00274273  0.83374374  0.83123039  1
  I  I117  1  0.33343942  0.16633662  0.16611559  1
  I  I118  1  0.32905776  0.16076567  0.50599245  1
  I  I119  1  0.33281374  0.16903055  0.82769307  1
  I  I120  1  0.33330014  0.49898696  0.16183524  1
  I  I121  1  0.33213944  0.50237024  0.50991341  1
  I  I122  1  0.33312368  0.49739511  0.82906267  1
  I  I123  1  0.33340804  0.83434832  0.16529529  1
  I  I124  1  0.33056511  0.83452330  0.50287630  1
  I  I125  1  0.33567907  0.83337591  0.83093647  1
  I  I126  1  0.67050358  0.16639241  0.15996952  1
  I  I127  1  0.66647536  0.16617379  0.49980459  1
  I  I128  1  0.66704266  0.16865856  0.83834712  1
  I  I129  1  0.66682161  0.49993845  0.16784226  1
  I  I130  1  0.66423643  0.50107592  0.50634307  1
  I  I131  1  0.66645272  0.49737915  0.82992063  1
  I  I132  1  0.66689925  0.83392256  0.17210834  1
  I  I133  1  0.66915933  0.83328946  0.50354486  1
  I  I134  1  0.66777223  0.83391189  0.82810461  1
