# generated using pymatgen
data_Cs27Sn14Pb13I81
_symmetry_space_group_name_H-M   'P 1'
_cell_length_a   18.97940312
_cell_length_b   18.98078472
_cell_length_c   18.96798369
_cell_angle_alpha   89.99875927
_cell_angle_beta   89.99975589
_cell_angle_gamma   90.00104977
_symmetry_Int_Tables_number   1
_chemical_formula_structural   Cs27Sn14Pb13I81
_chemical_formula_sum   'Cs27 Sn14 Pb13 I81'
_cell_volume   6833.10164600
_cell_formula_units_Z   1
loop_
 _symmetry_equiv_pos_site_id
 _symmetry_equiv_pos_as_xyz
  1  'x, y, z'
loop_
 _atom_site_type_symbol
 _atom_site_label
 _atom_site_symmetry_multiplicity
 _atom_site_fract_x
 _atom_site_fract_y
 _atom_site_fract_z
 _atom_site_occupancy
  Cs  Cs0  1  0.00188693  -0.00028582  0.00585124  1
  Cs  Cs1  1  -0.00036767  0.00224337  0.32498145  1
  Cs  Cs2  1  -0.00357714  -0.00131658  0.66819934  1
  Cs  Cs3  1  -0.00060126  0.32896930  -0.00058918  1
  Cs  Cs4  1  0.00870657  0.33805632  0.32876254  1
  Cs  Cs5  1  -0.00078071  0.33482500  0.66686251  1
  Cs  Cs6  1  0.00417425  0.67234536  0.00078232  1
  Cs  Cs7  1  0.00013445  0.65932102  0.33001775  1
  Cs  Cs8  1  -0.00098016  0.66593914  0.66675904  1
  Cs  Cs9  1  0.33339708  -0.00181136  -0.00025287  1
  Cs  Cs10  1  0.33356352  0.00322593  0.33659600  1
  Cs  Cs11  1  0.33500567  0.00052957  0.66507844  1
  Cs  Cs12  1  0.33509079  0.33621767  -0.00098528  1
  Cs  Cs13  1  0.32395251  0.33260308  0.33323451  1
  Cs  Cs14  1  0.33304987  0.32908802  0.66619215  1
  Cs  Cs15  1  0.33320357  0.66681551  0.00035237  1
  Cs  Cs16  1  0.33674871  0.66419812  0.33318774  1
  Cs  Cs17  1  0.33442478  0.66947730  0.66789298  1
  Cs  Cs18  1  0.66641972  0.00083257  0.00047615  1
  Cs  Cs19  1  0.66634903  -0.00176063  0.33413605  1
  Cs  Cs20  1  0.66677611  0.00028809  0.66627902  1
  Cs  Cs21  1  0.66601483  0.33393817  -0.00050285  1
  Cs  Cs22  1  0.66898050  0.33864011  0.32843072  1
  Cs  Cs23  1  0.66743783  0.33094233  0.66855148  1
  Cs  Cs24  1  0.66461274  0.66583202  -0.00027739  1
  Cs  Cs25  1  0.66552995  0.66610742  0.33387454  1
  Cs  Cs26  1  0.66699751  0.66810434  0.66666098  1
  Sn  Sn27  1  0.16678291  0.49925296  0.83271937  1
  Sn  Sn28  1  0.83253750  0.83349336  0.83281006  1
  Sn  Sn29  1  0.50022565  0.16627927  0.16688781  1
  Sn  Sn30  1  0.16584158  0.83345021  0.49992149  1
  Sn  Sn31  1  0.83425322  0.16611572  0.83258936  1
  Sn  Sn32  1  0.50004857  0.83290685  0.50014486  1
  Sn  Sn33  1  0.49997681  0.50082437  0.83183876  1
  Sn  Sn34  1  0.50020757  0.49999476  0.50138672  1
  Sn  Sn35  1  0.50031341  0.83450479  0.16673421  1
  Sn  Sn36  1  0.83346968  0.50040602  0.83301757  1
  Sn  Sn37  1  0.50081521  0.83289168  0.83328630  1
  Sn  Sn38  1  0.16588949  0.16684488  0.83272179  1
  Sn  Sn39  1  0.83332004  0.16648494  0.50000750  1
  Sn  Sn40  1  0.83395432  0.83407902  0.50040656  1
  Pb  Pb41  1  0.16967729  0.83331581  0.17037733  1
  Pb  Pb42  1  0.83148112  0.16666276  0.16694326  1
  Pb  Pb43  1  0.16942996  0.16646330  0.16377612  1
  Pb  Pb44  1  0.50035619  0.16652869  0.83445406  1
  Pb  Pb45  1  0.50220711  0.16723712  0.49783782  1
  Pb  Pb46  1  0.16345955  0.16440718  0.50224595  1
  Pb  Pb47  1  0.16918556  0.50217786  0.50263368  1
  Pb  Pb48  1  0.49996673  0.50014261  0.16669869  1
  Pb  Pb49  1  0.16678061  0.50022661  0.16345102  1
  Pb  Pb50  1  0.83152280  0.50006074  0.50171394  1
  Pb  Pb51  1  0.16648188  0.83351395  0.83190306  1
  Pb  Pb52  1  0.83338523  0.50014679  0.16326890  1
  Pb  Pb53  1  0.83126867  0.83314322  0.16693594  1
  I  I54  1  0.16597467  -0.00015520  0.16248910  1
  I  I55  1  0.17443358  -0.00329298  0.50411851  1
  I  I56  1  0.16434002  0.00216432  0.83169101  1
  I  I57  1  0.17049697  0.33317613  0.16984875  1
  I  I58  1  0.16793504  0.33336771  0.49906745  1
  I  I59  1  0.16469852  0.33373733  0.83327594  1
  I  I60  1  0.16911455  0.66697002  0.16305748  1
  I  I61  1  0.16292983  0.67004485  0.50392075  1
  I  I62  1  0.16538496  0.66438079  0.83154732  1
  I  I63  1  0.50096630  -0.00163052  0.16521837  1
  I  I64  1  0.49870204  -0.00338273  0.50301614  1
  I  I65  1  0.50220054  -0.00315110  0.83093808  1
  I  I66  1  0.50154226  0.33114016  0.16393967  1
  I  I67  1  0.50263225  0.33604092  0.50513322  1
  I  I68  1  0.50202082  0.33606991  0.83166705  1
  I  I69  1  0.50029297  0.66973847  0.16641590  1
  I  I70  1  0.50193832  0.66857743  0.49894973  1
  I  I71  1  0.50228925  0.66746909  0.83472860  1
  I  I72  1  0.83310194  -0.00014614  0.16126332  1
  I  I73  1  0.82981306  -0.00152553  0.50962496  1
  I  I74  1  0.83210324  -0.00055513  0.82904247  1
  I  I75  1  0.82756574  0.33318129  0.16664876  1
  I  I76  1  0.82887469  0.33095366  0.50622136  1
  I  I77  1  0.83279602  0.33310514  0.82986652  1
  I  I78  1  0.82969239  0.66687967  0.16744336  1
  I  I79  1  0.83326750  0.67008808  0.50470833  1
  I  I80  1  0.83165966  0.66736354  0.82937376  1
  I  I81  1  0.15948273  0.16914538  -0.00439243  1
  I  I82  1  0.16628162  0.16549099  0.33354561  1
  I  I83  1  0.16793288  0.17081757  0.67029554  1
  I  I84  1  0.17058271  0.49798206  -0.00536252  1
  I  I85  1  0.16911312  0.50075130  0.33392612  1
  I  I86  1  0.16471686  0.49674082  0.67078858  1
  I  I87  1  0.16707690  0.83276334  -0.00013931  1
  I  I88  1  0.16554872  0.83430087  0.33830766  1
  I  I89  1  0.17242145  0.83310927  0.66430406  1
  I  I90  1  0.50134138  0.16186730  0.00203933  1
  I  I91  1  0.50306713  0.16087016  0.33045755  1
  I  I92  1  0.49814215  0.16486958  0.66670055  1
  I  I93  1  0.50022748  0.50305691  -0.00369143  1
  I  I94  1  0.50168659  0.50467596  0.33628787  1
  I  I95  1  0.50031016  0.50873257  0.66823390  1
  I  I96  1  0.50461978  0.83295181  -0.00158415  1
  I  I97  1  0.50012332  0.83295816  0.33473615  1
  I  I98  1  0.50078350  0.82826733  0.66676813  1
  I  I99  1  0.83580718  0.16673298  -0.00380830  1
  I  I100  1  0.82874893  0.15868647  0.33655027  1
  I  I101  1  0.83488821  0.16505112  0.66833044  1
  I  I102  1  0.82814756  0.49947754  -0.00608404  1
  I  I103  1  0.82965610  0.50015856  0.33381448  1
  I  I104  1  0.83436520  0.50026762  0.67054586  1
  I  I105  1  0.82902202  0.83319142  -0.00376486  1
  I  I106  1  0.83152275  0.83946949  0.33715715  1
  I  I107  1  0.82783947  0.83412394  0.66745418  1
  I  I108  1  0.00007303  0.16707925  0.16741948  1
  I  I109  1  -0.00452780  0.16104399  0.50327907  1
  I  I110  1  -0.00132069  0.17013875  0.82954254  1
  I  I111  1  0.00014102  0.49954857  0.16829308  1
  I  I112  1  -0.00005016  0.50180936  0.50151905  1
  I  I113  1  -0.00069727  0.49965190  0.83387862  1
  I  I114  1  0.00007243  0.83335401  0.16483982  1
  I  I115  1  -0.00148397  0.83817300  0.50917267  1
  I  I116  1  -0.00296174  0.83055462  0.82798551  1
  I  I117  1  0.33716368  0.16172912  0.16581214  1
  I  I118  1  0.33336517  0.16557387  0.50034410  1
  I  I119  1  0.33161340  0.16975564  0.83648252  1
  I  I120  1  0.33382978  0.50018603  0.16382555  1
  I  I121  1  0.33736039  0.50580620  0.50536342  1
  I  I122  1  0.33440806  0.50028148  0.83056421  1
  I  I123  1  0.33808614  0.83634632  0.16287511  1
  I  I124  1  0.33517875  0.82860406  0.50087399  1
  I  I125  1  0.33639537  0.83076259  0.83263958  1
  I  I126  1  0.66378381  0.16207860  0.16287803  1
  I  I127  1  0.66977231  0.16010838  0.50882651  1
  I  I128  1  0.66951893  0.16832420  0.83159844  1
  I  I129  1  0.66613974  0.49933785  0.16403914  1
  I  I130  1  0.66343001  0.50588463  0.50570417  1
  I  I131  1  0.66620578  0.50061654  0.83010719  1
  I  I132  1  0.66290298  0.83650334  0.16928373  1
  I  I133  1  0.66618862  0.83350763  0.50109197  1
  I  I134  1  0.66620057  0.83119952  0.82986416  1
