# generated using pymatgen
data_Cs27Sn13Pb14I81
_symmetry_space_group_name_H-M   'P 1'
_cell_length_a   18.97928446
_cell_length_b   18.97860926
_cell_length_c   18.97427617
_cell_angle_alpha   90.00082755
_cell_angle_beta   90.00171330
_cell_angle_gamma   89.99895817
_symmetry_Int_Tables_number   1
_chemical_formula_structural   Cs27Sn13Pb14I81
_chemical_formula_sum   'Cs27 Sn13 Pb14 I81'
_cell_volume   6834.54231130
_cell_formula_units_Z   1
loop_
 _symmetry_equiv_pos_site_id
 _symmetry_equiv_pos_as_xyz
  1  'x, y, z'
loop_
 _atom_site_type_symbol
 _atom_site_label
 _atom_site_symmetry_multiplicity
 _atom_site_fract_x
 _atom_site_fract_y
 _atom_site_fract_z
 _atom_site_occupancy
  Cs  Cs0  1  -0.00049023  -0.00093923  -0.00190008  1
  Cs  Cs1  1  -0.00001514  -0.00033080  0.33362458  1
  Cs  Cs2  1  0.00052649  -0.00201494  0.66843781  1
  Cs  Cs3  1  -0.00126708  0.33596459  0.00546193  1
  Cs  Cs4  1  0.00169304  0.33281754  0.33030194  1
  Cs  Cs5  1  0.00054902  0.33298594  0.66683885  1
  Cs  Cs6  1  0.00071397  0.66581609  0.00095215  1
  Cs  Cs7  1  -0.00155922  0.66664985  0.33442390  1
  Cs  Cs8  1  -0.00143051  0.66859578  0.66520375  1
  Cs  Cs9  1  0.33417304  0.00144435  -0.00300682  1
  Cs  Cs10  1  0.33382857  -0.00043569  0.33405294  1
  Cs  Cs11  1  0.33092133  0.00053064  0.66840124  1
  Cs  Cs12  1  0.33912077  0.33569659  -0.00356700  1
  Cs  Cs13  1  0.32979284  0.33498978  0.33698644  1
  Cs  Cs14  1  0.33342946  0.33256023  0.66585986  1
  Cs  Cs15  1  0.33489986  0.66465940  0.00539576  1
  Cs  Cs16  1  0.33356235  0.66528536  0.33121109  1
  Cs  Cs17  1  0.33181663  0.66754662  0.66596390  1
  Cs  Cs18  1  0.66801063  -0.00080064  0.00266464  1
  Cs  Cs19  1  0.66593797  0.00098549  0.33025531  1
  Cs  Cs20  1  0.66802680  -0.00096026  0.66662430  1
  Cs  Cs21  1  0.66242901  0.33830286  0.00277158  1
  Cs  Cs22  1  0.67125119  0.32938339  0.33002447  1
  Cs  Cs23  1  0.66590824  0.33605460  0.66797360  1
  Cs  Cs24  1  0.66372796  0.66551802  -0.00295247  1
  Cs  Cs25  1  0.66632455  0.66759061  0.33511584  1
  Cs  Cs26  1  0.66944900  0.66586215  0.66706888  1
  Sn  Sn27  1  0.83421015  0.83345589  0.16583734  1
  Sn  Sn28  1  0.16643036  0.16690583  0.49970534  1
  Sn  Sn29  1  0.83268370  0.83417550  0.83404554  1
  Sn  Sn30  1  0.49951160  0.49984617  0.50016170  1
  Sn  Sn31  1  0.16589569  0.83453678  0.16681984  1
  Sn  Sn32  1  0.83357713  0.16638654  0.50103309  1
  Sn  Sn33  1  0.50046051  0.83370818  0.83236042  1
  Sn  Sn34  1  0.16707794  0.16556264  0.16688372  1
  Sn  Sn35  1  0.50006140  0.16669727  0.50027867  1
  Sn  Sn36  1  0.83331632  0.16662173  0.83306808  1
  Sn  Sn37  1  0.16638907  0.49990604  0.83244399  1
  Sn  Sn38  1  0.49985963  0.83348336  0.50106167  1
  Sn  Sn39  1  0.16706498  0.49946483  0.50127285  1
  Pb  Pb40  1  0.83355490  0.49705601  0.49997421  1
  Pb  Pb41  1  0.50005896  0.49976150  0.16989052  1
  Pb  Pb42  1  0.16665604  0.83143449  0.83562163  1
  Pb  Pb43  1  0.49706905  0.16670562  0.16885131  1
  Pb  Pb44  1  0.50009871  0.83349591  0.16645421  1
  Pb  Pb45  1  0.16871487  0.83335947  0.49814992  1
  Pb  Pb46  1  0.16670234  0.49965450  0.16724757  1
  Pb  Pb47  1  0.83519738  0.16498468  0.16629977  1
  Pb  Pb48  1  0.83114052  0.83551037  0.50008663  1
  Pb  Pb49  1  0.49790294  0.50251862  0.83083314  1
  Pb  Pb50  1  0.83532519  0.50005696  0.83324178  1
  Pb  Pb51  1  0.83315427  0.50330215  0.16663667  1
  Pb  Pb52  1  0.50256757  0.16477357  0.83118058  1
  Pb  Pb53  1  0.16465470  0.16850357  0.83337987  1
  I  I54  1  0.16312523  0.00017228  0.17298841  1
  I  I55  1  0.16768448  0.00296578  0.49726426  1
  I  I56  1  0.16778506  -0.00007133  0.83147659  1
  I  I57  1  0.16588360  0.33046077  0.17004252  1
  I  I58  1  0.17083912  0.33236714  0.49822028  1
  I  I59  1  0.16506670  0.33617022  0.83239877  1
  I  I60  1  0.16321617  0.66933692  0.16647362  1
  I  I61  1  0.17152280  0.66412630  0.50155803  1
  I  I62  1  0.16537008  0.66386194  0.82727653  1
  I  I63  1  0.50028578  -0.00011386  0.17095549  1
  I  I64  1  0.49970496  0.00033065  0.50294405  1
  I  I65  1  0.49960698  -0.00336627  0.82720870  1
  I  I66  1  0.49867937  0.33310021  0.16613165  1
  I  I67  1  0.49768632  0.33283338  0.49876225  1
  I  I68  1  0.50058065  0.33345711  0.83283107  1
  I  I69  1  0.49733039  0.66708349  0.16974846  1
  I  I70  1  0.49489390  0.66679030  0.50306872  1
  I  I71  1  0.50632640  0.67044156  0.82797941  1
  I  I72  1  0.83555943  -0.00300374  0.16582925  1
  I  I73  1  0.83478250  0.00357086  0.50084943  1
  I  I74  1  0.83125485  -0.00081575  0.83244347  1
  I  I75  1  0.83546637  0.33281972  0.16704964  1
  I  I76  1  0.82960704  0.32874552  0.50545153  1
  I  I77  1  0.83632464  0.33032199  0.82705205  1
  I  I78  1  0.84043709  0.67185292  0.16199803  1
  I  I79  1  0.83329353  0.66693291  0.49960339  1
  I  I80  1  0.83022376  0.67020071  0.83763413  1
  I  I81  1  0.16303321  0.16366227  0.00249897  1
  I  I82  1  0.16507918  0.16858692  0.33525063  1
  I  I83  1  0.16855364  0.16920934  0.66335402  1
  I  I84  1  0.16440046  0.50135849  -0.00218819  1
  I  I85  1  0.17147338  0.49845281  0.33676204  1
  I  I86  1  0.17029277  0.49482479  0.66476449  1
  I  I87  1  0.16715857  0.83751191  0.00339884  1
  I  I88  1  0.16218153  0.83299214  0.33031055  1
  I  I89  1  0.16498650  0.83477924  0.66662640  1
  I  I90  1  0.49947571  0.16398346  -0.00031259  1
  I  I91  1  0.50537465  0.16330969  0.33820571  1
  I  I92  1  0.49432725  0.16811083  0.66240724  1
  I  I93  1  0.49765591  0.50249366  -0.00055591  1
  I  I94  1  0.49178287  0.50367846  0.33869970  1
  I  I95  1  0.49748196  0.49736029  0.66265208  1
  I  I96  1  0.50107003  0.83315395  -0.00287696  1
  I  I97  1  0.49958144  0.83317682  0.33648176  1
  I  I98  1  0.50505006  0.83346053  0.66594652  1
  I  I99  1  0.83716212  0.16290105  -0.00268021  1
  I  I100  1  0.83124065  0.16579285  0.33626126  1
  I  I101  1  0.83560938  0.16032841  0.66578643  1
  I  I102  1  0.83731775  0.49470433  -0.00025207  1
  I  I103  1  0.83522652  0.50031887  0.33368049  1
  I  I104  1  0.83311678  0.50480055  0.66645790  1
  I  I105  1  0.83191045  0.83973608  -0.00102032  1
  I  I106  1  0.83609791  0.83464710  0.33119141  1
  I  I107  1  0.83089923  0.83547320  0.66930661  1
  I  I108  1  0.00309011  0.16499598  0.17354507  1
  I  I109  1  0.00078146  0.17104108  0.49927059  1
  I  I110  1  -0.00305235  0.15962956  0.82660804  1
  I  I111  1  0.00039356  0.49879796  0.16937249  1
  I  I112  1  0.00340905  0.49592433  0.50236226  1
  I  I113  1  0.00321068  0.50215370  0.82606526  1
  I  I114  1  -0.00001816  0.83714241  0.16181914  1
  I  I115  1  -0.00003243  0.83322000  0.50154145  1
  I  I116  1  -0.00279433  0.83572888  0.83561623  1
  I  I117  1  0.32876634  0.15991788  0.17185049  1
  I  I118  1  0.33300590  0.16757247  0.49473495  1
  I  I119  1  0.33326186  0.16558995  0.83310100  1
  I  I120  1  0.33290901  0.50397925  0.16430620  1
  I  I121  1  0.33281576  0.49523563  0.50342705  1
  I  I122  1  0.33007896  0.50052133  0.83155698  1
  I  I123  1  0.33065424  0.83574972  0.16792199  1
  I  I124  1  0.33675479  0.83747731  0.50391941  1
  I  I125  1  0.33572087  0.83144713  0.82983069  1
  I  I126  1  0.66689879  0.16437970  0.16914295  1
  I  I127  1  0.66649582  0.16571632  0.50490664  1
  I  I128  1  0.67060621  0.16452872  0.82746027  1
  I  I129  1  0.66658206  0.50103592  0.16789364  1
  I  I130  1  0.66347113  0.50071453  0.49946067  1
  I  I131  1  0.66644986  0.49931066  0.83200030  1
  I  I132  1  0.66936574  0.83376770  0.16615345  1
  I  I133  1  0.66305493  0.83253706  0.49905731  1
  I  I134  1  0.66737654  0.83687855  0.83467048  1
