# generated using pymatgen
data_Cs27Sn13Pb14I81
_symmetry_space_group_name_H-M   'P 1'
_cell_length_a   18.97406989
_cell_length_b   18.98292724
_cell_length_c   18.97491689
_cell_angle_alpha   89.99862140
_cell_angle_beta   90.00310347
_cell_angle_gamma   90.00112844
_symmetry_Int_Tables_number   1
_chemical_formula_structural   Cs27Sn13Pb14I81
_chemical_formula_sum   'Cs27 Sn13 Pb14 I81'
_cell_volume   6834.44983958
_cell_formula_units_Z   1
loop_
 _symmetry_equiv_pos_site_id
 _symmetry_equiv_pos_as_xyz
  1  'x, y, z'
loop_
 _atom_site_type_symbol
 _atom_site_label
 _atom_site_symmetry_multiplicity
 _atom_site_fract_x
 _atom_site_fract_y
 _atom_site_fract_z
 _atom_site_occupancy
  Cs  Cs0  1  -0.00018689  -0.00005458  -0.00101200  1
  Cs  Cs1  1  0.00982366  0.00005256  0.33210862  1
  Cs  Cs2  1  -0.00231622  0.00069949  0.66912302  1
  Cs  Cs3  1  -0.00278540  0.33177786  0.00232107  1
  Cs  Cs4  1  0.00142380  0.33055149  0.33035587  1
  Cs  Cs5  1  0.00118759  0.33327197  0.66676441  1
  Cs  Cs6  1  -0.00309997  0.66731383  -0.00161877  1
  Cs  Cs7  1  0.00127597  0.66866305  0.33536903  1
  Cs  Cs8  1  0.00005219  0.66642756  0.66714218  1
  Cs  Cs9  1  0.33415254  -0.00365638  0.00074365  1
  Cs  Cs10  1  0.32626833  -0.00514811  0.33024790  1
  Cs  Cs11  1  0.33513920  0.00004695  0.66812436  1
  Cs  Cs12  1  0.33710026  0.33708669  -0.00162103  1
  Cs  Cs13  1  0.33535367  0.33298789  0.33429806  1
  Cs  Cs14  1  0.33266975  0.33673923  0.66630686  1
  Cs  Cs15  1  0.33509599  0.66542582  0.00071259  1
  Cs  Cs16  1  0.33247168  0.67115758  0.33108224  1
  Cs  Cs17  1  0.33188585  0.66193613  0.66787461  1
  Cs  Cs18  1  0.66599606  -0.00080788  -0.00199173  1
  Cs  Cs19  1  0.66488957  0.00006331  0.33762916  1
  Cs  Cs20  1  0.66719063  0.00117110  0.66565656  1
  Cs  Cs21  1  0.66665780  0.33315308  0.00271279  1
  Cs  Cs22  1  0.66620728  0.33425927  0.33271618  1
  Cs  Cs23  1  0.66660086  0.33171471  0.66448174  1
  Cs  Cs24  1  0.66796430  0.66756113  0.00017046  1
  Cs  Cs25  1  0.66575178  0.66519785  0.33565678  1
  Cs  Cs26  1  0.66772372  0.66815047  0.66403831  1
  Sn  Sn27  1  0.83290424  0.49880692  0.50066265  1
  Sn  Sn28  1  0.16617316  0.16631069  0.83343809  1
  Sn  Sn29  1  0.16724292  0.49961801  0.16672309  1
  Sn  Sn30  1  0.83301119  0.83375194  0.16672362  1
  Sn  Sn31  1  0.83387395  0.16699203  0.83287922  1
  Sn  Sn32  1  0.16591657  0.83387007  0.83331856  1
  Sn  Sn33  1  0.83315219  0.16755815  0.50026074  1
  Sn  Sn34  1  0.50047074  0.16736082  0.49880006  1
  Sn  Sn35  1  0.83377196  0.83355482  0.83418170  1
  Sn  Sn36  1  0.49925769  0.49925923  0.16760556  1
  Sn  Sn37  1  0.50020979  0.16689281  0.16753364  1
  Sn  Sn38  1  0.83304096  0.49955720  0.83260360  1
  Sn  Sn39  1  0.50077741  0.49914228  0.49906495  1
  Pb  Pb40  1  0.83279031  0.50132793  0.16751032  1
  Pb  Pb41  1  0.50288389  0.50002411  0.83299217  1
  Pb  Pb42  1  0.83162098  0.16448232  0.16727112  1
  Pb  Pb43  1  0.50219594  0.83317293  0.16675774  1
  Pb  Pb44  1  0.16693416  0.16675363  0.50228145  1
  Pb  Pb45  1  0.49976979  0.83335529  0.49997599  1
  Pb  Pb46  1  0.16648524  0.49981717  0.49759630  1
  Pb  Pb47  1  0.83349624  0.83386629  0.50032479  1
  Pb  Pb48  1  0.50015641  0.83316879  0.83314819  1
  Pb  Pb49  1  0.50014741  0.16671692  0.83295777  1
  Pb  Pb50  1  0.16427959  0.83111638  0.16418734  1
  Pb  Pb51  1  0.16407712  0.49978293  0.83523056  1
  Pb  Pb52  1  0.16661619  0.83329347  0.50342756  1
  Pb  Pb53  1  0.16958196  0.16848854  0.16383996  1
  I  I54  1  0.16755154  0.00000830  0.16766868  1
  I  I55  1  0.16655445  0.00028966  0.49652044  1
  I  I56  1  0.15779148  0.00019244  0.83324635  1
  I  I57  1  0.16563900  0.33622342  0.16398551  1
  I  I58  1  0.16570164  0.33333995  0.50378720  1
  I  I59  1  0.16218774  0.33077525  0.83423848  1
  I  I60  1  0.17329718  0.66348168  0.16471185  1
  I  I61  1  0.16617054  0.66625685  0.50194048  1
  I  I62  1  0.16143534  0.66898846  0.83498536  1
  I  I63  1  0.50302934  0.00294362  0.16990722  1
  I  I64  1  0.50608249  0.00395343  0.49782026  1
  I  I65  1  0.50410589  0.00029610  0.83342058  1
  I  I66  1  0.49801331  0.33403340  0.16980474  1
  I  I67  1  0.50543303  0.33349923  0.49571305  1
  I  I68  1  0.49875640  0.33333232  0.83522735  1
  I  I69  1  0.49746549  0.66324805  0.17056949  1
  I  I70  1  0.50574809  0.66270333  0.49611838  1
  I  I71  1  0.50010943  0.66632895  0.83365874  1
  I  I72  1  0.83116562  -0.00297030  0.16090078  1
  I  I73  1  0.82760409  0.00346849  0.50423507  1
  I  I74  1  0.83693475  0.00052738  0.83325147  1
  I  I75  1  0.83468047  0.33329800  0.16279603  1
  I  I76  1  0.82879863  0.33334192  0.50847175  1
  I  I77  1  0.83702997  0.33278161  0.82920867  1
  I  I78  1  0.83232080  0.66892867  0.16088319  1
  I  I79  1  0.82880543  0.66363463  0.50273825  1
  I  I80  1  0.83647758  0.66673383  0.83387201  1
  I  I81  1  0.15994985  0.16344098  -0.00387587  1
  I  I82  1  0.16336012  0.16776846  0.33310260  1
  I  I83  1  0.16613726  0.16366576  0.67043137  1
  I  I84  1  0.17204853  0.50012254  0.00287296  1
  I  I85  1  0.16508590  0.49988775  0.32981193  1
  I  I86  1  0.16936459  0.50119987  0.66691582  1
  I  I87  1  0.16312874  0.83753393  -0.00357992  1
  I  I88  1  0.16484462  0.83240645  0.33279398  1
  I  I89  1  0.15826670  0.83572132  0.67164868  1
  I  I90  1  0.50048822  0.17112363  0.00249757  1
  I  I91  1  0.50754573  0.17189241  0.33408667  1
  I  I92  1  0.50156159  0.17123731  0.66348283  1
  I  I93  1  0.49785569  0.49634730  0.00300356  1
  I  I94  1  0.50333175  0.49563490  0.33355139  1
  I  I95  1  0.50214950  0.49536221  0.66326026  1
  I  I96  1  0.50010404  0.83356922  0.00011638  1
  I  I97  1  0.50372353  0.83320739  0.33319080  1
  I  I98  1  0.50193923  0.83360599  0.66660695  1
  I  I99  1  0.83526756  0.16866634  -0.00289313  1
  I  I100  1  0.82970741  0.17118509  0.33644531  1
  I  I101  1  0.83092904  0.16526764  0.66727659  1
  I  I102  1  0.83396102  0.49883096  -0.00234523  1
  I  I103  1  0.83201972  0.49729096  0.33634925  1
  I  I104  1  0.82873232  0.50183115  0.66663229  1
  I  I105  1  0.83616681  0.83202424  -0.00195273  1
  I  I106  1  0.83068773  0.83090926  0.33113048  1
  I  I107  1  0.83741312  0.83285077  0.67006385  1
  I  I108  1  0.00003725  0.16759950  0.16873683  1
  I  I109  1  -0.00339654  0.17063490  0.50307105  1
  I  I110  1  -0.00199061  0.16581112  0.82842482  1
  I  I111  1  0.00133420  0.50308106  0.16473095  1
  I  I112  1  -0.00358944  0.49698185  0.50310783  1
  I  I113  1  -0.00411480  0.50059596  0.82989425  1
  I  I114  1  -0.00347884  0.83144523  0.16456441  1
  I  I115  1  -0.00052028  0.83208435  0.49617782  1
  I  I116  1  -0.00177287  0.83413515  0.83748970  1
  I  I117  1  0.33747209  0.16780653  0.17156484  1
  I  I118  1  0.33687804  0.17190097  0.49851410  1
  I  I119  1  0.33066693  0.16074192  0.83420355  1
  I  I120  1  0.33487965  0.49650517  0.17024428  1
  I  I121  1  0.33674874  0.49523873  0.49887033  1
  I  I122  1  0.33324535  0.50084500  0.83153302  1
  I  I123  1  0.33317908  0.83436941  0.16476997  1
  I  I124  1  0.33333273  0.83320587  0.50138262  1
  I  I125  1  0.32988754  0.83930677  0.83292285  1
  I  I126  1  0.66379680  0.17357958  0.16513335  1
  I  I127  1  0.66735645  0.17027952  0.50277935  1
  I  I128  1  0.67009540  0.16582764  0.83240497  1
  I  I129  1  0.66399295  0.49773961  0.16720429  1
  I  I130  1  0.66706632  0.49656721  0.49825076  1
  I  I131  1  0.67123774  0.49983138  0.83499262  1
  I  I132  1  0.66995404  0.83075981  0.15833340  1
  I  I133  1  0.66696420  0.83296631  0.50293017  1
  I  I134  1  0.67074583  0.83415320  0.83677216  1
