# generated using pymatgen
data_Cs27Sn13Pb14I81
_symmetry_space_group_name_H-M   'P 1'
_cell_length_a   18.97742216
_cell_length_b   18.97161762
_cell_length_c   18.98139931
_cell_angle_alpha   90.00143173
_cell_angle_beta   89.99981755
_cell_angle_gamma   90.00133834
_symmetry_Int_Tables_number   1
_chemical_formula_structural   Cs27Sn13Pb14I81
_chemical_formula_sum   'Cs27 Sn13 Pb14 I81'
_cell_volume   6833.91868005
_cell_formula_units_Z   1
loop_
 _symmetry_equiv_pos_site_id
 _symmetry_equiv_pos_as_xyz
  1  'x, y, z'
loop_
 _atom_site_type_symbol
 _atom_site_label
 _atom_site_symmetry_multiplicity
 _atom_site_fract_x
 _atom_site_fract_y
 _atom_site_fract_z
 _atom_site_occupancy
  Cs  Cs0  1  0.00224834  -0.00185401  -0.00063825  1
  Cs  Cs1  1  0.00130138  0.00004604  0.33724155  1
  Cs  Cs2  1  -0.00290471  -0.00927486  0.66397030  1
  Cs  Cs3  1  -0.00050867  0.33480605  -0.00077683  1
  Cs  Cs4  1  0.00067801  0.33290148  0.33326717  1
  Cs  Cs5  1  0.00180101  0.33463976  0.66872486  1
  Cs  Cs6  1  -0.00032858  0.66506594  0.00167070  1
  Cs  Cs7  1  0.00105696  0.66698789  0.33228848  1
  Cs  Cs8  1  -0.00049768  0.67074913  0.66669125  1
  Cs  Cs9  1  0.33448641  0.00092273  -0.00835715  1
  Cs  Cs10  1  0.33053416  -0.00273853  0.33216551  1
  Cs  Cs11  1  0.33445876  -0.00012620  0.67846907  1
  Cs  Cs12  1  0.33106712  0.33188704  -0.00176973  1
  Cs  Cs13  1  0.33253576  0.33354729  0.33521518  1
  Cs  Cs14  1  0.33196557  0.33081551  0.66539860  1
  Cs  Cs15  1  0.33356857  0.66677382  0.00210225  1
  Cs  Cs16  1  0.33517965  0.66707955  0.33250408  1
  Cs  Cs17  1  0.33417514  0.66717652  0.66722556  1
  Cs  Cs18  1  0.66328057  0.00143630  -0.00069615  1
  Cs  Cs19  1  0.66772893  0.00752714  0.33378959  1
  Cs  Cs20  1  0.66820464  -0.00242763  0.66757842  1
  Cs  Cs21  1  0.66969683  0.33403785  0.00158508  1
  Cs  Cs22  1  0.66586319  0.32905515  0.33475948  1
  Cs  Cs23  1  0.66622797  0.33422981  0.66324752  1
  Cs  Cs24  1  0.66683641  0.66549094  0.00135332  1
  Cs  Cs25  1  0.66343593  0.66474849  0.33135700  1
  Cs  Cs26  1  0.66695612  0.66724738  0.66755482  1
  Sn  Sn27  1  0.50001208  0.83362670  0.49897248  1
  Sn  Sn28  1  0.16674113  0.16744837  0.16728541  1
  Sn  Sn29  1  0.50119227  0.83294407  0.16790894  1
  Sn  Sn30  1  0.50013093  0.49999084  0.16597506  1
  Sn  Sn31  1  0.16672365  0.49903493  0.16762191  1
  Sn  Sn32  1  0.83403988  0.50005534  0.49961043  1
  Sn  Sn33  1  0.16677918  0.16712665  0.49949691  1
  Sn  Sn34  1  0.83245015  0.49914203  0.83323034  1
  Sn  Sn35  1  0.83356248  0.16735216  0.83330209  1
  Sn  Sn36  1  0.83310137  0.50035404  0.16716107  1
  Sn  Sn37  1  0.50065404  0.49974910  0.83418203  1
  Sn  Sn38  1  0.83225886  0.83299684  0.16701705  1
  Sn  Sn39  1  0.16588367  0.49947849  0.49911144  1
  Pb  Pb40  1  0.83103909  0.83077033  0.49706353  1
  Pb  Pb41  1  0.16700259  0.83315660  0.16658007  1
  Pb  Pb42  1  0.16647202  0.83302098  0.83337768  1
  Pb  Pb43  1  0.83551892  0.16668689  0.16536963  1
  Pb  Pb44  1  0.83553099  0.16886736  0.50222021  1
  Pb  Pb45  1  0.16645737  0.50025361  0.83322657  1
  Pb  Pb46  1  0.49970594  0.50086607  0.49977355  1
  Pb  Pb47  1  0.50036029  0.83065460  0.83423313  1
  Pb  Pb48  1  0.49739246  0.16675091  0.16674773  1
  Pb  Pb49  1  0.50288217  0.16998465  0.83339785  1
  Pb  Pb50  1  0.16393333  0.16695187  0.83291127  1
  Pb  Pb51  1  0.16905959  0.83295018  0.49989436  1
  Pb  Pb52  1  0.49715508  0.16340672  0.49998339  1
  Pb  Pb53  1  0.83313491  0.83249865  0.83614874  1
  I  I54  1  0.16511950  0.00280258  0.17082041  1
  I  I55  1  0.16779703  0.00285963  0.49450252  1
  I  I56  1  0.16531960  0.00055106  0.83453215  1
  I  I57  1  0.16618874  0.33546024  0.17007192  1
  I  I58  1  0.16361293  0.33490818  0.49531812  1
  I  I59  1  0.16889357  0.33375307  0.83399467  1
  I  I60  1  0.16638222  0.66297518  0.17037581  1
  I  I61  1  0.16376126  0.66308209  0.49540341  1
  I  I62  1  0.16468045  0.66577832  0.83340846  1
  I  I63  1  0.50406273  -0.00328109  0.17120261  1
  I  I64  1  0.49977407  -0.00441568  0.49193959  1
  I  I65  1  0.49970493  -0.00005161  0.83360001  1
  I  I66  1  0.50295559  0.33707942  0.16289155  1
  I  I67  1  0.50131887  0.33350641  0.50023624  1
  I  I68  1  0.50099238  0.33801300  0.83935518  1
  I  I69  1  0.49868326  0.66508455  0.16642104  1
  I  I70  1  0.49814737  0.66852131  0.49786731  1
  I  I71  1  0.50657590  0.66270851  0.83489122  1
  I  I72  1  0.83009639  -0.00257819  0.16362503  1
  I  I73  1  0.83460562  -0.00020308  0.50129318  1
  I  I74  1  0.83629238  0.00234640  0.83530096  1
  I  I75  1  0.83127895  0.33705412  0.16734639  1
  I  I76  1  0.83292830  0.33759158  0.49466393  1
  I  I77  1  0.83035664  0.33596718  0.83650260  1
  I  I78  1  0.83506540  0.66430746  0.16447810  1
  I  I79  1  0.84007620  0.66230924  0.50507812  1
  I  I80  1  0.82974330  0.66267467  0.83200882  1
  I  I81  1  0.16571106  0.17130173  0.00283115  1
  I  I82  1  0.16576889  0.17210514  0.33287560  1
  I  I83  1  0.16679467  0.17304518  0.66352792  1
  I  I84  1  0.16470387  0.49688553  0.00347106  1
  I  I85  1  0.16390340  0.49655348  0.33237598  1
  I  I86  1  0.16458458  0.49620717  0.66339196  1
  I  I87  1  0.16847040  0.83356060  0.00077116  1
  I  I88  1  0.16525215  0.83344210  0.33308427  1
  I  I89  1  0.16878767  0.83293548  0.66610553  1
  I  I90  1  0.49611384  0.16199554  0.00013051  1
  I  I91  1  0.50322709  0.17161013  0.33322674  1
  I  I92  1  0.49671611  0.16687491  0.66675433  1
  I  I93  1  0.50249132  0.50531274  0.00160489  1
  I  I94  1  0.50144377  0.50297827  0.33021844  1
  I  I95  1  0.50333791  0.50216561  0.66870088  1
  I  I96  1  0.50329577  0.83052031  0.00370724  1
  I  I97  1  0.50196478  0.82502876  0.33146674  1
  I  I98  1  0.49734701  0.83114901  0.66454151  1
  I  I99  1  0.83588355  0.17365061  -0.00230414  1
  I  I100  1  0.83310648  0.16703106  0.33341159  1
  I  I101  1  0.83492212  0.17353829  0.66997500  1
  I  I102  1  0.83308299  0.50015357  0.00095337  1
  I  I103  1  0.83433650  0.50498359  0.33236740  1
  I  I104  1  0.83299466  0.49479876  0.66682306  1
  I  I105  1  0.82806044  0.82708290  0.00403192  1
  I  I106  1  0.83271516  0.82736429  0.32928761  1
  I  I107  1  0.83280599  0.83276245  0.66645320  1
  I  I108  1  0.00332372  0.17138351  0.16907531  1
  I  I109  1  0.00345990  0.16861916  0.49519951  1
  I  I110  1  -0.00334086  0.17629606  0.83518803  1
  I  I111  1  -0.00054524  0.50057386  0.16624341  1
  I  I112  1  -0.00002294  0.49675757  0.49696862  1
  I  I113  1  -0.00336974  0.49636051  0.83630693  1
  I  I114  1  -0.00262071  0.82869226  0.16455957  1
  I  I115  1  -0.00015321  0.83467690  0.49959742  1
  I  I116  1  -0.00073568  0.83118193  0.83484599  1
  I  I117  1  0.32935285  0.17153306  0.17010206  1
  I  I118  1  0.32916113  0.17618279  0.49568285  1
  I  I119  1  0.33311645  0.16614493  0.83339993  1
  I  I120  1  0.33341627  0.50105892  0.16655794  1
  I  I121  1  0.33059904  0.49834568  0.49692822  1
  I  I122  1  0.33606817  0.50258210  0.83680330  1
  I  I123  1  0.33650990  0.82847374  0.17042957  1
  I  I124  1  0.33656619  0.82932770  0.49201203  1
  I  I125  1  0.33394612  0.83216053  0.83519901  1
  I  I126  1  0.66684693  0.16853962  0.16473702  1
  I  I127  1  0.66691810  0.16772761  0.50127834  1
  I  I128  1  0.67054125  0.16906408  0.83512751  1
  I  I129  1  0.66707115  0.50531005  0.16526041  1
  I  I130  1  0.66923263  0.50280120  0.49879553  1
  I  I131  1  0.66765318  0.49700946  0.83663496  1
  I  I132  1  0.66629796  0.82333253  0.16919400  1
  I  I133  1  0.66350088  0.82964980  0.49845620  1
  I  I134  1  0.66674860  0.83550315  0.83077754  1
