# generated using pymatgen
data_Cs27Sn14Pb13I81
_symmetry_space_group_name_H-M   'P 1'
_cell_length_a   18.97310668
_cell_length_b   18.97940553
_cell_length_c   18.97445531
_cell_angle_alpha   90.00175571
_cell_angle_beta   90.00320774
_cell_angle_gamma   90.00058341
_symmetry_Int_Tables_number   1
_chemical_formula_structural   Cs27Sn14Pb13I81
_chemical_formula_sum   'Cs27 Sn14 Pb13 I81'
_cell_volume   6832.66881703
_cell_formula_units_Z   1
loop_
 _symmetry_equiv_pos_site_id
 _symmetry_equiv_pos_as_xyz
  1  'x, y, z'
loop_
 _atom_site_type_symbol
 _atom_site_label
 _atom_site_symmetry_multiplicity
 _atom_site_fract_x
 _atom_site_fract_y
 _atom_site_fract_z
 _atom_site_occupancy
  Cs  Cs0  1  0.00007728  -0.00018033  0.00305102  1
  Cs  Cs1  1  0.00143153  -0.00034141  0.33237821  1
  Cs  Cs2  1  -0.00703479  -0.00386656  0.66429656  1
  Cs  Cs3  1  0.00324345  0.33536571  0.00125737  1
  Cs  Cs4  1  -0.00119455  0.33159998  0.33131030  1
  Cs  Cs5  1  0.00032512  0.33288453  0.66804509  1
  Cs  Cs6  1  0.00178286  0.66495986  -0.00039240  1
  Cs  Cs7  1  -0.00168284  0.67008157  0.33422330  1
  Cs  Cs8  1  -0.00017411  0.67182955  0.66680246  1
  Cs  Cs9  1  0.33507061  0.00001838  0.00079054  1
  Cs  Cs10  1  0.33223430  0.00082088  0.33382930  1
  Cs  Cs11  1  0.33428554  0.00054788  0.66289281  1
  Cs  Cs12  1  0.32903579  0.33148657  -0.00268424  1
  Cs  Cs13  1  0.33362574  0.33030862  0.33472387  1
  Cs  Cs14  1  0.33295833  0.33454415  0.66684777  1
  Cs  Cs15  1  0.33390692  0.66813083  -0.00082908  1
  Cs  Cs16  1  0.33698183  0.66834065  0.33516343  1
  Cs  Cs17  1  0.33128246  0.66374484  0.66495223  1
  Cs  Cs18  1  0.66514039  -0.00283218  -0.00652764  1
  Cs  Cs19  1  0.66413099  0.00149584  0.33242534  1
  Cs  Cs20  1  0.67299635  -0.00113523  0.67466588  1
  Cs  Cs21  1  0.66817076  0.33429048  -0.00195281  1
  Cs  Cs22  1  0.66708574  0.34067902  0.33547206  1
  Cs  Cs23  1  0.66945071  0.33259634  0.66627566  1
  Cs  Cs24  1  0.66368536  0.66813487  0.00130633  1
  Cs  Cs25  1  0.66254245  0.65392892  0.33236415  1
  Cs  Cs26  1  0.66986255  0.66614208  0.66614249  1
  Sn  Sn27  1  0.16699985  0.16734305  0.50014137  1
  Sn  Sn28  1  0.16683716  0.16641707  0.16685797  1
  Sn  Sn29  1  0.83339140  0.83385474  0.16716146  1
  Sn  Sn30  1  0.16705468  0.83489421  0.83391089  1
  Sn  Sn31  1  0.16658337  0.16495361  0.83278427  1
  Sn  Sn32  1  0.16628844  0.83339132  0.16593934  1
  Sn  Sn33  1  0.49967086  0.16545812  0.49961164  1
  Sn  Sn34  1  0.50027894  0.16675432  0.16706056  1
  Sn  Sn35  1  0.83284594  0.16588551  0.16671812  1
  Sn  Sn36  1  0.50115277  0.49983516  0.83349801  1
  Sn  Sn37  1  0.83228210  0.49996386  0.83361199  1
  Sn  Sn38  1  0.50051584  0.83451890  0.49998982  1
  Sn  Sn39  1  0.16649079  0.49917671  0.49864896  1
  Sn  Sn40  1  0.16702345  0.50036465  0.16814479  1
  Pb  Pb41  1  0.49996848  0.83541537  0.16825325  1
  Pb  Pb42  1  0.83313029  0.16652147  0.49751759  1
  Pb  Pb43  1  0.49811893  0.16792921  0.83282985  1
  Pb  Pb44  1  0.83552140  0.50012557  0.16527660  1
  Pb  Pb45  1  0.83573493  0.83139600  0.83597051  1
  Pb  Pb46  1  0.16758809  0.83397151  0.49945923  1
  Pb  Pb47  1  0.83677600  0.49989133  0.50242249  1
  Pb  Pb48  1  0.82959691  0.83345055  0.49649469  1
  Pb  Pb49  1  0.83628291  0.16813320  0.83606955  1
  Pb  Pb50  1  0.49805115  0.49900686  0.50185749  1
  Pb  Pb51  1  0.49708316  0.49703434  0.16461524  1
  Pb  Pb52  1  0.16653805  0.50014547  0.83318519  1
  Pb  Pb53  1  0.49758080  0.83145881  0.83092467  1
  I  I54  1  0.16603970  0.00113504  0.16608712  1
  I  I55  1  0.16965544  0.00317037  0.49744844  1
  I  I56  1  0.16801227  0.00069963  0.83773445  1
  I  I57  1  0.16658753  0.33183948  0.16564291  1
  I  I58  1  0.17239251  0.33187330  0.49798704  1
  I  I59  1  0.16691464  0.33108101  0.83635656  1
  I  I60  1  0.16130744  0.66722398  0.16469312  1
  I  I61  1  0.16918656  0.66477046  0.49871378  1
  I  I62  1  0.16664910  0.66860721  0.83679515  1
  I  I63  1  0.49387154  0.00356232  0.16775342  1
  I  I64  1  0.49076983  0.00179843  0.49529473  1
  I  I65  1  0.49951443  0.00009547  0.83490731  1
  I  I66  1  0.49976755  0.32902556  0.17343546  1
  I  I67  1  0.49622969  0.33003320  0.49664226  1
  I  I68  1  0.49889203  0.33583358  0.83244711  1
  I  I69  1  0.49969745  0.66650309  0.16801731  1
  I  I70  1  0.49671108  0.66818449  0.50152202  1
  I  I71  1  0.49941346  0.66356562  0.83224579  1
  I  I72  1  0.84076397  0.00074334  0.16700234  1
  I  I73  1  0.83920166  -0.00000605  0.50267542  1
  I  I74  1  0.83294087  -0.00007623  0.83233627  1
  I  I75  1  0.83585999  0.33053950  0.16501734  1
  I  I76  1  0.82959931  0.33325034  0.49743421  1
  I  I77  1  0.83311347  0.33589619  0.83596815  1
  I  I78  1  0.84011105  0.66923605  0.16459502  1
  I  I79  1  0.83392406  0.66668491  0.49785369  1
  I  I80  1  0.83348467  0.66370458  0.83581523  1
  I  I81  1  0.16687712  0.16809551  0.00146621  1
  I  I82  1  0.16731713  0.16761630  0.33221831  1
  I  I83  1  0.17315737  0.16964436  0.66600481  1
  I  I84  1  0.16633506  0.49681957  0.00227100  1
  I  I85  1  0.16704756  0.49635660  0.33261463  1
  I  I86  1  0.16784352  0.49646038  0.66465432  1
  I  I87  1  0.16400504  0.83503300  0.00130780  1
  I  I88  1  0.16432855  0.83519855  0.33015181  1
  I  I89  1  0.16966630  0.83374029  0.66869484  1
  I  I90  1  0.49719202  0.16907527  0.00276761  1
  I  I91  1  0.49322386  0.16317065  0.33316893  1
  I  I92  1  0.49237234  0.16584217  0.66362427  1
  I  I93  1  0.49995123  0.49902772  -0.00288937  1
  I  I94  1  0.50042315  0.50201938  0.33327661  1
  I  I95  1  0.49864436  0.49815943  0.66945811  1
  I  I96  1  0.50072030  0.83335505  0.00011317  1
  I  I97  1  0.49579383  0.83474665  0.33600152  1
  I  I98  1  0.49568114  0.83995614  0.66327006  1
  I  I99  1  0.83383614  0.16370947  0.00419668  1
  I  I100  1  0.84007089  0.16416078  0.32926127  1
  I  I101  1  0.83400246  0.16870288  0.66692291  1
  I  I102  1  0.83380250  0.49893758  -0.00244401  1
  I  I103  1  0.83263202  0.50018744  0.33305879  1
  I  I104  1  0.83214749  0.49950170  0.67030092  1
  I  I105  1  0.83533689  0.83792228  0.00374385  1
  I  I106  1  0.84423678  0.83732715  0.32886461  1
  I  I107  1  0.83519119  0.83127680  0.66677531  1
  I  I108  1  0.00200938  0.16684162  0.16597117  1
  I  I109  1  0.00359870  0.17132979  0.49941397  1
  I  I110  1  0.00475203  0.16718936  0.83312919  1
  I  I111  1  0.00387617  0.49473328  0.16593032  1
  I  I112  1  0.00494448  0.49386188  0.49832681  1
  I  I113  1  -0.00131599  0.49942565  0.83458264  1
  I  I114  1  0.00202735  0.83776159  0.16340109  1
  I  I115  1  -0.00000560  0.83218351  0.50251016  1
  I  I116  1  0.00394725  0.83381970  0.83338328  1
  I  I117  1  0.33154576  0.16713922  0.16721263  1
  I  I118  1  0.33200166  0.16693683  0.49485545  1
  I  I119  1  0.32962936  0.16757545  0.83879178  1
  I  I120  1  0.32882147  0.50068268  0.16680637  1
  I  I121  1  0.33002450  0.49835405  0.49965288  1
  I  I122  1  0.33447283  0.49938834  0.83295903  1
  I  I123  1  0.33001771  0.83389982  0.16408613  1
  I  I124  1  0.33520889  0.83454713  0.49785356  1
  I  I125  1  0.32952988  0.83371755  0.84121792  1
  I  I126  1  0.66647577  0.16213263  0.17127409  1
  I  I127  1  0.66316324  0.16357077  0.49504226  1
  I  I128  1  0.66683217  0.16791090  0.83381942  1
  I  I129  1  0.66645861  0.50020050  0.16646809  1
  I  I130  1  0.66655548  0.50023155  0.49978011  1
  I  I131  1  0.66647834  0.49873674  0.83401181  1
  I  I132  1  0.66915063  0.83863745  0.16829943  1
  I  I133  1  0.66202551  0.84045717  0.50026520  1
  I  I134  1  0.66671941  0.83285012  0.83389306  1
