# generated using pymatgen
data_Cs27Sn14Pb13I81
_symmetry_space_group_name_H-M   'P 1'
_cell_length_a   18.96908501
_cell_length_b   18.98289694
_cell_length_c   18.97480925
_cell_angle_alpha   89.99855270
_cell_angle_beta   90.00216111
_cell_angle_gamma   90.00165506
_symmetry_Int_Tables_number   1
_chemical_formula_structural   Cs27Sn14Pb13I81
_chemical_formula_sum   'Cs27 Sn14 Pb13 I81'
_cell_volume   6832.60462986
_cell_formula_units_Z   1
loop_
 _symmetry_equiv_pos_site_id
 _symmetry_equiv_pos_as_xyz
  1  'x, y, z'
loop_
 _atom_site_type_symbol
 _atom_site_label
 _atom_site_symmetry_multiplicity
 _atom_site_fract_x
 _atom_site_fract_y
 _atom_site_fract_z
 _atom_site_occupancy
  Cs  Cs0  1  0.00078290  0.00377318  -0.00013405  1
  Cs  Cs1  1  0.00067725  -0.00013572  0.33274020  1
  Cs  Cs2  1  -0.00063900  -0.00106106  0.66710488  1
  Cs  Cs3  1  -0.00198355  0.33198287  0.00301377  1
  Cs  Cs4  1  -0.00189553  0.33338655  0.33357922  1
  Cs  Cs5  1  0.00289623  0.33449081  0.66432830  1
  Cs  Cs6  1  0.00006602  0.66566873  -0.00142210  1
  Cs  Cs7  1  -0.00311261  0.66635770  0.33664507  1
  Cs  Cs8  1  0.00107750  0.66687233  0.66503810  1
  Cs  Cs9  1  0.32934008  -0.00419003  0.00825131  1
  Cs  Cs10  1  0.33683913  -0.00227285  0.32956190  1
  Cs  Cs11  1  0.33531351  0.00339832  0.66436819  1
  Cs  Cs12  1  0.33408160  0.33502406  0.00043400  1
  Cs  Cs13  1  0.33512771  0.33497550  0.33275063  1
  Cs  Cs14  1  0.33245116  0.33353937  0.66756138  1
  Cs  Cs15  1  0.33528117  0.66661937  0.00127359  1
  Cs  Cs16  1  0.33458139  0.66628231  0.33128846  1
  Cs  Cs17  1  0.33011207  0.66410023  0.66851301  1
  Cs  Cs18  1  0.66926123  -0.00118439  -0.01203073  1
  Cs  Cs19  1  0.66254052  -0.00373239  0.33770818  1
  Cs  Cs20  1  0.66176286  0.00167747  0.67077426  1
  Cs  Cs21  1  0.66722442  0.33183731  0.00186540  1
  Cs  Cs22  1  0.66677955  0.33446647  0.33169725  1
  Cs  Cs23  1  0.66275655  0.33196555  0.66749113  1
  Cs  Cs24  1  0.66501554  0.66704177  -0.00341056  1
  Cs  Cs25  1  0.66904988  0.66586304  0.33336034  1
  Cs  Cs26  1  0.66716647  0.66717503  0.66924068  1
  Sn  Sn27  1  0.83396462  0.83381815  0.49948532  1
  Sn  Sn28  1  0.83213343  0.49973110  0.50098010  1
  Sn  Sn29  1  0.16667356  0.16671957  0.83283116  1
  Sn  Sn30  1  0.83368960  0.16643728  0.49991887  1
  Sn  Sn31  1  0.83427361  0.49962870  0.83233661  1
  Sn  Sn32  1  0.50116254  0.50021528  0.49944201  1
  Sn  Sn33  1  0.16607747  0.16551877  0.50026229  1
  Sn  Sn34  1  0.16682905  0.49998312  0.16593623  1
  Sn  Sn35  1  0.16634457  0.83348436  0.83243930  1
  Sn  Sn36  1  0.49951107  0.49915401  0.16754332  1
  Sn  Sn37  1  0.83334309  0.83354395  0.16692082  1
  Sn  Sn38  1  0.50054987  0.16698387  0.16654678  1
  Sn  Sn39  1  0.16567411  0.49979620  0.83464716  1
  Sn  Sn40  1  0.16619991  0.83448178  0.50056485  1
  Pb  Pb41  1  0.49667239  0.16673250  0.83632165  1
  Pb  Pb42  1  0.83299716  0.50122682  0.16660299  1
  Pb  Pb43  1  0.49972779  0.83056684  0.50025689  1
  Pb  Pb44  1  0.49998268  0.49989404  0.83358012  1
  Pb  Pb45  1  0.16464918  0.83090811  0.16729617  1
  Pb  Pb46  1  0.83544229  0.83150299  0.83241362  1
  Pb  Pb47  1  0.16644567  0.50001581  0.49998645  1
  Pb  Pb48  1  0.83561687  0.16935152  0.83073035  1
  Pb  Pb49  1  0.50320416  0.83288311  0.16668266  1
  Pb  Pb50  1  0.49623882  0.83344867  0.83307878  1
  Pb  Pb51  1  0.16780722  0.16888519  0.16742951  1
  Pb  Pb52  1  0.83072662  0.16373789  0.16918591  1
  Pb  Pb53  1  0.49962652  0.16885211  0.49858926  1
  I  I54  1  0.16849665  -0.00005075  0.16381100  1
  I  I55  1  0.15894301  -0.00005694  0.50750384  1
  I  I56  1  0.16752286  -0.00002927  0.82812606  1
  I  I57  1  0.16751846  0.33693752  0.16352969  1
  I  I58  1  0.16407872  0.33132376  0.50260831  1
  I  I59  1  0.16347555  0.33392544  0.83206586  1
  I  I60  1  0.17244202  0.66300778  0.16327091  1
  I  I61  1  0.16372687  0.66869270  0.50251310  1
  I  I62  1  0.16281627  0.66607423  0.83223090  1
  I  I63  1  0.49856876  0.00233987  0.16801989  1
  I  I64  1  0.50169754  0.00014386  0.49760711  1
  I  I65  1  0.50185829  0.00030541  0.83467841  1
  I  I66  1  0.49578995  0.33519963  0.17112486  1
  I  I67  1  0.50305929  0.33685151  0.49769000  1
  I  I68  1  0.49702876  0.33353866  0.83082701  1
  I  I69  1  0.49631425  0.66330279  0.17029353  1
  I  I70  1  0.50282352  0.66246865  0.49312552  1
  I  I71  1  0.49801331  0.66619690  0.83569482  1
  I  I72  1  0.83421459  -0.00373426  0.17217534  1
  I  I73  1  0.83960144  -0.00039284  0.49355757  1
  I  I74  1  0.83412418  0.00006643  0.83451652  1
  I  I75  1  0.83494565  0.33329197  0.16737735  1
  I  I76  1  0.83479950  0.33389689  0.50429944  1
  I  I77  1  0.83953214  0.33732483  0.82923512  1
  I  I78  1  0.83336176  0.66873341  0.17332864  1
  I  I79  1  0.83449352  0.66650835  0.49913407  1
  I  I80  1  0.83928746  0.66351926  0.82848351  1
  I  I81  1  0.16947744  0.16480268  -0.00251566  1
  I  I82  1  0.16394515  0.16401125  0.33665611  1
  I  I83  1  0.16309131  0.16898872  0.66606940  1
  I  I84  1  0.16658977  0.50038239  -0.00119180  1
  I  I85  1  0.16775053  0.50004306  0.33155407  1
  I  I86  1  0.16601986  0.50038794  0.66889305  1
  I  I87  1  0.16531305  0.83496524  -0.00247790  1
  I  I88  1  0.16438744  0.83614165  0.33654223  1
  I  I89  1  0.16054489  0.83040047  0.66595231  1
  I  I90  1  0.49938468  0.17564414  0.00391457  1
  I  I91  1  0.49726490  0.17062466  0.33089684  1
  I  I92  1  0.50113423  0.16810998  0.66658278  1
  I  I93  1  0.49823002  0.49694608  0.00294933  1
  I  I94  1  0.49889249  0.49667796  0.33301192  1
  I  I95  1  0.50073233  0.50073658  0.66401777  1
  I  I96  1  0.50116880  0.83056427  0.00022184  1
  I  I97  1  0.49470981  0.83408990  0.33342596  1
  I  I98  1  0.50528498  0.83113986  0.66637744  1
  I  I99  1  0.83374762  0.16673151  -0.00010455  1
  I  I100  1  0.84088215  0.17346406  0.33743021  1
  I  I101  1  0.83423505  0.16187548  0.66244537  1
  I  I102  1  0.83529127  0.50330830  -0.00227959  1
  I  I103  1  0.83344468  0.49943022  0.33635411  1
  I  I104  1  0.83444479  0.50266919  0.66522910  1
  I  I105  1  0.83367168  0.82915287  0.00159267  1
  I  I106  1  0.83904442  0.82968245  0.33577226  1
  I  I107  1  0.83651807  0.83308227  0.66318224  1
  I  I108  1  -0.00011246  0.16793088  0.16520266  1
  I  I109  1  0.00035750  0.16902846  0.50291711  1
  I  I110  1  0.00388433  0.16510919  0.83319951  1
  I  I111  1  0.00214716  0.50201475  0.16550944  1
  I  I112  1  -0.00251448  0.50056784  0.50040853  1
  I  I113  1  0.00135321  0.50071717  0.83290810  1
  I  I114  1  -0.00279237  0.83014727  0.16981110  1
  I  I115  1  -0.00018588  0.83048305  0.49992049  1
  I  I116  1  0.00360168  0.83351744  0.83156089  1
  I  I117  1  0.33569369  0.16922680  0.16837237  1
  I  I118  1  0.33002396  0.16436717  0.50310809  1
  I  I119  1  0.32842409  0.17079858  0.82484165  1
  I  I120  1  0.33341563  0.49769477  0.16755329  1
  I  I121  1  0.33493309  0.49963921  0.49872671  1
  I  I122  1  0.32983942  0.50052573  0.83337049  1
  I  I123  1  0.33320108  0.83372872  0.16604728  1
  I  I124  1  0.32967480  0.83645423  0.50449748  1
  I  I125  1  0.32764286  0.82849768  0.82799442  1
  I  I126  1  0.66337316  0.17673996  0.16953863  1
  I  I127  1  0.66946201  0.16517234  0.49684246  1
  I  I128  1  0.66683039  0.16852997  0.83272279  1
  I  I129  1  0.66419593  0.49795705  0.16848744  1
  I  I130  1  0.66816518  0.50010030  0.49918928  1
  I  I131  1  0.66956802  0.50149375  0.83197352  1
  I  I132  1  0.67071812  0.82991913  0.17542718  1
  I  I133  1  0.67007625  0.83445698  0.49459538  1
  I  I134  1  0.66716995  0.83031936  0.83434223  1
