# generated using pymatgen
data_Cs27Sn13Pb14I81
_symmetry_space_group_name_H-M   'P 1'
_cell_length_a   18.97540908
_cell_length_b   18.97681531
_cell_length_c   18.97660112
_cell_angle_alpha   89.99883370
_cell_angle_beta   89.99867433
_cell_angle_gamma   90.00096297
_symmetry_Int_Tables_number   1
_chemical_formula_structural   Cs27Sn13Pb14I81
_chemical_formula_sum   'Cs27 Sn13 Pb14 I81'
_cell_volume   6833.33806373
_cell_formula_units_Z   1
loop_
 _symmetry_equiv_pos_site_id
 _symmetry_equiv_pos_as_xyz
  1  'x, y, z'
loop_
 _atom_site_type_symbol
 _atom_site_label
 _atom_site_symmetry_multiplicity
 _atom_site_fract_x
 _atom_site_fract_y
 _atom_site_fract_z
 _atom_site_occupancy
  Cs  Cs0  1  0.00549918  0.00170483  0.00216117  1
  Cs  Cs1  1  0.00561640  0.00165067  0.33157057  1
  Cs  Cs2  1  0.00304621  -0.00406378  0.66649409  1
  Cs  Cs3  1  -0.00174930  0.33510751  0.00214141  1
  Cs  Cs4  1  -0.00030908  0.33164226  0.33103429  1
  Cs  Cs5  1  -0.00231626  0.33480980  0.66592369  1
  Cs  Cs6  1  -0.00125730  0.66397304  -0.00147572  1
  Cs  Cs7  1  -0.00153441  0.66646163  0.33678948  1
  Cs  Cs8  1  -0.00130559  0.66820020  0.66684546  1
  Cs  Cs9  1  0.32540730  -0.00134815  -0.00023506  1
  Cs  Cs10  1  0.32873012  -0.00797504  0.33636225  1
  Cs  Cs11  1  0.32566334  0.01213296  0.66456616  1
  Cs  Cs12  1  0.33679953  0.33422211  -0.00142471  1
  Cs  Cs13  1  0.33398498  0.33376409  0.34151744  1
  Cs  Cs14  1  0.33482834  0.32653981  0.65881961  1
  Cs  Cs15  1  0.33497797  0.66721425  0.00138578  1
  Cs  Cs16  1  0.33555876  0.67183318  0.33774939  1
  Cs  Cs17  1  0.33056966  0.66534836  0.66197185  1
  Cs  Cs18  1  0.66662705  -0.00048796  -0.00037080  1
  Cs  Cs19  1  0.66558497  -0.00549208  0.33351269  1
  Cs  Cs20  1  0.66642175  0.00096240  0.66599267  1
  Cs  Cs21  1  0.66701168  0.33392854  0.00044895  1
  Cs  Cs22  1  0.66764447  0.33355691  0.33066303  1
  Cs  Cs23  1  0.66642526  0.33224605  0.66761721  1
  Cs  Cs24  1  0.66644350  0.66541103  -0.00074666  1
  Cs  Cs25  1  0.66553607  0.66996805  0.33321210  1
  Cs  Cs26  1  0.66854128  0.66716852  0.66906184  1
  Sn  Sn27  1  0.49955034  0.50067833  0.83369320  1
  Sn  Sn28  1  0.83316314  0.50089370  0.16687669  1
  Sn  Sn29  1  0.83283316  0.16720377  0.50042095  1
  Sn  Sn30  1  0.83327392  0.16639797  0.83284769  1
  Sn  Sn31  1  0.16731336  0.49982689  0.83391857  1
  Sn  Sn32  1  0.50018537  0.83308257  0.83318741  1
  Sn  Sn33  1  0.16723234  0.49989986  0.16609734  1
  Sn  Sn34  1  0.83274761  0.49915669  0.49990868  1
  Sn  Sn35  1  0.83250835  0.83355634  0.83466753  1
  Sn  Sn36  1  0.83312170  0.49995629  0.83331838  1
  Sn  Sn37  1  0.49963626  0.49905446  0.16616717  1
  Sn  Sn38  1  0.49984061  0.16681854  0.16662675  1
  Sn  Sn39  1  0.83332230  0.83262778  0.16548182  1
  Pb  Pb40  1  0.50267864  0.50022899  0.50024399  1
  Pb  Pb41  1  0.16370128  0.83012874  0.16640662  1
  Pb  Pb42  1  0.16399291  0.50003164  0.49992049  1
  Pb  Pb43  1  0.16338561  0.16706596  0.49970819  1
  Pb  Pb44  1  0.16361952  0.17005495  0.83368636  1
  Pb  Pb45  1  0.83213838  0.16635035  0.16663837  1
  Pb  Pb46  1  0.50024715  0.83347805  0.50436856  1
  Pb  Pb47  1  0.50176175  0.16658599  0.83494890  1
  Pb  Pb48  1  0.50164576  0.83294244  0.16464428  1
  Pb  Pb49  1  0.17039910  0.16967750  0.16659713  1
  Pb  Pb50  1  0.16692938  0.83079657  0.83331828  1
  Pb  Pb51  1  0.83327746  0.83366068  0.50024839  1
  Pb  Pb52  1  0.16654424  0.83304062  0.50031676  1
  Pb  Pb53  1  0.50272022  0.16661874  0.49674925  1
  I  I54  1  0.16567556  -0.00010848  0.16794339  1
  I  I55  1  0.16389465  0.00027265  0.50021044  1
  I  I56  1  0.16652176  0.00012418  0.83199635  1
  I  I57  1  0.15802342  0.33802618  0.16195952  1
  I  I58  1  0.16723077  0.33381627  0.50062805  1
  I  I59  1  0.16585295  0.33829517  0.83795715  1
  I  I60  1  0.17016961  0.66188869  0.16132363  1
  I  I61  1  0.16305986  0.66585441  0.50043798  1
  I  I62  1  0.16068318  0.66241156  0.83755431  1
  I  I63  1  0.50671614  0.00180323  0.16525595  1
  I  I64  1  0.50494915  0.00007413  0.49816127  1
  I  I65  1  0.50874701  -0.00258974  0.83557109  1
  I  I66  1  0.50407708  0.33613903  0.16039546  1
  I  I67  1  0.50002679  0.33353884  0.50414516  1
  I  I68  1  0.50242541  0.33679618  0.83631031  1
  I  I69  1  0.49973656  0.66300837  0.16416996  1
  I  I70  1  0.50288287  0.66651662  0.49490366  1
  I  I71  1  0.50658926  0.66476836  0.83962755  1
  I  I72  1  0.82922817  -0.00248341  0.16357940  1
  I  I73  1  0.83245096  0.00291559  0.50356028  1
  I  I74  1  0.82697948  -0.00061020  0.83317275  1
  I  I75  1  0.83455844  0.33677710  0.16437530  1
  I  I76  1  0.83319679  0.33466537  0.50357418  1
  I  I77  1  0.83335887  0.33515400  0.83314897  1
  I  I78  1  0.83177900  0.66447408  0.16397823  1
  I  I79  1  0.83404674  0.66363639  0.50183156  1
  I  I80  1  0.83317742  0.66502936  0.83367392  1
  I  I81  1  0.16240436  0.16503074  0.00007061  1
  I  I82  1  0.16284279  0.16994822  0.33303248  1
  I  I83  1  0.16965443  0.16920483  0.66689756  1
  I  I84  1  0.16077502  0.50003537  -0.00023660  1
  I  I85  1  0.16520464  0.49946954  0.32997222  1
  I  I86  1  0.16507559  0.50128030  0.66997077  1
  I  I87  1  0.16683365  0.83540491  -0.00008557  1
  I  I88  1  0.16414842  0.83089585  0.33290403  1
  I  I89  1  0.16293030  0.82919916  0.66736447  1
  I  I90  1  0.50552258  0.17095712  0.00260019  1
  I  I91  1  0.50404476  0.17603099  0.32902624  1
  I  I92  1  0.49997732  0.16703498  0.66679572  1
  I  I93  1  0.50486218  0.49961651  -0.00021397  1
  I  I94  1  0.50094964  0.49558962  0.32987430  1
  I  I95  1  0.50125899  0.50425922  0.67042676  1
  I  I96  1  0.50473735  0.83008587  -0.00332648  1
  I  I97  1  0.50252793  0.83273578  0.33306489  1
  I  I98  1  0.51056016  0.82466348  0.67243822  1
  I  I99  1  0.83139920  0.17000339  -0.00265765  1
  I  I100  1  0.83126660  0.17169823  0.33536462  1
  I  I101  1  0.83210973  0.17169811  0.66783000  1
  I  I102  1  0.83346727  0.50010925  -0.00051686  1
  I  I103  1  0.83372899  0.49971933  0.33212802  1
  I  I104  1  0.83369261  0.49980831  0.66843050  1
  I  I105  1  0.82972238  0.82895025  -0.00104768  1
  I  I106  1  0.83292952  0.82889275  0.33041066  1
  I  I107  1  0.83028683  0.82998747  0.67031990  1
  I  I108  1  -0.00012379  0.16678621  0.16738557  1
  I  I109  1  -0.00492648  0.17217918  0.50268506  1
  I  I110  1  -0.00504322  0.16620598  0.83096664  1
  I  I111  1  -0.00160134  0.50406773  0.16366784  1
  I  I112  1  -0.00460952  0.49691041  0.50041197  1
  I  I113  1  -0.00191959  0.49954393  0.83569785  1
  I  I114  1  -0.00484835  0.82961661  0.16061745  1
  I  I115  1  -0.00098895  0.83226082  0.50199651  1
  I  I116  1  -0.00372165  0.83220120  0.83555245  1
  I  I117  1  0.33808529  0.17218569  0.16346412  1
  I  I118  1  0.33347081  0.16662926  0.50023265  1
  I  I119  1  0.33339536  0.16593942  0.83462602  1
  I  I120  1  0.33409475  0.49454780  0.15732464  1
  I  I121  1  0.33342599  0.50031260  0.50032872  1
  I  I122  1  0.33430518  0.50596113  0.84243768  1
  I  I123  1  0.33345262  0.83334858  0.16556536  1
  I  I124  1  0.33361553  0.83167373  0.49875241  1
  I  I125  1  0.33663699  0.82686803  0.83459260  1
  I  I126  1  0.66476608  0.17441570  0.16565210  1
  I  I127  1  0.67075421  0.17193538  0.50495268  1
  I  I128  1  0.67031412  0.17179310  0.83116355  1
  I  I129  1  0.66751291  0.49933130  0.16391261  1
  I  I130  1  0.67107676  0.49671781  0.50047962  1
  I  I131  1  0.66797641  0.50040480  0.83562496  1
  I  I132  1  0.66997678  0.82733375  0.16479682  1
  I  I133  1  0.66726873  0.83261962  0.49726027  1
  I  I134  1  0.66848748  0.82741307  0.83697279  1
