# generated using pymatgen
data_Cs27Sn14Pb13I81
_symmetry_space_group_name_H-M   'P 1'
_cell_length_a   18.98413199
_cell_length_b   18.96318346
_cell_length_c   18.97889669
_cell_angle_alpha   90.00026042
_cell_angle_beta   89.99895233
_cell_angle_gamma   89.99962143
_symmetry_Int_Tables_number   1
_chemical_formula_structural   Cs27Sn14Pb13I81
_chemical_formula_sum   'Cs27 Sn14 Pb13 I81'
_cell_volume   6832.39479375
_cell_formula_units_Z   1
loop_
 _symmetry_equiv_pos_site_id
 _symmetry_equiv_pos_as_xyz
  1  'x, y, z'
loop_
 _atom_site_type_symbol
 _atom_site_label
 _atom_site_symmetry_multiplicity
 _atom_site_fract_x
 _atom_site_fract_y
 _atom_site_fract_z
 _atom_site_occupancy
  Cs  Cs0  1  -0.00037480  0.00446049  0.00127832  1
  Cs  Cs1  1  0.00085068  0.00150916  0.33395656  1
  Cs  Cs2  1  -0.00057334  -0.00059422  0.66396074  1
  Cs  Cs3  1  -0.00103240  0.32526495  -0.00005534  1
  Cs  Cs4  1  0.00007087  0.33133824  0.33255471  1
  Cs  Cs5  1  0.00375509  0.33664654  0.66694366  1
  Cs  Cs6  1  -0.00210832  0.66801164  0.00111911  1
  Cs  Cs7  1  -0.00151326  0.66645558  0.33348926  1
  Cs  Cs8  1  -0.00164431  0.66457820  0.66528603  1
  Cs  Cs9  1  0.33087030  -0.00244379  0.00220012  1
  Cs  Cs10  1  0.33260257  -0.00067158  0.33387530  1
  Cs  Cs11  1  0.33531325  -0.00062195  0.66355594  1
  Cs  Cs12  1  0.33234171  0.33618871  -0.00865812  1
  Cs  Cs13  1  0.33839952  0.33521870  0.33563481  1
  Cs  Cs14  1  0.33895558  0.33997562  0.67262296  1
  Cs  Cs15  1  0.33425895  0.66801610  0.00160815  1
  Cs  Cs16  1  0.33195937  0.66760201  0.33033484  1
  Cs  Cs17  1  0.32957797  0.66545127  0.66885716  1
  Cs  Cs18  1  0.66861808  -0.00041116  0.00053075  1
  Cs  Cs19  1  0.66552585  -0.00095863  0.33391008  1
  Cs  Cs20  1  0.66516865  0.00137641  0.66569441  1
  Cs  Cs21  1  0.66864260  0.33481425  -0.00235969  1
  Cs  Cs22  1  0.66132120  0.33483654  0.33589593  1
  Cs  Cs23  1  0.65654972  0.32841650  0.66496476  1
  Cs  Cs24  1  0.66829657  0.66753462  0.00152633  1
  Cs  Cs25  1  0.67016075  0.66478134  0.33193930  1
  Cs  Cs26  1  0.67357913  0.66808944  0.66669403  1
  Sn  Sn27  1  0.83367896  0.83323690  0.16601722  1
  Sn  Sn28  1  0.16733686  0.83380312  0.49984715  1
  Sn  Sn29  1  0.16612824  0.83357345  0.83348505  1
  Sn  Sn30  1  0.16566891  0.50034829  0.16676054  1
  Sn  Sn31  1  0.50014669  0.83420855  0.16683030  1
  Sn  Sn32  1  0.49923686  0.83309877  0.49977848  1
  Sn  Sn33  1  0.49973249  0.16609085  0.16601184  1
  Sn  Sn34  1  0.83345838  0.50045340  0.83406650  1
  Sn  Sn35  1  0.83470805  0.50047161  0.16580338  1
  Sn  Sn36  1  0.16631138  0.16647145  0.50021609  1
  Sn  Sn37  1  0.16614773  0.83292050  0.16673605  1
  Sn  Sn38  1  0.50017396  0.83334866  0.83335856  1
  Sn  Sn39  1  0.83369100  0.83313185  0.83432198  1
  Sn  Sn40  1  0.83416762  0.16667950  0.49994798  1
  Pb  Pb41  1  0.83148794  0.16692998  0.16839159  1
  Pb  Pb42  1  0.83344940  0.16656529  0.83079595  1
  Pb  Pb43  1  0.16666240  0.50035119  0.49768930  1
  Pb  Pb44  1  0.49987450  0.50395282  0.50015734  1
  Pb  Pb45  1  0.16892644  0.16699613  0.16839725  1
  Pb  Pb46  1  0.16677166  0.16422139  0.83025220  1
  Pb  Pb47  1  0.83339906  0.49682000  0.50003607  1
  Pb  Pb48  1  0.49903542  0.16465874  0.49843218  1
  Pb  Pb49  1  0.16416334  0.50250083  0.83619818  1
  Pb  Pb50  1  0.50299791  0.50326469  0.83353172  1
  Pb  Pb51  1  0.50011413  0.50047376  0.16646000  1
  Pb  Pb52  1  0.49990112  0.16393927  0.83633540  1
  Pb  Pb53  1  0.83366636  0.83449327  0.49982896  1
  I  I54  1  0.16462435  -0.00371597  0.16510627  1
  I  I55  1  0.16633220  -0.00225316  0.49751936  1
  I  I56  1  0.16381025  -0.00508601  0.84000370  1
  I  I57  1  0.16246830  0.33603718  0.16965593  1
  I  I58  1  0.16042863  0.33054925  0.49591169  1
  I  I59  1  0.16473139  0.33374998  0.83366097  1
  I  I60  1  0.16825557  0.66939234  0.16890419  1
  I  I61  1  0.17119284  0.67061356  0.50149833  1
  I  I62  1  0.16968010  0.67139219  0.82801500  1
  I  I63  1  0.50030639  -0.00329655  0.16717925  1
  I  I64  1  0.49901915  -0.00388534  0.50134946  1
  I  I65  1  0.50350453  -0.00498269  0.83060774  1
  I  I66  1  0.50088904  0.33095995  0.17065203  1
  I  I67  1  0.50087506  0.33299819  0.49671301  1
  I  I68  1  0.50165911  0.33352437  0.83394624  1
  I  I69  1  0.49977102  0.67074799  0.16641161  1
  I  I70  1  0.49463508  0.67245713  0.49534554  1
  I  I71  1  0.49665485  0.67178903  0.83762584  1
  I  I72  1  0.83543896  -0.00341638  0.16354480  1
  I  I73  1  0.83440154  0.00194503  0.49907369  1
  I  I74  1  0.83282163  -0.00392170  0.83734339  1
  I  I75  1  0.83678462  0.33645043  0.16336090  1
  I  I76  1  0.83996771  0.32924295  0.49815047  1
  I  I77  1  0.83457151  0.33636564  0.83904820  1
  I  I78  1  0.83149671  0.66846544  0.16438514  1
  I  I79  1  0.83239067  0.66672973  0.49979818  1
  I  I80  1  0.83227335  0.66881587  0.83663884  1
  I  I81  1  0.16771797  0.16577703  0.00018422  1
  I  I82  1  0.16323305  0.15866823  0.33611438  1
  I  I83  1  0.16228891  0.15942726  0.66216542  1
  I  I84  1  0.16672094  0.50628042  0.00410297  1
  I  I85  1  0.16028234  0.50750801  0.32964812  1
  I  I86  1  0.16483430  0.50097380  0.66700706  1
  I  I87  1  0.16965114  0.82834033  0.00073274  1
  I  I88  1  0.16938547  0.83347922  0.33271000  1
  I  I89  1  0.16948824  0.83876775  0.66652109  1
  I  I90  1  0.50130347  0.15965368  0.00408331  1
  I  I91  1  0.50063538  0.15918430  0.33073363  1
  I  I92  1  0.50148322  0.16493694  0.66656615  1
  I  I93  1  0.49740160  0.50072136  0.00017092  1
  I  I94  1  0.50298645  0.50163549  0.33286164  1
  I  I95  1  0.50189410  0.49943119  0.66701828  1
  I  I96  1  0.49805583  0.83684568  0.00069839  1
  I  I97  1  0.49757025  0.83758185  0.33241357  1
  I  I98  1  0.49794025  0.83255140  0.66676656  1
  I  I99  1  0.83140099  0.16605163  0.00012174  1
  I  I100  1  0.83660281  0.16405333  0.33589696  1
  I  I101  1  0.83650474  0.16366763  0.66313197  1
  I  I102  1  0.83595827  0.50588755  0.00114960  1
  I  I103  1  0.83603415  0.50556087  0.32987874  1
  I  I104  1  0.83319220  0.50694908  0.66968109  1
  I  I105  1  0.83234094  0.83031157  0.00074560  1
  I  I106  1  0.83261375  0.83067049  0.33030656  1
  I  I107  1  0.83284815  0.83072325  0.66936143  1
  I  I108  1  0.00011071  0.16417235  0.16726558  1
  I  I109  1  0.00087189  0.15855628  0.49820274  1
  I  I110  1  0.00001446  0.16271038  0.83618502  1
  I  I111  1  -0.00068628  0.50954860  0.16473734  1
  I  I112  1  -0.00004963  0.50509154  0.50109460  1
  I  I113  1  -0.00348722  0.50782888  0.83407606  1
  I  I114  1  -0.00000097  0.82891609  0.16532231  1
  I  I115  1  0.00283007  0.83561829  0.49947516  1
  I  I116  1  -0.00028886  0.82966737  0.83506014  1
  I  I117  1  0.33633112  0.15946327  0.17015926  1
  I  I118  1  0.33052952  0.16127027  0.49664343  1
  I  I119  1  0.33336856  0.16585130  0.83160334  1
  I  I120  1  0.33067281  0.50496105  0.16949373  1
  I  I121  1  0.33309481  0.49481755  0.49726061  1
  I  I122  1  0.33315182  0.50005150  0.83376850  1
  I  I123  1  0.33306149  0.83339165  0.16534763  1
  I  I124  1  0.33248377  0.83933156  0.49907497  1
  I  I125  1  0.33316420  0.83563615  0.83569982  1
  I  I126  1  0.66400083  0.15995854  0.17027441  1
  I  I127  1  0.66811891  0.16524231  0.49860034  1
  I  I128  1  0.66674190  0.16402792  0.82970947  1
  I  I129  1  0.66990477  0.50410289  0.16358365  1
  I  I130  1  0.66692340  0.49925228  0.49666289  1
  I  I131  1  0.67081079  0.50632740  0.84102150  1
  I  I132  1  0.66686660  0.83356720  0.16496905  1
  I  I133  1  0.66447717  0.83579024  0.49948239  1
  I  I134  1  0.66702110  0.82967014  0.83595679  1
