# generated using pymatgen
data_Cs27Sn14Pb13I81
_symmetry_space_group_name_H-M   'P 1'
_cell_length_a   18.97314031
_cell_length_b   18.98104188
_cell_length_c   18.97163450
_cell_angle_alpha   89.99855199
_cell_angle_beta   89.99784634
_cell_angle_gamma   90.00113481
_symmetry_Int_Tables_number   1
_chemical_formula_structural   Cs27Sn14Pb13I81
_chemical_formula_sum   'Cs27 Sn14 Pb13 I81'
_cell_volume   6832.25417047
_cell_formula_units_Z   1
loop_
 _symmetry_equiv_pos_site_id
 _symmetry_equiv_pos_as_xyz
  1  'x, y, z'
loop_
 _atom_site_type_symbol
 _atom_site_label
 _atom_site_symmetry_multiplicity
 _atom_site_fract_x
 _atom_site_fract_y
 _atom_site_fract_z
 _atom_site_occupancy
  Cs  Cs0  1  -0.00004627  -0.00206019  0.00054252  1
  Cs  Cs1  1  -0.00028839  0.00275314  0.33084348  1
  Cs  Cs2  1  -0.00077665  -0.00067747  0.66747247  1
  Cs  Cs3  1  0.00094883  0.33132048  0.00071792  1
  Cs  Cs4  1  -0.00095142  0.33276444  0.33488793  1
  Cs  Cs5  1  -0.00081231  0.33398204  0.66444187  1
  Cs  Cs6  1  0.00290148  0.67280865  -0.00329652  1
  Cs  Cs7  1  -0.00076486  0.66371178  0.33281801  1
  Cs  Cs8  1  -0.00050285  0.66755333  0.66891916  1
  Cs  Cs9  1  0.33005587  0.00256731  0.00216838  1
  Cs  Cs10  1  0.33373377  0.00070849  0.33555639  1
  Cs  Cs11  1  0.33558554  0.00153424  0.66371420  1
  Cs  Cs12  1  0.33627534  0.33327100  0.00022944  1
  Cs  Cs13  1  0.33059440  0.33200334  0.33427292  1
  Cs  Cs14  1  0.33374118  0.33278349  0.66644274  1
  Cs  Cs15  1  0.33109696  0.66355923  0.00169582  1
  Cs  Cs16  1  0.33684916  0.66703125  0.33488973  1
  Cs  Cs17  1  0.33155215  0.66460735  0.66534979  1
  Cs  Cs18  1  0.67020070  0.00033612  -0.00468975  1
  Cs  Cs19  1  0.66531824  -0.00080701  0.33056995  1
  Cs  Cs20  1  0.66688313  -0.00301249  0.66871318  1
  Cs  Cs21  1  0.66113076  0.33692434  0.00016507  1
  Cs  Cs22  1  0.67416774  0.33508063  0.33268627  1
  Cs  Cs23  1  0.66670469  0.33331071  0.66715442  1
  Cs  Cs24  1  0.66536556  0.66421063  0.00683585  1
  Cs  Cs25  1  0.66247428  0.66510567  0.32422332  1
  Cs  Cs26  1  0.66993948  0.67290287  0.66584785  1
  Sn  Sn27  1  0.16551576  0.83344706  0.50012393  1
  Sn  Sn28  1  0.49980483  0.83305380  0.83357349  1
  Sn  Sn29  1  0.49996887  0.49898294  0.50053687  1
  Sn  Sn30  1  0.16715422  0.49984886  0.49940231  1
  Sn  Sn31  1  0.16691754  0.16667766  0.50004477  1
  Sn  Sn32  1  0.49988299  0.16773574  0.49905598  1
  Sn  Sn33  1  0.16735144  0.16757627  0.16704130  1
  Sn  Sn34  1  0.83336399  0.50008186  0.83328544  1
  Sn  Sn35  1  0.16596428  0.16676735  0.83298808  1
  Sn  Sn36  1  0.83401010  0.16725081  0.83297256  1
  Sn  Sn37  1  0.16645052  0.49924612  0.16725638  1
  Sn  Sn38  1  0.83233738  0.83291823  0.83254892  1
  Sn  Sn39  1  0.83401203  0.83337285  0.49977367  1
  Sn  Sn40  1  0.49956956  0.16645905  0.16791680  1
  Pb  Pb41  1  0.49962460  0.83627818  0.16343467  1
  Pb  Pb42  1  0.50206412  0.50264491  0.83080392  1
  Pb  Pb43  1  0.83336836  0.16677403  0.16390169  1
  Pb  Pb44  1  0.16520108  0.49763373  0.83303014  1
  Pb  Pb45  1  0.83663329  0.49988125  0.16375551  1
  Pb  Pb46  1  0.49982169  0.16549867  0.83299648  1
  Pb  Pb47  1  0.83327391  0.50239469  0.50136818  1
  Pb  Pb48  1  0.83296451  0.16474176  0.50182971  1
  Pb  Pb49  1  0.16675794  0.83349933  0.16983599  1
  Pb  Pb50  1  0.50012045  0.83343310  0.50100433  1
  Pb  Pb51  1  0.16678919  0.83557906  0.83127392  1
  Pb  Pb52  1  0.49753992  0.49742512  0.16928456  1
  Pb  Pb53  1  0.83340952  0.83333468  0.16669521  1
  I  I54  1  0.16977088  0.00365278  0.16649862  1
  I  I55  1  0.16729380  0.00131703  0.50126398  1
  I  I56  1  0.16179105  0.00380912  0.83380878  1
  I  I57  1  0.16946101  0.33190428  0.17076963  1
  I  I58  1  0.17105528  0.33264358  0.49999546  1
  I  I59  1  0.16173252  0.32944778  0.82895718  1
  I  I60  1  0.16509333  0.66366956  0.17023656  1
  I  I61  1  0.16720353  0.66601295  0.49655908  1
  I  I62  1  0.16538115  0.66667882  0.83349245  1
  I  I63  1  0.49253198  0.00422215  0.17438861  1
  I  I64  1  0.49586036  0.00282395  0.49840552  1
  I  I65  1  0.50606386  -0.00207211  0.83037668  1
  I  I66  1  0.49740666  0.32956418  0.16473471  1
  I  I67  1  0.49131963  0.33225891  0.49857567  1
  I  I68  1  0.50191489  0.33333074  0.83471877  1
  I  I69  1  0.49945780  0.66632489  0.16729745  1
  I  I70  1  0.49583112  0.66453661  0.50408744  1
  I  I71  1  0.50498207  0.67030969  0.82951925  1
  I  I72  1  0.83585964  0.00029225  0.16407876  1
  I  I73  1  0.83733736  -0.00304311  0.50754221  1
  I  I74  1  0.83297961  -0.00029275  0.82962887  1
  I  I75  1  0.83194159  0.33323250  0.16508204  1
  I  I76  1  0.83513237  0.33333129  0.50315880  1
  I  I77  1  0.83939305  0.33256312  0.83315818  1
  I  I78  1  0.83476050  0.66646302  0.16475684  1
  I  I79  1  0.83806333  0.67011861  0.50835955  1
  I  I80  1  0.82985884  0.66777808  0.82810202  1
  I  I81  1  0.16689684  0.17068206  0.00032156  1
  I  I82  1  0.17148071  0.16645086  0.33423818  1
  I  I83  1  0.16691543  0.16631454  0.66547647  1
  I  I84  1  0.16399629  0.49473509  0.00229258  1
  I  I85  1  0.16928475  0.49551608  0.33486386  1
  I  I86  1  0.16874020  0.49911521  0.66336824  1
  I  I87  1  0.16572004  0.83376067  -0.00014045  1
  I  I88  1  0.16186123  0.83829496  0.33816460  1
  I  I89  1  0.16525972  0.83301883  0.66310312  1
  I  I90  1  0.49633315  0.16354783  0.00192785  1
  I  I91  1  0.49078322  0.16826589  0.33454909  1
  I  I92  1  0.49585513  0.16826738  0.66385517  1
  I  I93  1  0.49989831  0.49967766  0.00008270  1
  I  I94  1  0.49946426  0.50159219  0.33737169  1
  I  I95  1  0.49167427  0.49239818  0.66299676  1
  I  I96  1  0.50812888  0.83533407  -0.00440205  1
  I  I97  1  0.50073280  0.83180219  0.33342406  1
  I  I98  1  0.50262047  0.83706291  0.66873558  1
  I  I99  1  0.83777925  0.16246343  -0.00446669  1
  I  I100  1  0.83532601  0.16432363  0.33349706  1
  I  I101  1  0.83746920  0.16714282  0.67005042  1
  I  I102  1  0.83391990  0.50209053  -0.00438995  1
  I  I103  1  0.83151375  0.50206836  0.33344589  1
  I  I104  1  0.83637116  0.49839811  0.66941083  1
  I  I105  1  0.82963403  0.83442628  -0.00392869  1
  I  I106  1  0.83843224  0.83432268  0.33667968  1
  I  I107  1  0.83362548  0.83384748  0.66765915  1
  I  I108  1  0.00363510  0.16984861  0.16957627  1
  I  I109  1  0.00324295  0.16896909  0.49824796  1
  I  I110  1  0.00053376  0.16429914  0.83268783  1
  I  I111  1  0.00439216  0.49215148  0.17506995  1
  I  I112  1  0.00325962  0.49689754  0.49774457  1
  I  I113  1  -0.00275571  0.50502350  0.83115343  1
  I  I114  1  0.00036863  0.83589764  0.16170189  1
  I  I115  1  0.00073167  0.83370169  0.50691121  1
  I  I116  1  -0.00278695  0.83220718  0.83085544  1
  I  I117  1  0.33176321  0.16958254  0.16447328  1
  I  I118  1  0.33183191  0.16457792  0.50217293  1
  I  I119  1  0.33056673  0.16419588  0.83279040  1
  I  I120  1  0.32956700  0.49796421  0.16645125  1
  I  I121  1  0.33178440  0.50167722  0.49768723  1
  I  I122  1  0.33320616  0.50060444  0.83472139  1
  I  I123  1  0.33310777  0.83203155  0.16505031  1
  I  I124  1  0.33067193  0.83417178  0.50217145  1
  I  I125  1  0.33531337  0.83723263  0.83045391  1
  I  I126  1  0.66366737  0.16504380  0.17063513  1
  I  I127  1  0.66361550  0.16954002  0.49759605  1
  I  I128  1  0.66914808  0.16623506  0.83282298  1
  I  I129  1  0.66648338  0.49905812  0.16735686  1
  I  I130  1  0.66413688  0.49570140  0.50386836  1
  I  I131  1  0.67013538  0.49381969  0.83057101  1
  I  I132  1  0.66642498  0.83495389  0.17178434  1
  I  I133  1  0.66898954  0.83467267  0.50518699  1
  I  I134  1  0.66852268  0.83733292  0.82561052  1
