# generated using pymatgen
data_Cs27Sn13Pb14I81
_symmetry_space_group_name_H-M   'P 1'
_cell_length_a   18.97503246
_cell_length_b   18.97411996
_cell_length_c   18.97894938
_cell_angle_alpha   90.00044341
_cell_angle_beta   89.99847143
_cell_angle_gamma   89.99745179
_symmetry_Int_Tables_number   1
_chemical_formula_structural   Cs27Sn13Pb14I81
_chemical_formula_sum   'Cs27 Sn13 Pb14 I81'
_cell_volume   6833.07734121
_cell_formula_units_Z   1
loop_
 _symmetry_equiv_pos_site_id
 _symmetry_equiv_pos_as_xyz
  1  'x, y, z'
loop_
 _atom_site_type_symbol
 _atom_site_label
 _atom_site_symmetry_multiplicity
 _atom_site_fract_x
 _atom_site_fract_y
 _atom_site_fract_z
 _atom_site_occupancy
  Cs  Cs0  1  0.00109979  0.00236123  0.00174227  1
  Cs  Cs1  1  0.00082633  0.00325882  0.33451589  1
  Cs  Cs2  1  0.00245261  0.00095843  0.66532943  1
  Cs  Cs3  1  -0.00271368  0.33005906  -0.00018827  1
  Cs  Cs4  1  0.00344686  0.33185406  0.33300195  1
  Cs  Cs5  1  0.00104939  0.33286649  0.66740515  1
  Cs  Cs6  1  -0.00077145  0.66763765  -0.00287620  1
  Cs  Cs7  1  -0.00320091  0.66240536  0.33639001  1
  Cs  Cs8  1  -0.00228667  0.66501364  0.66715162  1
  Cs  Cs9  1  0.33052761  -0.00463357  0.00324501  1
  Cs  Cs10  1  0.33507144  -0.00011345  0.33445065  1
  Cs  Cs11  1  0.33163747  0.00032810  0.66530452  1
  Cs  Cs12  1  0.33497988  0.33901392  0.00064627  1
  Cs  Cs13  1  0.33353614  0.34271932  0.33304398  1
  Cs  Cs14  1  0.33818703  0.33223315  0.66578568  1
  Cs  Cs15  1  0.33257827  0.66776580  0.00137085  1
  Cs  Cs16  1  0.33179893  0.66026887  0.33095789  1
  Cs  Cs17  1  0.33197867  0.66760161  0.66865156  1
  Cs  Cs18  1  0.66764193  0.00089868  0.00140686  1
  Cs  Cs19  1  0.66510455  -0.00236518  0.33216394  1
  Cs  Cs20  1  0.66552079  0.00072837  0.66639722  1
  Cs  Cs21  1  0.66831933  0.33294802  -0.00324530  1
  Cs  Cs22  1  0.66287680  0.33447407  0.33552277  1
  Cs  Cs23  1  0.65660867  0.32993971  0.66770540  1
  Cs  Cs24  1  0.66690365  0.66706887  0.00024455  1
  Cs  Cs25  1  0.67009748  0.66863826  0.33260107  1
  Cs  Cs26  1  0.67087645  0.66738145  0.66651219  1
  Sn  Sn27  1  0.49968109  0.16624201  0.16651066  1
  Sn  Sn28  1  0.50084179  0.83353711  0.83347102  1
  Sn  Sn29  1  0.83332943  0.50047688  0.16596135  1
  Sn  Sn30  1  0.49892696  0.83340431  0.49977358  1
  Sn  Sn31  1  0.16671080  0.16748787  0.83309611  1
  Sn  Sn32  1  0.16596652  0.49882972  0.83316975  1
  Sn  Sn33  1  0.83316390  0.83296991  0.16587686  1
  Sn  Sn34  1  0.16615658  0.16602541  0.50072583  1
  Sn  Sn35  1  0.50065657  0.83417188  0.16673411  1
  Sn  Sn36  1  0.83346900  0.16672202  0.50022496  1
  Sn  Sn37  1  0.83394241  0.50029996  0.83390778  1
  Sn  Sn38  1  0.16722905  0.83359358  0.49972247  1
  Sn  Sn39  1  0.83276340  0.83335194  0.83405261  1
  Pb  Pb40  1  0.16343645  0.50013607  0.16361762  1
  Pb  Pb41  1  0.49698860  0.16381421  0.83573287  1
  Pb  Pb42  1  0.16947960  0.16671366  0.16706831  1
  Pb  Pb43  1  0.83327776  0.49671913  0.50076979  1
  Pb  Pb44  1  0.49906679  0.16484712  0.49810717  1
  Pb  Pb45  1  0.50273502  0.50083907  0.16642275  1
  Pb  Pb46  1  0.16592471  0.83321694  0.16977005  1
  Pb  Pb47  1  0.50053953  0.50263764  0.83333391  1
  Pb  Pb48  1  0.83346738  0.83484280  0.50000869  1
  Pb  Pb49  1  0.50019229  0.50371463  0.50011493  1
  Pb  Pb50  1  0.16655778  0.49963748  0.50249679  1
  Pb  Pb51  1  0.83158600  0.16662509  0.16873443  1
  Pb  Pb52  1  0.83470378  0.16644504  0.83149470  1
  Pb  Pb53  1  0.16608251  0.83344160  0.83172955  1
  I  I54  1  0.16239108  -0.00009667  0.16166575  1
  I  I55  1  0.16640036  0.00042873  0.50637713  1
  I  I56  1  0.16715899  0.00205613  0.82987245  1
  I  I57  1  0.16782370  0.33334645  0.17111565  1
  I  I58  1  0.16148013  0.33000509  0.50164405  1
  I  I59  1  0.16029680  0.33327018  0.82826683  1
  I  I60  1  0.17217177  0.66682432  0.16681566  1
  I  I61  1  0.17138959  0.66948382  0.50099951  1
  I  I62  1  0.16537842  0.66482094  0.83186744  1
  I  I63  1  0.50576014  -0.00238517  0.16697699  1
  I  I64  1  0.49915271  -0.00349162  0.50143944  1
  I  I65  1  0.50499956  -0.00428799  0.83090723  1
  I  I66  1  0.50031780  0.33109085  0.16815093  1
  I  I67  1  0.50026065  0.33296696  0.49775145  1
  I  I68  1  0.50221305  0.33304389  0.83476597  1
  I  I69  1  0.50181293  0.67059053  0.16681370  1
  I  I70  1  0.49506887  0.67235446  0.49729627  1
  I  I71  1  0.49843821  0.67106753  0.83576142  1
  I  I72  1  0.83042456  -0.00313211  0.16346385  1
  I  I73  1  0.83523026  0.00238672  0.50006980  1
  I  I74  1  0.83080868  -0.00314048  0.83638418  1
  I  I75  1  0.83226761  0.33586889  0.16257400  1
  I  I76  1  0.84075772  0.32916623  0.49865896  1
  I  I77  1  0.83715580  0.33599409  0.83724343  1
  I  I78  1  0.82756806  0.66808271  0.16394663  1
  I  I79  1  0.83310552  0.66682072  0.49973974  1
  I  I80  1  0.83541467  0.66736952  0.83612797  1
  I  I81  1  0.16715147  0.16974227  -0.00288531  1
  I  I82  1  0.16314098  0.16083571  0.33669002  1
  I  I83  1  0.16261192  0.16549502  0.66610873  1
  I  I84  1  0.16605152  0.49533548  -0.00437638  1
  I  I85  1  0.16624480  0.49962325  0.33333514  1
  I  I86  1  0.15884714  0.50060178  0.67030534  1
  I  I87  1  0.16946805  0.83371960  -0.00016336  1
  I  I88  1  0.16985502  0.84067740  0.33772050  1
  I  I89  1  0.17042607  0.83519657  0.66390032  1
  I  I90  1  0.50081230  0.16016383  0.00317084  1
  I  I91  1  0.50059428  0.15923455  0.33057709  1
  I  I92  1  0.50176306  0.16524247  0.66667008  1
  I  I93  1  0.49647339  0.50148739  -0.00014513  1
  I  I94  1  0.50134043  0.50056046  0.33303342  1
  I  I95  1  0.50268705  0.50028933  0.66702063  1
  I  I96  1  0.50463179  0.83693319  0.00032237  1
  I  I97  1  0.50113456  0.83822986  0.33271626  1
  I  I98  1  0.50030303  0.83236651  0.66680970  1
  I  I99  1  0.83436009  0.16626422  -0.00004322  1
  I  I100  1  0.83936916  0.16502694  0.33637913  1
  I  I101  1  0.83513415  0.16475835  0.66374639  1
  I  I102  1  0.83713143  0.50445562  -0.00076469  1
  I  I103  1  0.83105258  0.50542956  0.33064158  1
  I  I104  1  0.83819962  0.50630652  0.67037145  1
  I  I105  1  0.82602210  0.83006422  -0.00026445  1
  I  I106  1  0.82989016  0.83046644  0.33074966  1
  I  I107  1  0.83065868  0.83004541  0.66935387  1
  I  I108  1  -0.00003164  0.16613049  0.16641966  1
  I  I109  1  0.00127538  0.15980967  0.50229476  1
  I  I110  1  0.00281304  0.16489388  0.83166098  1
  I  I111  1  -0.00443218  0.50646878  0.16615371  1
  I  I112  1  -0.00015585  0.50560496  0.49788052  1
  I  I113  1  -0.00094851  0.50330973  0.83670265  1
  I  I114  1  -0.00368050  0.82970004  0.16211877  1
  I  I115  1  0.00223021  0.83633787  0.50117524  1
  I  I116  1  -0.00293725  0.83213835  0.83609775  1
  I  I117  1  0.33715838  0.15750359  0.16730132  1
  I  I118  1  0.33023784  0.16284463  0.50369758  1
  I  I119  1  0.32928240  0.17102987  0.82586968  1
  I  I120  1  0.33341787  0.50003801  0.16661064  1
  I  I121  1  0.33319532  0.49627105  0.50118764  1
  I  I122  1  0.33065704  0.49754116  0.83086714  1
  I  I123  1  0.33647540  0.83807201  0.16375836  1
  I  I124  1  0.33370707  0.83993408  0.50157739  1
  I  I125  1  0.33561505  0.83381815  0.83512095  1
  I  I126  1  0.66392806  0.16318338  0.16897478  1
  I  I127  1  0.66830871  0.16529752  0.49835358  1
  I  I128  1  0.66643953  0.16897993  0.83135810  1
  I  I129  1  0.67047944  0.50175567  0.15977457  1
  I  I130  1  0.66703522  0.49833162  0.50224665  1
  I  I131  1  0.67021066  0.50289863  0.83744652  1
  I  I132  1  0.66652069  0.83332206  0.16835457  1
  I  I133  1  0.66430058  0.83554310  0.49980362  1
  I  I134  1  0.66727256  0.82813131  0.83165083  1
