# generated using pymatgen
data_Cs27Sn14Pb13I81
_symmetry_space_group_name_H-M   'P 1'
_cell_length_a   18.96052884
_cell_length_b   18.96137366
_cell_length_c   18.96104247
_cell_angle_alpha   90.00014685
_cell_angle_beta   89.99909382
_cell_angle_gamma   90.00020866
_symmetry_Int_Tables_number   1
_chemical_formula_structural   Cs27Sn14Pb13I81
_chemical_formula_sum   'Cs27 Sn14 Pb13 I81'
_cell_volume   6816.82984674
_cell_formula_units_Z   1
loop_
 _symmetry_equiv_pos_site_id
 _symmetry_equiv_pos_as_xyz
  1  'x, y, z'
loop_
 _atom_site_type_symbol
 _atom_site_label
 _atom_site_symmetry_multiplicity
 _atom_site_fract_x
 _atom_site_fract_y
 _atom_site_fract_z
 _atom_site_occupancy
  Cs  Cs0  1  0.00072312  -0.00283409  -0.00252023  1
  Cs  Cs1  1  0.00083833  0.00018455  0.33715756  1
  Cs  Cs2  1  0.00288222  -0.00132460  0.66589864  1
  Cs  Cs3  1  0.00201619  0.33454559  0.00164112  1
  Cs  Cs4  1  0.00574521  0.33929011  0.33943306  1
  Cs  Cs5  1  -0.00173247  0.33115767  0.66060337  1
  Cs  Cs6  1  -0.00458823  0.66837230  0.00068418  1
  Cs  Cs7  1  -0.00135935  0.66273808  0.33073049  1
  Cs  Cs8  1  0.00093967  0.67052279  0.66944721  1
  Cs  Cs9  1  0.33326627  0.00078956  0.00097118  1
  Cs  Cs10  1  0.33438226  -0.00292974  0.33158375  1
  Cs  Cs11  1  0.33255542  -0.00114456  0.66771775  1
  Cs  Cs12  1  0.33495098  0.33249756  -0.00023269  1
  Cs  Cs13  1  0.32628271  0.33529005  0.33158438  1
  Cs  Cs14  1  0.33207838  0.33504377  0.66774064  1
  Cs  Cs15  1  0.33446523  0.66592187  -0.00040059  1
  Cs  Cs16  1  0.33323847  0.66955818  0.33690487  1
  Cs  Cs17  1  0.33511781  0.66648345  0.66494868  1
  Cs  Cs18  1  0.66618430  0.00158123  0.00121857  1
  Cs  Cs19  1  0.66589350  0.00064118  0.33219739  1
  Cs  Cs20  1  0.66623890  0.00197509  0.66536858  1
  Cs  Cs21  1  0.66413915  0.33190285  -0.00186688  1
  Cs  Cs22  1  0.66934880  0.33089055  0.33454741  1
  Cs  Cs23  1  0.66777434  0.33220683  0.66884414  1
  Cs  Cs24  1  0.66843998  0.66635967  -0.00009215  1
  Cs  Cs25  1  0.66853646  0.66542813  0.33502732  1
  Cs  Cs26  1  0.66388876  0.66565927  0.66588602  1
  Sn  Sn27  1  0.83285308  0.16729577  0.83444335  1
  Sn  Sn28  1  0.50012603  0.83352170  0.83421155  1
  Sn  Sn29  1  0.83391718  0.83327208  0.49991905  1
  Sn  Sn30  1  0.50051593  0.16707345  0.16691387  1
  Sn  Sn31  1  0.83341793  0.49902562  0.83347548  1
  Sn  Sn32  1  0.16703096  0.83348641  0.16709822  1
  Sn  Sn33  1  0.16644628  0.49984637  0.83358136  1
  Sn  Sn34  1  0.50018390  0.49997837  0.83416643  1
  Sn  Sn35  1  0.16553464  0.83333883  0.49909061  1
  Sn  Sn36  1  0.83331452  0.16678491  0.16618729  1
  Sn  Sn37  1  0.50017167  0.50000552  0.16636253  1
  Sn  Sn38  1  0.49963052  0.16713279  0.49977158  1
  Sn  Sn39  1  0.50046062  0.16648569  0.83320032  1
  Sn  Sn40  1  0.49961122  0.83290874  0.16585679  1
  Pb  Pb41  1  0.16636803  0.16473219  0.16653058  1
  Pb  Pb42  1  0.83074777  0.83395368  0.83174318  1
  Pb  Pb43  1  0.16913423  0.83147819  0.83380168  1
  Pb  Pb44  1  0.83183164  0.16526299  0.50002852  1
  Pb  Pb45  1  0.50004028  0.49692475  0.49971247  1
  Pb  Pb46  1  0.16677612  0.50272787  0.50243280  1
  Pb  Pb47  1  0.83312523  0.50243314  0.50269027  1
  Pb  Pb48  1  0.83286649  0.83539143  0.16836832  1
  Pb  Pb49  1  0.16893593  0.50264373  0.16460043  1
  Pb  Pb50  1  0.16632242  0.16893204  0.83343232  1
  Pb  Pb51  1  0.83109753  0.49711914  0.16467532  1
  Pb  Pb52  1  0.16954646  0.16446878  0.49997835  1
  Pb  Pb53  1  0.49998241  0.83487477  0.49962576  1
  I  I54  1  0.17378103  -0.00347987  0.16875000  1
  I  I55  1  0.16372018  -0.00371258  0.49828914  1
  I  I56  1  0.16747448  -0.00035842  0.83257532  1
  I  I57  1  0.16830957  0.33368854  0.16544274  1
  I  I58  1  0.16747479  0.33349015  0.50070732  1
  I  I59  1  0.17308604  0.33683303  0.83446416  1
  I  I60  1  0.17253187  0.67065386  0.17006433  1
  I  I61  1  0.16596145  0.67076034  0.49656070  1
  I  I62  1  0.16757297  0.66360813  0.83289165  1
  I  I63  1  0.49959466  0.00020401  0.16416241  1
  I  I64  1  0.50027992  0.00269672  0.50117657  1
  I  I65  1  0.50384958  0.00081631  0.83511353  1
  I  I66  1  0.50445943  0.33262719  0.16283204  1
  I  I67  1  0.50253088  0.32895783  0.50155098  1
  I  I68  1  0.50031625  0.33322792  0.83547267  1
  I  I69  1  0.49527643  0.66722459  0.15914750  1
  I  I70  1  0.49945563  0.66680978  0.50132600  1
  I  I71  1  0.50003989  0.66612654  0.83865613  1
  I  I72  1  0.82601085  0.00323446  0.16022020  1
  I  I73  1  0.83554574  -0.00262273  0.50257291  1
  I  I74  1  0.82741559  0.00309015  0.83526602  1
  I  I75  1  0.82617784  0.32909175  0.16506587  1
  I  I76  1  0.83132224  0.33312839  0.49928168  1
  I  I77  1  0.82712513  0.33279563  0.83626701  1
  I  I78  1  0.83220768  0.66661831  0.16640344  1
  I  I79  1  0.83485399  0.67047269  0.50052618  1
  I  I80  1  0.83132937  0.66427234  0.83069619  1
  I  I81  1  0.17068097  0.16324163  -0.00008802  1
  I  I82  1  0.16734481  0.16795425  0.33317041  1
  I  I83  1  0.16800506  0.16393217  0.66685587  1
  I  I84  1  0.16663023  0.50224093  -0.00346892  1
  I  I85  1  0.16865192  0.49925008  0.33303158  1
  I  I86  1  0.17136120  0.50195542  0.67065661  1
  I  I87  1  0.17061580  0.83275281  0.00256146  1
  I  I88  1  0.17101072  0.83447820  0.33279562  1
  I  I89  1  0.16505488  0.83186793  0.66463993  1
  I  I90  1  0.50345517  0.16628631  -0.00026322  1
  I  I91  1  0.50432043  0.16405363  0.33178790  1
  I  I92  1  0.50367478  0.16535482  0.66840503  1
  I  I93  1  0.49968231  0.49723042  -0.00127222  1
  I  I94  1  0.49966120  0.50168568  0.32986843  1
  I  I95  1  0.50007802  0.50126705  0.67052119  1
  I  I96  1  0.49522015  0.83678105  0.00044269  1
  I  I97  1  0.49892154  0.83431030  0.33033760  1
  I  I98  1  0.50023851  0.83337282  0.66924554  1
  I  I99  1  0.82413568  0.16855887  -0.00091466  1
  I  I100  1  0.82591855  0.16211056  0.33073427  1
  I  I101  1  0.82763721  0.16948456  0.66984277  1
  I  I102  1  0.83391286  0.50114375  -0.00385832  1
  I  I103  1  0.83135551  0.49943016  0.33303150  1
  I  I104  1  0.82906824  0.49372786  0.67134560  1
  I  I105  1  0.83573447  0.83200432  -0.00009661  1
  I  I106  1  0.83139778  0.83670944  0.33602961  1
  I  I107  1  0.83715764  0.83489688  0.66408657  1
  I  I108  1  -0.00322846  0.16315099  0.16030510  1
  I  I109  1  -0.00007117  0.16574056  0.50094661  1
  I  I110  1  -0.00365287  0.17002204  0.83749816  1
  I  I111  1  -0.00005824  0.50064121  0.16393055  1
  I  I112  1  -0.00002946  0.49760294  0.50165037  1
  I  I113  1  -0.00079274  0.49675649  0.83191386  1
  I  I114  1  0.00226462  0.83548567  0.16891333  1
  I  I115  1  0.00058546  0.83462651  0.49653267  1
  I  I116  1  -0.00005691  0.83251076  0.83425253  1
  I  I117  1  0.33726490  0.16755585  0.16503050  1
  I  I118  1  0.33785039  0.16431914  0.50090880  1
  I  I119  1  0.33714470  0.16674594  0.83454111  1
  I  I120  1  0.33751082  0.49476417  0.16024481  1
  I  I121  1  0.33362916  0.50203373  0.50354178  1
  I  I122  1  0.33535384  0.50053014  0.83634610  1
  I  I123  1  0.33528852  0.83544120  0.16862405  1
  I  I124  1  0.33147081  0.83514148  0.49906777  1
  I  I125  1  0.33757799  0.83427126  0.83214066  1
  I  I126  1  0.66441976  0.16399831  0.16520865  1
  I  I127  1  0.66364992  0.16235781  0.50059817  1
  I  I128  1  0.66505062  0.17032684  0.83368750  1
  I  I129  1  0.66247755  0.50545349  0.16097925  1
  I  I130  1  0.66638088  0.50486174  0.50237103  1
  I  I131  1  0.66531500  0.49913287  0.83641314  1
  I  I132  1  0.66314037  0.83275852  0.16424448  1
  I  I133  1  0.66821934  0.83549558  0.50134712  1
  I  I134  1  0.66243062  0.83003151  0.83692880  1
