# generated using pymatgen
data_Cs27Sn13Pb14I81
_symmetry_space_group_name_H-M   'P 1'
_cell_length_a   18.97412458
_cell_length_b   18.98176683
_cell_length_c   18.97410023
_cell_angle_alpha   89.99729910
_cell_angle_beta   89.99554970
_cell_angle_gamma   90.00214086
_symmetry_Int_Tables_number   1
_chemical_formula_structural   Cs27Sn13Pb14I81
_chemical_formula_sum   'Cs27 Sn13 Pb14 I81'
_cell_volume   6833.75760796
_cell_formula_units_Z   1
loop_
 _symmetry_equiv_pos_site_id
 _symmetry_equiv_pos_as_xyz
  1  'x, y, z'
loop_
 _atom_site_type_symbol
 _atom_site_label
 _atom_site_symmetry_multiplicity
 _atom_site_fract_x
 _atom_site_fract_y
 _atom_site_fract_z
 _atom_site_occupancy
  Cs  Cs0  1  0.00494814  0.00250593  -0.00138792  1
  Cs  Cs1  1  -0.00588718  -0.00322240  0.33419076  1
  Cs  Cs2  1  -0.00087697  0.00008024  0.66773366  1
  Cs  Cs3  1  -0.00059006  0.33268268  -0.00137567  1
  Cs  Cs4  1  0.00030976  0.33483931  0.33210987  1
  Cs  Cs5  1  -0.00453278  0.33255467  0.66994694  1
  Cs  Cs6  1  -0.00165428  0.66470847  0.00191927  1
  Cs  Cs7  1  0.00155081  0.66797228  0.33317581  1
  Cs  Cs8  1  0.00430351  0.66698789  0.66556003  1
  Cs  Cs9  1  0.33006136  0.00062953  -0.00208094  1
  Cs  Cs10  1  0.33468808  0.00844492  0.33264285  1
  Cs  Cs11  1  0.33422229  -0.00157637  0.66940756  1
  Cs  Cs12  1  0.33261714  0.33173642  0.00332130  1
  Cs  Cs13  1  0.33444678  0.33226364  0.33355322  1
  Cs  Cs14  1  0.33577231  0.33440172  0.66328712  1
  Cs  Cs15  1  0.33441625  0.66781872  -0.00092386  1
  Cs  Cs16  1  0.32990479  0.66359028  0.33510029  1
  Cs  Cs17  1  0.33178631  0.66809141  0.66610352  1
  Cs  Cs18  1  0.66405804  -0.01011214  0.00339211  1
  Cs  Cs19  1  0.67136017  -0.00366086  0.33355312  1
  Cs  Cs20  1  0.66619437  0.00276806  0.66384660  1
  Cs  Cs21  1  0.66812427  0.33546188  -0.00109657  1
  Cs  Cs22  1  0.66548826  0.33425849  0.33333968  1
  Cs  Cs23  1  0.66702097  0.33313339  0.66724021  1
  Cs  Cs24  1  0.66675492  0.66989449  0.00084205  1
  Cs  Cs25  1  0.66742517  0.66720936  0.33022599  1
  Cs  Cs26  1  0.66468725  0.66417015  0.66942937  1
  Sn  Sn27  1  0.83269859  0.50006583  0.49934362  1
  Sn  Sn28  1  0.50023773  0.16743682  0.83325492  1
  Sn  Sn29  1  0.16606475  0.50059295  0.16580227  1
  Sn  Sn30  1  0.83399922  0.49910447  0.16749468  1
  Sn  Sn31  1  0.16713491  0.83281929  0.16691062  1
  Sn  Sn32  1  0.49894488  0.49908785  0.83283301  1
  Sn  Sn33  1  0.50090730  0.50029906  0.50062251  1
  Sn  Sn34  1  0.49979632  0.83307917  0.49962986  1
  Sn  Sn35  1  0.49941658  0.16666122  0.50078345  1
  Sn  Sn36  1  0.83296601  0.16746728  0.16641048  1
  Sn  Sn37  1  0.16766040  0.49971950  0.83405169  1
  Sn  Sn38  1  0.83365374  0.83337050  0.83276133  1
  Sn  Sn39  1  0.16647104  0.16684818  0.50035168  1
  Pb  Pb40  1  0.83276022  0.16869756  0.49866108  1
  Pb  Pb41  1  0.49693257  0.83328331  0.16945146  1
  Pb  Pb42  1  0.50110936  0.83309325  0.83146477  1
  Pb  Pb43  1  0.50252230  0.16670488  0.16655870  1
  Pb  Pb44  1  0.16881376  0.16917745  0.83105071  1
  Pb  Pb45  1  0.49987446  0.50002579  0.16643153  1
  Pb  Pb46  1  0.83151099  0.83040458  0.50208602  1
  Pb  Pb47  1  0.16483116  0.83104410  0.83496749  1
  Pb  Pb48  1  0.83529155  0.83268273  0.16514808  1
  Pb  Pb49  1  0.16471989  0.16729883  0.16847709  1
  Pb  Pb50  1  0.16671562  0.49851784  0.49993452  1
  Pb  Pb51  1  0.83036414  0.16422743  0.83584687  1
  Pb  Pb52  1  0.83299020  0.50108637  0.83356493  1
  Pb  Pb53  1  0.16888849  0.83610027  0.49797346  1
  I  I54  1  0.16512811  -0.00178087  0.16938460  1
  I  I55  1  0.17202041  0.00380036  0.49757444  1
  I  I56  1  0.16723479  0.00019318  0.83512670  1
  I  I57  1  0.16415683  0.33649655  0.16436502  1
  I  I58  1  0.17317471  0.33107683  0.49756853  1
  I  I59  1  0.16641689  0.33720182  0.83992573  1
  I  I60  1  0.16080469  0.66464370  0.16443815  1
  I  I61  1  0.16756177  0.66642666  0.50100538  1
  I  I62  1  0.17263880  0.66281115  0.83326046  1
  I  I63  1  0.50097511  0.00004901  0.16634848  1
  I  I64  1  0.49472282  0.00119284  0.50380512  1
  I  I65  1  0.50320526  0.00252581  0.82865695  1
  I  I66  1  0.49624592  0.33350357  0.17098132  1
  I  I67  1  0.50002867  0.33374220  0.50395925  1
  I  I68  1  0.49769813  0.33443809  0.82485618  1
  I  I69  1  0.50498724  0.66645944  0.16624553  1
  I  I70  1  0.50468012  0.66505015  0.50372172  1
  I  I71  1  0.49812353  0.66347105  0.82885173  1
  I  I72  1  0.83376253  0.00183275  0.16583348  1
  I  I73  1  0.83229379  0.00001952  0.49791871  1
  I  I74  1  0.83159420  -0.00297579  0.83503310  1
  I  I75  1  0.83853415  0.33527383  0.16997397  1
  I  I76  1  0.82820450  0.33675887  0.49917523  1
  I  I77  1  0.83459214  0.33342708  0.83237282  1
  I  I78  1  0.83542519  0.66344577  0.16913594  1
  I  I79  1  0.82888214  0.66235977  0.49398102  1
  I  I80  1  0.83061873  0.66837064  0.83522617  1
  I  I81  1  0.16757049  0.16492769  -0.00003019  1
  I  I82  1  0.17454548  0.16970224  0.33617957  1
  I  I83  1  0.16802987  0.16853291  0.66319274  1
  I  I84  1  0.16604535  0.50305057  0.00067001  1
  I  I85  1  0.16537376  0.50211480  0.33088322  1
  I  I86  1  0.16738819  0.49808717  0.66880619  1
  I  I87  1  0.16608518  0.83242095  0.00306838  1
  I  I88  1  0.16541296  0.82481891  0.33027366  1
  I  I89  1  0.16597014  0.83209092  0.66656407  1
  I  I90  1  0.50201730  0.17277164  -0.00307853  1
  I  I91  1  0.49651639  0.16863596  0.33685981  1
  I  I92  1  0.49696668  0.16818757  0.66544898  1
  I  I93  1  0.49952552  0.49527007  -0.00316972  1
  I  I94  1  0.50076552  0.49862103  0.33658213  1
  I  I95  1  0.50054375  0.49918908  0.66589201  1
  I  I96  1  0.50155674  0.83329628  -0.00020350  1
  I  I97  1  0.50179538  0.83305257  0.33761668  1
  I  I98  1  0.50052670  0.83269779  0.66349736  1
  I  I99  1  0.83395297  0.17472907  0.00341061  1
  I  I100  1  0.83195601  0.16825643  0.33068567  1
  I  I101  1  0.83505626  0.16749785  0.66670689  1
  I  I102  1  0.83460006  0.49822512  0.00265692  1
  I  I103  1  0.83299054  0.49692516  0.33288837  1
  I  I104  1  0.83191264  0.50155633  0.66446947  1
  I  I105  1  0.83095145  0.83040364  -0.00230759  1
  I  I106  1  0.83286602  0.83467982  0.33338210  1
  I  I107  1  0.83297261  0.83146041  0.66944108  1
  I  I108  1  -0.00297470  0.16878588  0.16917611  1
  I  I109  1  0.00186474  0.16974465  0.49662841  1
  I  I110  1  -0.00008351  0.16709090  0.83181322  1
  I  I111  1  -0.00010422  0.50000982  0.16703349  1
  I  I112  1  -0.00216267  0.49743526  0.49921867  1
  I  I113  1  0.00202489  0.50284439  0.83390376  1
  I  I114  1  0.00282913  0.83089684  0.16683326  1
  I  I115  1  0.00005655  0.83362389  0.50013262  1
  I  I116  1  -0.00278700  0.83088179  0.83362393  1
  I  I117  1  0.33332350  0.16677715  0.16649835  1
  I  I118  1  0.33521639  0.16949846  0.50126390  1
  I  I119  1  0.33700960  0.16702542  0.83226905  1
  I  I120  1  0.33040478  0.50385248  0.16633071  1
  I  I121  1  0.33632735  0.50069136  0.50075776  1
  I  I122  1  0.33423438  0.49756659  0.83272320  1
  I  I123  1  0.32929803  0.82616327  0.16565462  1
  I  I124  1  0.33695565  0.82689631  0.50104619  1
  I  I125  1  0.33332371  0.83443161  0.83388228  1
  I  I126  1  0.67021687  0.17357697  0.16865418  1
  I  I127  1  0.66324378  0.16606035  0.50266945  1
  I  I128  1  0.66267843  0.17484698  0.82509997  1
  I  I129  1  0.66947256  0.49611126  0.16806436  1
  I  I130  1  0.66534075  0.49779405  0.50025331  1
  I  I131  1  0.66382546  0.49785936  0.83131459  1
  I  I132  1  0.66682943  0.83332784  0.16595628  1
  I  I133  1  0.66338765  0.83856033  0.49997443  1
  I  I134  1  0.66876746  0.83010211  0.83518856  1
