# generated using pymatgen
data_Cs27Sn14Pb13I81
_symmetry_space_group_name_H-M   'P 1'
_cell_length_a   18.97611452
_cell_length_b   18.97540373
_cell_length_c   18.97436433
_cell_angle_alpha   90.00371612
_cell_angle_beta   90.00126512
_cell_angle_gamma   90.00061964
_symmetry_Int_Tables_number   1
_chemical_formula_structural   Cs27Sn14Pb13I81
_chemical_formula_sum   'Cs27 Sn14 Pb13 I81'
_cell_volume   6832.27835652
_cell_formula_units_Z   1
loop_
 _symmetry_equiv_pos_site_id
 _symmetry_equiv_pos_as_xyz
  1  'x, y, z'
loop_
 _atom_site_type_symbol
 _atom_site_label
 _atom_site_symmetry_multiplicity
 _atom_site_fract_x
 _atom_site_fract_y
 _atom_site_fract_z
 _atom_site_occupancy
  Cs  Cs0  1  -0.00060686  -0.00062529  0.00050270  1
  Cs  Cs1  1  -0.00036452  -0.00210505  0.33352941  1
  Cs  Cs2  1  0.00394764  -0.00077924  0.66585038  1
  Cs  Cs3  1  -0.01069870  0.33463305  0.00096173  1
  Cs  Cs4  1  0.00216031  0.33150483  0.33254272  1
  Cs  Cs5  1  0.00127749  0.33285342  0.66707038  1
  Cs  Cs6  1  0.00099457  0.66617497  -0.00085881  1
  Cs  Cs7  1  0.00148979  0.67045294  0.33521340  1
  Cs  Cs8  1  -0.00145588  0.66725037  0.66549494  1
  Cs  Cs9  1  0.33686157  -0.00256981  -0.00607557  1
  Cs  Cs10  1  0.33314296  0.00235387  0.33292390  1
  Cs  Cs11  1  0.33280544  0.00266950  0.67344468  1
  Cs  Cs12  1  0.33258153  0.33309504  -0.00094124  1
  Cs  Cs13  1  0.33304504  0.33255303  0.33494479  1
  Cs  Cs14  1  0.33306314  0.33322126  0.66623188  1
  Cs  Cs15  1  0.33376820  0.66965266  -0.00020388  1
  Cs  Cs16  1  0.33398313  0.66557594  0.33274565  1
  Cs  Cs17  1  0.33304096  0.66397403  0.66831663  1
  Cs  Cs18  1  0.66301647  0.00175304  -0.00273182  1
  Cs  Cs19  1  0.66690330  -0.00001237  0.33558261  1
  Cs  Cs20  1  0.66512598  -0.00052521  0.66392683  1
  Cs  Cs21  1  0.67983195  0.33236281  -0.00144269  1
  Cs  Cs22  1  0.66424647  0.33308554  0.33214912  1
  Cs  Cs23  1  0.66563711  0.33373427  0.66834794  1
  Cs  Cs24  1  0.66550649  0.66591236  0.00272136  1
  Cs  Cs25  1  0.66110811  0.66650218  0.33406537  1
  Cs  Cs26  1  0.67070876  0.66562450  0.66266813  1
  Sn  Sn27  1  0.49805218  0.83416482  0.49998588  1
  Sn  Sn28  1  0.16821323  0.83279369  0.49955521  1
  Sn  Sn29  1  0.16727957  0.49995527  0.83345947  1
  Sn  Sn30  1  0.16594571  0.50068452  0.49992525  1
  Sn  Sn31  1  0.83422161  0.49865963  0.49932085  1
  Sn  Sn32  1  0.50046380  0.16588383  0.49933248  1
  Sn  Sn33  1  0.83354825  0.83330117  0.16553571  1
  Sn  Sn34  1  0.49987776  0.49980184  0.83379231  1
  Sn  Sn35  1  0.83331086  0.83340847  0.83458799  1
  Sn  Sn36  1  0.16673380  0.49999817  0.16659933  1
  Sn  Sn37  1  0.16755845  0.16637606  0.16652520  1
  Sn  Sn38  1  0.16638146  0.83359105  0.16720411  1
  Sn  Sn39  1  0.83277887  0.16785662  0.49967910  1
  Sn  Sn40  1  0.49934616  0.16699919  0.16699979  1
  Pb  Pb41  1  0.83377076  0.50173337  0.83125910  1
  Pb  Pb42  1  0.83333502  0.16440667  0.16872130  1
  Pb  Pb43  1  0.49941971  0.49956758  0.50105817  1
  Pb  Pb44  1  0.50005319  0.16915194  0.83340153  1
  Pb  Pb45  1  0.49782237  0.49715466  0.16406932  1
  Pb  Pb46  1  0.16704165  0.16648009  0.49865972  1
  Pb  Pb47  1  0.16535198  0.83139575  0.83336767  1
  Pb  Pb48  1  0.16641407  0.16972808  0.83722845  1
  Pb  Pb49  1  0.50231580  0.83101379  0.83042647  1
  Pb  Pb50  1  0.83342159  0.16368415  0.83008337  1
  Pb  Pb51  1  0.83372005  0.83341329  0.49944579  1
  Pb  Pb52  1  0.83561711  0.50261457  0.16961421  1
  Pb  Pb53  1  0.49935470  0.83521608  0.16840939  1
  I  I54  1  0.16512752  -0.00094156  0.17420847  1
  I  I55  1  0.16536806  -0.00268142  0.49466387  1
  I  I56  1  0.16486552  -0.00015104  0.83183353  1
  I  I57  1  0.17256377  0.33371780  0.16842462  1
  I  I58  1  0.16567448  0.33607700  0.49916541  1
  I  I59  1  0.17037502  0.33799627  0.82897022  1
  I  I60  1  0.16116174  0.66681665  0.16808623  1
  I  I61  1  0.16571026  0.66639433  0.49567384  1
  I  I62  1  0.16927298  0.66331939  0.83637348  1
  I  I63  1  0.49457847  0.00308282  0.16915589  1
  I  I64  1  0.50225107  0.00038407  0.49620080  1
  I  I65  1  0.50162558  -0.00006233  0.83385480  1
  I  I66  1  0.49410627  0.32949347  0.17518876  1
  I  I67  1  0.50107521  0.33070076  0.49769561  1
  I  I68  1  0.49469458  0.33674848  0.82943866  1
  I  I69  1  0.50029264  0.66663612  0.16801325  1
  I  I70  1  0.50053709  0.66869088  0.50172200  1
  I  I71  1  0.49485584  0.66358348  0.83120360  1
  I  I72  1  0.84045664  -0.00327435  0.16690578  1
  I  I73  1  0.83199651  0.00183751  0.49956099  1
  I  I74  1  0.83384794  -0.00397761  0.83529597  1
  I  I75  1  0.83409412  0.33335124  0.16603402  1
  I  I76  1  0.83382364  0.33367013  0.50028955  1
  I  I77  1  0.83316638  0.33352504  0.83386799  1
  I  I78  1  0.83883077  0.67039874  0.16595150  1
  I  I79  1  0.83478286  0.66486884  0.50106502  1
  I  I80  1  0.83414531  0.66929607  0.83324050  1
  I  I81  1  0.17345259  0.16353409  0.00545450  1
  I  I82  1  0.16738274  0.17069974  0.33058984  1
  I  I83  1  0.16643946  0.16623450  0.66664495  1
  I  I84  1  0.17287139  0.50057178  0.00059544  1
  I  I85  1  0.16148561  0.50118249  0.33361864  1
  I  I86  1  0.16638060  0.50555005  0.66544482  1
  I  I87  1  0.16360098  0.83248817  0.00313214  1
  I  I88  1  0.16373481  0.82860671  0.33324829  1
  I  I89  1  0.16701373  0.82875159  0.66360524  1
  I  I90  1  0.49378550  0.16683715  0.00299253  1
  I  I91  1  0.49976478  0.16372493  0.33434495  1
  I  I92  1  0.50463028  0.16376816  0.66336894  1
  I  I93  1  0.49390600  0.50043292  -0.00339967  1
  I  I94  1  0.50034132  0.50157510  0.33324347  1
  I  I95  1  0.49411804  0.49922043  0.66861694  1
  I  I96  1  0.49864259  0.83438374  -0.00001089  1
  I  I97  1  0.50181230  0.83306983  0.33663407  1
  I  I98  1  0.49613329  0.83957618  0.66228942  1
  I  I99  1  0.83291179  0.16792353  0.00027433  1
  I  I100  1  0.83234465  0.16746665  0.33660091  1
  I  I101  1  0.82732771  0.16842191  0.66198974  1
  I  I102  1  0.83363832  0.49940425  0.00026721  1
  I  I103  1  0.83770649  0.49893349  0.33752968  1
  I  I104  1  0.83877639  0.50048492  0.66331005  1
  I  I105  1  0.84043971  0.83240508  0.00109601  1
  I  I106  1  0.83633337  0.83388095  0.33135039  1
  I  I107  1  0.83282122  0.83202273  0.66775826  1
  I  I108  1  0.00292410  0.16862544  0.16860380  1
  I  I109  1  -0.00176726  0.16692778  0.49849542  1
  I  I110  1  -0.00003592  0.16927161  0.83218064  1
  I  I111  1  0.00420291  0.49435984  0.16159477  1
  I  I112  1  0.00161262  0.50120287  0.50207251  1
  I  I113  1  0.00301341  0.50173960  0.83466790  1
  I  I114  1  0.00181015  0.83491267  0.17002009  1
  I  I115  1  0.00260335  0.83206036  0.49896348  1
  I  I116  1  -0.00237961  0.83013041  0.83090008  1
  I  I117  1  0.33260836  0.16619974  0.17442055  1
  I  I118  1  0.33578208  0.16624357  0.49700292  1
  I  I119  1  0.33317287  0.16454788  0.82839705  1
  I  I120  1  0.32913652  0.50530532  0.17301799  1
  I  I121  1  0.33004790  0.50116233  0.49815396  1
  I  I122  1  0.33170951  0.50083907  0.82983418  1
  I  I123  1  0.32986854  0.83067122  0.17010797  1
  I  I124  1  0.33196315  0.83174055  0.49385443  1
  I  I125  1  0.33338174  0.83349695  0.83477500  1
  I  I126  1  0.66426749  0.16440703  0.16991925  1
  I  I127  1  0.66581912  0.16541115  0.49426815  1
  I  I128  1  0.66672822  0.17054116  0.83806409  1
  I  I129  1  0.66683313  0.50039700  0.16627909  1
  I  I130  1  0.66853301  0.50092130  0.50379301  1
  I  I131  1  0.66485092  0.50129234  0.82913240  1
  I  I132  1  0.66885035  0.83548607  0.16580399  1
  I  I133  1  0.66497216  0.83369501  0.50043507  1
  I  I134  1  0.66994508  0.83040288  0.83733994  1
