# generated using pymatgen
data_Cs27Sn14Pb13I81
_symmetry_space_group_name_H-M   'P 1'
_cell_length_a   18.97066001
_cell_length_b   18.98149656
_cell_length_c   18.97590982
_cell_angle_alpha   90.00060257
_cell_angle_beta   89.99912091
_cell_angle_gamma   90.00054505
_symmetry_Int_Tables_number   1
_chemical_formula_structural   Cs27Sn14Pb13I81
_chemical_formula_sum   'Cs27 Sn14 Pb13 I81'
_cell_volume   6833.06416572
_cell_formula_units_Z   1
loop_
 _symmetry_equiv_pos_site_id
 _symmetry_equiv_pos_as_xyz
  1  'x, y, z'
loop_
 _atom_site_type_symbol
 _atom_site_label
 _atom_site_symmetry_multiplicity
 _atom_site_fract_x
 _atom_site_fract_y
 _atom_site_fract_z
 _atom_site_occupancy
  Cs  Cs0  1  0.00147691  -0.00811498  -0.00036760  1
  Cs  Cs1  1  -0.00708564  -0.00141461  0.33238725  1
  Cs  Cs2  1  -0.00241121  0.00255587  0.66618411  1
  Cs  Cs3  1  0.00050991  0.33446714  -0.00189892  1
  Cs  Cs4  1  0.00131461  0.33404181  0.33394366  1
  Cs  Cs5  1  0.00296104  0.33124319  0.66648431  1
  Cs  Cs6  1  -0.00635087  0.67412074  0.00112280  1
  Cs  Cs7  1  -0.00097697  0.66711709  0.33095088  1
  Cs  Cs8  1  -0.00107866  0.66756135  0.66706068  1
  Cs  Cs9  1  0.33463170  -0.00141582  -0.00130943  1
  Cs  Cs10  1  0.33402363  -0.00202155  0.33404237  1
  Cs  Cs11  1  0.33359142  -0.00023797  0.66595096  1
  Cs  Cs12  1  0.33319266  0.33151451  0.00107077  1
  Cs  Cs13  1  0.33255518  0.33555215  0.33452610  1
  Cs  Cs14  1  0.33067822  0.33330855  0.66474378  1
  Cs  Cs15  1  0.33251375  0.67052725  0.00243723  1
  Cs  Cs16  1  0.33475258  0.66591299  0.33380086  1
  Cs  Cs17  1  0.33415232  0.66601900  0.66363305  1
  Cs  Cs18  1  0.66203066  0.00578873  0.00020348  1
  Cs  Cs19  1  0.67164497  0.00142216  0.33245976  1
  Cs  Cs20  1  0.66975524  -0.00281426  0.66657754  1
  Cs  Cs21  1  0.66854135  0.33177396  -0.00081829  1
  Cs  Cs22  1  0.66744681  0.33214383  0.33090170  1
  Cs  Cs23  1  0.66629805  0.33508282  0.66863726  1
  Cs  Cs24  1  0.67409612  0.66378140  -0.00863429  1
  Cs  Cs25  1  0.66144807  0.66610102  0.33433601  1
  Cs  Cs26  1  0.66808805  0.66671787  0.67273643  1
  Sn  Sn27  1  0.83326260  0.49990370  0.49962020  1
  Sn  Sn28  1  0.83444616  0.16685285  0.83339044  1
  Sn  Sn29  1  0.16588767  0.16744641  0.83348847  1
  Sn  Sn30  1  0.16723715  0.16613713  0.49943577  1
  Sn  Sn31  1  0.50014916  0.49987632  0.49946321  1
  Sn  Sn32  1  0.49913273  0.83333216  0.49926315  1
  Sn  Sn33  1  0.16732789  0.49955243  0.16636602  1
  Sn  Sn34  1  0.16700566  0.83341847  0.49983253  1
  Sn  Sn35  1  0.16655869  0.50032011  0.49985196  1
  Sn  Sn36  1  0.16670574  0.16701264  0.16703338  1
  Sn  Sn37  1  0.49999344  0.83208876  0.16745395  1
  Sn  Sn38  1  0.49949161  0.16677415  0.49996015  1
  Sn  Sn39  1  0.16712488  0.49988158  0.83385987  1
  Sn  Sn40  1  0.49924804  0.50082712  0.16701529  1
  Pb  Pb41  1  0.83278875  0.83052982  0.49985015  1
  Pb  Pb42  1  0.83343797  0.83659206  0.83314538  1
  Pb  Pb43  1  0.49782102  0.16722076  0.16911534  1
  Pb  Pb44  1  0.49729689  0.49993088  0.83388947  1
  Pb  Pb45  1  0.83346048  0.16885041  0.50125896  1
  Pb  Pb46  1  0.49895759  0.16686423  0.83054763  1
  Pb  Pb47  1  0.83683211  0.16700560  0.16390563  1
  Pb  Pb48  1  0.16814314  0.83306341  0.16922039  1
  Pb  Pb49  1  0.82897245  0.83313818  0.16698840  1
  Pb  Pb50  1  0.83646631  0.49815885  0.83096061  1
  Pb  Pb51  1  0.49974012  0.83310152  0.83320427  1
  Pb  Pb52  1  0.16686988  0.83341252  0.83054086  1
  Pb  Pb53  1  0.83333439  0.49994261  0.16867484  1
  I  I54  1  0.16823644  0.00257696  0.16597088  1
  I  I55  1  0.17411219  0.00097566  0.50109063  1
  I  I56  1  0.16298216  0.00354410  0.83315270  1
  I  I57  1  0.17200867  0.33431122  0.17081861  1
  I  I58  1  0.16884331  0.33367770  0.50077668  1
  I  I59  1  0.16387771  0.33299087  0.82824972  1
  I  I60  1  0.16884437  0.66340037  0.16749770  1
  I  I61  1  0.16916356  0.66522421  0.50070542  1
  I  I62  1  0.16883772  0.66350098  0.83172352  1
  I  I63  1  0.49840191  -0.00205242  0.17114780  1
  I  I64  1  0.49148637  -0.00014287  0.49753731  1
  I  I65  1  0.49846508  0.00021309  0.83353462  1
  I  I66  1  0.49740649  0.33643265  0.17179073  1
  I  I67  1  0.49652170  0.33423121  0.49746126  1
  I  I68  1  0.50227957  0.33333775  0.83271528  1
  I  I69  1  0.49218733  0.66531895  0.17751796  1
  I  I70  1  0.49601638  0.66586260  0.49597821  1
  I  I71  1  0.49820882  0.66634017  0.82782972  1
  I  I72  1  0.83405051  0.00022852  0.16745437  1
  I  I73  1  0.83332486  0.00017526  0.50234123  1
  I  I74  1  0.84179819  0.00435608  0.83012307  1
  I  I75  1  0.82743312  0.33339119  0.16747272  1
  I  I76  1  0.83411200  0.33657326  0.50086122  1
  I  I77  1  0.83607349  0.33051573  0.83168356  1
  I  I78  1  0.84011515  0.66640086  0.16662359  1
  I  I79  1  0.83549240  0.66260894  0.50051237  1
  I  I80  1  0.83353922  0.66635411  0.83248009  1
  I  I81  1  0.16263233  0.17499526  -0.00007381  1
  I  I82  1  0.17236564  0.17065121  0.33450365  1
  I  I83  1  0.16670159  0.16965954  0.66557969  1
  I  I84  1  0.17267615  0.49090105  0.00075643  1
  I  I85  1  0.16747934  0.49687049  0.33445286  1
  I  I86  1  0.16678432  0.49711244  0.66498498  1
  I  I87  1  0.16844757  0.83381137  0.00032417  1
  I  I88  1  0.16936472  0.83307295  0.33740454  1
  I  I89  1  0.17344489  0.83233903  0.66211417  1
  I  I90  1  0.49979099  0.16560266  0.00023437  1
  I  I91  1  0.49441660  0.16751179  0.33737496  1
  I  I92  1  0.49373207  0.16748567  0.66206467  1
  I  I93  1  0.49464058  0.50456958  0.00367217  1
  I  I94  1  0.49508125  0.50057665  0.33499258  1
  I  I95  1  0.49899012  0.50052924  0.66288777  1
  I  I96  1  0.49905794  0.82908184  0.00354946  1
  I  I97  1  0.49459972  0.83145454  0.33508441  1
  I  I98  1  0.49610166  0.83273880  0.66248060  1
  I  I99  1  0.83719139  0.16830474  -0.00402041  1
  I  I100  1  0.83372917  0.16678534  0.33336636  1
  I  I101  1  0.84047761  0.16859745  0.66893768  1
  I  I102  1  0.83219734  0.49920054  -0.00028786  1
  I  I103  1  0.83852427  0.49836954  0.33686352  1
  I  I104  1  0.83179967  0.49955250  0.66300553  1
  I  I105  1  0.83391782  0.83167760  0.00000638  1
  I  I106  1  0.83741287  0.83556822  0.33378953  1
  I  I107  1  0.83115887  0.83226348  0.66621585  1
  I  I108  1  0.00529583  0.17371687  0.17413039  1
  I  I109  1  0.00379184  0.16740945  0.49907931  1
  I  I110  1  0.00260549  0.17180305  0.82968046  1
  I  I111  1  0.00382006  0.49459312  0.16877351  1
  I  I112  1  0.00234427  0.49890141  0.50054826  1
  I  I113  1  0.00465498  0.49705846  0.83210000  1
  I  I114  1  0.00017831  0.83345915  0.16750794  1
  I  I115  1  0.00310236  0.83376609  0.50143222  1
  I  I116  1  0.00047400  0.83043042  0.83152765  1
  I  I117  1  0.32958660  0.16859621  0.16211327  1
  I  I118  1  0.33178864  0.17044437  0.50226853  1
  I  I119  1  0.32933129  0.17040220  0.83386671  1
  I  I120  1  0.33244372  0.49940579  0.17223027  1
  I  I121  1  0.33257725  0.49966502  0.50009830  1
  I  I122  1  0.32917108  0.49240218  0.82720955  1
  I  I123  1  0.33613801  0.83175362  0.17000506  1
  I  I124  1  0.33343448  0.83001826  0.49759184  1
  I  I125  1  0.33303191  0.83703151  0.83403567  1
  I  I126  1  0.66639666  0.16606957  0.16612411  1
  I  I127  1  0.66375091  0.16673669  0.50203294  1
  I  I128  1  0.66881116  0.16534023  0.83030402  1
  I  I129  1  0.66302968  0.50417737  0.17308108  1
  I  I130  1  0.66506218  0.49932747  0.49510286  1
  I  I131  1  0.66683962  0.49880777  0.83236446  1
  I  I132  1  0.66093387  0.82799148  0.17627382  1
  I  I133  1  0.66274790  0.83462063  0.49614802  1
  I  I134  1  0.66663028  0.83447204  0.83055574  1
