# generated using pymatgen
data_Cs27Sn14Pb13I81
_symmetry_space_group_name_H-M   'P 1'
_cell_length_a   18.97252401
_cell_length_b   18.97715452
_cell_length_c   18.97816990
_cell_angle_alpha   90.00051409
_cell_angle_beta   90.00089620
_cell_angle_gamma   89.99957114
_symmetry_Int_Tables_number   1
_chemical_formula_structural   Cs27Sn14Pb13I81
_chemical_formula_sum   'Cs27 Sn14 Pb13 I81'
_cell_volume   6832.98606850
_cell_formula_units_Z   1
loop_
 _symmetry_equiv_pos_site_id
 _symmetry_equiv_pos_as_xyz
  1  'x, y, z'
loop_
 _atom_site_type_symbol
 _atom_site_label
 _atom_site_symmetry_multiplicity
 _atom_site_fract_x
 _atom_site_fract_y
 _atom_site_fract_z
 _atom_site_occupancy
  Cs  Cs0  1  0.00232355  -0.00428571  -0.00364436  1
  Cs  Cs1  1  -0.00104620  -0.00168880  0.33548345  1
  Cs  Cs2  1  -0.00034452  -0.00052874  0.66854397  1
  Cs  Cs3  1  -0.00104050  0.33235664  -0.00030911  1
  Cs  Cs4  1  -0.00046898  0.33482837  0.33136112  1
  Cs  Cs5  1  0.00321689  0.33446281  0.66845941  1
  Cs  Cs6  1  -0.00142910  0.66832656  0.00069328  1
  Cs  Cs7  1  0.00203730  0.66591077  0.33279667  1
  Cs  Cs8  1  -0.00021846  0.66663425  0.66543512  1
  Cs  Cs9  1  0.33272269  -0.00218723  0.00472584  1
  Cs  Cs10  1  0.33909680  -0.00098083  0.32882394  1
  Cs  Cs11  1  0.33235721  0.00190059  0.66662838  1
  Cs  Cs12  1  0.33237664  0.33316339  -0.00160021  1
  Cs  Cs13  1  0.33279777  0.33534541  0.33456756  1
  Cs  Cs14  1  0.33033328  0.33468856  0.66733195  1
  Cs  Cs15  1  0.33658015  0.66827812  0.00135290  1
  Cs  Cs16  1  0.33044630  0.66536954  0.33030928  1
  Cs  Cs17  1  0.33569026  0.66415632  0.66715119  1
  Cs  Cs18  1  0.66460786  0.00100397  0.00163903  1
  Cs  Cs19  1  0.65973565  0.00878297  0.34317484  1
  Cs  Cs20  1  0.66635873  -0.00135821  0.65799172  1
  Cs  Cs21  1  0.66805420  0.33397590  0.00221492  1
  Cs  Cs22  1  0.66722751  0.32732106  0.32950012  1
  Cs  Cs23  1  0.66524630  0.33424829  0.66804082  1
  Cs  Cs24  1  0.66851363  0.66483132  -0.00371246  1
  Cs  Cs25  1  0.66845579  0.66580701  0.33694078  1
  Cs  Cs26  1  0.66506489  0.66794090  0.66832202  1
  Sn  Sn27  1  0.83201864  0.16636056  0.83326490  1
  Sn  Sn28  1  0.16721163  0.49924314  0.16517626  1
  Sn  Sn29  1  0.50138539  0.49985503  0.49892171  1
  Sn  Sn30  1  0.16615583  0.16724910  0.16777885  1
  Sn  Sn31  1  0.50113990  0.16645113  0.83337228  1
  Sn  Sn32  1  0.49962541  0.50013079  0.16741016  1
  Sn  Sn33  1  0.16637655  0.16532567  0.49851792  1
  Sn  Sn34  1  0.83421609  0.49997386  0.83249138  1
  Sn  Sn35  1  0.16635944  0.83195836  0.83233030  1
  Sn  Sn36  1  0.16674048  0.83448046  0.50084708  1
  Sn  Sn37  1  0.16592863  0.50134948  0.83464962  1
  Sn  Sn38  1  0.83225307  0.49964496  0.50070183  1
  Sn  Sn39  1  0.83383958  0.83350537  0.83414312  1
  Sn  Sn40  1  0.83256827  0.83406741  0.16680287  1
  Pb  Pb41  1  0.50386637  0.83077479  0.16669392  1
  Pb  Pb42  1  0.49777685  0.16892922  0.16465133  1
  Pb  Pb43  1  0.50020366  0.83609040  0.83332455  1
  Pb  Pb44  1  0.83568609  0.16928296  0.50234184  1
  Pb  Pb45  1  0.49684023  0.83068946  0.50000243  1
  Pb  Pb46  1  0.83351020  0.50123962  0.16642284  1
  Pb  Pb47  1  0.83561203  0.16364385  0.16451920  1
  Pb  Pb48  1  0.16621315  0.16637518  0.83364419  1
  Pb  Pb49  1  0.16546259  0.83311007  0.16644270  1
  Pb  Pb50  1  0.16647308  0.50015728  0.50008141  1
  Pb  Pb51  1  0.83495472  0.83150906  0.50039411  1
  Pb  Pb52  1  0.50007104  0.49871311  0.83357352  1
  Pb  Pb53  1  0.49741455  0.16921808  0.50197690  1
  I  I54  1  0.16377478  0.00203182  0.16583805  1
  I  I55  1  0.16470218  -0.00018736  0.50231658  1
  I  I56  1  0.16332657  -0.00233851  0.83230576  1
  I  I57  1  0.16940865  0.33465967  0.16600676  1
  I  I58  1  0.16693237  0.33176717  0.50072387  1
  I  I59  1  0.16397189  0.33578856  0.83332034  1
  I  I60  1  0.16867310  0.66384456  0.16634654  1
  I  I61  1  0.16593136  0.66845169  0.50147949  1
  I  I62  1  0.15914352  0.66600629  0.83259791  1
  I  I63  1  0.49760260  0.00028651  0.16419566  1
  I  I64  1  0.50095799  0.00035072  0.50129685  1
  I  I65  1  0.50146129  0.00389013  0.83361881  1
  I  I66  1  0.49919186  0.33696923  0.16968915  1
  I  I67  1  0.50075228  0.33704162  0.49736109  1
  I  I68  1  0.50211400  0.33106869  0.83309188  1
  I  I69  1  0.49062051  0.66260438  0.16856866  1
  I  I70  1  0.50139777  0.66249220  0.49887542  1
  I  I71  1  0.50107786  0.66656987  0.83316478  1
  I  I72  1  0.83865761  -0.00382032  0.15905708  1
  I  I73  1  0.83399657  0.00013485  0.50078038  1
  I  I74  1  0.83635328  -0.00074244  0.83920782  1
  I  I75  1  0.83259803  0.33327660  0.16570966  1
  I  I76  1  0.83319913  0.33734021  0.50503647  1
  I  I77  1  0.83506556  0.33436925  0.82849062  1
  I  I78  1  0.83659170  0.66879748  0.16019201  1
  I  I79  1  0.83317332  0.66342673  0.50566295  1
  I  I80  1  0.83903839  0.66623655  0.83368498  1
  I  I81  1  0.16666654  0.16880096  0.00182160  1
  I  I82  1  0.16662741  0.16866448  0.33318857  1
  I  I83  1  0.16670708  0.16711615  0.66515922  1
  I  I84  1  0.16647781  0.49890922  -0.00060145  1
  I  I85  1  0.16706838  0.49959661  0.33128357  1
  I  I86  1  0.16574291  0.49970825  0.66920182  1
  I  I87  1  0.16354771  0.83293215  -0.00286111  1
  I  I88  1  0.16384854  0.83247283  0.33529870  1
  I  I89  1  0.16029685  0.83292521  0.66806584  1
  I  I90  1  0.50109861  0.17010097  -0.00306597  1
  I  I91  1  0.50004932  0.16636217  0.33336806  1
  I  I92  1  0.50111776  0.16994403  0.66963752  1
  I  I93  1  0.49788205  0.49795189  0.00213373  1
  I  I94  1  0.49786118  0.50023831  0.33318734  1
  I  I95  1  0.49959642  0.49796724  0.66485658  1
  I  I96  1  0.49416812  0.83125577  -0.00009104  1
  I  I97  1  0.49959985  0.83488621  0.33332681  1
  I  I98  1  0.50318996  0.83018585  0.66673588  1
  I  I99  1  0.83314660  0.17358758  -0.00390059  1
  I  I100  1  0.83373195  0.16693384  0.33346600  1
  I  I101  1  0.83311200  0.16207547  0.67068960  1
  I  I102  1  0.83460295  0.49886553  -0.00317942  1
  I  I103  1  0.83432335  0.50372262  0.33536324  1
  I  I104  1  0.83474970  0.50190343  0.66839395  1
  I  I105  1  0.84093164  0.83012848  -0.00242926  1
  I  I106  1  0.83807636  0.82743681  0.33149467  1
  I  I107  1  0.83676664  0.83425794  0.67009202  1
  I  I108  1  0.00361499  0.17549485  0.16768736  1
  I  I109  1  0.00366031  0.16639411  0.49970619  1
  I  I110  1  -0.00233046  0.16749689  0.83314828  1
  I  I111  1  0.00275177  0.49788176  0.16595233  1
  I  I112  1  -0.00187459  0.50033988  0.50210866  1
  I  I113  1  -0.00003888  0.49805543  0.83258741  1
  I  I114  1  -0.00213951  0.82994899  0.16355414  1
  I  I115  1  0.00304927  0.83322794  0.50217959  1
  I  I116  1  -0.00000053  0.83438185  0.83359194  1
  I  I117  1  0.32954892  0.16719987  0.16654893  1
  I  I118  1  0.32945396  0.16616132  0.50060935  1
  I  I119  1  0.33449975  0.16921155  0.83261973  1
  I  I120  1  0.33185817  0.49687495  0.16691246  1
  I  I121  1  0.33489412  0.49954915  0.49987916  1
  I  I122  1  0.33038982  0.50134851  0.83310382  1
  I  I123  1  0.33326305  0.83470220  0.16615949  1
  I  I124  1  0.32855109  0.83482019  0.50648620  1
  I  I125  1  0.32985326  0.82950800  0.82944809  1
  I  I126  1  0.66675240  0.16772950  0.16602243  1
  I  I127  1  0.66675250  0.16600982  0.49982815  1
  I  I128  1  0.66808520  0.16927075  0.83408721  1
  I  I129  1  0.66463106  0.50302127  0.16684884  1
  I  I130  1  0.66723746  0.50119774  0.50144936  1
  I  I131  1  0.66964049  0.50225402  0.83255436  1
  I  I132  1  0.67143638  0.82956055  0.15640000  1
  I  I133  1  0.66678138  0.83282342  0.50063429  1
  I  I134  1  0.67037763  0.82865775  0.83793740  1
