# generated using pymatgen
data_Cs27Sn14Pb13I81
_symmetry_space_group_name_H-M   'P 1'
_cell_length_a   18.98350255
_cell_length_b   18.97448168
_cell_length_c   18.96942599
_cell_angle_alpha   89.99538272
_cell_angle_beta   90.00172907
_cell_angle_gamma   90.00091050
_symmetry_Int_Tables_number   1
_chemical_formula_structural   Cs27Sn14Pb13I81
_chemical_formula_sum   'Cs27 Sn14 Pb13 I81'
_cell_volume   6832.82745663
_cell_formula_units_Z   1
loop_
 _symmetry_equiv_pos_site_id
 _symmetry_equiv_pos_as_xyz
  1  'x, y, z'
loop_
 _atom_site_type_symbol
 _atom_site_label
 _atom_site_symmetry_multiplicity
 _atom_site_fract_x
 _atom_site_fract_y
 _atom_site_fract_z
 _atom_site_occupancy
  Cs  Cs0  1  0.00214577  -0.00079751  0.00015063  1
  Cs  Cs1  1  -0.00176233  -0.00026638  0.33495485  1
  Cs  Cs2  1  -0.00311867  0.00316605  0.66576185  1
  Cs  Cs3  1  -0.00072478  0.33665775  0.00072751  1
  Cs  Cs4  1  0.00055936  0.33407919  0.33207003  1
  Cs  Cs5  1  0.00128988  0.32987992  0.66746144  1
  Cs  Cs6  1  0.00145917  0.66321981  0.00280149  1
  Cs  Cs7  1  -0.00034224  0.66666371  0.33217374  1
  Cs  Cs8  1  0.00026147  0.66661868  0.66436910  1
  Cs  Cs9  1  0.33257042  0.00118780  -0.00194101  1
  Cs  Cs10  1  0.33502070  0.00250244  0.33232587  1
  Cs  Cs11  1  0.33017877  -0.00058555  0.67075922  1
  Cs  Cs12  1  0.33376912  0.33172578  -0.00199787  1
  Cs  Cs13  1  0.33862588  0.32998664  0.33539568  1
  Cs  Cs14  1  0.33196094  0.33633133  0.66787908  1
  Cs  Cs15  1  0.33114574  0.66749467  -0.00036111  1
  Cs  Cs16  1  0.33288479  0.66684554  0.33397604  1
  Cs  Cs17  1  0.33414006  0.66445923  0.66676848  1
  Cs  Cs18  1  0.66558089  -0.00007291  0.00248728  1
  Cs  Cs19  1  0.66680945  -0.00136414  0.33064996  1
  Cs  Cs20  1  0.67430708  -0.00283764  0.66986158  1
  Cs  Cs21  1  0.66689259  0.33468289  -0.00069492  1
  Cs  Cs22  1  0.65943877  0.33094133  0.33362861  1
  Cs  Cs23  1  0.66767065  0.33228159  0.66672325  1
  Cs  Cs24  1  0.66763130  0.66486261  -0.00105081  1
  Cs  Cs25  1  0.66681983  0.66893963  0.33532742  1
  Cs  Cs26  1  0.66635100  0.66847309  0.66458877  1
  Sn  Sn27  1  0.16581345  0.50058256  0.50044015  1
  Sn  Sn28  1  0.83292049  0.83371755  0.16700509  1
  Sn  Sn29  1  0.16733232  0.16764907  0.83439839  1
  Sn  Sn30  1  0.49964545  0.16725893  0.83297569  1
  Sn  Sn31  1  0.83349158  0.83237265  0.49894329  1
  Sn  Sn32  1  0.49938396  0.49940069  0.83417647  1
  Sn  Sn33  1  0.83436301  0.16626542  0.16673712  1
  Sn  Sn34  1  0.83412539  0.50018654  0.49977583  1
  Sn  Sn35  1  0.16577618  0.16674035  0.16613460  1
  Sn  Sn36  1  0.16672655  0.83275145  0.49995869  1
  Sn  Sn37  1  0.49985214  0.83360990  0.49947481  1
  Sn  Sn38  1  0.16721186  0.49952967  0.83280262  1
  Sn  Sn39  1  0.50034953  0.83219102  0.16717199  1
  Sn  Sn40  1  0.49974831  0.50115635  0.16584926  1
  Pb  Pb41  1  0.49979807  0.50151493  0.50045431  1
  Pb  Pb42  1  0.83360453  0.83302054  0.83401990  1
  Pb  Pb43  1  0.16681625  0.16717245  0.50034409  1
  Pb  Pb44  1  0.16678803  0.83528005  0.16888495  1
  Pb  Pb45  1  0.16643152  0.83298109  0.83086443  1
  Pb  Pb46  1  0.83096601  0.50026518  0.16912805  1
  Pb  Pb47  1  0.83317909  0.16679757  0.49736221  1
  Pb  Pb48  1  0.83377229  0.16680614  0.83621759  1
  Pb  Pb49  1  0.83354759  0.50003437  0.83067158  1
  Pb  Pb50  1  0.16904869  0.49784195  0.16714178  1
  Pb  Pb51  1  0.50003640  0.83291362  0.83385426  1
  Pb  Pb52  1  0.50006391  0.16306935  0.50376912  1
  Pb  Pb53  1  0.49996739  0.16618996  0.16489154  1
  I  I54  1  0.16791457  0.00323177  0.16211717  1
  I  I55  1  0.16578307  -0.00283350  0.49942542  1
  I  I56  1  0.17169304  0.00312488  0.83600810  1
  I  I57  1  0.16207765  0.32996235  0.16726837  1
  I  I58  1  0.16196294  0.33659733  0.50142794  1
  I  I59  1  0.17151896  0.33369589  0.83060501  1
  I  I60  1  0.16467140  0.66652202  0.16372265  1
  I  I61  1  0.16612328  0.66633208  0.50534441  1
  I  I62  1  0.17208932  0.66316090  0.83066646  1
  I  I63  1  0.50142286  -0.00270433  0.16997741  1
  I  I64  1  0.50005238  -0.00509578  0.49272033  1
  I  I65  1  0.49476951  0.00250357  0.83306149  1
  I  I66  1  0.49995384  0.33529560  0.16507622  1
  I  I67  1  0.49980425  0.33345483  0.49615137  1
  I  I68  1  0.49572287  0.33432092  0.83943713  1
  I  I69  1  0.50513132  0.66744824  0.16494618  1
  I  I70  1  0.50033471  0.66966497  0.50056866  1
  I  I71  1  0.49497245  0.66356407  0.83397401  1
  I  I72  1  0.83076809  -0.00117921  0.17243383  1
  I  I73  1  0.83389701  -0.00350895  0.49883776  1
  I  I74  1  0.83294026  0.00014751  0.82754766  1
  I  I75  1  0.83578614  0.33110397  0.16730815  1
  I  I76  1  0.83905556  0.33629028  0.50006057  1
  I  I77  1  0.83196654  0.33341021  0.83271189  1
  I  I78  1  0.83046795  0.66961050  0.16968313  1
  I  I79  1  0.83408225  0.66800166  0.49471711  1
  I  I80  1  0.83261155  0.66632294  0.83800606  1
  I  I81  1  0.16703497  0.17121496  -0.00075580  1
  I  I82  1  0.16257502  0.16579800  0.33087278  1
  I  I83  1  0.17191172  0.16724037  0.66966637  1
  I  I84  1  0.16955483  0.49709931  -0.00255977  1
  I  I85  1  0.16401648  0.50338269  0.33625732  1
  I  I86  1  0.16935944  0.49833301  0.66684376  1
  I  I87  1  0.16681724  0.83186631  0.00022792  1
  I  I88  1  0.16659696  0.82819121  0.33705891  1
  I  I89  1  0.16726578  0.83424729  0.66235920  1
  I  I90  1  0.49819611  0.16610196  -0.00284319  1
  I  I91  1  0.49926369  0.16999403  0.33314666  1
  I  I92  1  0.49240790  0.17331308  0.67141022  1
  I  I93  1  0.49522986  0.50203995  -0.00050069  1
  I  I94  1  0.50044237  0.50196621  0.33135670  1
  I  I95  1  0.49856663  0.49743496  0.66927319  1
  I  I96  1  0.50569836  0.83297616  0.00325303  1
  I  I97  1  0.50110189  0.82752449  0.33289509  1
  I  I98  1  0.50095012  0.83335229  0.66375445  1
  I  I99  1  0.83395069  0.15988348  0.00404358  1
  I  I100  1  0.83905048  0.16444111  0.32948509  1
  I  I101  1  0.83346864  0.16505129  0.66667893  1
  I  I102  1  0.83509506  0.50071018  0.00036811  1
  I  I103  1  0.83908565  0.50235396  0.33691239  1
  I  I104  1  0.83184781  0.50737567  0.66261886  1
  I  I105  1  0.82693973  0.83827719  0.00411564  1
  I  I106  1  0.83199042  0.83390331  0.33388715  1
  I  I107  1  0.83136892  0.82972756  0.66283643  1
  I  I108  1  0.00012642  0.16122494  0.16179674  1
  I  I109  1  0.00010526  0.16210385  0.50409179  1
  I  I110  1  0.00343465  0.17092945  0.83426980  1
  I  I111  1  0.00010234  0.50168263  0.16414374  1
  I  I112  1  0.00100735  0.50821103  0.50477700  1
  I  I113  1  0.00348374  0.49544157  0.83087199  1
  I  I114  1  -0.00262787  0.83645567  0.17124538  1
  I  I115  1  -0.00052076  0.82905704  0.49657044  1
  I  I116  1  0.00026506  0.83429710  0.83337603  1
  I  I117  1  0.33130727  0.16662581  0.16470531  1
  I  I118  1  0.33335819  0.16587523  0.49320245  1
  I  I119  1  0.33246779  0.16987529  0.83954207  1
  I  I120  1  0.33684489  0.50478917  0.16783792  1
  I  I121  1  0.33083097  0.50440592  0.50146995  1
  I  I122  1  0.33311212  0.49575976  0.83047344  1
  I  I123  1  0.33613874  0.83129950  0.17121397  1
  I  I124  1  0.33335680  0.82929813  0.49665531  1
  I  I125  1  0.33330920  0.83467060  0.83263418  1
  I  I126  1  0.66852393  0.16476733  0.16636511  1
  I  I127  1  0.66655266  0.16932001  0.49989626  1
  I  I128  1  0.66391435  0.17062466  0.83368131  1
  I  I129  1  0.66310965  0.49880228  0.16231989  1
  I  I130  1  0.66856432  0.50467937  0.49918949  1
  I  I131  1  0.66339536  0.49585629  0.83624794  1
  I  I132  1  0.66657397  0.83617325  0.17486191  1
  I  I133  1  0.66713075  0.82899406  0.49618152  1
  I  I134  1  0.66644673  0.83416047  0.82766824  1
