# generated using pymatgen
data_Cs27Sn14Pb13I81
_symmetry_space_group_name_H-M   'P 1'
_cell_length_a   18.97236676
_cell_length_b   18.97352767
_cell_length_c   18.98253004
_cell_angle_alpha   90.00080564
_cell_angle_beta   89.99814063
_cell_angle_gamma   89.99985012
_symmetry_Int_Tables_number   1
_chemical_formula_structural   Cs27Sn14Pb13I81
_chemical_formula_sum   'Cs27 Sn14 Pb13 I81'
_cell_volume   6833.19307258
_cell_formula_units_Z   1
loop_
 _symmetry_equiv_pos_site_id
 _symmetry_equiv_pos_as_xyz
  1  'x, y, z'
loop_
 _atom_site_type_symbol
 _atom_site_label
 _atom_site_symmetry_multiplicity
 _atom_site_fract_x
 _atom_site_fract_y
 _atom_site_fract_z
 _atom_site_occupancy
  Cs  Cs0  1  -0.00184473  -0.00146857  -0.00169289  1
  Cs  Cs1  1  0.00153174  0.00028524  0.33873413  1
  Cs  Cs2  1  0.00641317  0.00053688  0.66361705  1
  Cs  Cs3  1  -0.00325272  0.33669907  0.00383196  1
  Cs  Cs4  1  0.00433334  0.33018690  0.32893823  1
  Cs  Cs5  1  -0.00069880  0.33368846  0.66734250  1
  Cs  Cs6  1  0.00178202  0.66537650  0.00154580  1
  Cs  Cs7  1  0.00198748  0.67073970  0.33138441  1
  Cs  Cs8  1  -0.00520641  0.66698804  0.66493730  1
  Cs  Cs9  1  0.33447122  0.00072585  -0.00665346  1
  Cs  Cs10  1  0.33243458  0.00003222  0.33675213  1
  Cs  Cs11  1  0.32664839  0.00369997  0.66809669  1
  Cs  Cs12  1  0.33451915  0.33298592  -0.00133260  1
  Cs  Cs13  1  0.33107119  0.33591384  0.33486517  1
  Cs  Cs14  1  0.33157927  0.33225697  0.66615511  1
  Cs  Cs15  1  0.33252021  0.66664621  0.00154443  1
  Cs  Cs16  1  0.33502746  0.66403786  0.32822772  1
  Cs  Cs17  1  0.33653171  0.66404458  0.66941771  1
  Cs  Cs18  1  0.66625509  0.00046585  0.00112235  1
  Cs  Cs19  1  0.66716381  0.00041202  0.33145335  1
  Cs  Cs20  1  0.66650737  -0.00109504  0.66703642  1
  Cs  Cs21  1  0.66770898  0.32977074  0.00120069  1
  Cs  Cs22  1  0.66603863  0.33106570  0.33338745  1
  Cs  Cs23  1  0.66829136  0.33696408  0.66563844  1
  Cs  Cs24  1  0.66596572  0.66844892  -0.00120027  1
  Cs  Cs25  1  0.66476193  0.66800837  0.33577582  1
  Cs  Cs26  1  0.66746470  0.66544023  0.66632584  1
  Sn  Sn27  1  0.16643187  0.50068626  0.50104269  1
  Sn  Sn28  1  0.16724950  0.50027662  0.83225898  1
  Sn  Sn29  1  0.83197528  0.50108509  0.16704563  1
  Sn  Sn30  1  0.83299161  0.16562932  0.83223449  1
  Sn  Sn31  1  0.83250721  0.16673085  0.50108318  1
  Sn  Sn32  1  0.49952711  0.50042673  0.83432154  1
  Sn  Sn33  1  0.50075096  0.16601244  0.50024905  1
  Sn  Sn34  1  0.83257021  0.83428645  0.83384350  1
  Sn  Sn35  1  0.83251252  0.83235807  0.16602793  1
  Sn  Sn36  1  0.50073600  0.83290902  0.16642226  1
  Sn  Sn37  1  0.50073768  0.83281483  0.83321756  1
  Sn  Sn38  1  0.16725959  0.16582534  0.16589573  1
  Sn  Sn39  1  0.50132694  0.50030145  0.16566667  1
  Sn  Sn40  1  0.50004160  0.83432736  0.50039960  1
  Pb  Pb41  1  0.49812717  0.16631032  0.16858602  1
  Pb  Pb42  1  0.16643442  0.83087810  0.83330691  1
  Pb  Pb43  1  0.16695861  0.83603094  0.16644126  1
  Pb  Pb44  1  0.16719471  0.49904227  0.16616231  1
  Pb  Pb45  1  0.83448612  0.16567634  0.16675898  1
  Pb  Pb46  1  0.50186011  0.16679961  0.83107138  1
  Pb  Pb47  1  0.83560268  0.49772027  0.49666929  1
  Pb  Pb48  1  0.49904705  0.50017225  0.49999663  1
  Pb  Pb49  1  0.16367839  0.16924266  0.83548598  1
  Pb  Pb50  1  0.83268399  0.50057855  0.83494875  1
  Pb  Pb51  1  0.16673537  0.16832853  0.49884149  1
  Pb  Pb52  1  0.16995242  0.83032958  0.50013723  1
  Pb  Pb53  1  0.83145921  0.83511005  0.50002977  1
  I  I54  1  0.16525526  0.00332860  0.16929052  1
  I  I55  1  0.16556373  0.00001572  0.49747210  1
  I  I56  1  0.16928837  0.00009444  0.83477884  1
  I  I57  1  0.16489616  0.33156656  0.16766090  1
  I  I58  1  0.16984505  0.33598370  0.50194897  1
  I  I59  1  0.17249604  0.33699384  0.83049529  1
  I  I60  1  0.16597940  0.66682278  0.16737311  1
  I  I61  1  0.16732864  0.66259939  0.50185674  1
  I  I62  1  0.16676075  0.66284130  0.83175807  1
  I  I63  1  0.50407313  -0.00341677  0.16428116  1
  I  I64  1  0.50414881  -0.00061517  0.49811319  1
  I  I65  1  0.50301241  -0.00310075  0.83729685  1
  I  I66  1  0.50250933  0.33628294  0.16378445  1
  I  I67  1  0.50163712  0.33124601  0.49921447  1
  I  I68  1  0.49762899  0.33626726  0.83666807  1
  I  I69  1  0.50251319  0.66683733  0.16877712  1
  I  I70  1  0.49773689  0.66937429  0.49943530  1
  I  I71  1  0.50175417  0.66719610  0.83160027  1
  I  I72  1  0.82907645  -0.00310806  0.16516426  1
  I  I73  1  0.83232799  0.00312911  0.49788146  1
  I  I74  1  0.82693179  -0.00122923  0.83729937  1
  I  I75  1  0.83164691  0.33529116  0.16610398  1
  I  I76  1  0.82660275  0.32983064  0.50480418  1
  I  I77  1  0.83400024  0.33155796  0.83174780  1
  I  I78  1  0.83095772  0.66733011  0.16074395  1
  I  I79  1  0.83319895  0.66670304  0.50244489  1
  I  I80  1  0.83237981  0.66949056  0.83602771  1
  I  I81  1  0.16594048  0.16957561  0.00267106  1
  I  I82  1  0.16408667  0.17095986  0.33132587  1
  I  I83  1  0.16752783  0.16715402  0.66693209  1
  I  I84  1  0.16784766  0.49810822  -0.00225560  1
  I  I85  1  0.16731286  0.49654033  0.33462329  1
  I  I86  1  0.17379295  0.49831135  0.66760984  1
  I  I87  1  0.17022965  0.83153653  -0.00006227  1
  I  I88  1  0.16588189  0.83094541  0.33326392  1
  I  I89  1  0.16593714  0.83624207  0.66672033  1
  I  I90  1  0.50006735  0.16563243  -0.00016842  1
  I  I91  1  0.50571294  0.16374943  0.33643579  1
  I  I92  1  0.50070490  0.16348493  0.66321319  1
  I  I93  1  0.49710164  0.50707096  0.00002363  1
  I  I94  1  0.50104574  0.50279330  0.33070067  1
  I  I95  1  0.49729171  0.50291837  0.66926812  1
  I  I96  1  0.50405817  0.82774380  -0.00003315  1
  I  I97  1  0.50358748  0.83265783  0.33238889  1
  I  I98  1  0.50445790  0.83148536  0.66781027  1
  I  I99  1  0.83578143  0.16643807  -0.00202177  1
  I  I100  1  0.83160393  0.16782100  0.33535509  1
  I  I101  1  0.82974240  0.16237583  0.66691435  1
  I  I102  1  0.83524590  0.49774837  0.00285049  1
  I  I103  1  0.82834424  0.50435648  0.32882868  1
  I  I104  1  0.83212115  0.50127188  0.66662415  1
  I  I105  1  0.82573170  0.83589522  -0.00004284  1
  I  I106  1  0.82934654  0.83084531  0.33046187  1
  I  I107  1  0.82885868  0.83467909  0.66954263  1
  I  I108  1  0.00187751  0.16997806  0.16851635  1
  I  I109  1  -0.00255359  0.16856863  0.50141762  1
  I  I110  1  -0.00418380  0.16155684  0.82747660  1
  I  I111  1  -0.00219191  0.50161145  0.16631186  1
  I  I112  1  0.00320451  0.49697303  0.50553506  1
  I  I113  1  0.00170331  0.49849039  0.83197022  1
  I  I114  1  -0.00343667  0.82931679  0.16172002  1
  I  I115  1  -0.00018612  0.83472513  0.49899774  1
  I  I116  1  -0.00354811  0.83562891  0.83881882  1
  I  I117  1  0.33089140  0.16940396  0.16987049  1
  I  I118  1  0.33594127  0.16372896  0.49720643  1
  I  I119  1  0.33344320  0.16455070  0.83269395  1
  I  I120  1  0.33640049  0.50340527  0.16646625  1
  I  I121  1  0.33128125  0.49764860  0.49852287  1
  I  I122  1  0.33497468  0.50525152  0.83578715  1
  I  I123  1  0.33721471  0.82852657  0.16651714  1
  I  I124  1  0.33846343  0.84086355  0.49948316  1
  I  I125  1  0.33699434  0.83102185  0.83500830  1
  I  I126  1  0.66654409  0.16835250  0.16651583  1
  I  I127  1  0.66654320  0.16432406  0.50155470  1
  I  I128  1  0.66980571  0.16795319  0.83383144  1
  I  I129  1  0.66565582  0.50226483  0.16121234  1
  I  I130  1  0.66672506  0.50004611  0.50188363  1
  I  I131  1  0.66372741  0.50122102  0.83548856  1
  I  I132  1  0.66604537  0.82979339  0.16584395  1
  I  I133  1  0.66311579  0.83341196  0.49940620  1
  I  I134  1  0.66579250  0.83098299  0.83434386  1
