# generated using pymatgen
data_Cs27Sn13Pb14I81
_symmetry_space_group_name_H-M   'P 1'
_cell_length_a   18.97884766
_cell_length_b   18.98466442
_cell_length_c   19.01225025
_cell_angle_alpha   89.99972174
_cell_angle_beta   89.99988065
_cell_angle_gamma   89.99860367
_symmetry_Int_Tables_number   1
_chemical_formula_structural   Cs27Sn13Pb14I81
_chemical_formula_sum   'Cs27 Sn13 Pb14 I81'
_cell_volume   6850.24787405
_cell_formula_units_Z   1
loop_
 _symmetry_equiv_pos_site_id
 _symmetry_equiv_pos_as_xyz
  1  'x, y, z'
loop_
 _atom_site_type_symbol
 _atom_site_label
 _atom_site_symmetry_multiplicity
 _atom_site_fract_x
 _atom_site_fract_y
 _atom_site_fract_z
 _atom_site_occupancy
  Cs  Cs0  1  -0.00837081  -0.00502564  0.00121720  1
  Cs  Cs1  1  -0.00665276  -0.00808631  0.33195067  1
  Cs  Cs2  1  -0.00764056  -0.00789980  0.66686408  1
  Cs  Cs3  1  -0.00093635  0.33193055  -0.00106747  1
  Cs  Cs4  1  0.00000010  0.33333335  0.33333315  1
  Cs  Cs5  1  0.00093650  0.33473607  0.66773412  1
  Cs  Cs6  1  0.00764035  0.67456669  -0.00019753  1
  Cs  Cs7  1  0.00665262  0.67475300  0.33471578  1
  Cs  Cs8  1  0.00837093  0.67169223  0.66544951  1
  Cs  Cs9  1  0.33443871  0.00338736  0.00035360  1
  Cs  Cs10  1  0.33455085  0.00413310  0.33253680  1
  Cs  Cs11  1  0.33563435  0.00372155  0.66708712  1
  Cs  Cs12  1  0.33291271  0.33126831  0.00106719  1
  Cs  Cs13  1  0.33190460  0.33082970  0.33076514  1
  Cs  Cs14  1  0.33240643  0.33081116  0.66701002  1
  Cs  Cs15  1  0.33112505  0.66640326  0.00205243  1
  Cs  Cs16  1  0.32948008  0.66588568  0.33133746  1
  Cs  Cs17  1  0.33143582  0.66777677  0.66672764  1
  Cs  Cs18  1  0.66856405  -0.00111027  -0.00006113  1
  Cs  Cs19  1  0.67051971  0.00078087  0.33532934  1
  Cs  Cs20  1  0.66887505  0.00026359  0.66461414  1
  Cs  Cs21  1  0.66759347  0.33585532  -0.00034337  1
  Cs  Cs22  1  0.66809539  0.33583675  0.33590142  1
  Cs  Cs23  1  0.66708727  0.33539860  0.66559947  1
  Cs  Cs24  1  0.66436557  0.66294509  -0.00042051  1
  Cs  Cs25  1  0.66544920  0.66253356  0.33412993  1
  Cs  Cs26  1  0.66556128  0.66327904  0.66631322  1
  Sn  Sn27  1  0.83343947  0.50008289  0.50030134  1
  Sn  Sn28  1  0.50008006  0.49989982  0.83254496  1
  Sn  Sn29  1  0.49985232  0.83254758  0.49981416  1
  Sn  Sn30  1  0.49991986  0.16676687  0.83412173  1
  Sn  Sn31  1  0.83394676  0.50037000  0.16650980  1
  Sn  Sn32  1  0.83333337  0.50021975  0.83327152  1
  Sn  Sn33  1  0.16656052  0.16658371  0.16636525  1
  Sn  Sn34  1  0.49986545  0.50051691  0.50074214  1
  Sn  Sn35  1  0.16605320  0.16629668  0.50015684  1
  Sn  Sn36  1  0.50000002  0.83333334  0.83333328  1
  Sn  Sn37  1  0.50013454  0.16614973  0.16592450  1
  Sn  Sn38  1  0.16666661  0.16644692  0.83339517  1
  Sn  Sn39  1  0.50014768  0.83411907  0.16685253  1
  Pb  Pb40  1  0.16987701  0.83657879  0.50007852  1
  Pb  Pb41  1  0.83046525  0.83007295  0.50009354  1
  Pb  Pb42  1  0.83044230  0.82974411  0.83331381  1
  Pb  Pb43  1  0.50074681  0.49956519  0.16668553  1
  Pb  Pb44  1  0.83280630  0.16833861  0.16666244  1
  Pb  Pb45  1  0.83012296  0.83008786  0.16658809  1
  Pb  Pb46  1  0.83275884  0.16855337  0.83321974  1
  Pb  Pb47  1  0.83653243  0.16894025  0.50009339  1
  Pb  Pb48  1  0.16346761  0.49772645  0.16657324  1
  Pb  Pb49  1  0.16724120  0.49811335  0.83344694  1
  Pb  Pb50  1  0.16955771  0.83692258  0.83335286  1
  Pb  Pb51  1  0.16953475  0.83659371  0.16657315  1
  Pb  Pb52  1  0.49925319  0.16710154  0.49998118  1
  Pb  Pb53  1  0.16719366  0.49832807  0.50000420  1
  I  I54  1  0.16928792  0.00473358  0.16633012  1
  I  I55  1  0.17129861  0.00447281  0.50015034  1
  I  I56  1  0.17432643  0.00504399  0.83346433  1
  I  I57  1  0.17578860  0.32936171  0.16650220  1
  I  I58  1  0.17036106  0.33029168  0.50009301  1
  I  I59  1  0.17374299  0.32987375  0.83364473  1
  I  I60  1  0.16700451  0.66714019  0.16745150  1
  I  I61  1  0.16434730  0.66699013  0.49972790  1
  I  I62  1  0.16636031  0.66700002  0.83276104  1
  I  I63  1  0.49518660  0.00069898  0.16374004  1
  I  I64  1  0.49584325  -0.00218150  0.50221145  1
  I  I65  1  0.49343948  0.00048235  0.83378904  1
  I  I66  1  0.49715396  0.33047572  0.16353426  1
  I  I67  1  0.50284611  0.33619095  0.50313279  1
  I  I68  1  0.50000011  0.33333333  0.83333291  1
  I  I69  1  0.50415655  0.66884814  0.16445487  1
  I  I70  1  0.50481347  0.66596772  0.50292652  1
  I  I71  1  0.50656039  0.66618431  0.83287816  1
  I  I72  1  0.83565290  -0.00032349  0.16693852  1
  I  I73  1  0.83299574  -0.00047349  0.49921531  1
  I  I74  1  0.83363972  -0.00033337  0.83390576  1
  I  I75  1  0.82963885  0.33637500  0.16657385  1
  I  I76  1  0.82421127  0.33730499  0.50016472  1
  I  I77  1  0.82625684  0.33679293  0.83302158  1
  I  I78  1  0.82870166  0.66219385  0.16651654  1
  I  I79  1  0.83071193  0.66193311  0.50033616  1
  I  I80  1  0.82567370  0.66162269  0.83320264  1
  I  I81  1  0.17406357  0.16906363  -0.00013160  1
  I  I82  1  0.17371363  0.16915131  0.33264320  1
  I  I83  1  0.17394563  0.16928867  0.66750887  1
  I  I84  1  0.16791056  0.49661692  -0.00005483  1
  I  I85  1  0.16842989  0.49497545  0.33334755  1
  I  I86  1  0.16326524  0.49518352  0.66674584  1
  I  I87  1  0.16872304  0.83311392  -0.00003320  1
  I  I88  1  0.16936485  0.83502056  0.33333124  1
  I  I89  1  0.16879282  0.83519654  0.66670343  1
  I  I90  1  0.49250900  0.16532346  -0.00054821  1
  I  I91  1  0.49536841  0.16467528  0.33089069  1
  I  I92  1  0.49559710  0.16557690  0.66943147  1
  I  I93  1  0.50440291  0.50108909  -0.00276477  1
  I  I94  1  0.50463165  0.50199148  0.33577599  1
  I  I95  1  0.50749108  0.50134381  0.66721487  1
  I  I96  1  0.50034656  0.83382481  -0.00038562  1
  I  I97  1  0.49999986  0.83333331  0.33333333  1
  I  I98  1  0.49965360  0.83284192  0.66705230  1
  I  I99  1  0.83673476  0.17148347  -0.00007918  1
  I  I100  1  0.83157047  0.17169109  0.33331907  1
  I  I101  1  0.83208940  0.17004937  0.66672155  1
  I  I102  1  0.82605447  0.49737778  -0.00084218  1
  I  I103  1  0.82628617  0.49751521  0.33402346  1
  I  I104  1  0.82593643  0.49760342  0.66679824  1
  I  I105  1  0.83120734  0.83146999  -0.00003672  1
  I  I106  1  0.83063534  0.83164636  0.33333539  1
  I  I107  1  0.83127647  0.83355264  0.66669984  1
  I  I108  1  0.00299311  0.17228077  0.16572847  1
  I  I109  1  0.00470981  0.17109843  0.49994587  1
  I  I110  1  0.00296411  0.17173655  0.83426790  1
  I  I111  1  -0.00470977  0.49556830  0.16672123  1
  I  I112  1  -0.00299310  0.49438596  0.50093814  1
  I  I113  1  -0.00296411  0.49493003  0.83239878  1
  I  I114  1  -0.00006873  0.83375834  0.16717643  1
  I  I115  1  0.00006866  0.83290816  0.49949043  1
  I  I116  1  -0.00000000  0.83333328  0.83333318  1
  I  I117  1  0.33444724  0.16420598  0.16591860  1
  I  I118  1  0.33137301  0.16915906  0.50004339  1
  I  I119  1  0.33507367  0.16922443  0.83398169  1
  I  I120  1  0.33344299  0.50172815  0.16699884  1
  I  I121  1  0.33702359  0.50301483  0.50565134  1
  I  I122  1  0.33739922  0.50149652  0.82811150  1
  I  I123  1  0.33789240  0.83215829  0.16611134  1
  I  I124  1  0.33801195  0.82491983  0.50050958  1
  I  I125  1  0.33824869  0.82665786  0.83333844  1
  I  I126  1  0.66297642  0.16365179  0.16101550  1
  I  I127  1  0.66655699  0.16493836  0.49966773  1
  I  I128  1  0.66260080  0.16517003  0.83855520  1
  I  I129  1  0.66862700  0.49750788  0.16662315  1
  I  I130  1  0.66555272  0.50246065  0.50074823  1
  I  I131  1  0.66492639  0.49744244  0.83268497  1
  I  I132  1  0.66198799  0.84174686  0.16615723  1
  I  I133  1  0.66210756  0.83450873  0.50055478  1
  I  I134  1  0.66175135  0.84000878  0.83332840  1
