# generated using pymatgen
data_Cs27Sn14Pb13I81
_symmetry_space_group_name_H-M   'P 1'
_cell_length_a   18.96840920
_cell_length_b   18.97867676
_cell_length_c   18.98059469
_cell_angle_alpha   90.00118669
_cell_angle_beta   90.00103508
_cell_angle_gamma   90.00162587
_symmetry_Int_Tables_number   1
_chemical_formula_structural   Cs27Sn14Pb13I81
_chemical_formula_sum   'Cs27 Sn14 Pb13 I81'
_cell_volume   6832.92500435
_cell_formula_units_Z   1
loop_
 _symmetry_equiv_pos_site_id
 _symmetry_equiv_pos_as_xyz
  1  'x, y, z'
loop_
 _atom_site_type_symbol
 _atom_site_label
 _atom_site_symmetry_multiplicity
 _atom_site_fract_x
 _atom_site_fract_y
 _atom_site_fract_z
 _atom_site_occupancy
  Cs  Cs0  1  0.00078999  -0.00172372  -0.00487934  1
  Cs  Cs1  1  0.00200605  0.00335637  0.33398789  1
  Cs  Cs2  1  0.00045478  -0.00407622  0.67129800  1
  Cs  Cs3  1  0.00432086  0.33334323  0.00154820  1
  Cs  Cs4  1  -0.00160410  0.33250044  0.33236403  1
  Cs  Cs5  1  -0.00042531  0.33467617  0.66572848  1
  Cs  Cs6  1  0.00692320  0.66730561  -0.00410869  1
  Cs  Cs7  1  -0.00523680  0.66463543  0.33448915  1
  Cs  Cs8  1  0.00128247  0.66757447  0.66855759  1
  Cs  Cs9  1  0.33174887  -0.00243984  0.00456827  1
  Cs  Cs10  1  0.32690314  -0.00704387  0.34008779  1
  Cs  Cs11  1  0.33455525  0.00446090  0.65633428  1
  Cs  Cs12  1  0.33106854  0.33399551  -0.00025927  1
  Cs  Cs13  1  0.33018356  0.33102622  0.33258236  1
  Cs  Cs14  1  0.33522550  0.33100794  0.66694378  1
  Cs  Cs15  1  0.32916639  0.66835101  -0.00044542  1
  Cs  Cs16  1  0.33521177  0.67506532  0.33183869  1
  Cs  Cs17  1  0.33179467  0.66695424  0.66863722  1
  Cs  Cs18  1  0.66749839  0.00225639  -0.00221676  1
  Cs  Cs19  1  0.66639754  -0.00224591  0.33182920  1
  Cs  Cs20  1  0.66494924  0.00430941  0.67156524  1
  Cs  Cs21  1  0.66623671  0.33236914  0.00119961  1
  Cs  Cs22  1  0.66908658  0.33518567  0.33119299  1
  Cs  Cs23  1  0.66535672  0.33388177  0.66784033  1
  Cs  Cs24  1  0.66567659  0.66603039  0.00068293  1
  Cs  Cs25  1  0.66757746  0.66603155  0.33280264  1
  Cs  Cs26  1  0.66699935  0.66418029  0.66703099  1
  Sn  Sn27  1  0.16686042  0.16697376  0.83315324  1
  Sn  Sn28  1  0.50054123  0.49922031  0.16671959  1
  Sn  Sn29  1  0.83309913  0.83314051  0.16699128  1
  Sn  Sn30  1  0.83294833  0.49987276  0.50030587  1
  Sn  Sn31  1  0.16698510  0.50004556  0.49946188  1
  Sn  Sn32  1  0.50030656  0.16702856  0.16728399  1
  Sn  Sn33  1  0.50019921  0.83288034  0.83325160  1
  Sn  Sn34  1  0.83249426  0.16664942  0.16737770  1
  Sn  Sn35  1  0.50077013  0.50091369  0.83373129  1
  Sn  Sn36  1  0.49977993  0.49984815  0.49947210  1
  Sn  Sn37  1  0.83285358  0.49983914  0.83375890  1
  Sn  Sn38  1  0.83282812  0.50016629  0.16591222  1
  Sn  Sn39  1  0.83273381  0.83354841  0.49963480  1
  Sn  Sn40  1  0.83293511  0.16657107  0.49965794  1
  Pb  Pb41  1  0.16301321  0.83321054  0.16679997  1
  Pb  Pb42  1  0.49811795  0.16722544  0.83569171  1
  Pb  Pb43  1  0.17032059  0.83612816  0.83287574  1
  Pb  Pb44  1  0.50205283  0.83320080  0.16517930  1
  Pb  Pb45  1  0.50231013  0.16882030  0.49696950  1
  Pb  Pb46  1  0.16365998  0.83059241  0.50003822  1
  Pb  Pb47  1  0.83454801  0.16926847  0.83381332  1
  Pb  Pb48  1  0.16383347  0.16870790  0.50170801  1
  Pb  Pb49  1  0.16705045  0.50013097  0.16935530  1
  Pb  Pb50  1  0.16656863  0.16673175  0.16539488  1
  Pb  Pb51  1  0.16734216  0.49878416  0.83129423  1
  Pb  Pb52  1  0.50278928  0.83104940  0.50210031  1
  Pb  Pb53  1  0.83173895  0.83071109  0.83344278  1
  I  I54  1  0.16791192  0.00014021  0.16538106  1
  I  I55  1  0.16570150  0.00004963  0.50137337  1
  I  I56  1  0.16372889  0.00338582  0.83449392  1
  I  I57  1  0.16205406  0.33352494  0.16630408  1
  I  I58  1  0.16354676  0.33665850  0.50085516  1
  I  I59  1  0.16715245  0.33142958  0.83302318  1
  I  I60  1  0.16742268  0.66636345  0.16508577  1
  I  I61  1  0.16412521  0.66248447  0.50198423  1
  I  I62  1  0.16440320  0.66662364  0.83224428  1
  I  I63  1  0.50619176  0.00246245  0.16149384  1
  I  I64  1  0.50147568  0.00005867  0.50190426  1
  I  I65  1  0.49977808  -0.00193233  0.83612729  1
  I  I66  1  0.50868124  0.33497058  0.16463788  1
  I  I67  1  0.50299817  0.33755048  0.50632028  1
  I  I68  1  0.50294381  0.33694467  0.83115400  1
  I  I69  1  0.50484367  0.66315129  0.16882915  1
  I  I70  1  0.50326619  0.66215077  0.49481332  1
  I  I71  1  0.50471744  0.66397958  0.83485692  1
  I  I72  1  0.82941424  0.00069713  0.17371980  1
  I  I73  1  0.83372715  0.00020842  0.49225905  1
  I  I74  1  0.83318934  0.00000260  0.83270980  1
  I  I75  1  0.82984165  0.33421142  0.16962380  1
  I  I76  1  0.83366794  0.33499815  0.49772261  1
  I  I77  1  0.82742270  0.33744908  0.83167090  1
  I  I78  1  0.82918439  0.66516682  0.17074078  1
  I  I79  1  0.83338084  0.66486054  0.49706961  1
  I  I80  1  0.83235116  0.66242897  0.83242095  1
  I  I81  1  0.16410521  0.16958682  -0.00230208  1
  I  I82  1  0.16731629  0.16803819  0.33360336  1
  I  I83  1  0.16634570  0.16886382  0.66921225  1
  I  I84  1  0.16495967  0.49873832  -0.00004248  1
  I  I85  1  0.16324634  0.49805884  0.33715735  1
  I  I86  1  0.16366628  0.49833903  0.66357224  1
  I  I87  1  0.16370547  0.83258746  -0.00039247  1
  I  I88  1  0.17167939  0.83411787  0.33359798  1
  I  I89  1  0.16254559  0.83286030  0.66657283  1
  I  I90  1  0.50778454  0.17308503  0.00333022  1
  I  I91  1  0.50273466  0.17297477  0.32910768  1
  I  I92  1  0.50017359  0.16723127  0.66651732  1
  I  I93  1  0.50812602  0.49945332  0.00025099  1
  I  I94  1  0.50444504  0.49494393  0.33307843  1
  I  I95  1  0.50393053  0.50435256  0.66663305  1
  I  I96  1  0.50328669  0.82715621  -0.00248646  1
  I  I97  1  0.49903042  0.83258119  0.33340246  1
  I  I98  1  0.50291958  0.82728720  0.66978695  1
  I  I99  1  0.83096768  0.16696509  0.00331266  1
  I  I100  1  0.83077355  0.17183055  0.33282601  1
  I  I101  1  0.83588360  0.16811388  0.66421753  1
  I  I102  1  0.82631529  0.49934116  0.00086351  1
  I  I103  1  0.83179903  0.50018281  0.33356525  1
  I  I104  1  0.83107884  0.49977212  0.66549990  1
  I  I105  1  0.83094877  0.83394270  0.00272448  1
  I  I106  1  0.83239616  0.82761604  0.33333298  1
  I  I107  1  0.83242425  0.83208106  0.66405009  1
  I  I108  1  -0.00393047  0.16859697  0.17003996  1
  I  I109  1  -0.00446050  0.17058998  0.49334138  1
  I  I110  1  0.00192602  0.16998755  0.83437675  1
  I  I111  1  -0.00388937  0.49897998  0.16685911  1
  I  I112  1  -0.00255807  0.49990281  0.50039335  1
  I  I113  1  -0.00278034  0.49803154  0.83304527  1
  I  I114  1  -0.00568290  0.83230216  0.16954421  1
  I  I115  1  -0.00475966  0.83045660  0.49701431  1
  I  I116  1  -0.00014735  0.83246713  0.83379684  1
  I  I117  1  0.33651548  0.17446137  0.16216288  1
  I  I118  1  0.33348691  0.16907712  0.50005890  1
  I  I119  1  0.33089813  0.17023458  0.83512990  1
  I  I120  1  0.33713507  0.49419079  0.16536163  1
  I  I121  1  0.33442694  0.49863849  0.50186534  1
  I  I122  1  0.33687732  0.50200539  0.83332410  1
  I  I123  1  0.33377795  0.83336210  0.16432822  1
  I  I124  1  0.33367803  0.83204707  0.50153195  1
  I  I125  1  0.33772218  0.82334563  0.83546026  1
  I  I126  1  0.66819416  0.16931225  0.16867441  1
  I  I127  1  0.67067937  0.16989256  0.50075919  1
  I  I128  1  0.66660606  0.16550602  0.83158778  1
  I  I129  1  0.66784043  0.49936473  0.16989729  1
  I  I130  1  0.66794966  0.50019638  0.50033004  1
  I  I131  1  0.66664511  0.50211104  0.82920416  1
  I  I132  1  0.67032560  0.83187515  0.17073795  1
  I  I133  1  0.67085080  0.82951789  0.49542759  1
  I  I134  1  0.66413512  0.83119840  0.83336000  1
