# generated using pymatgen
data_Cs27Sn14Pb13I81
_symmetry_space_group_name_H-M   'P 1'
_cell_length_a   18.97517311
_cell_length_b   18.98416569
_cell_length_c   18.97248195
_cell_angle_alpha   90.00065123
_cell_angle_beta   89.99946779
_cell_angle_gamma   90.00038147
_symmetry_Int_Tables_number   1
_chemical_formula_structural   Cs27Sn14Pb13I81
_chemical_formula_sum   'Cs27 Sn14 Pb13 I81'
_cell_volume   6834.41600745
_cell_formula_units_Z   1
loop_
 _symmetry_equiv_pos_site_id
 _symmetry_equiv_pos_as_xyz
  1  'x, y, z'
loop_
 _atom_site_type_symbol
 _atom_site_label
 _atom_site_symmetry_multiplicity
 _atom_site_fract_x
 _atom_site_fract_y
 _atom_site_fract_z
 _atom_site_occupancy
  Cs  Cs0  1  0.00287228  0.00257547  -0.00526594  1
  Cs  Cs1  1  -0.00127044  -0.00198198  0.33433444  1
  Cs  Cs2  1  -0.00086457  0.00019124  0.66732250  1
  Cs  Cs3  1  0.00105879  0.32905417  -0.00497033  1
  Cs  Cs4  1  -0.00150709  0.33263700  0.33396697  1
  Cs  Cs5  1  0.00262643  0.33328290  0.66991258  1
  Cs  Cs6  1  -0.00094673  0.66773228  0.00046135  1
  Cs  Cs7  1  -0.00052787  0.66825936  0.33355058  1
  Cs  Cs8  1  0.00424624  0.66640365  0.66942741  1
  Cs  Cs9  1  0.33213165  0.00231448  0.00097252  1
  Cs  Cs10  1  0.33775243  0.00229295  0.33294556  1
  Cs  Cs11  1  0.33598637  -0.00484802  0.66502441  1
  Cs  Cs12  1  0.33419890  0.32916581  0.00074807  1
  Cs  Cs13  1  0.33254182  0.33203137  0.33279453  1
  Cs  Cs14  1  0.33469012  0.33663050  0.66681278  1
  Cs  Cs15  1  0.33420129  0.66964845  0.00082686  1
  Cs  Cs16  1  0.32961909  0.66593020  0.33292581  1
  Cs  Cs17  1  0.33037293  0.66649897  0.66886710  1
  Cs  Cs18  1  0.66536573  -0.00421805  -0.00158704  1
  Cs  Cs19  1  0.66561157  0.00036084  0.33492710  1
  Cs  Cs20  1  0.66498946  -0.00176458  0.66581928  1
  Cs  Cs21  1  0.66658122  0.33609193  -0.00271385  1
  Cs  Cs22  1  0.66805677  0.33380301  0.33406633  1
  Cs  Cs23  1  0.66581506  0.33334509  0.66788129  1
  Cs  Cs24  1  0.66650562  0.66571124  0.00028508  1
  Cs  Cs25  1  0.66928737  0.66543542  0.33237430  1
  Cs  Cs26  1  0.66615533  0.66719264  0.66777702  1
  Sn  Sn27  1  0.50068248  0.50016114  0.49973496  1
  Sn  Sn28  1  0.83432280  0.83350681  0.16741982  1
  Sn  Sn29  1  0.16608215  0.16576674  0.49954510  1
  Sn  Sn30  1  0.50022187  0.16699778  0.83319069  1
  Sn  Sn31  1  0.83287607  0.50000271  0.49958811  1
  Sn  Sn32  1  0.16569992  0.83447714  0.49865230  1
  Sn  Sn33  1  0.83421991  0.83306943  0.49929217  1
  Sn  Sn34  1  0.83412589  0.16687282  0.49926162  1
  Sn  Sn35  1  0.16596033  0.50020033  0.16689365  1
  Sn  Sn36  1  0.83390739  0.49964173  0.16730443  1
  Sn  Sn37  1  0.49992358  0.49989912  0.16694307  1
  Sn  Sn38  1  0.83326282  0.16664065  0.16707966  1
  Sn  Sn39  1  0.50013158  0.49940495  0.83346769  1
  Sn  Sn40  1  0.16566736  0.83297982  0.16787506  1
  Pb  Pb41  1  0.83180805  0.50009222  0.83321996  1
  Pb  Pb42  1  0.50035249  0.16891745  0.50132475  1
  Pb  Pb43  1  0.50294732  0.16902941  0.16510108  1
  Pb  Pb44  1  0.16934016  0.49998498  0.83716985  1
  Pb  Pb45  1  0.83144467  0.16665458  0.83281173  1
  Pb  Pb46  1  0.50001932  0.83313466  0.83341643  1
  Pb  Pb47  1  0.16590749  0.50019342  0.49830991  1
  Pb  Pb48  1  0.16441446  0.16623719  0.16862991  1
  Pb  Pb49  1  0.16638957  0.83337080  0.83360264  1
  Pb  Pb50  1  0.50011063  0.83125099  0.16699026  1
  Pb  Pb51  1  0.83354402  0.83325994  0.83325973  1
  Pb  Pb52  1  0.16926255  0.16657131  0.82978169  1
  Pb  Pb53  1  0.50000255  0.83047117  0.49965531  1
  I  I54  1  0.16200038  -0.00306694  0.16810590  1
  I  I55  1  0.15924494  -0.00083592  0.49530329  1
  I  I56  1  0.17102461  0.00012687  0.83889502  1
  I  I57  1  0.16723706  0.33589335  0.16849774  1
  I  I58  1  0.16417027  0.33156034  0.49863078  1
  I  I59  1  0.16483278  0.33335758  0.83284899  1
  I  I60  1  0.16365352  0.66661596  0.17251120  1
  I  I61  1  0.16463135  0.66917377  0.49782305  1
  I  I62  1  0.17024148  0.66647787  0.82760521  1
  I  I63  1  0.49970405  0.00022302  0.16274148  1
  I  I64  1  0.50201836  0.00005262  0.50440065  1
  I  I65  1  0.50105791  0.00290958  0.83187826  1
  I  I66  1  0.49906652  0.33764163  0.16906996  1
  I  I67  1  0.50348744  0.33707669  0.49750469  1
  I  I68  1  0.50125363  0.33502639  0.83350794  1
  I  I69  1  0.50466410  0.66247306  0.16410956  1
  I  I70  1  0.50395312  0.66217333  0.50183316  1
  I  I71  1  0.50060224  0.66288743  0.83394521  1
  I  I72  1  0.83764025  -0.00057518  0.17261637  1
  I  I73  1  0.83769114  -0.00006873  0.49426317  1
  I  I74  1  0.82811972  0.00006659  0.83430666  1
  I  I75  1  0.83187399  0.33441219  0.17288862  1
  I  I76  1  0.83249749  0.33358648  0.49378088  1
  I  I77  1  0.83373545  0.33341298  0.83400454  1
  I  I78  1  0.83276546  0.66604052  0.17179955  1
  I  I79  1  0.83213279  0.66645436  0.49406597  1
  I  I80  1  0.82888279  0.66656255  0.83329487  1
  I  I81  1  0.16597507  0.16675815  0.00020060  1
  I  I82  1  0.16642206  0.16664839  0.33658693  1
  I  I83  1  0.15881889  0.16210590  0.66174310  1
  I  I84  1  0.16422834  0.50608890  0.00551577  1
  I  I85  1  0.17168509  0.50107381  0.33027542  1
  I  I86  1  0.16753423  0.50059615  0.66651730  1
  I  I87  1  0.16290673  0.82771636  0.00396845  1
  I  I88  1  0.16177284  0.83157208  0.33331104  1
  I  I89  1  0.16275721  0.83673984  0.66287751  1
  I  I90  1  0.50146101  0.17365338  -0.00269585  1
  I  I91  1  0.49831336  0.16818448  0.33343286  1
  I  I92  1  0.50135034  0.17486128  0.66902931  1
  I  I93  1  0.50046487  0.49631822  0.00088458  1
  I  I94  1  0.50210106  0.50128533  0.33299999  1
  I  I95  1  0.50536813  0.49598215  0.66598842  1
  I  I96  1  0.50083580  0.83039013  0.00034425  1
  I  I97  1  0.49944765  0.83316091  0.33338621  1
  I  I98  1  0.50030071  0.82989909  0.66629443  1
  I  I99  1  0.83150278  0.16796009  0.00317949  1
  I  I100  1  0.83570179  0.16792273  0.33409271  1
  I  I101  1  0.83557203  0.16694765  0.66266787  1
  I  I102  1  0.83218850  0.50059425  0.00389483  1
  I  I103  1  0.82791041  0.49994973  0.33293605  1
  I  I104  1  0.82844271  0.49977234  0.66290471  1
  I  I105  1  0.83628827  0.83216356  0.00413900  1
  I  I106  1  0.83704775  0.83202890  0.33335660  1
  I  I107  1  0.83644628  0.83333960  0.66243622  1
  I  I108  1  -0.00370719  0.17280872  0.16804968  1
  I  I109  1  -0.00151748  0.16869922  0.49603889  1
  I  I110  1  0.00001237  0.16584464  0.83517722  1
  I  I111  1  -0.00127338  0.50152099  0.17349929  1
  I  I112  1  -0.00329703  0.49967610  0.49430581  1
  I  I113  1  0.00024479  0.50062186  0.83244110  1
  I  I114  1  -0.00082811  0.82647536  0.17128630  1
  I  I115  1  -0.00095150  0.83179470  0.49550008  1
  I  I116  1  -0.00000294  0.83333536  0.83348164  1
  I  I117  1  0.33327632  0.16710221  0.16681411  1
  I  I118  1  0.33091411  0.16346168  0.50199634  1
  I  I119  1  0.33696482  0.17347175  0.83367568  1
  I  I120  1  0.33341577  0.50533553  0.16673801  1
  I  I121  1  0.33544893  0.49939640  0.49922088  1
  I  I122  1  0.33769207  0.49607095  0.82996885  1
  I  I123  1  0.32996949  0.82765619  0.17025557  1
  I  I124  1  0.32993187  0.83713006  0.49640196  1
  I  I125  1  0.33323459  0.83233657  0.83254474  1
  I  I126  1  0.67115332  0.16573338  0.17399012  1
  I  I127  1  0.67011140  0.16453053  0.49750934  1
  I  I128  1  0.66380077  0.17329573  0.83173466  1
  I  I129  1  0.66747546  0.49996211  0.16670463  1
  I  I130  1  0.66781235  0.49952342  0.49579076  1
  I  I131  1  0.66343214  0.49621143  0.83738155  1
  I  I132  1  0.67045479  0.83278180  0.17069766  1
  I  I133  1  0.67032099  0.83609467  0.49583107  1
  I  I134  1  0.66670731  0.83319116  0.83345525  1
