# generated using pymatgen
data_Cs27Sn13Pb14I81
_symmetry_space_group_name_H-M   'P 1'
_cell_length_a   18.99067288
_cell_length_b   18.97868512
_cell_length_c   19.00638859
_cell_angle_alpha   90.00134317
_cell_angle_beta   89.99940432
_cell_angle_gamma   90.00555436
_symmetry_Int_Tables_number   1
_chemical_formula_structural   Cs27Sn13Pb14I81
_chemical_formula_sum   'Cs27 Sn13 Pb14 I81'
_cell_volume   6850.24454467
_cell_formula_units_Z   1
loop_
 _symmetry_equiv_pos_site_id
 _symmetry_equiv_pos_as_xyz
  1  'x, y, z'
loop_
 _atom_site_type_symbol
 _atom_site_label
 _atom_site_symmetry_multiplicity
 _atom_site_fract_x
 _atom_site_fract_y
 _atom_site_fract_z
 _atom_site_occupancy
  Cs  Cs0  1  -0.00141638  -0.00022985  0.00202383  1
  Cs  Cs1  1  -0.00058145  0.00143675  0.33364995  1
  Cs  Cs2  1  -0.00125578  0.00001216  0.66500299  1
  Cs  Cs3  1  0.00721449  0.34164686  0.00031205  1
  Cs  Cs4  1  0.00271100  0.33058884  0.33492686  1
  Cs  Cs5  1  0.00130826  0.33253010  0.66424818  1
  Cs  Cs6  1  -0.00727745  0.65886758  -0.00084572  1
  Cs  Cs7  1  -0.00228293  0.66741326  0.33514695  1
  Cs  Cs8  1  -0.00163227  0.66742781  0.66554164  1
  Cs  Cs9  1  0.33601992  -0.00192394  -0.00049429  1
  Cs  Cs10  1  0.33435870  -0.00159200  0.33262438  1
  Cs  Cs11  1  0.33350068  -0.00143542  0.66817872  1
  Cs  Cs12  1  0.32471592  0.34183250  -0.00876143  1
  Cs  Cs13  1  0.33169340  0.33557393  0.33186730  1
  Cs  Cs14  1  0.33390520  0.33346627  0.67486435  1
  Cs  Cs15  1  0.33208562  0.66907897  0.00106040  1
  Cs  Cs16  1  0.33544927  0.66784778  0.33481200  1
  Cs  Cs17  1  0.33366632  0.66929449  0.66408465  1
  Cs  Cs18  1  0.66420736  0.00199300  0.00227290  1
  Cs  Cs19  1  0.66565197  0.00152999  0.33253116  1
  Cs  Cs20  1  0.66701975  0.00107554  0.66645485  1
  Cs  Cs21  1  0.66592618  0.33494491  -0.00248528  1
  Cs  Cs22  1  0.66608300  0.33123840  0.33494162  1
  Cs  Cs23  1  0.66460508  0.33229345  0.66626627  1
  Cs  Cs24  1  0.67660749  0.65869927  0.00114077  1
  Cs  Cs25  1  0.66654083  0.66433041  0.33255786  1
  Cs  Cs26  1  0.66880685  0.66469176  0.66654587  1
  Sn  Sn27  1  0.50025196  0.83331068  0.83367287  1
  Sn  Sn28  1  0.16679610  0.83359930  0.16672459  1
  Sn  Sn29  1  0.16665124  0.83369116  0.83352201  1
  Sn  Sn30  1  0.49959384  0.83436920  0.49996672  1
  Sn  Sn31  1  0.83372827  0.16635363  0.83372124  1
  Sn  Sn32  1  0.49987492  0.16680717  0.16704959  1
  Sn  Sn33  1  0.50015432  0.16587636  0.49923890  1
  Sn  Sn34  1  0.83397451  0.49884771  0.49966303  1
  Sn  Sn35  1  0.16732741  0.83289382  0.49980989  1
  Sn  Sn36  1  0.16633815  0.50074410  0.49989289  1
  Sn  Sn37  1  0.83248171  0.16732019  0.49983700  1
  Sn  Sn38  1  0.83290559  0.16655850  0.16645040  1
  Sn  Sn39  1  0.49980197  0.83362052  0.16655037  1
  Pb  Pb40  1  0.83338433  0.49666119  0.83039386  1
  Pb  Pb41  1  0.49962101  0.49956801  0.49995117  1
  Pb  Pb42  1  0.16413970  0.16395546  0.83348310  1
  Pb  Pb43  1  0.16780068  0.16632403  0.50001065  1
  Pb  Pb44  1  0.83309998  0.83516118  0.83342948  1
  Pb  Pb45  1  0.16664498  0.50351414  0.83030197  1
  Pb  Pb46  1  0.16782290  0.16482551  0.16660054  1
  Pb  Pb47  1  0.83280053  0.83516288  0.16671897  1
  Pb  Pb48  1  0.50004242  0.50370986  0.83337474  1
  Pb  Pb49  1  0.49987794  0.49943471  0.16663921  1
  Pb  Pb50  1  0.83319697  0.49614771  0.16966100  1
  Pb  Pb51  1  0.50133037  0.16494489  0.83379857  1
  Pb  Pb52  1  0.16679842  0.50345323  0.16948169  1
  Pb  Pb53  1  0.83283987  0.83378660  0.49990424  1
  I  I54  1  0.16734838  -0.00383718  0.17131089  1
  I  I55  1  0.16684310  -0.00356232  0.50023029  1
  I  I56  1  0.17096192  -0.00436476  0.82834646  1
  I  I57  1  0.16616866  0.33357087  0.16842568  1
  I  I58  1  0.16416441  0.33567556  0.49924837  1
  I  I59  1  0.16603836  0.33372119  0.83216722  1
  I  I60  1  0.17426812  0.67187552  0.16461590  1
  I  I61  1  0.16610658  0.66854844  0.50023390  1
  I  I62  1  0.17091541  0.67159307  0.83553788  1
  I  I63  1  0.50064719  -0.00077769  0.16835395  1
  I  I64  1  0.50063713  -0.00078930  0.49953724  1
  I  I65  1  0.49616447  -0.00338400  0.83213739  1
  I  I66  1  0.50725262  0.32909979  0.17539000  1
  I  I67  1  0.50208399  0.32980611  0.49438863  1
  I  I68  1  0.50172275  0.33297849  0.83195941  1
  I  I69  1  0.49423245  0.67072757  0.16894063  1
  I  I70  1  0.49914677  0.67007543  0.49963595  1
  I  I71  1  0.49560753  0.67250186  0.83059369  1
  I  I72  1  0.83252691  0.00341961  0.17168321  1
  I  I73  1  0.83290990  0.00342162  0.49987437  1
  I  I74  1  0.83382539  0.00309943  0.82812381  1
  I  I75  1  0.82569079  0.32808639  0.16470081  1
  I  I76  1  0.83390375  0.33178799  0.49993692  1
  I  I77  1  0.83115996  0.32870501  0.83568375  1
  I  I78  1  0.83311049  0.66629330  0.16722300  1
  I  I79  1  0.83446526  0.66452465  0.50086412  1
  I  I80  1  0.83301168  0.66639292  0.83197928  1
  I  I81  1  0.16574113  0.16384248  0.00009596  1
  I  I82  1  0.16073383  0.16423330  0.33354069  1
  I  I83  1  0.16588564  0.16409921  0.66642514  1
  I  I84  1  0.16633605  0.49962780  -0.00015603  1
  I  I85  1  0.16267027  0.50547464  0.33731554  1
  I  I86  1  0.16234309  0.50562873  0.66258212  1
  I  I87  1  0.17448136  0.83805267  0.00018586  1
  I  I88  1  0.17258674  0.82980198  0.33405204  1
  I  I89  1  0.17268247  0.82980464  0.66578005  1
  I  I90  1  0.50677544  0.15928185  0.00307919  1
  I  I91  1  0.50957268  0.15709687  0.33399566  1
  I  I92  1  0.50482000  0.16218021  0.66381164  1
  I  I93  1  0.50064898  0.49854469  0.00001793  1
  I  I94  1  0.50030632  0.50545409  0.33363044  1
  I  I95  1  0.50060080  0.49905514  0.66625170  1
  I  I96  1  0.49188166  0.83951579  0.00071940  1
  I  I97  1  0.49339082  0.83780890  0.33377541  1
  I  I98  1  0.49371689  0.83744879  0.66556713  1
  I  I99  1  0.82826436  0.16026940  0.00079818  1
  I  I100  1  0.82906345  0.16996332  0.33412938  1
  I  I101  1  0.82961209  0.16972090  0.66508694  1
  I  I102  1  0.83338915  0.50044752  0.00004928  1
  I  I103  1  0.83705302  0.49610811  0.33739720  1
  I  I104  1  0.83700930  0.49555879  0.66259032  1
  I  I105  1  0.83403877  0.83685457  0.00009021  1
  I  I106  1  0.83512624  0.83500531  0.33353225  1
  I  I107  1  0.83338375  0.83638061  0.66640472  1
  I  I108  1  -0.00278474  0.16392817  0.16912098  1
  I  I109  1  -0.00272294  0.16684591  0.49947140  1
  I  I110  1  -0.00407707  0.16323207  0.83067113  1
  I  I111  1  -0.00005953  0.50070498  0.16582690  1
  I  I112  1  -0.00006018  0.50055533  0.50014034  1
  I  I113  1  -0.00003284  0.50264827  0.83427565  1
  I  I114  1  0.00293808  0.83557368  0.16800598  1
  I  I115  1  0.00286796  0.83279505  0.50063803  1
  I  I116  1  0.00312993  0.83590409  0.83118623  1
  I  I117  1  0.33737364  0.16222844  0.17524410  1
  I  I118  1  0.33697586  0.16440397  0.49413773  1
  I  I119  1  0.33352012  0.16806032  0.83187113  1
  I  I120  1  0.33316277  0.49429931  0.17005280  1
  I  I121  1  0.33062476  0.50352976  0.49932345  1
  I  I122  1  0.33307223  0.49400871  0.83023946  1
  I  I123  1  0.33412788  0.83934766  0.16752167  1
  I  I124  1  0.33355954  0.83292947  0.50019079  1
  I  I125  1  0.33355011  0.83477715  0.83199658  1
  I  I126  1  0.66626086  0.15905696  0.16895796  1
  I  I127  1  0.66691649  0.16609661  0.49972459  1
  I  I128  1  0.66932861  0.16252849  0.83141266  1
  I  I129  1  0.66676561  0.50758509  0.16944169  1
  I  I130  1  0.66916245  0.49876527  0.50024434  1
  I  I131  1  0.66704048  0.50408811  0.83048241  1
  I  I132  1  0.66291740  0.83611270  0.16822750  1
  I  I133  1  0.66316941  0.83430326  0.49995750  1
  I  I134  1  0.66333368  0.83596671  0.83144840  1
