# generated using pymatgen
data_Cs27Sn13Pb14I81
_symmetry_space_group_name_H-M   'P 1'
_cell_length_a   19.00007547
_cell_length_b   18.99077372
_cell_length_c   18.98373340
_cell_angle_alpha   90.00045234
_cell_angle_beta   90.00142960
_cell_angle_gamma   89.99758988
_symmetry_Int_Tables_number   1
_chemical_formula_structural   Cs27Sn13Pb14I81
_chemical_formula_sum   'Cs27 Sn13 Pb14 I81'
_cell_volume   6849.82712124
_cell_formula_units_Z   1
loop_
 _symmetry_equiv_pos_site_id
 _symmetry_equiv_pos_as_xyz
  1  'x, y, z'
loop_
 _atom_site_type_symbol
 _atom_site_label
 _atom_site_symmetry_multiplicity
 _atom_site_fract_x
 _atom_site_fract_y
 _atom_site_fract_z
 _atom_site_occupancy
  Cs  Cs0  1  0.00064892  0.00076272  -0.00120986  1
  Cs  Cs1  1  -0.00631623  -0.00152114  0.33309416  1
  Cs  Cs2  1  0.00217744  0.00023693  0.66699558  1
  Cs  Cs3  1  0.00082218  0.33456401  -0.00070457  1
  Cs  Cs4  1  0.00132914  0.32958434  0.33545225  1
  Cs  Cs5  1  0.00384624  0.33387971  0.66204289  1
  Cs  Cs6  1  0.00006699  0.66531673  0.00102431  1
  Cs  Cs7  1  0.00095844  0.66866491  0.33270113  1
  Cs  Cs8  1  -0.00340101  0.66722410  0.66585829  1
  Cs  Cs9  1  0.33510560  -0.00359240  0.00036489  1
  Cs  Cs10  1  0.33793519  -0.00265929  0.32930037  1
  Cs  Cs11  1  0.33132893  -0.00044256  0.66870098  1
  Cs  Cs12  1  0.33096930  0.33539130  -0.00145488  1
  Cs  Cs13  1  0.33504849  0.33420174  0.34112378  1
  Cs  Cs14  1  0.33117409  0.33016345  0.66147250  1
  Cs  Cs15  1  0.33344844  0.66714774  0.00068459  1
  Cs  Cs16  1  0.33162947  0.66657009  0.33255381  1
  Cs  Cs17  1  0.33438317  0.66846858  0.66586203  1
  Cs  Cs18  1  0.66422520  0.00156935  -0.00068234  1
  Cs  Cs19  1  0.66945347  0.01158406  0.33409634  1
  Cs  Cs20  1  0.66754028  -0.00378588  0.66836770  1
  Cs  Cs21  1  0.66751118  0.33423560  -0.00011014  1
  Cs  Cs22  1  0.66236068  0.32110363  0.33602136  1
  Cs  Cs23  1  0.66554884  0.33824205  0.66497251  1
  Cs  Cs24  1  0.66584614  0.66513574  -0.00192681  1
  Cs  Cs25  1  0.67010115  0.66548838  0.33786765  1
  Cs  Cs26  1  0.67062845  0.66668842  0.66545746  1
  Sn  Sn27  1  0.83311592  0.50026469  0.16662855  1
  Sn  Sn28  1  0.16745114  0.50087358  0.83374329  1
  Sn  Sn29  1  0.16689849  0.16757222  0.16629312  1
  Sn  Sn30  1  0.83274702  0.83273774  0.16542841  1
  Sn  Sn31  1  0.16679684  0.49885912  0.16598430  1
  Sn  Sn32  1  0.50064550  0.16788396  0.83365511  1
  Sn  Sn33  1  0.49942043  0.83322866  0.49978623  1
  Sn  Sn34  1  0.83277814  0.16646010  0.83358872  1
  Sn  Sn35  1  0.16590712  0.83222139  0.83293399  1
  Sn  Sn36  1  0.49882264  0.49914737  0.83393620  1
  Sn  Sn37  1  0.16772263  0.83312650  0.50072770  1
  Sn  Sn38  1  0.50005159  0.50025750  0.16630838  1
  Sn  Sn39  1  0.83425890  0.83403657  0.83479198  1
  Pb  Pb40  1  0.50009672  0.83257579  0.83241212  1
  Pb  Pb41  1  0.16515745  0.83290915  0.16627287  1
  Pb  Pb42  1  0.83348224  0.83339270  0.50015520  1
  Pb  Pb43  1  0.83354191  0.16668601  0.50400320  1
  Pb  Pb44  1  0.49749147  0.16936097  0.16417952  1
  Pb  Pb45  1  0.49978391  0.16384683  0.50340940  1
  Pb  Pb46  1  0.16657571  0.50225723  0.50009385  1
  Pb  Pb47  1  0.16685059  0.16316833  0.49664408  1
  Pb  Pb48  1  0.50337251  0.83099499  0.16901605  1
  Pb  Pb49  1  0.83331397  0.49971851  0.49591871  1
  Pb  Pb50  1  0.16675733  0.16683616  0.83454062  1
  Pb  Pb51  1  0.49994996  0.50187420  0.50032436  1
  Pb  Pb52  1  0.83366842  0.49994794  0.83458635  1
  Pb  Pb53  1  0.83501460  0.16711572  0.16441438  1
  I  I54  1  0.16350951  0.00148775  0.16612884  1
  I  I55  1  0.16976583  -0.00452328  0.50729608  1
  I  I56  1  0.16576018  -0.00267590  0.83165457  1
  I  I57  1  0.16362347  0.33560139  0.15852804  1
  I  I58  1  0.16585262  0.33323682  0.50283591  1
  I  I59  1  0.16670701  0.33619465  0.83759069  1
  I  I60  1  0.16784349  0.66362081  0.16563103  1
  I  I61  1  0.16993896  0.67008211  0.49929477  1
  I  I62  1  0.16701712  0.66655025  0.83599977  1
  I  I63  1  0.49878137  0.00009053  0.16646413  1
  I  I64  1  0.49551574  -0.00377473  0.50112612  1
  I  I65  1  0.50088685  0.00160467  0.83022497  1
  I  I66  1  0.50626095  0.33751760  0.16513645  1
  I  I67  1  0.50125040  0.33319577  0.49772988  1
  I  I68  1  0.50066232  0.33443874  0.83852357  1
  I  I69  1  0.49370066  0.66298786  0.15874989  1
  I  I70  1  0.49599990  0.66951144  0.50283111  1
  I  I71  1  0.49876753  0.66373575  0.83629498  1
  I  I72  1  0.83735557  -0.00243176  0.16554369  1
  I  I73  1  0.83316228  -0.00036767  0.49332022  1
  I  I74  1  0.83347226  -0.00149119  0.83911407  1
  I  I75  1  0.83264110  0.33640148  0.16397776  1
  I  I76  1  0.83308016  0.33315642  0.50048979  1
  I  I77  1  0.83234435  0.33136743  0.83631717  1
  I  I78  1  0.83628739  0.66654147  0.16001111  1
  I  I79  1  0.83253284  0.66703302  0.50514302  1
  I  I80  1  0.83424430  0.66923192  0.83503241  1
  I  I81  1  0.16574445  0.16634819  0.00225128  1
  I  I82  1  0.16566456  0.17419357  0.32887425  1
  I  I83  1  0.16588471  0.16883570  0.66677160  1
  I  I84  1  0.16744128  0.50296418  -0.00005928  1
  I  I85  1  0.16673612  0.49782239  0.32969967  1
  I  I86  1  0.17147890  0.50175218  0.67026439  1
  I  I87  1  0.16392532  0.83217905  -0.00287395  1
  I  I88  1  0.16864136  0.83330806  0.33512366  1
  I  I89  1  0.16442036  0.82818996  0.66861016  1
  I  I90  1  0.50388825  0.16552752  -0.00352800  1
  I  I91  1  0.49942454  0.16706229  0.33320457  1
  I  I92  1  0.50292439  0.17464396  0.67126830  1
  I  I93  1  0.49886189  0.49788086  -0.00043908  1
  I  I94  1  0.49888251  0.50382134  0.33008555  1
  I  I95  1  0.49498655  0.49674094  0.67042729  1
  I  I96  1  0.49773697  0.83520182  0.00005445  1
  I  I97  1  0.49222009  0.83004270  0.33644293  1
  I  I98  1  0.50003174  0.83178992  0.66469005  1
  I  I99  1  0.83021534  0.16391752  -0.00321653  1
  I  I100  1  0.83461905  0.16551864  0.33289566  1
  I  I101  1  0.83103297  0.15854960  0.67221260  1
  I  I102  1  0.83410472  0.50198666  0.00274531  1
  I  I103  1  0.83526235  0.50966491  0.32727142  1
  I  I104  1  0.83269706  0.50095348  0.66709469  1
  I  I105  1  0.83979338  0.83293252  -0.00109066  1
  I  I106  1  0.83515767  0.82702736  0.33051271  1
  I  I107  1  0.83431212  0.83752812  0.66997965  1
  I  I108  1  0.00253954  0.17185568  0.16308892  1
  I  I109  1  0.00036231  0.16435725  0.50174234  1
  I  I110  1  -0.00195890  0.16438471  0.83636943  1
  I  I111  1  0.00065642  0.50104373  0.16138164  1
  I  I112  1  0.00015413  0.50355830  0.50259298  1
  I  I113  1  0.00276789  0.50147308  0.83822490  1
  I  I114  1  -0.00255571  0.82800257  0.16699979  1
  I  I115  1  0.00260471  0.83264898  0.50127752  1
  I  I116  1  0.00038350  0.83340472  0.83134538  1
  I  I117  1  0.32992879  0.16967637  0.16310370  1
  I  I118  1  0.33328314  0.16791156  0.50280258  1
  I  I119  1  0.33547734  0.16713387  0.83525527  1
  I  I120  1  0.33280525  0.49613458  0.16166052  1
  I  I121  1  0.33319279  0.50072594  0.49533274  1
  I  I122  1  0.33283621  0.50131122  0.84201529  1
  I  I123  1  0.33343903  0.83355628  0.16492001  1
  I  I124  1  0.33222012  0.83221155  0.50676044  1
  I  I125  1  0.33075287  0.83301371  0.83110186  1
  I  I126  1  0.66656807  0.16661336  0.16803310  1
  I  I127  1  0.66647955  0.16302491  0.49489346  1
  I  I128  1  0.66676872  0.16526652  0.83517219  1
  I  I129  1  0.66654219  0.50741211  0.16068850  1
  I  I130  1  0.66648482  0.50601735  0.50309835  1
  I  I131  1  0.66438668  0.49965699  0.83756809  1
  I  I132  1  0.67102136  0.82794888  0.16046892  1
  I  I133  1  0.66455219  0.83137238  0.50132090  1
  I  I134  1  0.66921090  0.83400041  0.83481579  1
