# generated using pymatgen
data_Cs27Sn14Pb13I81
_symmetry_space_group_name_H-M   'P 1'
_cell_length_a   18.97372418
_cell_length_b   18.97016285
_cell_length_c   18.98308127
_cell_angle_alpha   89.99782172
_cell_angle_beta   90.00090716
_cell_angle_gamma   89.99796027
_symmetry_Int_Tables_number   1
_chemical_formula_structural   Cs27Sn14Pb13I81
_chemical_formula_sum   'Cs27 Sn14 Pb13 I81'
_cell_volume   6832.66846675
_cell_formula_units_Z   1
loop_
 _symmetry_equiv_pos_site_id
 _symmetry_equiv_pos_as_xyz
  1  'x, y, z'
loop_
 _atom_site_type_symbol
 _atom_site_label
 _atom_site_symmetry_multiplicity
 _atom_site_fract_x
 _atom_site_fract_y
 _atom_site_fract_z
 _atom_site_occupancy
  Cs  Cs0  1  -0.00069580  0.00376853  0.00037797  1
  Cs  Cs1  1  -0.00286482  -0.00149761  0.33043913  1
  Cs  Cs2  1  -0.00475530  -0.00000294  0.67147233  1
  Cs  Cs3  1  0.00181649  0.33076523  0.00078463  1
  Cs  Cs4  1  0.00419455  0.34094046  0.33221336  1
  Cs  Cs5  1  0.00318105  0.33180219  0.66919487  1
  Cs  Cs6  1  0.00275062  0.66450968  0.00191049  1
  Cs  Cs7  1  -0.00209019  0.66189340  0.33511826  1
  Cs  Cs8  1  -0.00040199  0.66787016  0.66313061  1
  Cs  Cs9  1  0.33297645  -0.00320456  0.00192107  1
  Cs  Cs10  1  0.33298543  -0.00061899  0.33600188  1
  Cs  Cs11  1  0.33226297  0.00133651  0.66152109  1
  Cs  Cs12  1  0.33440476  0.33416780  -0.00016063  1
  Cs  Cs13  1  0.32967703  0.33072972  0.33610030  1
  Cs  Cs14  1  0.33606409  0.33207045  0.66478970  1
  Cs  Cs15  1  0.33579169  0.66845366  -0.00250966  1
  Cs  Cs16  1  0.33292509  0.66925839  0.33459554  1
  Cs  Cs17  1  0.33337635  0.66627949  0.66848872  1
  Cs  Cs18  1  0.66734058  -0.00122085  0.00154136  1
  Cs  Cs19  1  0.66776237  0.00319073  0.33169946  1
  Cs  Cs20  1  0.67236440  -0.00015314  0.66669031  1
  Cs  Cs21  1  0.66651061  0.33443956  0.00046001  1
  Cs  Cs22  1  0.66653531  0.33034453  0.33190038  1
  Cs  Cs23  1  0.66274516  0.33302857  0.66859567  1
  Cs  Cs24  1  0.66241304  0.66609944  -0.00070063  1
  Cs  Cs25  1  0.66890970  0.66598190  0.33408635  1
  Cs  Cs26  1  0.66884031  0.66782921  0.66659357  1
  Sn  Sn27  1  0.83373176  0.16737201  0.49904021  1
  Sn  Sn28  1  0.49988537  0.16657310  0.83437045  1
  Sn  Sn29  1  0.49984913  0.49919906  0.16701674  1
  Sn  Sn30  1  0.50005723  0.83274270  0.50007060  1
  Sn  Sn31  1  0.16682212  0.83290184  0.83322764  1
  Sn  Sn32  1  0.50009773  0.50092313  0.49983770  1
  Sn  Sn33  1  0.50028287  0.16740468  0.16570826  1
  Sn  Sn34  1  0.16679043  0.50063089  0.83338093  1
  Sn  Sn35  1  0.83334573  0.50008443  0.83336414  1
  Sn  Sn36  1  0.16684993  0.83336208  0.50018998  1
  Sn  Sn37  1  0.83284983  0.16651178  0.16768226  1
  Sn  Sn38  1  0.50001407  0.49951601  0.83334184  1
  Sn  Sn39  1  0.83400219  0.83337665  0.16643889  1
  Sn  Sn40  1  0.16553754  0.83325599  0.16669439  1
  Pb  Pb41  1  0.16963826  0.16667554  0.83337877  1
  Pb  Pb42  1  0.16319814  0.16406722  0.49989844  1
  Pb  Pb43  1  0.50004875  0.83356900  0.16858187  1
  Pb  Pb44  1  0.49840586  0.83367800  0.83094982  1
  Pb  Pb45  1  0.83105582  0.49741897  0.50219414  1
  Pb  Pb46  1  0.16684929  0.16474535  0.16679743  1
  Pb  Pb47  1  0.50119599  0.16662040  0.49968418  1
  Pb  Pb48  1  0.16961753  0.50244530  0.16466744  1
  Pb  Pb49  1  0.83587555  0.83100163  0.83606230  1
  Pb  Pb50  1  0.83347837  0.83466833  0.49797503  1
  Pb  Pb51  1  0.83112771  0.16867368  0.83423297  1
  Pb  Pb52  1  0.16890182  0.50201530  0.50231308  1
  Pb  Pb53  1  0.83144963  0.49956856  0.16493458  1
  I  I54  1  0.16844560  -0.00388247  0.16360053  1
  I  I55  1  0.17610614  -0.00441165  0.50232637  1
  I  I56  1  0.16862878  -0.00325975  0.83322497  1
  I  I57  1  0.16409468  0.33370142  0.16427595  1
  I  I58  1  0.16799255  0.33358297  0.50207802  1
  I  I59  1  0.16557044  0.33657448  0.83359429  1
  I  I60  1  0.16199426  0.67064039  0.16877394  1
  I  I61  1  0.16761989  0.67029462  0.49770821  1
  I  I62  1  0.17005287  0.66651778  0.83408239  1
  I  I63  1  0.50105058  0.00258726  0.16327489  1
  I  I64  1  0.49635744  -0.00233532  0.49952796  1
  I  I65  1  0.49878586  0.00253123  0.83742118  1
  I  I66  1  0.50645203  0.33316667  0.16645206  1
  I  I67  1  0.50279720  0.33595237  0.50177630  1
  I  I68  1  0.49819334  0.33505638  0.83151049  1
  I  I69  1  0.49961000  0.66428088  0.16303469  1
  I  I70  1  0.49647784  0.66613856  0.50019576  1
  I  I71  1  0.50074503  0.66349529  0.83637768  1
  I  I72  1  0.83080477  0.00057500  0.16968322  1
  I  I73  1  0.82991603  0.00255571  0.49938980  1
  I  I74  1  0.83293735  0.00006412  0.83141320  1
  I  I75  1  0.82883639  0.33045491  0.16863274  1
  I  I76  1  0.82970718  0.32981625  0.49278315  1
  I  I77  1  0.83669480  0.33661948  0.83495571  1
  I  I78  1  0.83588358  0.66892929  0.16500706  1
  I  I79  1  0.83405092  0.66648523  0.49945704  1
  I  I80  1  0.82596072  0.66318774  0.83432131  1
  I  I81  1  0.16266229  0.16346379  -0.00002885  1
  I  I82  1  0.17311339  0.16442748  0.33329712  1
  I  I83  1  0.16680895  0.16407533  0.66676338  1
  I  I84  1  0.16956123  0.50617562  -0.00342634  1
  I  I85  1  0.16798721  0.50136772  0.33335563  1
  I  I86  1  0.16869836  0.50572114  0.67046154  1
  I  I87  1  0.16312791  0.82926816  -0.00008401  1
  I  I88  1  0.16839608  0.83585700  0.33336331  1
  I  I89  1  0.17309813  0.82880573  0.66675048  1
  I  I90  1  0.50517758  0.17435334  0.00067434  1
  I  I91  1  0.50287664  0.16915085  0.33053890  1
  I  I92  1  0.50092562  0.17039839  0.66868379  1
  I  I93  1  0.50007104  0.49549967  -0.00079772  1
  I  I94  1  0.50126978  0.50057270  0.33318254  1
  I  I95  1  0.49935846  0.49939119  0.66780339  1
  I  I96  1  0.49878428  0.83124171  0.00004714  1
  I  I97  1  0.49467055  0.82977460  0.33623459  1
  I  I98  1  0.49479027  0.83006745  0.66318336  1
  I  I99  1  0.83061452  0.16328886  0.00308118  1
  I  I100  1  0.82498667  0.16132912  0.33171108  1
  I  I101  1  0.83085285  0.16721980  0.66520633  1
  I  I102  1  0.83028207  0.49910082  -0.00300180  1
  I  I103  1  0.83097593  0.50186849  0.33321528  1
  I  I104  1  0.83073335  0.49896647  0.67013831  1
  I  I105  1  0.83655995  0.84032862  0.00380097  1
  I  I106  1  0.83759465  0.83444531  0.33008835  1
  I  I107  1  0.83367950  0.83528116  0.66675842  1
  I  I108  1  -0.00316494  0.16309298  0.16986752  1
  I  I109  1  -0.00453870  0.16498779  0.49430091  1
  I  I110  1  -0.00009458  0.16808369  0.83304235  1
  I  I111  1  0.00018183  0.49812528  0.16387791  1
  I  I112  1  0.00001074  0.50056167  0.50180484  1
  I  I113  1  0.00062104  0.50538130  0.83402358  1
  I  I114  1  0.00016942  0.83926362  0.16736416  1
  I  I115  1  0.00283124  0.83615256  0.50233477  1
  I  I116  1  0.00404223  0.82846858  0.82745181  1
  I  I117  1  0.33681287  0.16946973  0.16203784  1
  I  I118  1  0.33345522  0.16749410  0.50045783  1
  I  I119  1  0.33763595  0.17236904  0.83824906  1
  I  I120  1  0.33784429  0.49574585  0.16438244  1
  I  I121  1  0.33731901  0.50022848  0.50200526  1
  I  I122  1  0.33445554  0.50107271  0.83363983  1
  I  I123  1  0.33106313  0.83231760  0.16496448  1
  I  I124  1  0.33326004  0.82995991  0.49767263  1
  I  I125  1  0.33033747  0.82772180  0.83889094  1
  I  I126  1  0.66626327  0.16377760  0.16656853  1
  I  I127  1  0.66874587  0.16407144  0.49868942  1
  I  I128  1  0.66317672  0.17295358  0.83397500  1
  I  I129  1  0.66314020  0.50180063  0.16325364  1
  I  I130  1  0.66265531  0.50694360  0.50299861  1
  I  I131  1  0.66487201  0.49467949  0.83351249  1
  I  I132  1  0.66860568  0.83471792  0.16898419  1
  I  I133  1  0.66423802  0.83049349  0.49837872  1
  I  I134  1  0.66665895  0.83224305  0.83310141  1
