# generated using pymatgen
data_Cs27Sn14Pb13I81
_symmetry_space_group_name_H-M   'P 1'
_cell_length_a   18.97588142
_cell_length_b   18.97154250
_cell_length_c   18.98081413
_cell_angle_alpha   90.00225898
_cell_angle_beta   90.00107323
_cell_angle_gamma   90.00164990
_symmetry_Int_Tables_number   1
_chemical_formula_structural   Cs27Sn14Pb13I81
_chemical_formula_sum   'Cs27 Sn14 Pb13 I81'
_cell_volume   6833.12612222
_cell_formula_units_Z   1
loop_
 _symmetry_equiv_pos_site_id
 _symmetry_equiv_pos_as_xyz
  1  'x, y, z'
loop_
 _atom_site_type_symbol
 _atom_site_label
 _atom_site_symmetry_multiplicity
 _atom_site_fract_x
 _atom_site_fract_y
 _atom_site_fract_z
 _atom_site_occupancy
  Cs  Cs0  1  -0.00110919  0.00231364  -0.00193629  1
  Cs  Cs1  1  0.00315566  -0.00180965  0.33337053  1
  Cs  Cs2  1  0.00138902  0.00038503  0.66846129  1
  Cs  Cs3  1  0.00083368  0.33398050  -0.00083891  1
  Cs  Cs4  1  -0.00155245  0.33570490  0.33238384  1
  Cs  Cs5  1  0.00167953  0.33125334  0.66872269  1
  Cs  Cs6  1  0.00318808  0.66366827  -0.00056086  1
  Cs  Cs7  1  -0.00862053  0.66523715  0.33411742  1
  Cs  Cs8  1  -0.00296529  0.66923592  0.66611419  1
  Cs  Cs9  1  0.33315711  -0.00186921  0.00254300  1
  Cs  Cs10  1  0.33120816  0.00182275  0.33354538  1
  Cs  Cs11  1  0.33342879  -0.00086895  0.66397410  1
  Cs  Cs12  1  0.33240879  0.33526717  0.00079214  1
  Cs  Cs13  1  0.33468626  0.33139376  0.33420938  1
  Cs  Cs14  1  0.33469731  0.33282429  0.66535455  1
  Cs  Cs15  1  0.33210919  0.66599951  0.00050198  1
  Cs  Cs16  1  0.33257626  0.66745548  0.33444665  1
  Cs  Cs17  1  0.33409426  0.66808618  0.66555612  1
  Cs  Cs18  1  0.66926051  -0.00238101  0.00212160  1
  Cs  Cs19  1  0.66894119  -0.00374899  0.32911493  1
  Cs  Cs20  1  0.66368466  0.00063187  0.66804523  1
  Cs  Cs21  1  0.66577080  0.33136679  -0.00038440  1
  Cs  Cs22  1  0.66424634  0.33299031  0.33599743  1
  Cs  Cs23  1  0.66485254  0.33466360  0.66550457  1
  Cs  Cs24  1  0.66561046  0.67089257  -0.00380350  1
  Cs  Cs25  1  0.67654539  0.67206395  0.33225135  1
  Cs  Cs26  1  0.66860323  0.66597476  0.66951706  1
  Sn  Sn27  1  0.16724536  0.16640886  0.16711869  1
  Sn  Sn28  1  0.16653296  0.16778005  0.49916031  1
  Sn  Sn29  1  0.83444642  0.83289004  0.83328830  1
  Sn  Sn30  1  0.16715085  0.49928894  0.50002605  1
  Sn  Sn31  1  0.50017068  0.16705032  0.49970003  1
  Sn  Sn32  1  0.16620940  0.83344114  0.83406092  1
  Sn  Sn33  1  0.49969947  0.16732765  0.83360725  1
  Sn  Sn34  1  0.49920091  0.16748737  0.16675971  1
  Sn  Sn35  1  0.16690438  0.83367674  0.16597728  1
  Sn  Sn36  1  0.83325271  0.16660690  0.49985231  1
  Sn  Sn37  1  0.50018361  0.49972280  0.16714859  1
  Sn  Sn38  1  0.49947224  0.49994033  0.49944659  1
  Sn  Sn39  1  0.50053078  0.49909263  0.83338100  1
  Sn  Sn40  1  0.83287327  0.50000270  0.83350660  1
  Pb  Pb41  1  0.49971006  0.83309293  0.83332220  1
  Pb  Pb42  1  0.16916618  0.16500241  0.83345868  1
  Pb  Pb43  1  0.82991614  0.49960443  0.16367666  1
  Pb  Pb44  1  0.83084312  0.16690226  0.83157920  1
  Pb  Pb45  1  0.16731014  0.50188283  0.83093495  1
  Pb  Pb46  1  0.83291519  0.49806871  0.50202803  1
  Pb  Pb47  1  0.50021970  0.83292082  0.49969316  1
  Pb  Pb48  1  0.83669762  0.83340152  0.16386344  1
  Pb  Pb49  1  0.83327502  0.83636553  0.50259530  1
  Pb  Pb50  1  0.83336579  0.16691824  0.16906062  1
  Pb  Pb51  1  0.16853702  0.49963088  0.16920306  1
  Pb  Pb52  1  0.49793075  0.83330514  0.16683467  1
  Pb  Pb53  1  0.16667799  0.83312237  0.49960190  1
  I  I54  1  0.17301508  0.00150087  0.16888886  1
  I  I55  1  0.16850689  0.00343676  0.49963296  1
  I  I56  1  0.16238289  -0.00291728  0.83215749  1
  I  I57  1  0.16951728  0.33022488  0.16926198  1
  I  I58  1  0.16854168  0.33178909  0.49571984  1
  I  I59  1  0.16331863  0.33334324  0.83564612  1
  I  I60  1  0.16919175  0.66880275  0.16291433  1
  I  I61  1  0.17332322  0.66371705  0.50155874  1
  I  I62  1  0.16787088  0.66980801  0.83776740  1
  I  I63  1  0.49827817  0.00367916  0.16676675  1
  I  I64  1  0.49806738  0.00426861  0.50144206  1
  I  I65  1  0.49966055  0.00301785  0.83209002  1
  I  I66  1  0.49406477  0.33228087  0.16621586  1
  I  I67  1  0.49904267  0.33259142  0.50098949  1
  I  I68  1  0.50531404  0.33389294  0.83244315  1
  I  I69  1  0.49798816  0.66336617  0.16502320  1
  I  I70  1  0.49348820  0.66247841  0.50206865  1
  I  I71  1  0.50093090  0.66328699  0.83273710  1
  I  I72  1  0.82749845  0.00017781  0.16464858  1
  I  I73  1  0.83280721  0.00441924  0.50196822  1
  I  I74  1  0.83611201  -0.00224774  0.83110400  1
  I  I75  1  0.83968961  0.33324842  0.16271600  1
  I  I76  1  0.83272436  0.33022006  0.50331050  1
  I  I77  1  0.82970286  0.33584962  0.83124796  1
  I  I78  1  0.83316736  0.66654322  0.17049596  1
  I  I79  1  0.83388320  0.66645393  0.49942017  1
  I  I80  1  0.82995737  0.66625947  0.83208858  1
  I  I81  1  0.17185192  0.16368963  0.00264569  1
  I  I82  1  0.17172623  0.16364414  0.33384209  1
  I  I83  1  0.16808488  0.16849352  0.66367085  1
  I  I84  1  0.16715716  0.49867879  -0.00000081  1
  I  I85  1  0.17244907  0.50004738  0.33704566  1
  I  I86  1  0.17243415  0.49451368  0.66325853  1
  I  I87  1  0.16374744  0.83900271  0.00005729  1
  I  I88  1  0.17032792  0.83647822  0.33071471  1
  I  I89  1  0.16300676  0.83343451  0.66909409  1
  I  I90  1  0.49540367  0.17256440  0.00045021  1
  I  I91  1  0.49852103  0.17268188  0.33369957  1
  I  I92  1  0.50020408  0.17144631  0.66596883  1
  I  I93  1  0.50423081  0.49376945  -0.00044571  1
  I  I94  1  0.49296789  0.49215592  0.33401781  1
  I  I95  1  0.49997372  0.49405647  0.66659926  1
  I  I96  1  0.50133600  0.83414173  -0.00010007  1
  I  I97  1  0.49707032  0.83338035  0.33317731  1
  I  I98  1  0.49703923  0.83542869  0.66685090  1
  I  I99  1  0.83286998  0.16576886  -0.00027030  1
  I  I100  1  0.82865845  0.16802547  0.33708746  1
  I  I101  1  0.83405189  0.16644302  0.66369573  1
  I  I102  1  0.82937253  0.50299679  -0.00452552  1
  I  I103  1  0.83338041  0.49979916  0.33355117  1
  I  I104  1  0.82706228  0.50345515  0.66975812  1
  I  I105  1  0.83293388  0.83112110  -0.00401299  1
  I  I106  1  0.83364591  0.83331262  0.33323806  1
  I  I107  1  0.84002487  0.82912634  0.67039874  1
  I  I108  1  0.00352058  0.16154077  0.17118752  1
  I  I109  1  0.00149789  0.17001959  0.49647900  1
  I  I110  1  0.00010957  0.16797751  0.83224559  1
  I  I111  1  0.00016210  0.50029581  0.16700090  1
  I  I112  1  0.00240588  0.49561203  0.50185312  1
  I  I113  1  -0.00201417  0.50316702  0.83023954  1
  I  I114  1  0.00460093  0.84052977  0.16604778  1
  I  I115  1  0.00019134  0.83312617  0.49887424  1
  I  I116  1  0.00007330  0.82829426  0.83653124  1
  I  I117  1  0.33395648  0.16582559  0.17120904  1
  I  I118  1  0.33375598  0.17015111  0.49957490  1
  I  I119  1  0.33723708  0.17153262  0.82890611  1
  I  I120  1  0.33678381  0.49858600  0.16077535  1
  I  I121  1  0.33460611  0.49257320  0.50265656  1
  I  I122  1  0.33673306  0.49727005  0.83433789  1
  I  I123  1  0.33009605  0.83545245  0.15927671  1
  I  I124  1  0.33308738  0.83647359  0.50434879  1
  I  I125  1  0.33073350  0.83388299  0.83665744  1
  I  I126  1  0.66290354  0.17106647  0.16700845  1
  I  I127  1  0.66477928  0.17087431  0.50164461  1
  I  I128  1  0.66260861  0.16576422  0.83310068  1
  I  I129  1  0.66148938  0.49259304  0.17260944  1
  I  I130  1  0.66320482  0.49461090  0.49945967  1
  I  I131  1  0.66509668  0.50252830  0.83085498  1
  I  I132  1  0.66682296  0.83406593  0.16567187  1
  I  I133  1  0.66685522  0.83352827  0.50234473  1
  I  I134  1  0.66880710  0.83204144  0.83130628  1
