# generated using pymatgen
data_Cs27Sn13Pb14I81
_symmetry_space_group_name_H-M   'P 1'
_cell_length_a   18.98208561
_cell_length_b   18.97756201
_cell_length_c   18.97189489
_cell_angle_alpha   90.00073696
_cell_angle_beta   90.00094911
_cell_angle_gamma   90.00054135
_symmetry_Int_Tables_number   1
_chemical_formula_structural   Cs27Sn13Pb14I81
_chemical_formula_sum   'Cs27 Sn13 Pb14 I81'
_cell_volume   6834.31602031
_cell_formula_units_Z   1
loop_
 _symmetry_equiv_pos_site_id
 _symmetry_equiv_pos_as_xyz
  1  'x, y, z'
loop_
 _atom_site_type_symbol
 _atom_site_label
 _atom_site_symmetry_multiplicity
 _atom_site_fract_x
 _atom_site_fract_y
 _atom_site_fract_z
 _atom_site_occupancy
  Cs  Cs0  1  0.00420578  0.00347630  -0.00300691  1
  Cs  Cs1  1  0.00081184  -0.00004315  0.34167023  1
  Cs  Cs2  1  0.00001049  -0.00106726  0.66507748  1
  Cs  Cs3  1  0.00010828  0.33169975  0.00117610  1
  Cs  Cs4  1  0.00167393  0.33360023  0.33163532  1
  Cs  Cs5  1  -0.00156319  0.33334610  0.66586152  1
  Cs  Cs6  1  -0.00004775  0.66344951  -0.00017957  1
  Cs  Cs7  1  -0.00175588  0.66492529  0.33436735  1
  Cs  Cs8  1  0.00015726  0.66806822  0.66717558  1
  Cs  Cs9  1  0.33148067  0.00029105  0.00068956  1
  Cs  Cs10  1  0.33079656  -0.00010052  0.33074764  1
  Cs  Cs11  1  0.33372897  0.00008716  0.66588943  1
  Cs  Cs12  1  0.33338458  0.33336356  -0.00093286  1
  Cs  Cs13  1  0.33429921  0.33569603  0.33788359  1
  Cs  Cs14  1  0.34331562  0.34209016  0.65938147  1
  Cs  Cs15  1  0.33123647  0.66786156  -0.00112641  1
  Cs  Cs16  1  0.33258842  0.66521591  0.33609176  1
  Cs  Cs17  1  0.33425268  0.66178780  0.66473771  1
  Cs  Cs18  1  0.66534563  -0.00015723  -0.00030001  1
  Cs  Cs19  1  0.66895966  -0.00324561  0.33331180  1
  Cs  Cs20  1  0.66677293  0.00131334  0.66676549  1
  Cs  Cs21  1  0.66692509  0.33160459  -0.00037562  1
  Cs  Cs22  1  0.66557811  0.33281100  0.33427029  1
  Cs  Cs23  1  0.66180574  0.33459655  0.66439542  1
  Cs  Cs24  1  0.66798863  0.66936684  0.00333183  1
  Cs  Cs25  1  0.66852682  0.67008771  0.32813203  1
  Cs  Cs26  1  0.66621289  0.66505910  0.66725844  1
  Sn  Sn27  1  0.83356628  0.83363930  0.83381161  1
  Sn  Sn28  1  0.50007644  0.83385950  0.50084420  1
  Sn  Sn29  1  0.16670707  0.16665338  0.83304865  1
  Sn  Sn30  1  0.16655217  0.16572896  0.16599214  1
  Sn  Sn31  1  0.49984625  0.49926890  0.16592335  1
  Sn  Sn32  1  0.16606779  0.83386364  0.16600689  1
  Sn  Sn33  1  0.83353074  0.49996094  0.50042845  1
  Sn  Sn34  1  0.16669984  0.83399385  0.83413361  1
  Sn  Sn35  1  0.49970059  0.83347904  0.83253835  1
  Sn  Sn36  1  0.49983308  0.16739960  0.16632133  1
  Sn  Sn37  1  0.83363533  0.16611481  0.16611771  1
  Sn  Sn38  1  0.83378733  0.16672406  0.83399223  1
  Sn  Sn39  1  0.83326001  0.49961122  0.83278869  1
  Pb  Pb40  1  0.83651118  0.83605352  0.16448932  1
  Pb  Pb41  1  0.16389504  0.50003569  0.50015407  1
  Pb  Pb42  1  0.83328968  0.16855417  0.50073895  1
  Pb  Pb43  1  0.50009601  0.16416352  0.49694534  1
  Pb  Pb44  1  0.50239935  0.50245212  0.49743679  1
  Pb  Pb45  1  0.83182098  0.49774663  0.16614932  1
  Pb  Pb46  1  0.50252438  0.50261147  0.83548535  1
  Pb  Pb47  1  0.16858042  0.83335224  0.50075214  1
  Pb  Pb48  1  0.16882959  0.49946052  0.16645751  1
  Pb  Pb49  1  0.16464384  0.49928965  0.83322452  1
  Pb  Pb50  1  0.49805990  0.83384985  0.16613016  1
  Pb  Pb51  1  0.16681544  0.16682482  0.50108873  1
  Pb  Pb52  1  0.49953607  0.16492007  0.83484988  1
  Pb  Pb53  1  0.83147522  0.83147849  0.50259617  1
  I  I54  1  0.16994149  0.00093650  0.16176732  1
  I  I55  1  0.16606837  -0.00005227  0.49869079  1
  I  I56  1  0.16169900  -0.00045676  0.83850880  1
  I  I57  1  0.16417753  0.32934683  0.16177348  1
  I  I58  1  0.16750310  0.33325757  0.49875594  1
  I  I59  1  0.16018714  0.32946169  0.84042039  1
  I  I60  1  0.16972813  0.66962096  0.16204094  1
  I  I61  1  0.16736885  0.66703755  0.49864531  1
  I  I62  1  0.16592633  0.67001240  0.83770303  1
  I  I63  1  0.50139309  0.00275323  0.16633352  1
  I  I64  1  0.50097184  -0.00359379  0.50325112  1
  I  I65  1  0.50471589  -0.00334962  0.83302239  1
  I  I66  1  0.49923996  0.33201117  0.16581528  1
  I  I67  1  0.50036326  0.33362641  0.50044131  1
  I  I68  1  0.50007943  0.33332300  0.83353830  1
  I  I69  1  0.49985381  0.66527882  0.16673264  1
  I  I70  1  0.50018738  0.66994084  0.50246220  1
  I  I71  1  0.49909396  0.67082265  0.83278959  1
  I  I72  1  0.82640621  0.00410635  0.16202053  1
  I  I73  1  0.83236115  -0.00012917  0.49953385  1
  I  I74  1  0.83345324  0.00015987  0.83869839  1
  I  I75  1  0.83756618  0.32962007  0.16119831  1
  I  I76  1  0.83176587  0.33630002  0.50585773  1
  I  I77  1  0.83863242  0.33216714  0.83439623  1
  I  I78  1  0.83179454  0.66684259  0.16604424  1
  I  I79  1  0.83220947  0.66364465  0.50441920  1
  I  I80  1  0.83282402  0.66726843  0.82850663  1
  I  I81  1  0.16523543  0.16182971  0.00022317  1
  I  I82  1  0.16552523  0.16186796  0.32960432  1
  I  I83  1  0.15883490  0.15987860  0.67121718  1
  I  I84  1  0.16452367  0.50177717  -0.00010831  1
  I  I85  1  0.16446425  0.50100750  0.33296767  1
  I  I86  1  0.16949007  0.50050688  0.66704808  1
  I  I87  1  0.16947889  0.83744484  -0.00125151  1
  I  I88  1  0.16998746  0.83814623  0.33043067  1
  I  I89  1  0.16371917  0.83803855  0.67080892  1
  I  I90  1  0.50078716  0.16704578  0.00322182  1
  I  I91  1  0.50021869  0.16850232  0.32837226  1
  I  I92  1  0.50035162  0.16700374  0.66687642  1
  I  I93  1  0.50220682  0.49784943  0.00304801  1
  I  I94  1  0.50234664  0.49782089  0.32987780  1
  I  I95  1  0.49927843  0.49962080  0.66679596  1
  I  I96  1  0.50218433  0.83328529  -0.00281271  1
  I  I97  1  0.49833876  0.83283426  0.33476552  1
  I  I98  1  0.49917406  0.83313624  0.66843390  1
  I  I99  1  0.83378428  0.16870580  -0.00089363  1
  I  I100  1  0.83377130  0.16909624  0.33019767  1
  I  I101  1  0.83861690  0.16386822  0.67081305  1
  I  I102  1  0.83200978  0.50209282  -0.00309336  1
  I  I103  1  0.83080572  0.49851692  0.33516897  1
  I  I104  1  0.83317732  0.49917104  0.66845256  1
  I  I105  1  0.82683845  0.82775725  -0.00401806  1
  I  I106  1  0.83196782  0.83236620  0.33310645  1
  I  I107  1  0.83811870  0.83831008  0.67130506  1
  I  I108  1  0.00023051  0.16328335  0.16162630  1
  I  I109  1  -0.00007940  0.16717651  0.49513216  1
  I  I110  1  -0.00063473  0.16214837  0.84173248  1
  I  I111  1  -0.00021687  0.50007750  0.16748723  1
  I  I112  1  -0.00423973  0.50078120  0.50318490  1
  I  I113  1  -0.00385303  0.50452147  0.83138973  1
  I  I114  1  0.00430129  0.83664557  0.16171234  1
  I  I115  1  -0.00013419  0.83176416  0.49944730  1
  I  I116  1  -0.00000660  0.83352030  0.83839673  1
  I  I117  1  0.33256211  0.16536471  0.16242492  1
  I  I118  1  0.33349503  0.16692356  0.50014746  1
  I  I119  1  0.33033771  0.15936431  0.83971248  1
  I  I120  1  0.33667413  0.49583032  0.16707015  1
  I  I121  1  0.33399063  0.50065484  0.49864477  1
  I  I122  1  0.33367966  0.50046402  0.83459362  1
  I  I123  1  0.33048204  0.83868509  0.16097204  1
  I  I124  1  0.33639761  0.83244464  0.50456737  1
  I  I125  1  0.33255123  0.83881971  0.83457287  1
  I  I126  1  0.66697706  0.17146665  0.16262594  1
  I  I127  1  0.66672091  0.16618920  0.49946924  1
  I  I128  1  0.66950292  0.16529640  0.83802918  1
  I  I129  1  0.66399383  0.49613577  0.16616596  1
  I  I130  1  0.66974875  0.49992853  0.50557369  1
  I  I131  1  0.67067599  0.49860649  0.83051190  1
  I  I132  1  0.66679147  0.83401078  0.16617884  1
  I  I133  1  0.66364416  0.83294663  0.50321475  1
  I  I134  1  0.66712055  0.83323808  0.82911617  1
