# generated using pymatgen
data_Cs27Sn13Pb14I81
_symmetry_space_group_name_H-M   'P 1'
_cell_length_a   18.97125067
_cell_length_b   18.98015128
_cell_length_c   18.97979357
_cell_angle_alpha   89.99825519
_cell_angle_beta   90.00071902
_cell_angle_gamma   89.99982784
_symmetry_Int_Tables_number   1
_chemical_formula_structural   Cs27Sn13Pb14I81
_chemical_formula_sum   'Cs27 Sn13 Pb14 I81'
_cell_volume   6834.19106478
_cell_formula_units_Z   1
loop_
 _symmetry_equiv_pos_site_id
 _symmetry_equiv_pos_as_xyz
  1  'x, y, z'
loop_
 _atom_site_type_symbol
 _atom_site_label
 _atom_site_symmetry_multiplicity
 _atom_site_fract_x
 _atom_site_fract_y
 _atom_site_fract_z
 _atom_site_occupancy
  Cs  Cs0  1  0.00683571  0.00169752  0.00109647  1
  Cs  Cs1  1  0.00998376  -0.00374863  0.32792237  1
  Cs  Cs2  1  0.00651516  0.00610167  0.66894594  1
  Cs  Cs3  1  -0.00186473  0.32967199  -0.00172497  1
  Cs  Cs4  1  0.00450751  0.33526339  0.34074709  1
  Cs  Cs5  1  -0.00370992  0.32970269  0.66155125  1
  Cs  Cs6  1  -0.00401315  0.66983523  0.00064513  1
  Cs  Cs7  1  0.00542484  0.66731010  0.33508473  1
  Cs  Cs8  1  0.00052972  0.66491044  0.66477531  1
  Cs  Cs9  1  0.33145729  0.00106511  -0.00131318  1
  Cs  Cs10  1  0.33087002  0.00344797  0.33627075  1
  Cs  Cs11  1  0.33106458  -0.00053247  0.66517377  1
  Cs  Cs12  1  0.33399322  0.33597056  0.00280874  1
  Cs  Cs13  1  0.32654229  0.33373615  0.33126298  1
  Cs  Cs14  1  0.33608007  0.33249089  0.66534802  1
  Cs  Cs15  1  0.33479408  0.66305825  -0.00165397  1
  Cs  Cs16  1  0.32981115  0.66237915  0.33309337  1
  Cs  Cs17  1  0.33500918  0.66841033  0.66886219  1
  Cs  Cs18  1  0.66727981  -0.00019499  0.00115074  1
  Cs  Cs19  1  0.66598500  -0.00134368  0.33221507  1
  Cs  Cs20  1  0.66556727  -0.00033001  0.66601866  1
  Cs  Cs21  1  0.66669599  0.33358138  0.00013237  1
  Cs  Cs22  1  0.66738253  0.33184358  0.33378216  1
  Cs  Cs23  1  0.66861937  0.33182604  0.66502380  1
  Cs  Cs24  1  0.66654521  0.66624553  -0.00031999  1
  Cs  Cs25  1  0.66699156  0.66877603  0.33354600  1
  Cs  Cs26  1  0.66636345  0.66728391  0.66737705  1
  Sn  Sn27  1  0.83262826  0.83314872  0.83224352  1
  Sn  Sn28  1  0.50049684  0.49973953  0.83245555  1
  Sn  Sn29  1  0.83294138  0.49908621  0.16648953  1
  Sn  Sn30  1  0.83253258  0.16747919  0.16699905  1
  Sn  Sn31  1  0.50073472  0.50064923  0.50046495  1
  Sn  Sn32  1  0.50103223  0.16600978  0.16585356  1
  Sn  Sn33  1  0.83276870  0.83382228  0.50107614  1
  Sn  Sn34  1  0.16600591  0.49996860  0.83344789  1
  Sn  Sn35  1  0.50093128  0.83371878  0.83346557  1
  Sn  Sn36  1  0.50034308  0.83393501  0.16658323  1
  Sn  Sn37  1  0.83332232  0.50047548  0.83389649  1
  Sn  Sn38  1  0.50066993  0.16654079  0.83421433  1
  Sn  Sn39  1  0.50085236  0.83223319  0.49996230  1
  Pb  Pb40  1  0.16657246  0.16673667  0.50025197  1
  Pb  Pb41  1  0.16693219  0.83308934  0.50046576  1
  Pb  Pb42  1  0.16981683  0.50025136  0.50298482  1
  Pb  Pb43  1  0.16990157  0.16979466  0.83341869  1
  Pb  Pb44  1  0.17085911  0.83289483  0.16619486  1
  Pb  Pb45  1  0.16266601  0.50001880  0.16391248  1
  Pb  Pb46  1  0.83309351  0.16278000  0.49656363  1
  Pb  Pb47  1  0.83131610  0.50179390  0.50020643  1
  Pb  Pb48  1  0.16692538  0.16702766  0.16633555  1
  Pb  Pb49  1  0.50018450  0.16649289  0.49956578  1
  Pb  Pb50  1  0.83196180  0.83344516  0.16644928  1
  Pb  Pb51  1  0.50148101  0.49980767  0.16689160  1
  Pb  Pb52  1  0.83142665  0.16610857  0.83472290  1
  Pb  Pb53  1  0.16639639  0.83124797  0.83337448  1
  I  I54  1  0.16140234  0.00001482  0.16599465  1
  I  I55  1  0.16915453  -0.00041529  0.50000470  1
  I  I56  1  0.16646125  0.00017489  0.83347253  1
  I  I57  1  0.17331264  0.33357561  0.16574505  1
  I  I58  1  0.16893319  0.33392803  0.50002916  1
  I  I59  1  0.16634053  0.33769486  0.83427640  1
  I  I60  1  0.16685849  0.66633311  0.16667941  1
  I  I61  1  0.16593705  0.66657327  0.49934972  1
  I  I62  1  0.17265852  0.66347919  0.83340065  1
  I  I63  1  0.50628697  -0.00010619  0.16337034  1
  I  I64  1  0.50348744  -0.00352715  0.50223981  1
  I  I65  1  0.50517906  -0.00116059  0.83399638  1
  I  I66  1  0.50247578  0.33092613  0.16258910  1
  I  I67  1  0.49987705  0.33616662  0.50478587  1
  I  I68  1  0.49955729  0.33440187  0.83355349  1
  I  I69  1  0.50250224  0.66907019  0.16418057  1
  I  I70  1  0.50334638  0.66753893  0.50342445  1
  I  I71  1  0.49994919  0.66665883  0.83324751  1
  I  I72  1  0.82882300  0.00213698  0.16707265  1
  I  I73  1  0.82320071  -0.00504458  0.50620052  1
  I  I74  1  0.82675768  -0.00323285  0.83120191  1
  I  I75  1  0.82580254  0.33370827  0.15923998  1
  I  I76  1  0.83203399  0.33328189  0.50197939  1
  I  I77  1  0.83161061  0.33634891  0.83640264  1
  I  I78  1  0.83055113  0.66458206  0.16383997  1
  I  I79  1  0.82919325  0.66974402  0.49926535  1
  I  I80  1  0.82833485  0.66604773  0.83615846  1
  I  I81  1  0.16585073  0.16625662  -0.00019582  1
  I  I82  1  0.16948627  0.16703979  0.33291618  1
  I  I83  1  0.16860112  0.16630151  0.66730580  1
  I  I84  1  0.17546222  0.50061453  -0.00378608  1
  I  I85  1  0.16768305  0.49948724  0.33345109  1
  I  I86  1  0.16282529  0.50119434  0.67080332  1
  I  I87  1  0.16535096  0.83286878  -0.00036007  1
  I  I88  1  0.16461655  0.83283269  0.33336946  1
  I  I89  1  0.17151251  0.83267469  0.66694478  1
  I  I90  1  0.50346454  0.16395284  -0.00032058  1
  I  I91  1  0.50386730  0.16304820  0.32999537  1
  I  I92  1  0.49937228  0.16571650  0.66971074  1
  I  I93  1  0.49875111  0.50242851  -0.00318529  1
  I  I94  1  0.50342175  0.50404900  0.33555830  1
  I  I95  1  0.50095572  0.50275722  0.66864929  1
  I  I96  1  0.50407216  0.83300396  -0.00122493  1
  I  I97  1  0.50534422  0.83309114  0.33372593  1
  I  I98  1  0.50332602  0.83197452  0.66767060  1
  I  I99  1  0.82927655  0.16657192  0.00273164  1
  I  I100  1  0.82392549  0.17283758  0.32864605  1
  I  I101  1  0.83190394  0.16954644  0.66660862  1
  I  I102  1  0.83015322  0.50261481  -0.00176706  1
  I  I103  1  0.82867826  0.49792012  0.33101815  1
  I  I104  1  0.83399306  0.50253050  0.67018889  1
  I  I105  1  0.82785608  0.83047465  -0.00290128  1
  I  I106  1  0.82668324  0.83332756  0.33533529  1
  I  I107  1  0.82357221  0.82602448  0.66804564  1
  I  I108  1  -0.00329143  0.17004635  0.16619371  1
  I  I109  1  -0.00065622  0.16643249  0.49954137  1
  I  I110  1  -0.00019761  0.16591715  0.83535673  1
  I  I111  1  -0.00550764  0.49551160  0.16209178  1
  I  I112  1  -0.00024403  0.50152756  0.49971642  1
  I  I113  1  -0.00163331  0.50621241  0.83963532  1
  I  I114  1  -0.00027897  0.83404620  0.16702579  1
  I  I115  1  -0.00343040  0.83301036  0.50405989  1
  I  I116  1  -0.00382100  0.82818950  0.82963886  1
  I  I117  1  0.33720134  0.16209853  0.16316451  1
  I  I118  1  0.33420663  0.16521085  0.49846776  1
  I  I119  1  0.33868665  0.16484326  0.83874060  1
  I  I120  1  0.33354198  0.50020750  0.16664095  1
  I  I121  1  0.33824598  0.50613446  0.50371805  1
  I  I122  1  0.33556632  0.50044196  0.82901878  1
  I  I123  1  0.33949804  0.83865142  0.16598230  1
  I  I124  1  0.33761307  0.83036150  0.50104640  1
  I  I125  1  0.33739773  0.83268074  0.83293148  1
  I  I126  1  0.66545247  0.16647195  0.16222070  1
  I  I127  1  0.66644004  0.16900598  0.50141636  1
  I  I128  1  0.66292090  0.17051473  0.83577846  1
  I  I129  1  0.66918015  0.49955284  0.15999929  1
  I  I130  1  0.66321329  0.50255343  0.50621065  1
  I  I131  1  0.66600866  0.50159927  0.83402640  1
  I  I132  1  0.66348692  0.83436636  0.16601523  1
  I  I133  1  0.66503553  0.82927710  0.50128353  1
  I  I134  1  0.66527726  0.82834035  0.83313184  1
