# generated using pymatgen
data_Cs27Sn13Pb14I81
_symmetry_space_group_name_H-M   'P 1'
_cell_length_a   18.99337657
_cell_length_b   19.00230908
_cell_length_c   18.98197345
_cell_angle_alpha   90.00101325
_cell_angle_beta   89.99871476
_cell_angle_gamma   89.99958893
_symmetry_Int_Tables_number   1
_chemical_formula_structural   Cs27Sn13Pb14I81
_chemical_formula_sum   'Cs27 Sn13 Pb14 I81'
_cell_volume   6850.93611621
_cell_formula_units_Z   1
loop_
 _symmetry_equiv_pos_site_id
 _symmetry_equiv_pos_as_xyz
  1  'x, y, z'
loop_
 _atom_site_type_symbol
 _atom_site_label
 _atom_site_symmetry_multiplicity
 _atom_site_fract_x
 _atom_site_fract_y
 _atom_site_fract_z
 _atom_site_occupancy
  Cs  Cs0  1  -0.00214800  0.00159890  -0.00178504  1
  Cs  Cs1  1  -0.00081469  0.00323576  0.34061825  1
  Cs  Cs2  1  0.00076362  0.00222949  0.66655537  1
  Cs  Cs3  1  -0.00034791  0.33042697  0.00094257  1
  Cs  Cs4  1  0.00240325  0.33275377  0.33791746  1
  Cs  Cs5  1  -0.00078550  0.33287692  0.66012915  1
  Cs  Cs6  1  0.00017071  0.66771652  0.00008061  1
  Cs  Cs7  1  0.00927033  0.66453383  0.33637078  1
  Cs  Cs8  1  -0.00294767  0.66366728  0.66399598  1
  Cs  Cs9  1  0.33449094  0.00195879  0.00033483  1
  Cs  Cs10  1  0.33673585  -0.00947524  0.33376989  1
  Cs  Cs11  1  0.33164867  -0.00081573  0.66767357  1
  Cs  Cs12  1  0.33412142  0.33084582  -0.00122228  1
  Cs  Cs13  1  0.33459903  0.33546128  0.33555818  1
  Cs  Cs14  1  0.33650171  0.33284643  0.66637417  1
  Cs  Cs15  1  0.32827348  0.66785259  0.00059736  1
  Cs  Cs16  1  0.32857324  0.67096462  0.33236356  1
  Cs  Cs17  1  0.33454052  0.66926057  0.66900292  1
  Cs  Cs18  1  0.66921664  0.00189209  0.00148391  1
  Cs  Cs19  1  0.66445190  -0.00329367  0.33363656  1
  Cs  Cs20  1  0.66797915  -0.00264520  0.66494782  1
  Cs  Cs21  1  0.66540161  0.33368785  0.00066385  1
  Cs  Cs22  1  0.66490703  0.33374270  0.33218714  1
  Cs  Cs23  1  0.66333477  0.33886732  0.66537730  1
  Cs  Cs24  1  0.66978470  0.66458674  -0.00126888  1
  Cs  Cs25  1  0.66482732  0.66707884  0.33484055  1
  Cs  Cs26  1  0.66806869  0.66392349  0.66566580  1
  Sn  Sn27  1  0.49981803  0.49953104  0.49887391  1
  Sn  Sn28  1  0.83363800  0.16661757  0.83371801  1
  Sn  Sn29  1  0.16581494  0.16707793  0.83413072  1
  Sn  Sn30  1  0.83412806  0.16662624  0.16612267  1
  Sn  Sn31  1  0.50008995  0.50002516  0.16698048  1
  Sn  Sn32  1  0.16632017  0.49930751  0.83344377  1
  Sn  Sn33  1  0.83323772  0.50004897  0.16666433  1
  Sn  Sn34  1  0.50011383  0.16672887  0.49989863  1
  Sn  Sn35  1  0.83384106  0.83337545  0.16631321  1
  Sn  Sn36  1  0.50065424  0.83349964  0.83419751  1
  Sn  Sn37  1  0.16593639  0.83357923  0.83386063  1
  Sn  Sn38  1  0.16628032  0.16653135  0.16629859  1
  Sn  Sn39  1  0.83336189  0.83399668  0.83414116  1
  Pb  Pb40  1  0.50012093  0.83269188  0.50219415  1
  Pb  Pb41  1  0.83538779  0.49946002  0.83520101  1
  Pb  Pb42  1  0.16638407  0.83348098  0.50283800  1
  Pb  Pb43  1  0.16373573  0.83634687  0.16457652  1
  Pb  Pb44  1  0.83090554  0.16673998  0.50008955  1
  Pb  Pb45  1  0.16949935  0.49987880  0.50281661  1
  Pb  Pb46  1  0.50057720  0.16487739  0.83181223  1
  Pb  Pb47  1  0.50005403  0.16810711  0.16836391  1
  Pb  Pb48  1  0.16918656  0.16656328  0.49992037  1
  Pb  Pb49  1  0.83124167  0.49999288  0.49651007  1
  Pb  Pb50  1  0.49810109  0.50211611  0.83394645  1
  Pb  Pb51  1  0.83352572  0.83328017  0.49997705  1
  Pb  Pb52  1  0.50224371  0.83068382  0.16409136  1
  Pb  Pb53  1  0.16641632  0.49776903  0.16490672  1
  I  I54  1  0.16361130  0.00406815  0.16036109  1
  I  I55  1  0.17049444  0.00031366  0.50138278  1
  I  I56  1  0.16635959  0.00037089  0.83665391  1
  I  I57  1  0.16141129  0.33020258  0.15886700  1
  I  I58  1  0.16582404  0.33318960  0.50381065  1
  I  I59  1  0.16336922  0.33193297  0.83770611  1
  I  I60  1  0.16647420  0.66681871  0.16484595  1
  I  I61  1  0.16949812  0.66649621  0.50041842  1
  I  I62  1  0.16834898  0.66741246  0.83253691  1
  I  I63  1  0.50003675  -0.00015533  0.16869273  1
  I  I64  1  0.49998927  0.00211648  0.50203107  1
  I  I65  1  0.49602810  -0.00291289  0.83090811  1
  I  I66  1  0.50578488  0.33595609  0.16654090  1
  I  I67  1  0.50015545  0.33404321  0.49797344  1
  I  I68  1  0.49918040  0.33344829  0.83359839  1
  I  I69  1  0.50470575  0.66285034  0.17253744  1
  I  I70  1  0.50066590  0.66360276  0.49731829  1
  I  I71  1  0.50089651  0.66992735  0.83147788  1
  I  I72  1  0.83730084  0.00053844  0.16073988  1
  I  I73  1  0.82907652  0.00022133  0.49623468  1
  I  I74  1  0.83701456  -0.00003051  0.84087273  1
  I  I75  1  0.83222872  0.33253590  0.16170081  1
  I  I76  1  0.83379159  0.33329853  0.50208564  1
  I  I77  1  0.83760123  0.33019225  0.83782521  1
  I  I78  1  0.82621294  0.66689645  0.16069496  1
  I  I79  1  0.82915217  0.66653614  0.50315023  1
  I  I80  1  0.83394772  0.66942975  0.83721759  1
  I  I81  1  0.16356706  0.16672952  -0.00146259  1
  I  I82  1  0.16061408  0.16905530  0.33017453  1
  I  I83  1  0.16298923  0.16516894  0.67049150  1
  I  I84  1  0.16994343  0.50261505  -0.00306660  1
  I  I85  1  0.16458650  0.49781257  0.33309723  1
  I  I86  1  0.16741365  0.49851239  0.67113599  1
  I  I87  1  0.16956570  0.83050752  -0.00395694  1
  I  I88  1  0.16644889  0.83425557  0.33263547  1
  I  I89  1  0.16484542  0.83678410  0.67219889  1
  I  I90  1  0.49950122  0.16772710  0.00000676  1
  I  I91  1  0.50049187  0.16898485  0.33611509  1
  I  I92  1  0.49984405  0.17346753  0.66414484  1
  I  I93  1  0.50393107  0.50125317  0.00269696  1
  I  I94  1  0.50558078  0.49475299  0.33288292  1
  I  I95  1  0.49676000  0.49735635  0.66474168  1
  I  I96  1  0.49708280  0.83288785  -0.00383552  1
  I  I97  1  0.50209192  0.83531676  0.33303763  1
  I  I98  1  0.50155226  0.83153547  0.67044745  1
  I  I99  1  0.83631564  0.16543963  0.00001759  1
  I  I100  1  0.83743412  0.16610582  0.32959232  1
  I  I101  1  0.83769904  0.16038715  0.67021782  1
  I  I102  1  0.82592128  0.49956090  0.00314623  1
  I  I103  1  0.83259221  0.49902200  0.32811320  1
  I  I104  1  0.83279665  0.50052350  0.66684017  1
  I  I105  1  0.83292153  0.83417435  -0.00106087  1
  I  I106  1  0.83066064  0.83542759  0.32955479  1
  I  I107  1  0.83369317  0.83881517  0.67093504  1
  I  I108  1  -0.00122188  0.16874326  0.16121275  1
  I  I109  1  -0.00002087  0.16600271  0.50036475  1
  I  I110  1  0.00003075  0.16162657  0.83734050  1
  I  I111  1  -0.00293936  0.50205584  0.16212694  1
  I  I112  1  0.00022015  0.50105673  0.49981003  1
  I  I113  1  0.00315097  0.50457143  0.83674836  1
  I  I114  1  -0.00416785  0.82682947  0.15949509  1
  I  I115  1  -0.00009618  0.83342928  0.50156673  1
  I  I116  1  -0.00044532  0.83456901  0.83810018  1
  I  I117  1  0.33070249  0.16997121  0.16127878  1
  I  I118  1  0.33658762  0.17203018  0.50179874  1
  I  I119  1  0.33038063  0.16527368  0.83628079  1
  I  I120  1  0.33573775  0.49733339  0.16891429  1
  I  I121  1  0.33721633  0.49533628  0.49321386  1
  I  I122  1  0.33023610  0.49950940  0.83469764  1
  I  I123  1  0.33307442  0.83319166  0.16525578  1
  I  I124  1  0.33356556  0.83403843  0.50211783  1
  I  I125  1  0.33258134  0.83268545  0.83044040  1
  I  I126  1  0.67008051  0.16539777  0.16264152  1
  I  I127  1  0.66349198  0.17102973  0.50073249  1
  I  I128  1  0.66994706  0.16153957  0.83736265  1
  I  I129  1  0.66731678  0.49767327  0.16893524  1
  I  I130  1  0.66326205  0.49585738  0.50191310  1
  I  I131  1  0.66674161  0.50060579  0.83124643  1
  I  I132  1  0.67024056  0.83932550  0.15997818  1
  I  I133  1  0.66655173  0.83389188  0.50421110  1
  I  I134  1  0.66813520  0.83823344  0.83649244  1
