# generated using pymatgen
data_Cs27Sn14Pb13I81
_symmetry_space_group_name_H-M   'P 1'
_cell_length_a   19.06208148
_cell_length_b   19.06072567
_cell_length_c   19.05377827
_cell_angle_alpha   90.00168653
_cell_angle_beta   89.99929226
_cell_angle_gamma   89.99667484
_symmetry_Int_Tables_number   1
_chemical_formula_structural   Cs27Sn14Pb13I81
_chemical_formula_sum   'Cs27 Sn14 Pb13 I81'
_cell_volume   6922.94463599
_cell_formula_units_Z   1
loop_
 _symmetry_equiv_pos_site_id
 _symmetry_equiv_pos_as_xyz
  1  'x, y, z'
loop_
 _atom_site_type_symbol
 _atom_site_label
 _atom_site_symmetry_multiplicity
 _atom_site_fract_x
 _atom_site_fract_y
 _atom_site_fract_z
 _atom_site_occupancy
  Cs  Cs0  1  -0.00156293  0.00227619  -0.00091888  1
  Cs  Cs1  1  0.00133689  -0.00002558  0.33465935  1
  Cs  Cs2  1  -0.00621513  -0.00181337  0.66415907  1
  Cs  Cs3  1  0.01647574  0.34323596  -0.00093638  1
  Cs  Cs4  1  0.00274975  0.33098460  0.33267911  1
  Cs  Cs5  1  -0.00690962  0.34096510  0.66639899  1
  Cs  Cs6  1  0.00035032  0.65160322  -0.00155095  1
  Cs  Cs7  1  -0.00227014  0.67375982  0.33222319  1
  Cs  Cs8  1  -0.00160492  0.66461318  0.67015765  1
  Cs  Cs9  1  0.33106038  -0.00100836  -0.02174278  1
  Cs  Cs10  1  0.32811302  0.00081956  0.33651030  1
  Cs  Cs11  1  0.33431270  -0.00185891  0.67105210  1
  Cs  Cs12  1  0.31727816  0.33331535  0.00139303  1
  Cs  Cs13  1  0.33452316  0.33309040  0.33303139  1
  Cs  Cs14  1  0.34120327  0.33500709  0.66475250  1
  Cs  Cs15  1  0.33756664  0.66763972  -0.00065023  1
  Cs  Cs16  1  0.33413109  0.66847131  0.33573637  1
  Cs  Cs17  1  0.33450204  0.66732660  0.66554399  1
  Cs  Cs18  1  0.66731245  -0.00193297  -0.00097529  1
  Cs  Cs19  1  0.66871090  0.00355653  0.33304591  1
  Cs  Cs20  1  0.67026035  0.00129930  0.66721437  1
  Cs  Cs21  1  0.66688593  0.33139032  0.00068712  1
  Cs  Cs22  1  0.66576999  0.32766483  0.33378997  1
  Cs  Cs23  1  0.66664020  0.33493684  0.66732860  1
  Cs  Cs24  1  0.66397807  0.66648684  0.02320518  1
  Cs  Cs25  1  0.66694502  0.66669953  0.31995480  1
  Cs  Cs26  1  0.66820270  0.66003407  0.66490975  1
  Sn  Sn27  1  0.49937657  0.16576768  0.16658091  1
  Sn  Sn28  1  0.49991897  0.16579673  0.49947236  1
  Sn  Sn29  1  0.49961255  0.50037963  0.50018251  1
  Sn  Sn30  1  0.16683553  0.16663281  0.50067639  1
  Sn  Sn31  1  0.16758714  0.50024530  0.49969148  1
  Sn  Sn32  1  0.83334734  0.16586891  0.50004046  1
  Sn  Sn33  1  0.50090120  0.83371894  0.50003064  1
  Sn  Sn34  1  0.16703080  0.83449511  0.16644176  1
  Sn  Sn35  1  0.83274754  0.83313041  0.83308274  1
  Sn  Sn36  1  0.83245967  0.83387224  0.50086662  1
  Sn  Sn37  1  0.83331910  0.16641358  0.83369217  1
  Sn  Sn38  1  0.16664597  0.83338685  0.49970360  1
  Sn  Sn39  1  0.83311969  0.16666140  0.16624324  1
  Sn  Sn40  1  0.50112887  0.50005981  0.83325783  1
  Pb  Pb41  1  0.49946661  0.49680872  0.16747297  1
  Pb  Pb42  1  0.16737035  0.16402783  0.16883549  1
  Pb  Pb43  1  0.16724275  0.50326751  0.17084196  1
  Pb  Pb44  1  0.83370169  0.49597160  0.16701206  1
  Pb  Pb45  1  0.49694478  0.83734941  0.16938518  1
  Pb  Pb46  1  0.83024482  0.50059223  0.83338227  1
  Pb  Pb47  1  0.50208569  0.16846215  0.83345480  1
  Pb  Pb48  1  0.16982331  0.50025324  0.82964538  1
  Pb  Pb49  1  0.83560215  0.83587608  0.16648920  1
  Pb  Pb50  1  0.50357093  0.83063468  0.83059435  1
  Pb  Pb51  1  0.16346325  0.16664472  0.82920885  1
  Pb  Pb52  1  0.16379228  0.83318637  0.83262511  1
  Pb  Pb53  1  0.83265754  0.50054409  0.49947606  1
  I  I54  1  0.16518803  -0.00266984  0.17993148  1
  I  I55  1  0.16802873  -0.00009215  0.49418070  1
  I  I56  1  0.17495308  -0.00008736  0.83185534  1
  I  I57  1  0.16488987  0.33316304  0.16482798  1
  I  I58  1  0.16938761  0.33264772  0.50177750  1
  I  I59  1  0.16141902  0.33339405  0.83595090  1
  I  I60  1  0.16439614  0.67059664  0.17576871  1
  I  I61  1  0.17103303  0.66736538  0.49507273  1
  I  I62  1  0.16043730  0.66670495  0.83179749  1
  I  I63  1  0.50813855  0.00404536  0.17550782  1
  I  I64  1  0.49771916  0.00034402  0.49287630  1
  I  I65  1  0.49604505  -0.00015270  0.83499888  1
  I  I66  1  0.50679503  0.32954887  0.17689979  1
  I  I67  1  0.49655608  0.33258438  0.50032602  1
  I  I68  1  0.50457481  0.33540004  0.82162532  1
  I  I69  1  0.49939429  0.66685508  0.16535134  1
  I  I70  1  0.49480657  0.66694420  0.50861992  1
  I  I71  1  0.49987860  0.66349081  0.82184788  1
  I  I72  1  0.82821512  0.00318579  0.16907914  1
  I  I73  1  0.83383570  0.00099946  0.50013478  1
  I  I74  1  0.83239257  0.00071434  0.82976855  1
  I  I75  1  0.82755749  0.32780308  0.17064437  1
  I  I76  1  0.83434591  0.33010735  0.50062233  1
  I  I77  1  0.83101113  0.33053167  0.82971246  1
  I  I78  1  0.83457943  0.66693331  0.16565208  1
  I  I79  1  0.83563848  0.67002662  0.50847616  1
  I  I80  1  0.83590202  0.66977094  0.82101415  1
  I  I81  1  0.16813747  0.16503884  -0.00025075  1
  I  I82  1  0.16002712  0.16997619  0.33737805  1
  I  I83  1  0.17128165  0.16096936  0.66125847  1
  I  I84  1  0.16632422  0.50081172  0.00012552  1
  I  I85  1  0.17704392  0.49427265  0.33801811  1
  I  I86  1  0.16597142  0.50408448  0.66215471  1
  I  I87  1  0.16485390  0.83697648  0.00235164  1
  I  I88  1  0.16295020  0.83283069  0.33748416  1
  I  I89  1  0.17030640  0.83338119  0.66249313  1
  I  I90  1  0.50883023  0.16958638  0.00274657  1
  I  I91  1  0.50725038  0.17000362  0.33641930  1
  I  I92  1  0.49895731  0.16450824  0.66270854  1
  I  I93  1  0.50623537  0.49890296  -0.00218915  1
  I  I94  1  0.49406020  0.50303982  0.33698752  1
  I  I95  1  0.49496570  0.49614383  0.66369777  1
  I  I96  1  0.49825056  0.83083362  0.00014353  1
  I  I97  1  0.50857648  0.82395757  0.33786743  1
  I  I98  1  0.49086638  0.84202741  0.66212443  1
  I  I99  1  0.82205796  0.15923180  -0.00001600  1
  I  I100  1  0.83235402  0.16246483  0.33535166  1
  I  I101  1  0.83427300  0.16163087  0.66496508  1
  I  I102  1  0.82926108  0.50395228  -0.00026853  1
  I  I103  1  0.82989112  0.50315643  0.33363436  1
  I  I104  1  0.83776746  0.49309899  0.66608780  1
  I  I105  1  0.83574682  0.84064136  -0.00259780  1
  I  I106  1  0.83144135  0.83641599  0.33679341  1
  I  I107  1  0.83614127  0.84507568  0.66434667  1
  I  I108  1  -0.00237283  0.16371466  0.16876655  1
  I  I109  1  -0.00053060  0.16313370  0.49994791  1
  I  I110  1  -0.00424596  0.16090781  0.83518021  1
  I  I111  1  0.00062155  0.49636634  0.16554228  1
  I  I112  1  0.00233858  0.49814328  0.49815024  1
  I  I113  1  -0.00022285  0.49918956  0.83506731  1
  I  I114  1  0.00238385  0.83737484  0.17894746  1
  I  I115  1  -0.00021196  0.83739055  0.49932428  1
  I  I116  1  -0.00355666  0.84008703  0.82304647  1
  I  I117  1  0.33604285  0.16864082  0.17677868  1
  I  I118  1  0.33385325  0.16521828  0.49206502  1
  I  I119  1  0.33312721  0.16919041  0.83657099  1
  I  I120  1  0.33341761  0.49439656  0.16071642  1
  I  I121  1  0.33391816  0.49924709  0.50529374  1
  I  I122  1  0.33711723  0.49811198  0.83048233  1
  I  I123  1  0.33011362  0.83361717  0.17876162  1
  I  I124  1  0.33331741  0.83561376  0.49258567  1
  I  I125  1  0.33349882  0.83133290  0.83514856  1
  I  I126  1  0.66701998  0.16694799  0.17594785  1
  I  I127  1  0.66705714  0.16462658  0.49966864  1
  I  I128  1  0.66964452  0.16309708  0.82533140  1
  I  I129  1  0.66622265  0.50830206  0.16975781  1
  I  I130  1  0.66350124  0.49816224  0.50629222  1
  I  I131  1  0.66351012  0.49783544  0.81780913  1
  I  I132  1  0.66644269  0.82826190  0.16556757  1
  I  I133  1  0.66678995  0.83799076  0.50802926  1
  I  I134  1  0.67051750  0.84134568  0.82504011  1
