# generated using pymatgen
data_Cs27Sn13Pb14I81
_symmetry_space_group_name_H-M   'P 1'
_cell_length_a   18.98377957
_cell_length_b   18.98383510
_cell_length_c   18.96268135
_cell_angle_alpha   90.00044504
_cell_angle_beta   90.00114274
_cell_angle_gamma   89.99855157
_symmetry_Int_Tables_number   1
_chemical_formula_structural   Cs27Sn13Pb14I81
_chemical_formula_sum   'Cs27 Sn13 Pb14 I81'
_cell_volume   6833.86479244
_cell_formula_units_Z   1
loop_
 _symmetry_equiv_pos_site_id
 _symmetry_equiv_pos_as_xyz
  1  'x, y, z'
loop_
 _atom_site_type_symbol
 _atom_site_label
 _atom_site_symmetry_multiplicity
 _atom_site_fract_x
 _atom_site_fract_y
 _atom_site_fract_z
 _atom_site_occupancy
  Cs  Cs0  1  -0.00153938  -0.00179992  0.00077552  1
  Cs  Cs1  1  0.00038253  0.00103214  0.33748197  1
  Cs  Cs2  1  0.00654938  0.00406725  0.65686718  1
  Cs  Cs3  1  -0.00097769  0.33472948  0.00083483  1
  Cs  Cs4  1  0.00220205  0.33267615  0.33138349  1
  Cs  Cs5  1  -0.00711832  0.32580410  0.67303594  1
  Cs  Cs6  1  0.00030775  0.66692188  0.00016527  1
  Cs  Cs7  1  0.00047627  0.66642404  0.33343685  1
  Cs  Cs8  1  0.00078188  0.66928127  0.66694681  1
  Cs  Cs9  1  0.33527291  -0.00111298  -0.00049613  1
  Cs  Cs10  1  0.33646076  0.00095270  0.33340554  1
  Cs  Cs11  1  0.32812275  0.00057405  0.66644837  1
  Cs  Cs12  1  0.33379699  0.33270048  -0.00240672  1
  Cs  Cs13  1  0.33292942  0.33416171  0.33257699  1
  Cs  Cs14  1  0.33608279  0.33395865  0.67609264  1
  Cs  Cs15  1  0.33143393  0.66844465  0.00088649  1
  Cs  Cs16  1  0.33477027  0.66401798  0.33132955  1
  Cs  Cs17  1  0.33240914  0.66556823  0.66946057  1
  Cs  Cs18  1  0.66581158  -0.00303844  0.00015589  1
  Cs  Cs19  1  0.66374943  -0.00072183  0.33309534  1
  Cs  Cs20  1  0.66720304  0.00060869  0.66725435  1
  Cs  Cs21  1  0.66726561  0.33159845  -0.00294899  1
  Cs  Cs22  1  0.66506477  0.33430983  0.33384056  1
  Cs  Cs23  1  0.67073348  0.33964980  0.67362011  1
  Cs  Cs24  1  0.66774832  0.67233680  0.00144313  1
  Cs  Cs25  1  0.66534649  0.66644305  0.33511209  1
  Cs  Cs26  1  0.66700923  0.66167679  0.66322056  1
  Sn  Sn27  1  0.49990025  0.83383731  0.50158107  1
  Sn  Sn28  1  0.83308720  0.16639658  0.16696893  1
  Sn  Sn29  1  0.50008043  0.16782332  0.16726185  1
  Sn  Sn30  1  0.83312104  0.50014536  0.16693209  1
  Sn  Sn31  1  0.83444384  0.83347686  0.16661779  1
  Sn  Sn32  1  0.16686852  0.16654838  0.16689280  1
  Sn  Sn33  1  0.50010312  0.49880205  0.16669004  1
  Sn  Sn34  1  0.16675916  0.49988954  0.16718706  1
  Sn  Sn35  1  0.16640615  0.49925229  0.49988164  1
  Sn  Sn36  1  0.16553852  0.83356051  0.16702529  1
  Sn  Sn37  1  0.50028093  0.16675081  0.49971264  1
  Sn  Sn38  1  0.50080327  0.83334396  0.83138364  1
  Sn  Sn39  1  0.83296000  0.83382242  0.83336348  1
  Pb  Pb40  1  0.83346869  0.50283886  0.83578287  1
  Pb  Pb41  1  0.16634234  0.49993695  0.83329002  1
  Pb  Pb42  1  0.16656296  0.16651087  0.83584933  1
  Pb  Pb43  1  0.50008277  0.83346211  0.16688472  1
  Pb  Pb44  1  0.83138484  0.83335038  0.49984883  1
  Pb  Pb45  1  0.83627612  0.49989419  0.49796333  1
  Pb  Pb46  1  0.16928349  0.83151356  0.49725721  1
  Pb  Pb47  1  0.50010076  0.50296917  0.83651473  1
  Pb  Pb48  1  0.50013783  0.16439773  0.83328742  1
  Pb  Pb49  1  0.16602715  0.83350408  0.83517765  1
  Pb  Pb50  1  0.49835099  0.49928516  0.49843252  1
  Pb  Pb51  1  0.83331021  0.16346364  0.83555540  1
  Pb  Pb52  1  0.16927017  0.16955812  0.49800275  1
  Pb  Pb53  1  0.83051857  0.16689231  0.49778193  1
  I  I54  1  0.16543858  0.00005403  0.16481880  1
  I  I55  1  0.16637755  0.00030333  0.49813598  1
  I  I56  1  0.16802116  -0.00033898  0.83679464  1
  I  I57  1  0.16504703  0.33362326  0.17027853  1
  I  I58  1  0.16929631  0.33678389  0.48881408  1
  I  I59  1  0.16839525  0.33336825  0.83657146  1
  I  I60  1  0.16556210  0.66629621  0.16915702  1
  I  I61  1  0.16927241  0.66399025  0.49097244  1
  I  I62  1  0.16801287  0.66689575  0.83798482  1
  I  I63  1  0.49959213  0.00228388  0.16703810  1
  I  I64  1  0.50022824  -0.00003292  0.49466045  1
  I  I65  1  0.50389084  -0.00353572  0.83759588  1
  I  I66  1  0.49959952  0.33267548  0.17240696  1
  I  I67  1  0.49790118  0.33054437  0.49264816  1
  I  I68  1  0.49910675  0.33337074  0.83197014  1
  I  I69  1  0.49915080  0.66470679  0.16649464  1
  I  I70  1  0.49904707  0.66897828  0.50060067  1
  I  I71  1  0.50347948  0.67088787  0.83013574  1
  I  I72  1  0.83471084  -0.00030120  0.16248669  1
  I  I73  1  0.83501273  -0.00000283  0.49602577  1
  I  I74  1  0.82748581  -0.00425209  0.84323496  1
  I  I75  1  0.83550569  0.33334024  0.16885612  1
  I  I76  1  0.83064184  0.33336335  0.49719350  1
  I  I77  1  0.83342556  0.33318087  0.83442397  1
  I  I78  1  0.83544612  0.66696512  0.16273543  1
  I  I79  1  0.82999855  0.66675764  0.49578009  1
  I  I80  1  0.82907166  0.67063413  0.84173555  1
  I  I81  1  0.17008598  0.16926935  0.00578209  1
  I  I82  1  0.16475502  0.16473349  0.32874763  1
  I  I83  1  0.16873274  0.16785550  0.66601217  1
  I  I84  1  0.16655351  0.50042151  0.00473613  1
  I  I85  1  0.16719086  0.50085037  0.32980687  1
  I  I86  1  0.17067281  0.50269211  0.66352171  1
  I  I87  1  0.16873773  0.83056471  0.00447324  1
  I  I88  1  0.16258059  0.83468064  0.32863718  1
  I  I89  1  0.16474243  0.83052605  0.66627589  1
  I  I90  1  0.49958963  0.16884968  0.00384333  1
  I  I91  1  0.50005857  0.16295941  0.33112556  1
  I  I92  1  0.49812634  0.16313836  0.66358172  1
  I  I93  1  0.49690049  0.49549449  0.00525231  1
  I  I94  1  0.50125708  0.50228901  0.32937490  1
  I  I95  1  0.49687125  0.49800750  0.66671746  1
  I  I96  1  0.50083312  0.83247496  -0.00131899  1
  I  I97  1  0.49927111  0.83418561  0.33488865  1
  I  I98  1  0.50532383  0.83855717  0.66649172  1
  I  I99  1  0.83075835  0.16924704  0.00513541  1
  I  I100  1  0.83560989  0.16336775  0.32823850  1
  I  I101  1  0.83219363  0.16534700  0.66670634  1
  I  I102  1  0.83618868  0.49759311  0.00520022  1
  I  I103  1  0.83090278  0.50373417  0.32825103  1
  I  I104  1  0.83415926  0.50194818  0.66680801  1
  I  I105  1  0.82997804  0.83305633  0.00235827  1
  I  I106  1  0.83540447  0.83307788  0.32940756  1
  I  I107  1  0.82921389  0.83206134  0.66963178  1
  I  I108  1  0.00005244  0.16875998  0.16458817  1
  I  I109  1  0.00032188  0.16648349  0.49860615  1
  I  I110  1  -0.00021457  0.16505599  0.83525842  1
  I  I111  1  0.00028733  0.49870483  0.16957941  1
  I  I112  1  0.00398743  0.50229906  0.49054605  1
  I  I113  1  -0.00012031  0.50330150  0.83684139  1
  I  I114  1  -0.00059159  0.83246783  0.16095604  1
  I  I115  1  0.00030181  0.83206242  0.50158217  1
  I  I116  1  -0.00315310  0.83154209  0.84053999  1
  I  I117  1  0.33368728  0.16838166  0.17028219  1
  I  I118  1  0.33693727  0.16142238  0.49089745  1
  I  I119  1  0.33365961  0.16403386  0.83738691  1
  I  I120  1  0.33293451  0.49933463  0.17029202  1
  I  I121  1  0.33078167  0.50173708  0.48921548  1
  I  I122  1  0.33343600  0.50295564  0.83750385  1
  I  I123  1  0.33136377  0.83237048  0.16693046  1
  I  I124  1  0.33717986  0.83695207  0.50258687  1
  I  I125  1  0.33608218  0.83328108  0.83279107  1
  I  I126  1  0.66632813  0.16813649  0.16999182  1
  I  I127  1  0.66245964  0.16206145  0.49121977  1
  I  I128  1  0.66663893  0.16676181  0.83757572  1
  I  I129  1  0.66666015  0.49899241  0.16595165  1
  I  I130  1  0.66644802  0.50126535  0.49669748  1
  I  I131  1  0.66664527  0.49906554  0.83515721  1
  I  I132  1  0.66892194  0.83298508  0.16574499  1
  I  I133  1  0.66315609  0.83565236  0.49625096  1
  I  I134  1  0.66665342  0.83391918  0.83964381  1
