# generated using pymatgen
data_Cs27Sn13Pb14I81
_symmetry_space_group_name_H-M   'P 1'
_cell_length_a   18.98056347
_cell_length_b   18.97047067
_cell_length_c   18.98021750
_cell_angle_alpha   90.00157339
_cell_angle_beta   89.99957431
_cell_angle_gamma   90.00008516
_symmetry_Int_Tables_number   1
_chemical_formula_structural   Cs27Sn13Pb14I81
_chemical_formula_sum   'Cs27 Sn13 Pb14 I81'
_cell_volume   6834.21113427
_cell_formula_units_Z   1
loop_
 _symmetry_equiv_pos_site_id
 _symmetry_equiv_pos_as_xyz
  1  'x, y, z'
loop_
 _atom_site_type_symbol
 _atom_site_label
 _atom_site_symmetry_multiplicity
 _atom_site_fract_x
 _atom_site_fract_y
 _atom_site_fract_z
 _atom_site_occupancy
  Cs  Cs0  1  0.00167715  -0.00064065  0.00062247  1
  Cs  Cs1  1  0.00028049  -0.00160156  0.33214853  1
  Cs  Cs2  1  0.00104286  -0.00217422  0.66696986  1
  Cs  Cs3  1  -0.00893737  0.33661904  -0.00318289  1
  Cs  Cs4  1  -0.00131342  0.33368332  0.33633935  1
  Cs  Cs5  1  0.00058582  0.33656332  0.66567688  1
  Cs  Cs6  1  0.00098401  0.66649041  -0.00304828  1
  Cs  Cs7  1  0.00120984  0.66975022  0.33418373  1
  Cs  Cs8  1  0.00012637  0.66652239  0.66862675  1
  Cs  Cs9  1  0.33217845  -0.00129025  0.00024409  1
  Cs  Cs10  1  0.33204002  0.00225738  0.33123252  1
  Cs  Cs11  1  0.33839215  0.00310318  0.66764719  1
  Cs  Cs12  1  0.33300604  0.33489654  0.00260064  1
  Cs  Cs13  1  0.33174638  0.33315997  0.33514852  1
  Cs  Cs14  1  0.33291024  0.33255616  0.66248970  1
  Cs  Cs15  1  0.33352824  0.66664553  0.00177680  1
  Cs  Cs16  1  0.33214672  0.66455465  0.32897681  1
  Cs  Cs17  1  0.33545790  0.66517992  0.66887862  1
  Cs  Cs18  1  0.66623850  0.00279996  -0.00133206  1
  Cs  Cs19  1  0.66749244  -0.00131110  0.33480701  1
  Cs  Cs20  1  0.65818349  0.00081078  0.66603833  1
  Cs  Cs21  1  0.67582448  0.33304765  -0.00081555  1
  Cs  Cs22  1  0.66941513  0.33597001  0.33194518  1
  Cs  Cs23  1  0.66628369  0.33262905  0.66806873  1
  Cs  Cs24  1  0.66529875  0.66482517  0.00080554  1
  Cs  Cs25  1  0.66630519  0.66569924  0.33648457  1
  Cs  Cs26  1  0.66401177  0.66751136  0.66294685  1
  Sn  Sn27  1  0.83332350  0.83341466  0.16562088  1
  Sn  Sn28  1  0.16740708  0.83353733  0.50039976  1
  Sn  Sn29  1  0.16658998  0.83397233  0.16640561  1
  Sn  Sn30  1  0.49991130  0.49965761  0.83307785  1
  Sn  Sn31  1  0.16648193  0.16625724  0.83421591  1
  Sn  Sn32  1  0.83288157  0.49929439  0.50019342  1
  Sn  Sn33  1  0.16689285  0.16622175  0.16547518  1
  Sn  Sn34  1  0.83321992  0.83378056  0.83379517  1
  Sn  Sn35  1  0.50038517  0.49985876  0.50069027  1
  Sn  Sn36  1  0.50011912  0.83430153  0.16672465  1
  Sn  Sn37  1  0.83334756  0.16673028  0.50030422  1
  Sn  Sn38  1  0.16631159  0.83421348  0.83317930  1
  Sn  Sn39  1  0.49972911  0.16618631  0.16657177  1
  Pb  Pb40  1  0.50004091  0.49928732  0.16673434  1
  Pb  Pb41  1  0.83117123  0.50265064  0.83095921  1
  Pb  Pb42  1  0.16618630  0.49921306  0.16633373  1
  Pb  Pb43  1  0.49969273  0.83222801  0.83554402  1
  Pb  Pb44  1  0.83560895  0.16409443  0.83093210  1
  Pb  Pb45  1  0.83393282  0.16450738  0.16803357  1
  Pb  Pb46  1  0.83456828  0.83331200  0.50048100  1
  Pb  Pb47  1  0.50201388  0.16888553  0.49744443  1
  Pb  Pb48  1  0.49709644  0.83162412  0.49736579  1
  Pb  Pb49  1  0.16511539  0.16455068  0.49989422  1
  Pb  Pb50  1  0.16849050  0.49977803  0.83350709  1
  Pb  Pb51  1  0.83357666  0.50309367  0.16894489  1
  Pb  Pb52  1  0.49769219  0.16914272  0.83594752  1
  Pb  Pb53  1  0.16666192  0.50242003  0.50003670  1
  I  I54  1  0.16768853  -0.00148113  0.16658992  1
  I  I55  1  0.16275576  -0.00345415  0.49846127  1
  I  I56  1  0.16324547  -0.00157657  0.83478827  1
  I  I57  1  0.17359594  0.32915894  0.16367441  1
  I  I58  1  0.16730123  0.33313857  0.49955491  1
  I  I59  1  0.16910876  0.33003697  0.83810850  1
  I  I60  1  0.16806285  0.67073124  0.16665297  1
  I  I61  1  0.16405304  0.67071723  0.49855357  1
  I  I62  1  0.16377292  0.67031017  0.83432516  1
  I  I63  1  0.49814497  -0.00100338  0.16654728  1
  I  I64  1  0.50195986  0.00000923  0.50082781  1
  I  I65  1  0.50186127  0.00010436  0.83232809  1
  I  I66  1  0.49309073  0.33024058  0.16796279  1
  I  I67  1  0.50016517  0.33684780  0.50146475  1
  I  I68  1  0.49792000  0.33668187  0.83036399  1
  I  I69  1  0.49848473  0.66958540  0.16694536  1
  I  I70  1  0.50669821  0.66379702  0.50118731  1
  I  I71  1  0.49849802  0.66440175  0.83147545  1
  I  I72  1  0.83424019  -0.00377909  0.16721959  1
  I  I73  1  0.83727669  0.00163817  0.49813142  1
  I  I74  1  0.83496415  -0.00395234  0.83517331  1
  I  I75  1  0.83259784  0.33309560  0.16683886  1
  I  I76  1  0.83071257  0.33382044  0.49856947  1
  I  I77  1  0.83446046  0.33329309  0.83409585  1
  I  I78  1  0.83378986  0.67163487  0.16559848  1
  I  I79  1  0.83035884  0.66460702  0.49918595  1
  I  I80  1  0.84085652  0.67055144  0.83576120  1
  I  I81  1  0.17107161  0.15705439  0.00082172  1
  I  I82  1  0.16928083  0.16160032  0.33028823  1
  I  I83  1  0.16421432  0.16158602  0.66918208  1
  I  I84  1  0.17074885  0.50531472  -0.00018145  1
  I  I85  1  0.16940460  0.50177361  0.33343008  1
  I  I86  1  0.16580628  0.50125746  0.66666954  1
  I  I87  1  0.16588937  0.83686099  0.00050675  1
  I  I88  1  0.16555249  0.83564947  0.33176262  1
  I  I89  1  0.15985509  0.83549783  0.66791657  1
  I  I90  1  0.49885611  0.16376272  0.00377648  1
  I  I91  1  0.49282928  0.16373013  0.32969734  1
  I  I92  1  0.49927271  0.16620514  0.66667972  1
  I  I93  1  0.49712116  0.50235645  -0.00205662  1
  I  I94  1  0.50433889  0.50149508  0.33586194  1
  I  I95  1  0.50339112  0.50218591  0.66600049  1
  I  I96  1  0.49592336  0.83317499  0.00361334  1
  I  I97  1  0.50097588  0.83409822  0.32924572  1
  I  I98  1  0.50027075  0.83258692  0.66662388  1
  I  I99  1  0.83142851  0.16754306  -0.00007986  1
  I  I100  1  0.83522449  0.16810202  0.33583439  1
  I  I101  1  0.83566958  0.16852512  0.66337353  1
  I  I102  1  0.83142563  0.49905942  -0.00036834  1
  I  I103  1  0.82640467  0.49877805  0.33695836  1
  I  I104  1  0.83211677  0.49927672  0.66318941  1
  I  I105  1  0.83856341  0.83370027  0.00061959  1
  I  I106  1  0.83512767  0.83301672  0.33088011  1
  I  I107  1  0.84028801  0.83214226  0.66903038  1
  I  I108  1  0.00318101  0.16099712  0.16532835  1
  I  I109  1  -0.00259933  0.17244950  0.49739206  1
  I  I110  1  0.00367575  0.16475560  0.84040978  1
  I  I111  1  -0.00023688  0.50019057  0.16918042  1
  I  I112  1  -0.00278210  0.49777409  0.49840923  1
  I  I113  1  -0.00023548  0.49953098  0.83194171  1
  I  I114  1  0.00112188  0.83653982  0.16737908  1
  I  I115  1  0.00252506  0.83172171  0.49532268  1
  I  I116  1  0.00124143  0.83544745  0.83762389  1
  I  I117  1  0.33248895  0.15843208  0.16440741  1
  I  I118  1  0.33329262  0.16756894  0.50081716  1
  I  I119  1  0.32971489  0.15880428  0.83341541  1
  I  I120  1  0.33345649  0.50530170  0.16934539  1
  I  I121  1  0.33609536  0.50268391  0.50287361  1
  I  I122  1  0.33623592  0.50302411  0.82696021  1
  I  I123  1  0.33238713  0.83595585  0.16718128  1
  I  I124  1  0.32919743  0.83237358  0.50089205  1
  I  I125  1  0.33007132  0.83475783  0.83412397  1
  I  I126  1  0.66447434  0.16224862  0.16983639  1
  I  I127  1  0.66980628  0.16583299  0.49811065  1
  I  I128  1  0.66669996  0.16614228  0.83389312  1
  I  I129  1  0.66661239  0.50083103  0.16531637  1
  I  I130  1  0.66670148  0.49825329  0.50299279  1
  I  I131  1  0.66353888  0.50207373  0.83254107  1
  I  I132  1  0.66665870  0.83630718  0.16290328  1
  I  I133  1  0.66644458  0.83389255  0.49913282  1
  I  I134  1  0.66895179  0.83014875  0.83751540  1
