# generated using pymatgen
data_Cs27Sn13Pb14I81
_symmetry_space_group_name_H-M   'P 1'
_cell_length_a   18.97290805
_cell_length_b   18.97202074
_cell_length_c   18.98662815
_cell_angle_alpha   89.99930359
_cell_angle_beta   90.00047126
_cell_angle_gamma   89.99914919
_symmetry_Int_Tables_number   1
_chemical_formula_structural   Cs27Sn13Pb14I81
_chemical_formula_sum   'Cs27 Sn13 Pb14 I81'
_cell_volume   6834.32043414
_cell_formula_units_Z   1
loop_
 _symmetry_equiv_pos_site_id
 _symmetry_equiv_pos_as_xyz
  1  'x, y, z'
loop_
 _atom_site_type_symbol
 _atom_site_label
 _atom_site_symmetry_multiplicity
 _atom_site_fract_x
 _atom_site_fract_y
 _atom_site_fract_z
 _atom_site_occupancy
  Cs  Cs0  1  0.00187537  -0.00217839  -0.00114953  1
  Cs  Cs1  1  -0.00396426  -0.00338159  0.33616407  1
  Cs  Cs2  1  -0.00120299  -0.00003605  0.66621323  1
  Cs  Cs3  1  -0.00051420  0.33448168  -0.00069369  1
  Cs  Cs4  1  0.00155687  0.33554751  0.33125937  1
  Cs  Cs5  1  0.00028890  0.33492974  0.66772636  1
  Cs  Cs6  1  0.00032485  0.66668321  -0.00089759  1
  Cs  Cs7  1  -0.00234373  0.66558640  0.33211763  1
  Cs  Cs8  1  0.00077478  0.66384599  0.66837687  1
  Cs  Cs9  1  0.33193078  -0.00219116  0.00036554  1
  Cs  Cs10  1  0.33284193  0.00319998  0.33198494  1
  Cs  Cs11  1  0.33128718  0.00151713  0.66778598  1
  Cs  Cs12  1  0.33330678  0.33210570  0.00131538  1
  Cs  Cs13  1  0.33206761  0.33219092  0.33299255  1
  Cs  Cs14  1  0.33292550  0.33395734  0.66563994  1
  Cs  Cs15  1  0.33398609  0.67379835  -0.00162892  1
  Cs  Cs16  1  0.33539359  0.66650892  0.33597579  1
  Cs  Cs17  1  0.34128838  0.66522236  0.66621537  1
  Cs  Cs18  1  0.66699288  0.00235160  0.00196577  1
  Cs  Cs19  1  0.67263714  -0.00822790  0.33713049  1
  Cs  Cs20  1  0.67186646  0.00014757  0.66206117  1
  Cs  Cs21  1  0.66670251  0.33316239  0.00160082  1
  Cs  Cs22  1  0.66731656  0.33208713  0.32739183  1
  Cs  Cs23  1  0.66685253  0.33347332  0.66879297  1
  Cs  Cs24  1  0.66516561  0.66667505  -0.00065093  1
  Cs  Cs25  1  0.66959236  0.67666440  0.33375232  1
  Cs  Cs26  1  0.66158588  0.66666999  0.66675095  1
  Sn  Sn27  1  0.83305122  0.49935556  0.50062554  1
  Sn  Sn28  1  0.16795895  0.49951450  0.16552880  1
  Sn  Sn29  1  0.83374016  0.50087560  0.83235117  1
  Sn  Sn30  1  0.16694096  0.16737488  0.16655465  1
  Sn  Sn31  1  0.16739170  0.16755127  0.83345180  1
  Sn  Sn32  1  0.16669769  0.49946851  0.83408080  1
  Sn  Sn33  1  0.49881494  0.49964370  0.16673401  1
  Sn  Sn34  1  0.49963568  0.16710271  0.49966809  1
  Sn  Sn35  1  0.83347067  0.83230246  0.83337854  1
  Sn  Sn36  1  0.16715649  0.83358998  0.50033961  1
  Sn  Sn37  1  0.16707913  0.16585662  0.49993422  1
  Sn  Sn38  1  0.49915227  0.16693851  0.83331838  1
  Sn  Sn39  1  0.49917971  0.16726653  0.16701769  1
  Pb  Pb40  1  0.49967266  0.83402192  0.16663702  1
  Pb  Pb41  1  0.50269500  0.83690120  0.83318572  1
  Pb  Pb42  1  0.83370629  0.83325184  0.16355805  1
  Pb  Pb43  1  0.49958979  0.49809539  0.83523795  1
  Pb  Pb44  1  0.83374562  0.16727156  0.83340345  1
  Pb  Pb45  1  0.16591890  0.49952239  0.49993763  1
  Pb  Pb46  1  0.83336090  0.49998045  0.16598768  1
  Pb  Pb47  1  0.49741563  0.83623889  0.50016273  1
  Pb  Pb48  1  0.83382166  0.16647874  0.16678780  1
  Pb  Pb49  1  0.16563547  0.83307837  0.83137721  1
  Pb  Pb50  1  0.50268794  0.49755724  0.49702077  1
  Pb  Pb51  1  0.83569519  0.83049139  0.50229632  1
  Pb  Pb52  1  0.83376410  0.16892589  0.49990831  1
  Pb  Pb53  1  0.16670838  0.83317988  0.16896620  1
  I  I54  1  0.17137359  0.00378956  0.16327981  1
  I  I55  1  0.16975056  0.00250738  0.50044438  1
  I  I56  1  0.16836712  0.00343033  0.83579574  1
  I  I57  1  0.16981841  0.33269377  0.16808527  1
  I  I58  1  0.16891660  0.33009097  0.50023362  1
  I  I59  1  0.16381439  0.33276877  0.83195681  1
  I  I60  1  0.16939702  0.66298511  0.16315953  1
  I  I61  1  0.16160483  0.66821581  0.49975863  1
  I  I62  1  0.16281030  0.66340430  0.83661786  1
  I  I63  1  0.49476815  0.00446325  0.16549965  1
  I  I64  1  0.50010919  0.00488408  0.49745996  1
  I  I65  1  0.49420007  0.00531215  0.83673309  1
  I  I66  1  0.49637365  0.33209803  0.16654885  1
  I  I67  1  0.49229824  0.32937168  0.50229063  1
  I  I68  1  0.50086106  0.32972312  0.83158591  1
  I  I69  1  0.49608860  0.66346134  0.16554884  1
  I  I70  1  0.49937770  0.66646913  0.49850855  1
  I  I71  1  0.49770377  0.66649798  0.83527672  1
  I  I72  1  0.83286442  -0.00002099  0.16543668  1
  I  I73  1  0.83153336  -0.00013117  0.50131008  1
  I  I74  1  0.83318582  -0.00188531  0.83357200  1
  I  I75  1  0.83292069  0.33350370  0.16445156  1
  I  I76  1  0.83649564  0.33641505  0.50746126  1
  I  I77  1  0.83545485  0.33639158  0.83021414  1
  I  I78  1  0.83363786  0.66615361  0.17025158  1
  I  I79  1  0.83624999  0.66295589  0.50070908  1
  I  I80  1  0.84034967  0.66476508  0.83007191  1
  I  I81  1  0.17151039  0.17150004  -0.00025513  1
  I  I82  1  0.17232908  0.16760283  0.33310575  1
  I  I83  1  0.17173400  0.16696871  0.66706397  1
  I  I84  1  0.16318858  0.49201110  -0.00047362  1
  I  I85  1  0.16759048  0.49657484  0.33068799  1
  I  I86  1  0.16229531  0.49612207  0.66935233  1
  I  I87  1  0.16426443  0.83581503  -0.00025109  1
  I  I88  1  0.16586950  0.83790986  0.33674493  1
  I  I89  1  0.16443116  0.83912652  0.66383682  1
  I  I90  1  0.49535959  0.17036904  0.00030937  1
  I  I91  1  0.49249011  0.17178067  0.33293709  1
  I  I92  1  0.49373346  0.16606570  0.66668807  1
  I  I93  1  0.50145745  0.49267250  0.00298667  1
  I  I94  1  0.49407055  0.49309235  0.32938957  1
  I  I95  1  0.49848187  0.49804918  0.66667231  1
  I  I96  1  0.50074439  0.83567485  -0.00015842  1
  I  I97  1  0.50124361  0.83407000  0.33347685  1
  I  I98  1  0.49980594  0.83360489  0.66665059  1
  I  I99  1  0.83229580  0.16798194  -0.00019383  1
  I  I100  1  0.83366492  0.16949213  0.33347482  1
  I  I101  1  0.83264227  0.16572365  0.66680422  1
  I  I102  1  0.83540661  0.50326126  -0.00323178  1
  I  I103  1  0.83495340  0.49743710  0.33529931  1
  I  I104  1  0.84015949  0.50182100  0.66825071  1
  I  I105  1  0.83551203  0.82684347  -0.00428279  1
  I  I106  1  0.83341131  0.83230610  0.33384808  1
  I  I107  1  0.83472538  0.83248840  0.66972880  1
  I  I108  1  0.00437795  0.17187903  0.16600985  1
  I  I109  1  0.00375914  0.16401625  0.50069127  1
  I  I110  1  0.00363034  0.16769663  0.83319278  1
  I  I111  1  0.00327588  0.49487815  0.16619325  1
  I  I112  1  -0.00194977  0.49794257  0.50013694  1
  I  I113  1  0.00104895  0.49727612  0.83506365  1
  I  I114  1  0.00046539  0.83385339  0.16805412  1
  I  I115  1  0.00313413  0.84214253  0.49996489  1
  I  I116  1  -0.00235995  0.83372972  0.83185696  1
  I  I117  1  0.33263191  0.17119040  0.16693490  1
  I  I118  1  0.33231849  0.16379806  0.50010716  1
  I  I119  1  0.33194282  0.17180081  0.83279492  1
  I  I120  1  0.33206922  0.49419279  0.16235770  1
  I  I121  1  0.33347669  0.50253030  0.50261062  1
  I  I122  1  0.33011761  0.49666051  0.83450565  1
  I  I123  1  0.33304972  0.83265511  0.16523038  1
  I  I124  1  0.32952615  0.83307553  0.50126747  1
  I  I125  1  0.33333214  0.83131652  0.83246117  1
  I  I126  1  0.66283636  0.17196263  0.16479010  1
  I  I127  1  0.66362041  0.16970116  0.50070266  1
  I  I128  1  0.66374395  0.16653108  0.83385458  1
  I  I129  1  0.66377887  0.49353195  0.16625755  1
  I  I130  1  0.67018115  0.49779925  0.50663990  1
  I  I131  1  0.66911160  0.50172410  0.83120714  1
  I  I132  1  0.66661191  0.83361245  0.16785177  1
  I  I133  1  0.66687099  0.83466949  0.49991106  1
  I  I134  1  0.67047880  0.82652646  0.83261900  1
