# generated using pymatgen
data_Cs27Sn14Pb13I81
_symmetry_space_group_name_H-M   'P 1'
_cell_length_a   18.96254407
_cell_length_b   18.96133776
_cell_length_c   18.96051691
_cell_angle_alpha   89.99935293
_cell_angle_beta   89.99956005
_cell_angle_gamma   90.00111232
_symmetry_Int_Tables_number   1
_chemical_formula_structural   Cs27Sn14Pb13I81
_chemical_formula_sum   'Cs27 Sn14 Pb13 I81'
_cell_volume   6817.35250320
_cell_formula_units_Z   1
loop_
 _symmetry_equiv_pos_site_id
 _symmetry_equiv_pos_as_xyz
  1  'x, y, z'
loop_
 _atom_site_type_symbol
 _atom_site_label
 _atom_site_symmetry_multiplicity
 _atom_site_fract_x
 _atom_site_fract_y
 _atom_site_fract_z
 _atom_site_occupancy
  Cs  Cs0  1  -0.00176089  0.00028391  0.00252436  1
  Cs  Cs1  1  -0.00052157  0.00016718  0.33282385  1
  Cs  Cs2  1  -0.00117423  0.00106094  0.66568246  1
  Cs  Cs3  1  -0.00082679  0.33481340  -0.00315370  1
  Cs  Cs4  1  -0.00193008  0.33034999  0.33506094  1
  Cs  Cs5  1  -0.00077742  0.33364263  0.66717502  1
  Cs  Cs6  1  0.00921425  0.66269166  0.00325386  1
  Cs  Cs7  1  -0.00088264  0.66931984  0.33176999  1
  Cs  Cs8  1  -0.00211578  0.66376049  0.66687023  1
  Cs  Cs9  1  0.33396190  -0.00141198  -0.00328243  1
  Cs  Cs10  1  0.33353236  0.00129504  0.33522668  1
  Cs  Cs11  1  0.33566652  0.00053742  0.66762229  1
  Cs  Cs12  1  0.33301026  0.33493548  0.00327493  1
  Cs  Cs13  1  0.33435111  0.33282103  0.33384931  1
  Cs  Cs14  1  0.33474543  0.33100551  0.66510865  1
  Cs  Cs15  1  0.32681389  0.66562472  -0.00048747  1
  Cs  Cs16  1  0.33540331  0.66588002  0.33369167  1
  Cs  Cs17  1  0.33374665  0.66788091  0.66694922  1
  Cs  Cs18  1  0.66795285  -0.00010160  -0.00157866  1
  Cs  Cs19  1  0.66709988  -0.00069272  0.33310372  1
  Cs  Cs20  1  0.66600123  -0.00006363  0.66787026  1
  Cs  Cs21  1  0.66778552  0.33657890  0.00441997  1
  Cs  Cs22  1  0.66672582  0.33599442  0.33027198  1
  Cs  Cs23  1  0.66639901  0.33355181  0.66697554  1
  Cs  Cs24  1  0.66592130  0.66279854  0.00284924  1
  Cs  Cs25  1  0.66468203  0.66603101  0.33338696  1
  Cs  Cs26  1  0.66781200  0.66688757  0.66597539  1
  Sn  Sn27  1  0.83328061  0.83432598  0.50082040  1
  Sn  Sn28  1  0.83393006  0.16576537  0.83227486  1
  Sn  Sn29  1  0.49932796  0.16533151  0.16679739  1
  Sn  Sn30  1  0.49991167  0.83452060  0.16706722  1
  Sn  Sn31  1  0.50001677  0.83280145  0.49963751  1
  Sn  Sn32  1  0.49987010  0.50013951  0.83242672  1
  Sn  Sn33  1  0.16762613  0.16634355  0.16669621  1
  Sn  Sn34  1  0.83381172  0.16585587  0.50087962  1
  Sn  Sn35  1  0.16659707  0.83332246  0.50028400  1
  Sn  Sn36  1  0.16619736  0.16630482  0.83307319  1
  Sn  Sn37  1  0.16741226  0.49994284  0.50012148  1
  Sn  Sn38  1  0.83356840  0.83347894  0.83301088  1
  Sn  Sn39  1  0.49927240  0.50075343  0.50127458  1
  Sn  Sn40  1  0.16605014  0.16650285  0.50031124  1
  Pb  Pb41  1  0.16874805  0.49753368  0.83079345  1
  Pb  Pb42  1  0.83156916  0.50013989  0.83319075  1
  Pb  Pb43  1  0.50056556  0.16666781  0.49863640  1
  Pb  Pb44  1  0.16898688  0.83559981  0.16892758  1
  Pb  Pb45  1  0.83327787  0.50011328  0.49983899  1
  Pb  Pb46  1  0.49970461  0.50047728  0.16718101  1
  Pb  Pb47  1  0.83361317  0.16660660  0.16658594  1
  Pb  Pb48  1  0.16661002  0.49730989  0.16975724  1
  Pb  Pb49  1  0.50189298  0.83141710  0.83331423  1
  Pb  Pb50  1  0.83400430  0.50037723  0.16666795  1
  Pb  Pb51  1  0.16410111  0.83540225  0.83100430  1
  Pb  Pb52  1  0.83132247  0.83324948  0.16660948  1
  Pb  Pb53  1  0.50052124  0.16846122  0.83598613  1
  I  I54  1  0.16837244  0.00391195  0.16998912  1
  I  I55  1  0.16637865  0.00072666  0.49928392  1
  I  I56  1  0.16741667  0.00390571  0.83070918  1
  I  I57  1  0.17375310  0.32877728  0.16899589  1
  I  I58  1  0.16739198  0.33205383  0.49962789  1
  I  I59  1  0.16083103  0.32916377  0.83123904  1
  I  I60  1  0.16780841  0.66691847  0.16720231  1
  I  I61  1  0.16770721  0.66729916  0.50024793  1
  I  I62  1  0.16598522  0.66667114  0.83248082  1
  I  I63  1  0.49684489  -0.00003534  0.17312709  1
  I  I64  1  0.49827696  -0.00267078  0.49729888  1
  I  I65  1  0.49893028  0.00007937  0.83169871  1
  I  I66  1  0.49687301  0.33071917  0.16718074  1
  I  I67  1  0.49701839  0.33553996  0.50135590  1
  I  I68  1  0.50088932  0.33604197  0.82696229  1
  I  I69  1  0.50292087  0.66958517  0.16955685  1
  I  I70  1  0.49773069  0.66757771  0.49779217  1
  I  I71  1  0.50245073  0.66375011  0.83231632  1
  I  I72  1  0.83342322  0.00014702  0.16735587  1
  I  I73  1  0.83570452  0.00006119  0.50310773  1
  I  I74  1  0.83507473  0.00100101  0.82832470  1
  I  I75  1  0.82894012  0.33253640  0.16806376  1
  I  I76  1  0.83647446  0.33003315  0.50336637  1
  I  I77  1  0.83638030  0.32981668  0.82894861  1
  I  I78  1  0.82923359  0.66736581  0.16805700  1
  I  I79  1  0.83495003  0.67014700  0.50369101  1
  I  I80  1  0.82927995  0.66978031  0.82672157  1
  I  I81  1  0.16689129  0.16658406  -0.00021753  1
  I  I82  1  0.16684637  0.16696353  0.33491557  1
  I  I83  1  0.16211651  0.16729258  0.66528776  1
  I  I84  1  0.16827881  0.49863264  -0.00022810  1
  I  I85  1  0.17417582  0.49832109  0.33818299  1
  I  I86  1  0.16862485  0.49772665  0.66249670  1
  I  I87  1  0.16706500  0.83493079  -0.00007050  1
  I  I88  1  0.16208918  0.83553703  0.33779831  1
  I  I89  1  0.17266764  0.83585583  0.66223889  1
  I  I90  1  0.49639633  0.16296537  0.00373812  1
  I  I91  1  0.49648083  0.16743726  0.33083061  1
  I  I92  1  0.49782868  0.16540003  0.66664754  1
  I  I93  1  0.50310779  0.49806661  -0.00216561  1
  I  I94  1  0.49647531  0.50098502  0.33667415  1
  I  I95  1  0.49692961  0.50425297  0.66459649  1
  I  I96  1  0.50291506  0.83648356  0.00243750  1
  I  I97  1  0.50174755  0.83163604  0.33537941  1
  I  I98  1  0.49869424  0.83127613  0.66327677  1
  I  I99  1  0.83556344  0.16306766  -0.00317365  1
  I  I100  1  0.83648316  0.16287873  0.33659396  1
  I  I101  1  0.84049514  0.16312834  0.66586964  1
  I  I102  1  0.82840510  0.49830417  -0.00060185  1
  I  I103  1  0.82967907  0.49807541  0.33419971  1
  I  I104  1  0.83352456  0.49915152  0.66631795  1
  I  I105  1  0.82959106  0.83943290  -0.00311411  1
  I  I106  1  0.83503382  0.83795519  0.33720510  1
  I  I107  1  0.83074754  0.83813055  0.66478520  1
  I  I108  1  0.00307483  0.16761168  0.16850873  1
  I  I109  1  0.00104829  0.16483187  0.49806577  1
  I  I110  1  0.00000353  0.16375430  0.83354315  1
  I  I111  1  0.00073557  0.49826252  0.16797757  1
  I  I112  1  0.00304111  0.50052186  0.49911516  1
  I  I113  1  0.00027757  0.50056307  0.83230477  1
  I  I114  1  0.00028432  0.83473985  0.16819315  1
  I  I115  1  -0.00004171  0.83455518  0.50434101  1
  I  I116  1  -0.00399778  0.83524841  0.82721280  1
  I  I117  1  0.33285153  0.16383004  0.16847690  1
  I  I118  1  0.33052457  0.16503600  0.50158354  1
  I  I119  1  0.33072328  0.16887390  0.82987841  1
  I  I120  1  0.33340126  0.50021139  0.16495520  1
  I  I121  1  0.33363682  0.50169423  0.50313626  1
  I  I122  1  0.33657835  0.49907950  0.83102414  1
  I  I123  1  0.33709933  0.83522534  0.17231409  1
  I  I124  1  0.33346898  0.83322661  0.49516768  1
  I  I125  1  0.33326441  0.83421446  0.83240039  1
  I  I126  1  0.66402236  0.16421101  0.16760779  1
  I  I127  1  0.66943481  0.16380293  0.50301920  1
  I  I128  1  0.66968151  0.16445809  0.82894458  1
  I  I129  1  0.66590096  0.49639240  0.16867859  1
  I  I130  1  0.66356207  0.50260165  0.50234679  1
  I  I131  1  0.66357093  0.49781203  0.82673522  1
  I  I132  1  0.66303218  0.83953935  0.17313808  1
  I  I133  1  0.66655682  0.83346756  0.49953241  1
  I  I134  1  0.66974360  0.84047206  0.82679286  1
