# generated using pymatgen
data_Cs27Sn14Pb13I81
_symmetry_space_group_name_H-M   'P 1'
_cell_length_a   18.97534016
_cell_length_b   18.97213117
_cell_length_c   18.97919310
_cell_angle_alpha   90.00025803
_cell_angle_beta   90.00139628
_cell_angle_gamma   90.00005801
_symmetry_Int_Tables_number   1
_chemical_formula_structural   Cs27Sn14Pb13I81
_chemical_formula_sum   'Cs27 Sn14 Pb13 I81'
_cell_volume   6832.55966979
_cell_formula_units_Z   1
loop_
 _symmetry_equiv_pos_site_id
 _symmetry_equiv_pos_as_xyz
  1  'x, y, z'
loop_
 _atom_site_type_symbol
 _atom_site_label
 _atom_site_symmetry_multiplicity
 _atom_site_fract_x
 _atom_site_fract_y
 _atom_site_fract_z
 _atom_site_occupancy
  Cs  Cs0  1  0.00080746  -0.00009130  -0.00014550  1
  Cs  Cs1  1  0.00219466  0.00074721  0.33302847  1
  Cs  Cs2  1  0.00015553  -0.00491600  0.66500129  1
  Cs  Cs3  1  -0.00004005  0.33284605  0.00008810  1
  Cs  Cs4  1  -0.00254365  0.33299808  0.33238645  1
  Cs  Cs5  1  0.00062144  0.33451101  0.66836726  1
  Cs  Cs6  1  -0.00324978  0.66826884  0.00076114  1
  Cs  Cs7  1  0.00414993  0.66714002  0.33961742  1
  Cs  Cs8  1  -0.00005457  0.67378029  0.65497015  1
  Cs  Cs9  1  0.33288761  0.00037103  -0.00052141  1
  Cs  Cs10  1  0.33421398  -0.00013199  0.33408429  1
  Cs  Cs11  1  0.33432800  0.00079789  0.66661090  1
  Cs  Cs12  1  0.32933633  0.33754793  -0.00420594  1
  Cs  Cs13  1  0.33307626  0.33438811  0.33252445  1
  Cs  Cs14  1  0.33300692  0.33690723  0.67190525  1
  Cs  Cs15  1  0.33529117  0.66194700  0.00186032  1
  Cs  Cs16  1  0.33238875  0.65927409  0.33288234  1
  Cs  Cs17  1  0.33230997  0.66183751  0.66504123  1
  Cs  Cs18  1  0.66618442  -0.00064714  -0.00006797  1
  Cs  Cs19  1  0.66340972  0.00322001  0.33197804  1
  Cs  Cs20  1  0.66527012  -0.00021166  0.66820440  1
  Cs  Cs21  1  0.67006862  0.33208726  -0.00138311  1
  Cs  Cs22  1  0.66896947  0.33043947  0.33704079  1
  Cs  Cs23  1  0.66641766  0.33380993  0.66485847  1
  Cs  Cs24  1  0.66759675  0.66684796  0.00049143  1
  Cs  Cs25  1  0.66213764  0.66122069  0.33069508  1
  Cs  Cs26  1  0.66778569  0.66611598  0.66693504  1
  Sn  Sn27  1  0.16679896  0.16587789  0.16728743  1
  Sn  Sn28  1  0.49956308  0.16650304  0.16606598  1
  Sn  Sn29  1  0.50068014  0.16594062  0.83352704  1
  Sn  Sn30  1  0.16782163  0.83336730  0.83429847  1
  Sn  Sn31  1  0.16748001  0.16638975  0.49950503  1
  Sn  Sn32  1  0.16635481  0.83408850  0.16566602  1
  Sn  Sn33  1  0.83360128  0.49991907  0.16594406  1
  Sn  Sn34  1  0.83345332  0.16621193  0.16572324  1
  Sn  Sn35  1  0.83379772  0.49952313  0.83372406  1
  Sn  Sn36  1  0.50003664  0.83404007  0.50072092  1
  Sn  Sn37  1  0.49869790  0.16594359  0.50038650  1
  Sn  Sn38  1  0.83281133  0.16706381  0.83390627  1
  Sn  Sn39  1  0.83395951  0.83357951  0.16687586  1
  Sn  Sn40  1  0.49879974  0.83396313  0.83268918  1
  Pb  Pb41  1  0.16411840  0.49995331  0.16646228  1
  Pb  Pb42  1  0.16303130  0.50417489  0.83345897  1
  Pb  Pb43  1  0.83337250  0.16641547  0.50047786  1
  Pb  Pb44  1  0.82987173  0.83371487  0.49610208  1
  Pb  Pb45  1  0.50217194  0.50013039  0.83346469  1
  Pb  Pb46  1  0.16637441  0.16523651  0.83344821  1
  Pb  Pb47  1  0.83330464  0.49997341  0.50014913  1
  Pb  Pb48  1  0.83303403  0.83368325  0.83477102  1
  Pb  Pb49  1  0.16670842  0.49613071  0.50000543  1
  Pb  Pb50  1  0.50265908  0.49607781  0.16634211  1
  Pb  Pb51  1  0.16928481  0.83527329  0.49929947  1
  Pb  Pb52  1  0.49933207  0.83475043  0.16644481  1
  Pb  Pb53  1  0.49998817  0.49942179  0.50015099  1
  I  I54  1  0.16104756  0.00105459  0.16664529  1
  I  I55  1  0.16837926  0.00318968  0.49746220  1
  I  I56  1  0.16523082  -0.00253382  0.83541013  1
  I  I57  1  0.16658866  0.32958647  0.17110537  1
  I  I58  1  0.17254507  0.32787528  0.49373993  1
  I  I59  1  0.16896252  0.33326925  0.83269650  1
  I  I60  1  0.16256325  0.67012997  0.16258614  1
  I  I61  1  0.16734650  0.66708040  0.49974889  1
  I  I62  1  0.17296792  0.67200912  0.84050481  1
  I  I63  1  0.50531220  0.00333859  0.16674390  1
  I  I64  1  0.49708615  0.00172481  0.50060738  1
  I  I65  1  0.50327358  0.00122584  0.83281962  1
  I  I66  1  0.49878658  0.32741245  0.16735816  1
  I  I67  1  0.49753065  0.32896145  0.49961014  1
  I  I68  1  0.50208691  0.32961382  0.83291773  1
  I  I69  1  0.50090801  0.66663055  0.16787872  1
  I  I70  1  0.50171709  0.66983592  0.50470196  1
  I  I71  1  0.49792629  0.67021081  0.82834774  1
  I  I72  1  0.83375930  0.00138250  0.16253265  1
  I  I73  1  0.83531685  0.00016260  0.50143294  1
  I  I74  1  0.83146650  0.00278736  0.83813037  1
  I  I75  1  0.83242328  0.33166631  0.16291258  1
  I  I76  1  0.83153889  0.33286707  0.49548208  1
  I  I77  1  0.82749999  0.33152997  0.84180521  1
  I  I78  1  0.83694865  0.66706694  0.16164343  1
  I  I79  1  0.83197675  0.66704210  0.50135830  1
  I  I80  1  0.83280122  0.66480931  0.83964798  1
  I  I81  1  0.16777557  0.16421203  0.00297103  1
  I  I82  1  0.16871922  0.16099095  0.33157379  1
  I  I83  1  0.16956972  0.16472481  0.66464978  1
  I  I84  1  0.16882786  0.49431451  -0.00007979  1
  I  I85  1  0.16384737  0.50504683  0.33303787  1
  I  I86  1  0.16364102  0.49953016  0.66694561  1
  I  I87  1  0.16762181  0.84076722  0.00098412  1
  I  I88  1  0.16228281  0.83619592  0.33019826  1
  I  I89  1  0.16722050  0.83524867  0.66886486  1
  I  I90  1  0.50246112  0.16179063  -0.00025126  1
  I  I91  1  0.50078146  0.16265842  0.33301980  1
  I  I92  1  0.50082258  0.16237653  0.66719345  1
  I  I93  1  0.49858434  0.50193633  -0.00000778  1
  I  I94  1  0.50329991  0.50171476  0.33313011  1
  I  I95  1  0.50403046  0.49563634  0.66688026  1
  I  I96  1  0.50025639  0.83847023  -0.00255851  1
  I  I97  1  0.50220604  0.83937364  0.33523890  1
  I  I98  1  0.49575465  0.84267842  0.66782786  1
  I  I99  1  0.83020027  0.16709907  0.00112260  1
  I  I100  1  0.83072743  0.16738041  0.32986906  1
  I  I101  1  0.83014519  0.17183277  0.67011471  1
  I  I102  1  0.83259602  0.49784795  0.00083385  1
  I  I103  1  0.83278882  0.49775465  0.32971602  1
  I  I104  1  0.83191895  0.49331813  0.67015730  1
  I  I105  1  0.83213641  0.83467448  0.00299687  1
  I  I106  1  0.83938572  0.83523211  0.32800636  1
  I  I107  1  0.83662661  0.83267816  0.66662801  1
  I  I108  1  -0.00052781  0.16640650  0.16690111  1
  I  I109  1  0.00270377  0.16698764  0.49577669  1
  I  I110  1  -0.00267666  0.16895750  0.83711256  1
  I  I111  1  -0.00395130  0.49431084  0.16173983  1
  I  I112  1  -0.00007042  0.49982383  0.50028714  1
  I  I113  1  -0.00461167  0.49102902  0.83976627  1
  I  I114  1  0.00022821  0.83876343  0.16007937  1
  I  I115  1  0.00025400  0.83394027  0.50324250  1
  I  I116  1  0.00195470  0.83423277  0.83677674  1
  I  I117  1  0.33313665  0.15982846  0.16808480  1
  I  I118  1  0.33441695  0.16185659  0.49568670  1
  I  I119  1  0.33611707  0.16334968  0.83543605  1
  I  I120  1  0.33323230  0.50081233  0.16839095  1
  I  I121  1  0.33344068  0.50241006  0.49921477  1
  I  I122  1  0.33306504  0.49707296  0.83207358  1
  I  I123  1  0.33060045  0.84032987  0.16571128  1
  I  I124  1  0.33688082  0.83822286  0.49939583  1
  I  I125  1  0.33418835  0.84143909  0.83557096  1
  I  I126  1  0.66707647  0.16618260  0.16670303  1
  I  I127  1  0.66340738  0.16374869  0.49702098  1
  I  I128  1  0.66617603  0.16453829  0.83644053  1
  I  I129  1  0.67086430  0.50294106  0.16260079  1
  I  I130  1  0.66665520  0.49770448  0.49847184  1
  I  I131  1  0.67007109  0.50011761  0.83882129  1
  I  I132  1  0.66901963  0.83469271  0.16634518  1
  I  I133  1  0.66228152  0.84143474  0.50645506  1
  I  I134  1  0.66402097  0.83499970  0.83109533  1
