# generated using pymatgen
data_Cs27Sn13Pb14I81
_symmetry_space_group_name_H-M   'P 1'
_cell_length_a   18.98056718
_cell_length_b   18.97737397
_cell_length_c   18.97203823
_cell_angle_alpha   89.99768497
_cell_angle_beta   90.00065761
_cell_angle_gamma   89.99996988
_symmetry_Int_Tables_number   1
_chemical_formula_structural   Cs27Sn13Pb14I81
_chemical_formula_sum   'Cs27 Sn13 Pb14 I81'
_cell_volume   6833.75323557
_cell_formula_units_Z   1
loop_
 _symmetry_equiv_pos_site_id
 _symmetry_equiv_pos_as_xyz
  1  'x, y, z'
loop_
 _atom_site_type_symbol
 _atom_site_label
 _atom_site_symmetry_multiplicity
 _atom_site_fract_x
 _atom_site_fract_y
 _atom_site_fract_z
 _atom_site_occupancy
  Cs  Cs0  1  0.00589613  0.00367668  0.00046288  1
  Cs  Cs1  1  -0.00064294  0.00379330  0.33667958  1
  Cs  Cs2  1  -0.00134979  -0.00103182  0.66356571  1
  Cs  Cs3  1  -0.00004897  0.33037657  0.00063058  1
  Cs  Cs4  1  -0.00063590  0.33217286  0.33228992  1
  Cs  Cs5  1  0.00042990  0.33618425  0.66651126  1
  Cs  Cs6  1  0.00018591  0.66576668  -0.00329552  1
  Cs  Cs7  1  -0.00292467  0.66477165  0.33565818  1
  Cs  Cs8  1  0.00101422  0.66497634  0.66745068  1
  Cs  Cs9  1  0.32445907  -0.00226977  -0.00035338  1
  Cs  Cs10  1  0.33341866  -0.00229447  0.33258391  1
  Cs  Cs11  1  0.33407843  0.00257490  0.66789460  1
  Cs  Cs12  1  0.33445450  0.32946537  -0.00574862  1
  Cs  Cs13  1  0.33661534  0.33710541  0.33691789  1
  Cs  Cs14  1  0.34077875  0.33670106  0.67012244  1
  Cs  Cs15  1  0.33020085  0.67274433  0.00299811  1
  Cs  Cs16  1  0.33341788  0.66560349  0.33178025  1
  Cs  Cs17  1  0.33009224  0.66121324  0.66583022  1
  Cs  Cs18  1  0.66740538  -0.00129340  -0.00011808  1
  Cs  Cs19  1  0.66733450  -0.00081011  0.33413373  1
  Cs  Cs20  1  0.66695239  -0.00119699  0.66627121  1
  Cs  Cs21  1  0.66769141  0.33470558  0.00060029  1
  Cs  Cs22  1  0.66600649  0.33226331  0.33163061  1
  Cs  Cs23  1  0.66036959  0.33281362  0.66979481  1
  Cs  Cs24  1  0.66686292  0.66645248  0.00038606  1
  Cs  Cs25  1  0.66863569  0.66827842  0.33166631  1
  Cs  Cs26  1  0.66850371  0.66986462  0.66973611  1
  Sn  Sn27  1  0.16641746  0.49975186  0.16659727  1
  Sn  Sn28  1  0.83269594  0.49859195  0.49960920  1
  Sn  Sn29  1  0.83358405  0.50078200  0.16736968  1
  Sn  Sn30  1  0.50037002  0.83345557  0.83249328  1
  Sn  Sn31  1  0.49874231  0.83317187  0.50088478  1
  Sn  Sn32  1  0.83318385  0.16581384  0.83234529  1
  Sn  Sn33  1  0.49993366  0.49904337  0.16663411  1
  Sn  Sn34  1  0.83355692  0.16811614  0.50104739  1
  Sn  Sn35  1  0.16794882  0.83379329  0.49989885  1
  Sn  Sn36  1  0.16671719  0.16669862  0.50011527  1
  Sn  Sn37  1  0.83370081  0.83317963  0.16556483  1
  Sn  Sn38  1  0.49990145  0.16686550  0.16664580  1
  Sn  Sn39  1  0.83291651  0.83449576  0.83467519  1
  Pb  Pb40  1  0.16678014  0.49985396  0.83632031  1
  Pb  Pb41  1  0.83234879  0.16672716  0.16676769  1
  Pb  Pb42  1  0.50282538  0.50269706  0.49825560  1
  Pb  Pb43  1  0.50019401  0.16488169  0.49868823  1
  Pb  Pb44  1  0.16485083  0.49950786  0.49859517  1
  Pb  Pb45  1  0.50144188  0.83329684  0.16640678  1
  Pb  Pb46  1  0.16956424  0.16907350  0.16928973  1
  Pb  Pb47  1  0.16323602  0.83170644  0.16926112  1
  Pb  Pb48  1  0.50001712  0.50305356  0.83639107  1
  Pb  Pb49  1  0.16619087  0.83341469  0.83061496  1
  Pb  Pb50  1  0.16414828  0.16677890  0.83018150  1
  Pb  Pb51  1  0.83322868  0.49991023  0.83349258  1
  Pb  Pb52  1  0.83339497  0.83339703  0.50027384  1
  Pb  Pb53  1  0.50218236  0.16407058  0.83588677  1
  I  I54  1  0.16731872  0.00009115  0.16619331  1
  I  I55  1  0.16257674  -0.00002962  0.49891310  1
  I  I56  1  0.16794956  -0.00003798  0.83717779  1
  I  I57  1  0.15927863  0.33683299  0.16952192  1
  I  I58  1  0.16150180  0.33069789  0.49671976  1
  I  I59  1  0.16396318  0.33310367  0.83157973  1
  I  I60  1  0.17162666  0.66378356  0.16964312  1
  I  I61  1  0.16814612  0.66898544  0.49837695  1
  I  I62  1  0.16377568  0.66703417  0.83045555  1
  I  I63  1  0.50474694  0.00162581  0.16815218  1
  I  I64  1  0.50250288  -0.00315067  0.49927868  1
  I  I65  1  0.50418275  -0.00367717  0.83170532  1
  I  I66  1  0.50397592  0.33433953  0.16895699  1
  I  I67  1  0.49821837  0.33352524  0.49925559  1
  I  I68  1  0.50119210  0.33317684  0.83300925  1
  I  I69  1  0.50022358  0.66417687  0.16712177  1
  I  I70  1  0.49660548  0.67068485  0.50069194  1
  I  I71  1  0.50862472  0.67090491  0.83111431  1
  I  I72  1  0.82892925  -0.00222555  0.16717460  1
  I  I73  1  0.83416545  0.00207265  0.49979758  1
  I  I74  1  0.82886412  -0.00083298  0.83261896  1
  I  I75  1  0.83399973  0.33619463  0.16808116  1
  I  I76  1  0.83950284  0.33265631  0.49799698  1
  I  I77  1  0.83458068  0.33051743  0.83276550  1
  I  I78  1  0.83031692  0.66578671  0.16845929  1
  I  I79  1  0.83307633  0.66488500  0.49724968  1
  I  I80  1  0.82947310  0.66970841  0.83417165  1
  I  I81  1  0.16595878  0.16792835  0.00022987  1
  I  I82  1  0.15790940  0.16213183  0.33681870  1
  I  I83  1  0.16473204  0.16184493  0.66211710  1
  I  I84  1  0.16246238  0.50146166  0.00491934  1
  I  I85  1  0.16721785  0.50092044  0.33043949  1
  I  I86  1  0.16308474  0.50158271  0.66615791  1
  I  I87  1  0.16912351  0.83144621  0.00022621  1
  I  I88  1  0.17116643  0.83656675  0.33697386  1
  I  I89  1  0.16430038  0.83603212  0.66262280  1
  I  I90  1  0.50366838  0.17023200  0.00358198  1
  I  I91  1  0.50359271  0.16799597  0.33081951  1
  I  I92  1  0.49906390  0.16644739  0.66677884  1
  I  I93  1  0.50514989  0.49791873  0.00472112  1
  I  I94  1  0.49948814  0.49942197  0.32993557  1
  I  I95  1  0.50162889  0.49918644  0.66659609  1
  I  I96  1  0.50524387  0.83215531  -0.00208093  1
  I  I97  1  0.49907540  0.83321863  0.33534421  1
  I  I98  1  0.50474645  0.83508532  0.66651176  1
  I  I99  1  0.82973717  0.16534612  -0.00201053  1
  I  I100  1  0.83546863  0.16666018  0.33596227  1
  I  I101  1  0.83671348  0.16476187  0.66576988  1
  I  I102  1  0.83262618  0.50160021  0.00348505  1
  I  I103  1  0.83343695  0.50143022  0.33217425  1
  I  I104  1  0.83496118  0.50066153  0.66383688  1
  I  I105  1  0.82621157  0.83227099  -0.00027837  1
  I  I106  1  0.83228105  0.83147025  0.33153490  1
  I  I107  1  0.83192626  0.83404028  0.66881652  1
  I  I108  1  0.00005244  0.16705065  0.16534555  1
  I  I109  1  -0.00130265  0.16310339  0.50173447  1
  I  I110  1  -0.00427285  0.15987796  0.83454556  1
  I  I111  1  -0.00150615  0.50548296  0.17139429  1
  I  I112  1  -0.00334678  0.50177102  0.49373353  1
  I  I113  1  -0.00057110  0.50334947  0.83489430  1
  I  I114  1  -0.00474104  0.82861727  0.16288816  1
  I  I115  1  0.00157157  0.83404236  0.49841801  1
  I  I116  1  -0.00351280  0.83603409  0.83620211  1
  I  I117  1  0.33714007  0.16994621  0.16859469  1
  I  I118  1  0.33105085  0.16270702  0.49518068  1
  I  I119  1  0.33357924  0.16551559  0.83397996  1
  I  I120  1  0.33387141  0.49622084  0.16745771  1
  I  I121  1  0.33354846  0.49914616  0.49724680  1
  I  I122  1  0.33364848  0.50127859  0.83311278  1
  I  I123  1  0.33318230  0.83208460  0.16491333  1
  I  I124  1  0.33353999  0.83887737  0.50342981  1
  I  I125  1  0.33608239  0.83221938  0.83272507  1
  I  I126  1  0.66473010  0.17120592  0.16908427  1
  I  I127  1  0.66976984  0.16811770  0.50133890  1
  I  I128  1  0.67026623  0.16441644  0.82674276  1
  I  I129  1  0.66765982  0.50073654  0.17069831  1
  I  I130  1  0.67080215  0.49616320  0.49323864  1
  I  I131  1  0.66685037  0.49912604  0.83547618  1
  I  I132  1  0.66943745  0.82826986  0.16847960  1
  I  I133  1  0.66509008  0.83302836  0.49978972  1
  I  I134  1  0.66781204  0.83622599  0.83078183  1
