# generated using pymatgen
data_Cs27Sn14Pb13I81
_symmetry_space_group_name_H-M   'P 1'
_cell_length_a   18.97737119
_cell_length_b   18.96534190
_cell_length_c   18.98415942
_cell_angle_alpha   90.00024016
_cell_angle_beta   89.99930927
_cell_angle_gamma   89.99998622
_symmetry_Int_Tables_number   1
_chemical_formula_structural   Cs27Sn14Pb13I81
_chemical_formula_sum   'Cs27 Sn14 Pb13 I81'
_cell_volume   6832.63310621
_cell_formula_units_Z   1
loop_
 _symmetry_equiv_pos_site_id
 _symmetry_equiv_pos_as_xyz
  1  'x, y, z'
loop_
 _atom_site_type_symbol
 _atom_site_label
 _atom_site_symmetry_multiplicity
 _atom_site_fract_x
 _atom_site_fract_y
 _atom_site_fract_z
 _atom_site_occupancy
  Cs  Cs0  1  0.00737303  0.00396199  0.00114783  1
  Cs  Cs1  1  0.00154020  0.00110142  0.33365637  1
  Cs  Cs2  1  0.00240186  0.00120002  0.66586176  1
  Cs  Cs3  1  -0.01201681  0.32773760  -0.00059184  1
  Cs  Cs4  1  -0.00028398  0.33197257  0.33232835  1
  Cs  Cs5  1  -0.00156153  0.33463977  0.66839897  1
  Cs  Cs6  1  0.00441581  0.66804633  -0.00189746  1
  Cs  Cs7  1  0.00034745  0.66621981  0.33416966  1
  Cs  Cs8  1  -0.00010379  0.66508047  0.66702430  1
  Cs  Cs9  1  0.32640271  0.00617840  -0.00089914  1
  Cs  Cs10  1  0.33060817  0.00112529  0.33502890  1
  Cs  Cs11  1  0.33362401  0.00242016  0.66611645  1
  Cs  Cs12  1  0.33858049  0.33205635  0.00141104  1
  Cs  Cs13  1  0.33283993  0.33406303  0.33276101  1
  Cs  Cs14  1  0.33284980  0.33561421  0.66518741  1
  Cs  Cs15  1  0.33102503  0.66586178  -0.00189829  1
  Cs  Cs16  1  0.33425610  0.66568855  0.33360094  1
  Cs  Cs17  1  0.33495489  0.66545310  0.66696629  1
  Cs  Cs18  1  0.66631277  0.00284645  -0.00053923  1
  Cs  Cs19  1  0.66709195  -0.00426688  0.33657321  1
  Cs  Cs20  1  0.66551407  -0.00274480  0.66462977  1
  Cs  Cs21  1  0.67291932  0.32341906  0.00747467  1
  Cs  Cs22  1  0.66774143  0.33486216  0.32690390  1
  Cs  Cs23  1  0.66863211  0.33302758  0.66827481  1
  Cs  Cs24  1  0.66520102  0.66714170  0.00057799  1
  Cs  Cs25  1  0.66632075  0.66843943  0.33333382  1
  Cs  Cs26  1  0.66548489  0.66866320  0.66615557  1
  Sn  Sn27  1  0.16690036  0.83231499  0.50024485  1
  Sn  Sn28  1  0.83222308  0.16597298  0.50020096  1
  Sn  Sn29  1  0.50034878  0.83285016  0.83369515  1
  Sn  Sn30  1  0.49965346  0.49982598  0.50061317  1
  Sn  Sn31  1  0.16734085  0.50104952  0.50007447  1
  Sn  Sn32  1  0.50001401  0.83326962  0.16609404  1
  Sn  Sn33  1  0.16733920  0.49999491  0.83351494  1
  Sn  Sn34  1  0.50004895  0.50036539  0.83308035  1
  Sn  Sn35  1  0.49970370  0.83304472  0.50009596  1
  Sn  Sn36  1  0.83287773  0.83305286  0.83352307  1
  Sn  Sn37  1  0.83364739  0.83385424  0.50016692  1
  Sn  Sn38  1  0.50112546  0.16718761  0.50006718  1
  Sn  Sn39  1  0.16648829  0.49997481  0.16634334  1
  Sn  Sn40  1  0.83296900  0.83294048  0.16628411  1
  Pb  Pb41  1  0.49989524  0.16320988  0.16971615  1
  Pb  Pb42  1  0.83303630  0.16299408  0.83049662  1
  Pb  Pb43  1  0.16676118  0.17037972  0.16680552  1
  Pb  Pb44  1  0.83273319  0.50019858  0.49998463  1
  Pb  Pb45  1  0.49882753  0.50195963  0.16618023  1
  Pb  Pb46  1  0.16690046  0.17092582  0.83303079  1
  Pb  Pb47  1  0.16726573  0.83199916  0.83091944  1
  Pb  Pb48  1  0.50005578  0.16681909  0.83110933  1
  Pb  Pb49  1  0.83199023  0.50210572  0.83340540  1
  Pb  Pb50  1  0.83321763  0.16304827  0.16968776  1
  Pb  Pb51  1  0.83574901  0.50287439  0.16653634  1
  Pb  Pb52  1  0.16699333  0.83200122  0.16890201  1
  Pb  Pb53  1  0.16671463  0.16738322  0.50015151  1
  I  I54  1  0.16607467  -0.00026000  0.16912733  1
  I  I55  1  0.16880620  -0.00300383  0.49926229  1
  I  I56  1  0.16645076  -0.00017503  0.83160308  1
  I  I57  1  0.16914221  0.33856031  0.17262495  1
  I  I58  1  0.16990434  0.33719148  0.50019688  1
  I  I59  1  0.17365500  0.33923783  0.82749492  1
  I  I60  1  0.16645796  0.66405230  0.16649828  1
  I  I61  1  0.16900927  0.66636325  0.49982312  1
  I  I62  1  0.16760939  0.66373935  0.83374841  1
  I  I63  1  0.50428924  -0.00524286  0.16680737  1
  I  I64  1  0.50052884  -0.00195991  0.49970138  1
  I  I65  1  0.50550562  -0.00367517  0.83150754  1
  I  I66  1  0.49723653  0.33338745  0.16727350  1
  I  I67  1  0.49836934  0.33451165  0.50541214  1
  I  I68  1  0.49262079  0.33700997  0.82671731  1
  I  I69  1  0.50346134  0.67023264  0.17298236  1
  I  I70  1  0.49928904  0.66783739  0.50029609  1
  I  I71  1  0.49977313  0.66754501  0.82740262  1
  I  I72  1  0.82938585  -0.00499128  0.16555883  1
  I  I73  1  0.82999091  -0.00240707  0.49988235  1
  I  I74  1  0.82579114  -0.00528900  0.83437539  1
  I  I75  1  0.83539846  0.33299381  0.16785856  1
  I  I76  1  0.83110035  0.33073765  0.50025706  1
  I  I77  1  0.83523105  0.33311833  0.83152716  1
  I  I78  1  0.82892736  0.67111171  0.17262504  1
  I  I79  1  0.83165833  0.67044708  0.49982635  1
  I  I80  1  0.83226024  0.67059359  0.82785214  1
  I  I81  1  0.16655419  0.16390857  -0.00002818  1
  I  I82  1  0.16650031  0.16784449  0.33396004  1
  I  I83  1  0.16595733  0.16670327  0.66607702  1
  I  I84  1  0.17173281  0.50266524  -0.00078818  1
  I  I85  1  0.17040536  0.50474157  0.33508383  1
  I  I86  1  0.17098012  0.50448608  0.66562325  1
  I  I87  1  0.16576677  0.83072709  -0.00013951  1
  I  I88  1  0.16700455  0.82765205  0.33729682  1
  I  I89  1  0.16603707  0.82812550  0.66258055  1
  I  I90  1  0.49901614  0.16745700  0.00009774  1
  I  I91  1  0.50329686  0.16785514  0.33819629  1
  I  I92  1  0.50313442  0.16140552  0.66263034  1
  I  I93  1  0.49366916  0.50771881  -0.00307555  1
  I  I94  1  0.49600797  0.50139519  0.33657146  1
  I  I95  1  0.49161992  0.50563575  0.66546797  1
  I  I96  1  0.50816900  0.82593313  -0.00080131  1
  I  I97  1  0.50265573  0.83290850  0.33516217  1
  I  I98  1  0.50260712  0.83244340  0.66541637  1
  I  I99  1  0.83458563  0.16721338  0.00009930  1
  I  I100  1  0.82965975  0.16100321  0.33749729  1
  I  I101  1  0.82966079  0.16100086  0.66260029  1
  I  I102  1  0.83470162  0.50283610  -0.00012638  1
  I  I103  1  0.83382985  0.50238239  0.33363783  1
  I  I104  1  0.83887768  0.50171710  0.66644854  1
  I  I105  1  0.82551042  0.82883890  -0.00020897  1
  I  I106  1  0.83060798  0.83643444  0.33469033  1
  I  I107  1  0.83035199  0.83633384  0.66557463  1
  I  I108  1  -0.00020649  0.16457519  0.17003661  1
  I  I109  1  -0.00269585  0.16166429  0.49952256  1
  I  I110  1  -0.00020165  0.16639660  0.83012424  1
  I  I111  1  0.00401500  0.50333778  0.16968433  1
  I  I112  1  0.00303539  0.50388660  0.50065223  1
  I  I113  1  0.00268233  0.50242453  0.83072944  1
  I  I114  1  -0.00256165  0.83091391  0.16837053  1
  I  I115  1  -0.00055614  0.83336219  0.49958456  1
  I  I116  1  -0.00230651  0.83129101  0.83186461  1
  I  I117  1  0.33350758  0.16232155  0.16989352  1
  I  I118  1  0.33639101  0.16304363  0.50018771  1
  I  I119  1  0.33362362  0.15993897  0.83018344  1
  I  I120  1  0.33077147  0.50481265  0.16873978  1
  I  I121  1  0.33368645  0.50362366  0.50030925  1
  I  I122  1  0.33405840  0.50731736  0.83092001  1
  I  I123  1  0.33620053  0.83090544  0.16852079  1
  I  I124  1  0.33468353  0.83299062  0.49938676  1
  I  I125  1  0.33669174  0.83072633  0.83247504  1
  I  I126  1  0.66659799  0.17212813  0.16519247  1
  I  I127  1  0.66597065  0.16116716  0.50095103  1
  I  I128  1  0.66660942  0.17288209  0.83403916  1
  I  I129  1  0.66653859  0.49941883  0.16790691  1
  I  I130  1  0.66290460  0.50329552  0.50514311  1
  I  I131  1  0.66265331  0.50418566  0.82468638  1
  I  I132  1  0.66631800  0.83182663  0.17261189  1
  I  I133  1  0.66592558  0.83368956  0.49985090  1
  I  I134  1  0.66554307  0.82743520  0.82796504  1
