# generated using pymatgen
data_Cs27Sn13Pb14I81
_symmetry_space_group_name_H-M   'P 1'
_cell_length_a   18.98461770
_cell_length_b   18.97082908
_cell_length_c   18.97511591
_cell_angle_alpha   90.00315367
_cell_angle_beta   89.99935948
_cell_angle_gamma   89.99956700
_symmetry_Int_Tables_number   1
_chemical_formula_structural   Cs27Sn13Pb14I81
_chemical_formula_sum   'Cs27 Sn13 Pb14 I81'
_cell_volume   6833.96269659
_cell_formula_units_Z   1
loop_
 _symmetry_equiv_pos_site_id
 _symmetry_equiv_pos_as_xyz
  1  'x, y, z'
loop_
 _atom_site_type_symbol
 _atom_site_label
 _atom_site_symmetry_multiplicity
 _atom_site_fract_x
 _atom_site_fract_y
 _atom_site_fract_z
 _atom_site_occupancy
  Cs  Cs0  1  -0.00129128  0.00135801  -0.00125063  1
  Cs  Cs1  1  0.00186724  -0.00172384  0.33487239  1
  Cs  Cs2  1  0.00270485  -0.00159941  0.66944107  1
  Cs  Cs3  1  0.00137593  0.33276298  0.00348040  1
  Cs  Cs4  1  0.00247780  0.33308756  0.33030837  1
  Cs  Cs5  1  -0.00664745  0.33404245  0.66683691  1
  Cs  Cs6  1  0.00723853  0.66697778  -0.00095785  1
  Cs  Cs7  1  -0.00412242  0.66830009  0.33540090  1
  Cs  Cs8  1  0.00088787  0.66658148  0.66439105  1
  Cs  Cs9  1  0.33420993  -0.00019358  -0.00073747  1
  Cs  Cs10  1  0.33334510  -0.00103947  0.34257632  1
  Cs  Cs11  1  0.33189820  -0.00121126  0.66202794  1
  Cs  Cs12  1  0.33372614  0.33544557  0.00250757  1
  Cs  Cs13  1  0.33124298  0.33395971  0.33399945  1
  Cs  Cs14  1  0.33653943  0.33364300  0.66312230  1
  Cs  Cs15  1  0.32936873  0.66551050  -0.00170907  1
  Cs  Cs16  1  0.33559726  0.66543925  0.33282133  1
  Cs  Cs17  1  0.32825689  0.66632815  0.66911295  1
  Cs  Cs18  1  0.66702726  0.00079665  0.00001633  1
  Cs  Cs19  1  0.66467284  -0.00688046  0.33264452  1
  Cs  Cs20  1  0.66497826  0.00314118  0.66974095  1
  Cs  Cs21  1  0.66573990  0.33171513  0.00003447  1
  Cs  Cs22  1  0.66558808  0.33385472  0.33198984  1
  Cs  Cs23  1  0.66791592  0.33412812  0.66732875  1
  Cs  Cs24  1  0.66467597  0.66822908  0.00176681  1
  Cs  Cs25  1  0.66754077  0.67203464  0.33240862  1
  Cs  Cs26  1  0.67097003  0.66082198  0.66641241  1
  Sn  Sn27  1  0.83241831  0.16706213  0.16713824  1
  Sn  Sn28  1  0.83244511  0.83367520  0.83366936  1
  Sn  Sn29  1  0.16694728  0.83393228  0.16692019  1
  Sn  Sn30  1  0.16705873  0.49960256  0.49988512  1
  Sn  Sn31  1  0.83331859  0.16605081  0.83355937  1
  Sn  Sn32  1  0.83296898  0.16628012  0.49936662  1
  Sn  Sn33  1  0.50045600  0.16695310  0.16644856  1
  Sn  Sn34  1  0.16712924  0.16725145  0.83345588  1
  Sn  Sn35  1  0.50083766  0.83391203  0.83334717  1
  Sn  Sn36  1  0.83249515  0.49960456  0.16619089  1
  Sn  Sn37  1  0.50097207  0.49930045  0.16744542  1
  Sn  Sn38  1  0.49959077  0.49991445  0.49912937  1
  Sn  Sn39  1  0.49959152  0.16599871  0.83403835  1
  Pb  Pb40  1  0.16652583  0.49700941  0.83087063  1
  Pb  Pb41  1  0.83306323  0.83627384  0.50318276  1
  Pb  Pb42  1  0.16666662  0.83095626  0.49751489  1
  Pb  Pb43  1  0.16722647  0.16493006  0.16544266  1
  Pb  Pb44  1  0.49819923  0.83367497  0.16484766  1
  Pb  Pb45  1  0.16678647  0.83542446  0.83448907  1
  Pb  Pb46  1  0.83338330  0.49985482  0.83632216  1
  Pb  Pb47  1  0.83279782  0.49814759  0.49733235  1
  Pb  Pb48  1  0.83485998  0.83381486  0.16444034  1
  Pb  Pb49  1  0.50194826  0.16819224  0.49971697  1
  Pb  Pb50  1  0.16688994  0.50166553  0.16832458  1
  Pb  Pb51  1  0.50006945  0.49977975  0.83382769  1
  Pb  Pb52  1  0.16419229  0.16859335  0.50256615  1
  Pb  Pb53  1  0.50028482  0.83018925  0.50351809  1
  I  I54  1  0.16530777  -0.00243133  0.16380779  1
  I  I55  1  0.16547976  0.00026902  0.50003400  1
  I  I56  1  0.16532625  0.00337090  0.83430000  1
  I  I57  1  0.16594462  0.33321980  0.16604661  1
  I  I58  1  0.17113086  0.33621525  0.49858775  1
  I  I59  1  0.16570391  0.32888301  0.83571075  1
  I  I60  1  0.16626927  0.66917911  0.16492163  1
  I  I61  1  0.16985341  0.66297064  0.50077111  1
  I  I62  1  0.16668851  0.66686487  0.83381296  1
  I  I63  1  0.50436512  0.00332282  0.16282976  1
  I  I64  1  0.50084547  0.00015608  0.49742703  1
  I  I65  1  0.50179172  0.00198744  0.83942957  1
  I  I66  1  0.50334458  0.33274709  0.16366788  1
  I  I67  1  0.49728719  0.33616869  0.50078942  1
  I  I68  1  0.50177865  0.32979674  0.83414842  1
  I  I69  1  0.50307840  0.66378489  0.16900774  1
  I  I70  1  0.49744346  0.66215245  0.49393701  1
  I  I71  1  0.50462788  0.66935560  0.83348389  1
  I  I72  1  0.83016524  0.00369719  0.16683953  1
  I  I73  1  0.83336103  0.00447985  0.49459024  1
  I  I74  1  0.83278331  0.00209717  0.83536889  1
  I  I75  1  0.83083315  0.33181519  0.16411788  1
  I  I76  1  0.83300918  0.33025076  0.50646532  1
  I  I77  1  0.83201725  0.32947886  0.83119071  1
  I  I78  1  0.83038346  0.66421557  0.16589348  1
  I  I79  1  0.83434335  0.66642615  0.50056287  1
  I  I80  1  0.82824885  0.66951362  0.83518167  1
  I  I81  1  0.16215420  0.16584311  -0.00272319  1
  I  I82  1  0.16584467  0.16585729  0.33348057  1
  I  I83  1  0.16746767  0.16596208  0.67070099  1
  I  I84  1  0.16684005  0.50128384  0.00029459  1
  I  I85  1  0.16814182  0.49934226  0.33587753  1
  I  I86  1  0.17305396  0.50030360  0.66306544  1
  I  I87  1  0.16619749  0.83162048  0.00206738  1
  I  I88  1  0.16618616  0.83527803  0.32986176  1
  I  I89  1  0.16620463  0.83281721  0.66679951  1
  I  I90  1  0.50436357  0.16890778  -0.00023838  1
  I  I91  1  0.50438988  0.16958809  0.33013728  1
  I  I92  1  0.50130956  0.16499541  0.66973625  1
  I  I93  1  0.50438753  0.49818804  0.00320381  1
  I  I94  1  0.49928015  0.49352317  0.33192881  1
  I  I95  1  0.49569173  0.49979460  0.66435314  1
  I  I96  1  0.50327461  0.83379849  -0.00311970  1
  I  I97  1  0.49777180  0.83577408  0.33322955  1
  I  I98  1  0.50239916  0.84062996  0.67150528  1
  I  I99  1  0.83272896  0.16668661  -0.00025398  1
  I  I100  1  0.82967469  0.17304627  0.33184768  1
  I  I101  1  0.83373785  0.16321524  0.66817478  1
  I  I102  1  0.82740417  0.49406274  0.00415717  1
  I  I103  1  0.83295278  0.49425203  0.32953762  1
  I  I104  1  0.83319942  0.49885023  0.66658652  1
  I  I105  1  0.83030655  0.83982520  -0.00329267  1
  I  I106  1  0.83584059  0.83395356  0.33303230  1
  I  I107  1  0.83095709  0.83793061  0.67140020  1
  I  I108  1  -0.00316641  0.17003278  0.16470697  1
  I  I109  1  -0.00373282  0.16997984  0.49943279  1
  I  I110  1  -0.00168244  0.16317770  0.83330986  1
  I  I111  1  -0.00257262  0.49574196  0.16710494  1
  I  I112  1  0.00163838  0.49798686  0.49929087  1
  I  I113  1  -0.00016683  0.50019718  0.83321252  1
  I  I114  1  0.00220752  0.83274030  0.16327426  1
  I  I115  1  -0.00017084  0.83023107  0.50197658  1
  I  I116  1  -0.00256184  0.83876863  0.83548382  1
  I  I117  1  0.33669775  0.17056258  0.16040320  1
  I  I118  1  0.33350298  0.16679473  0.50071431  1
  I  I119  1  0.33486480  0.16348517  0.83857289  1
  I  I120  1  0.33648296  0.49633723  0.16806914  1
  I  I121  1  0.33442368  0.49824953  0.49436050  1
  I  I122  1  0.33349434  0.50062219  0.83763835  1
  I  I123  1  0.33099831  0.83238958  0.16224986  1
  I  I124  1  0.33349889  0.83639856  0.50219681  1
  I  I125  1  0.33602692  0.83729443  0.83549957  1
  I  I126  1  0.66696567  0.17109504  0.16120206  1
  I  I127  1  0.66966307  0.17046544  0.50538675  1
  I  I128  1  0.66686324  0.16269035  0.83430689  1
  I  I129  1  0.66590473  0.49601352  0.17134658  1
  I  I130  1  0.66405257  0.49813395  0.49895321  1
  I  I131  1  0.66662478  0.49714910  0.82789150  1
  I  I132  1  0.66660428  0.83232518  0.16657636  1
  I  I133  1  0.66670232  0.83006570  0.49608292  1
  I  I134  1  0.66675637  0.84219974  0.83490519  1
