# generated using pymatgen
data_Cs27Sn13Pb14I81
_symmetry_space_group_name_H-M   'P 1'
_cell_length_a   18.98303807
_cell_length_b   18.97370890
_cell_length_c   18.97341954
_cell_angle_alpha   90.00065193
_cell_angle_beta   89.99975044
_cell_angle_gamma   90.00019884
_symmetry_Int_Tables_number   1
_chemical_formula_structural   Cs27Sn13Pb14I81
_chemical_formula_sum   'Cs27 Sn13 Pb14 I81'
_cell_volume   6833.82041341
_cell_formula_units_Z   1
loop_
 _symmetry_equiv_pos_site_id
 _symmetry_equiv_pos_as_xyz
  1  'x, y, z'
loop_
 _atom_site_type_symbol
 _atom_site_label
 _atom_site_symmetry_multiplicity
 _atom_site_fract_x
 _atom_site_fract_y
 _atom_site_fract_z
 _atom_site_occupancy
  Cs  Cs0  1  0.00354316  -0.00293603  -0.00271431  1
  Cs  Cs1  1  -0.00124084  0.00208235  0.33538005  1
  Cs  Cs2  1  -0.00010845  0.00057322  0.66848133  1
  Cs  Cs3  1  -0.00050080  0.33239904  -0.00139204  1
  Cs  Cs4  1  -0.00629138  0.34004325  0.34069182  1
  Cs  Cs5  1  0.00070457  0.33303598  0.66303078  1
  Cs  Cs6  1  0.00390833  0.67087938  0.00011950  1
  Cs  Cs7  1  0.00167837  0.66061362  0.33192655  1
  Cs  Cs8  1  -0.00163989  0.66729149  0.66891342  1
  Cs  Cs9  1  0.33057036  0.00138234  0.00042627  1
  Cs  Cs10  1  0.33537213  -0.00128058  0.33493583  1
  Cs  Cs11  1  0.33584794  0.00111615  0.66500371  1
  Cs  Cs12  1  0.33609485  0.33281100  -0.00096857  1
  Cs  Cs13  1  0.33074906  0.33530720  0.33185364  1
  Cs  Cs14  1  0.33210061  0.33261642  0.66800275  1
  Cs  Cs15  1  0.33058212  0.66358896  0.00302836  1
  Cs  Cs16  1  0.32930190  0.66760888  0.33309049  1
  Cs  Cs17  1  0.33842224  0.66626278  0.66515663  1
  Cs  Cs18  1  0.66768715  0.00085357  0.00136962  1
  Cs  Cs19  1  0.66658686  -0.00167296  0.33089531  1
  Cs  Cs20  1  0.66403269  -0.00166668  0.66682465  1
  Cs  Cs21  1  0.66462557  0.33422891  0.00415554  1
  Cs  Cs22  1  0.67451102  0.33332035  0.32473998  1
  Cs  Cs23  1  0.66643242  0.33456103  0.66838599  1
  Cs  Cs24  1  0.66592764  0.66457349  -0.00066732  1
  Cs  Cs25  1  0.66880739  0.67062182  0.33518568  1
  Cs  Cs26  1  0.66400473  0.66776801  0.66623736  1
  Sn  Sn27  1  0.16620050  0.16706419  0.16691831  1
  Sn  Sn28  1  0.50036012  0.49802025  0.49948819  1
  Sn  Sn29  1  0.16667023  0.16748751  0.83392712  1
  Sn  Sn30  1  0.50041498  0.16855142  0.49993456  1
  Sn  Sn31  1  0.83487634  0.83364742  0.49940629  1
  Sn  Sn32  1  0.83418038  0.49913398  0.83325781  1
  Sn  Sn33  1  0.50027789  0.16584681  0.83280551  1
  Sn  Sn34  1  0.83305634  0.83352923  0.16724622  1
  Sn  Sn35  1  0.50030652  0.83348828  0.16517074  1
  Sn  Sn36  1  0.49972996  0.83397264  0.83493206  1
  Sn  Sn37  1  0.83310531  0.16746284  0.83317373  1
  Sn  Sn38  1  0.16587405  0.49928638  0.83308153  1
  Sn  Sn39  1  0.16526805  0.83349447  0.50035090  1
  Pb  Pb40  1  0.16644901  0.83509588  0.16884994  1
  Pb  Pb41  1  0.83139184  0.83344550  0.83352708  1
  Pb  Pb42  1  0.50005411  0.50278041  0.17001775  1
  Pb  Pb43  1  0.49855663  0.16506720  0.16656352  1
  Pb  Pb44  1  0.83600875  0.16457569  0.16423596  1
  Pb  Pb45  1  0.16845614  0.50208181  0.50251009  1
  Pb  Pb46  1  0.83067167  0.16476202  0.50214551  1
  Pb  Pb47  1  0.83119162  0.50213901  0.50228495  1
  Pb  Pb48  1  0.50027120  0.83374008  0.49973598  1
  Pb  Pb49  1  0.49994844  0.49939014  0.83248623  1
  Pb  Pb50  1  0.16941696  0.83350049  0.83156468  1
  Pb  Pb51  1  0.16832409  0.16549640  0.50028186  1
  Pb  Pb52  1  0.83345846  0.50268451  0.16368736  1
  Pb  Pb53  1  0.16649667  0.49675607  0.16421453  1
  I  I54  1  0.16740127  0.00257195  0.15815145  1
  I  I55  1  0.16724946  -0.00259226  0.50269351  1
  I  I56  1  0.16476383  0.00303123  0.83553899  1
  I  I57  1  0.16978758  0.32888387  0.16425108  1
  I  I58  1  0.16783118  0.33333699  0.49875980  1
  I  I59  1  0.16901251  0.33194407  0.83646438  1
  I  I60  1  0.16746624  0.66679259  0.16599073  1
  I  I61  1  0.16728052  0.67008927  0.50095541  1
  I  I62  1  0.16337695  0.66449714  0.83035217  1
  I  I63  1  0.50276068  -0.00308705  0.16766169  1
  I  I64  1  0.49925025  0.00203048  0.50308372  1
  I  I65  1  0.50025371  0.00105108  0.82975529  1
  I  I66  1  0.49832277  0.33315385  0.16423517  1
  I  I67  1  0.49752193  0.33222059  0.50997238  1
  I  I68  1  0.49930531  0.33012404  0.82987800  1
  I  I69  1  0.50265725  0.67120759  0.16124425  1
  I  I70  1  0.50001150  0.66539277  0.50212068  1
  I  I71  1  0.50086154  0.66884108  0.83296553  1
  I  I72  1  0.82865288  -0.00336179  0.16816272  1
  I  I73  1  0.83346328  -0.00342912  0.49976595  1
  I  I74  1  0.83507613  0.00257640  0.83310199  1
  I  I75  1  0.83384015  0.33310283  0.16736248  1
  I  I76  1  0.83376045  0.33324774  0.49968870  1
  I  I77  1  0.83174185  0.33240722  0.83245427  1
  I  I78  1  0.82915775  0.67087576  0.16870905  1
  I  I79  1  0.83285250  0.67033279  0.49958604  1
  I  I80  1  0.83588405  0.66468883  0.83275349  1
  I  I81  1  0.16940635  0.16787365  -0.00243085  1
  I  I82  1  0.17128923  0.16045159  0.33134783  1
  I  I83  1  0.16632386  0.16851350  0.67017546  1
  I  I84  1  0.16496949  0.50146422  -0.00428715  1
  I  I85  1  0.16897028  0.50022853  0.33361602  1
  I  I86  1  0.16404247  0.49326194  0.67045780  1
  I  I87  1  0.16529227  0.83201509  -0.00024755  1
  I  I88  1  0.17007747  0.83612315  0.33652324  1
  I  I89  1  0.16351031  0.83532088  0.66397212  1
  I  I90  1  0.50088400  0.16343701  -0.00344353  1
  I  I91  1  0.49618753  0.16606407  0.33584376  1
  I  I92  1  0.49769519  0.16268795  0.66838443  1
  I  I93  1  0.49990906  0.49973960  0.00001520  1
  I  I94  1  0.49908506  0.49634538  0.33786765  1
  I  I95  1  0.49980326  0.50331902  0.66478837  1
  I  I96  1  0.50528928  0.83898027  -0.00069088  1
  I  I97  1  0.50094415  0.83353901  0.33137155  1
  I  I98  1  0.50015535  0.83462745  0.66861692  1
  I  I99  1  0.82769936  0.16768773  -0.00428333  1
  I  I100  1  0.83330149  0.16580640  0.33333061  1
  I  I101  1  0.83782208  0.16678952  0.67066547  1
  I  I102  1  0.83466841  0.49812979  -0.00450615  1
  I  I103  1  0.83186656  0.49983396  0.33347428  1
  I  I104  1  0.83605480  0.49896782  0.67025629  1
  I  I105  1  0.82971480  0.83364179  0.00198536  1
  I  I106  1  0.82876097  0.83439355  0.33345307  1
  I  I107  1  0.83402055  0.83332102  0.66482194  1
  I  I108  1  0.00349194  0.16202329  0.15949816  1
  I  I109  1  -0.00021384  0.16453540  0.50138205  1
  I  I110  1  0.00037786  0.16981379  0.83789146  1
  I  I111  1  0.00001673  0.50346469  0.16845258  1
  I  I112  1  -0.00015529  0.50089145  0.50008983  1
  I  I113  1  0.00011561  0.49321608  0.83242534  1
  I  I114  1  -0.00257513  0.83515907  0.16803152  1
  I  I115  1  -0.00062687  0.83443832  0.49646977  1
  I  I116  1  0.00005374  0.83514305  0.83435848  1
  I  I117  1  0.33088546  0.16270228  0.16010432  1
  I  I118  1  0.33641201  0.16504829  0.50666793  1
  I  I119  1  0.33355336  0.16602330  0.83304320  1
  I  I120  1  0.33330058  0.50367972  0.16425027  1
  I  I121  1  0.33628336  0.50076636  0.50428449  1
  I  I122  1  0.33117877  0.49758890  0.83114954  1
  I  I123  1  0.33572838  0.83522402  0.16504895  1
  I  I124  1  0.33209547  0.83373053  0.50129338  1
  I  I125  1  0.33730107  0.83695402  0.83516001  1
  I  I126  1  0.66688557  0.16583560  0.16589388  1
  I  I127  1  0.66261964  0.16598005  0.50665520  1
  I  I128  1  0.66597571  0.16520771  0.82776986  1
  I  I129  1  0.66669814  0.49771801  0.16321639  1
  I  I130  1  0.66353014  0.50043781  0.50518619  1
  I  I131  1  0.66871892  0.49870378  0.83095566  1
  I  I132  1  0.66629816  0.83495639  0.16925885  1
  I  I133  1  0.66848758  0.83312261  0.49983726  1
  I  I134  1  0.66354976  0.83665801  0.83099715  1
