# generated using pymatgen
data_Cs27Sn13Pb14I81
_symmetry_space_group_name_H-M   'P 1'
_cell_length_a   19.05631321
_cell_length_b   19.04002980
_cell_length_c   19.04927260
_cell_angle_alpha   90.00499208
_cell_angle_beta   90.00059578
_cell_angle_gamma   89.99851667
_symmetry_Int_Tables_number   1
_chemical_formula_structural   Cs27Sn13Pb14I81
_chemical_formula_sum   'Cs27 Sn13 Pb14 I81'
_cell_volume   6911.70034062
_cell_formula_units_Z   1
loop_
 _symmetry_equiv_pos_site_id
 _symmetry_equiv_pos_as_xyz
  1  'x, y, z'
loop_
 _atom_site_type_symbol
 _atom_site_label
 _atom_site_symmetry_multiplicity
 _atom_site_fract_x
 _atom_site_fract_y
 _atom_site_fract_z
 _atom_site_occupancy
  Cs  Cs0  1  -0.00552765  0.00310815  -0.00084083  1
  Cs  Cs1  1  0.00056710  -0.00105904  0.33075738  1
  Cs  Cs2  1  0.00004159  -0.00331120  0.67207224  1
  Cs  Cs3  1  -0.00290961  0.33341176  0.00575740  1
  Cs  Cs4  1  -0.00688860  0.33225879  0.32913762  1
  Cs  Cs5  1  -0.00427604  0.33448855  0.66106256  1
  Cs  Cs6  1  -0.00304065  0.66412171  0.00170618  1
  Cs  Cs7  1  0.00002789  0.66850985  0.33292358  1
  Cs  Cs8  1  0.01719544  0.66962510  0.66718604  1
  Cs  Cs9  1  0.33915099  0.00341271  -0.00060381  1
  Cs  Cs10  1  0.33661244  0.00153643  0.33684193  1
  Cs  Cs11  1  0.32979328  0.00374919  0.66129016  1
  Cs  Cs12  1  0.33221355  0.33096368  -0.00117879  1
  Cs  Cs13  1  0.33655319  0.32933838  0.33173512  1
  Cs  Cs14  1  0.33414005  0.33328662  0.67024890  1
  Cs  Cs15  1  0.33645297  0.66742317  -0.00527680  1
  Cs  Cs16  1  0.32877883  0.66909665  0.33280355  1
  Cs  Cs17  1  0.31886081  0.65533758  0.67633524  1
  Cs  Cs18  1  0.66618624  -0.00515520  -0.00830894  1
  Cs  Cs19  1  0.66291129  -0.00526863  0.33727762  1
  Cs  Cs20  1  0.67084878  0.00105128  0.66611656  1
  Cs  Cs21  1  0.66880209  0.33500636  0.00225438  1
  Cs  Cs22  1  0.66781406  0.33464665  0.33661167  1
  Cs  Cs23  1  0.66685271  0.33553914  0.65866966  1
  Cs  Cs24  1  0.66843103  0.66882341  0.00022873  1
  Cs  Cs25  1  0.66916952  0.66944898  0.33145315  1
  Cs  Cs26  1  0.66291672  0.66231671  0.66865522  1
  Sn  Sn27  1  0.49995257  0.16682574  0.83285736  1
  Sn  Sn28  1  0.16602596  0.83315900  0.16611352  1
  Sn  Sn29  1  0.16692485  0.16691013  0.83245411  1
  Sn  Sn30  1  0.83432664  0.83306622  0.16757502  1
  Sn  Sn31  1  0.49920910  0.16587873  0.50023350  1
  Sn  Sn32  1  0.49982508  0.49963791  0.16711499  1
  Sn  Sn33  1  0.50071002  0.16703157  0.16672378  1
  Sn  Sn34  1  0.16703179  0.16703099  0.50047692  1
  Sn  Sn35  1  0.83338309  0.49983504  0.83348517  1
  Sn  Sn36  1  0.16713485  0.50077822  0.16696355  1
  Sn  Sn37  1  0.83303340  0.50116078  0.16623631  1
  Sn  Sn38  1  0.50003074  0.83261655  0.50081058  1
  Sn  Sn39  1  0.83238599  0.83283005  0.49979336  1
  Pb  Pb40  1  0.50199000  0.49742220  0.83599399  1
  Pb  Pb41  1  0.83002365  0.16572038  0.16684072  1
  Pb  Pb42  1  0.83343808  0.50349432  0.49985080  1
  Pb  Pb43  1  0.83333120  0.83053553  0.83285928  1
  Pb  Pb44  1  0.83319523  0.16937945  0.83327760  1
  Pb  Pb45  1  0.16688028  0.83615610  0.83700261  1
  Pb  Pb46  1  0.16427756  0.49682638  0.83648906  1
  Pb  Pb47  1  0.49958770  0.50056655  0.49786098  1
  Pb  Pb48  1  0.49999072  0.83306749  0.16784812  1
  Pb  Pb49  1  0.16857583  0.16633030  0.16674983  1
  Pb  Pb50  1  0.49966283  0.83551013  0.82921209  1
  Pb  Pb51  1  0.83344604  0.16390184  0.49973239  1
  Pb  Pb52  1  0.16711548  0.83537301  0.49800848  1
  Pb  Pb53  1  0.16690794  0.49656259  0.49693052  1
  I  I54  1  0.16079966  -0.00239525  0.16738726  1
  I  I55  1  0.16926126  0.00300523  0.50058712  1
  I  I56  1  0.17076896  0.00385014  0.83072830  1
  I  I57  1  0.16247270  0.33574731  0.16629384  1
  I  I58  1  0.17665513  0.32886950  0.50295863  1
  I  I59  1  0.17384447  0.32974987  0.83115369  1
  I  I60  1  0.16845113  0.66629728  0.16892748  1
  I  I61  1  0.16665910  0.66667218  0.50206121  1
  I  I62  1  0.16520229  0.66645574  0.82915300  1
  I  I63  1  0.49809612  0.00288473  0.16489545  1
  I  I64  1  0.50047197  0.00152024  0.49482830  1
  I  I65  1  0.49749669  0.00402832  0.84469946  1
  I  I66  1  0.49900416  0.33292812  0.16911232  1
  I  I67  1  0.49486544  0.32996527  0.50208134  1
  I  I68  1  0.49504295  0.32963012  0.82656735  1
  I  I69  1  0.50059883  0.66381316  0.17011140  1
  I  I70  1  0.50945673  0.66995959  0.49319981  1
  I  I71  1  0.50232246  0.66645979  0.83387090  1
  I  I72  1  0.84001721  -0.00339561  0.17199376  1
  I  I73  1  0.83143959  -0.00338461  0.49037891  1
  I  I74  1  0.83332101  -0.00015007  0.83491774  1
  I  I75  1  0.83800135  0.33611022  0.16133380  1
  I  I76  1  0.83326283  0.33365904  0.49951253  1
  I  I77  1  0.83393902  0.33650902  0.84574077  1
  I  I78  1  0.83078209  0.66617626  0.16664700  1
  I  I79  1  0.82356499  0.67071271  0.49582921  1
  I  I80  1  0.83150707  0.66333781  0.83882037  1
  I  I81  1  0.17289101  0.16697788  -0.00173342  1
  I  I82  1  0.17317172  0.16624667  0.33518844  1
  I  I83  1  0.17814657  0.16585418  0.66631420  1
  I  I84  1  0.16993820  0.50139215  0.00405461  1
  I  I85  1  0.16213002  0.50210835  0.32890612  1
  I  I86  1  0.16362777  0.50321521  0.66692464  1
  I  I87  1  0.15785996  0.83025031  0.00473690  1
  I  I88  1  0.16497284  0.83136268  0.33038397  1
  I  I89  1  0.16508114  0.83200791  0.66683968  1
  I  I90  1  0.49407484  0.17339218  0.00023335  1
  I  I91  1  0.49445189  0.16686209  0.33361960  1
  I  I92  1  0.49487425  0.15916110  0.66615466  1
  I  I93  1  0.49671725  0.49368334  0.00421887  1
  I  I94  1  0.50452105  0.49089737  0.32960228  1
  I  I95  1  0.50518601  0.49957339  0.66673205  1
  I  I96  1  0.50091038  0.83514883  -0.00031582  1
  I  I97  1  0.50140074  0.84254413  0.33519802  1
  I  I98  1  0.51123212  0.84192677  0.66147990  1
  I  I99  1  0.83438714  0.16034335  0.00024051  1
  I  I100  1  0.83556173  0.17477922  0.33316078  1
  I  I101  1  0.82798857  0.16854875  0.66653080  1
  I  I102  1  0.83307167  0.50609982  0.00275879  1
  I  I103  1  0.83356814  0.50064061  0.32971087  1
  I  I104  1  0.83069869  0.49630430  0.66921476  1
  I  I105  1  0.83826744  0.83202307  0.00311722  1
  I  I106  1  0.83288963  0.82652147  0.33193370  1
  I  I107  1  0.82567053  0.83601976  0.66353908  1
  I  I108  1  -0.00040110  0.16982512  0.16657613  1
  I  I109  1  0.00301423  0.16695054  0.50635371  1
  I  I110  1  0.00292685  0.16673863  0.82728474  1
  I  I111  1  -0.00049661  0.50489948  0.16177275  1
  I  I112  1  -0.00010867  0.49748114  0.49809968  1
  I  I113  1  -0.00285668  0.49754112  0.84226631  1
  I  I114  1  -0.00088268  0.82403050  0.17444727  1
  I  I115  1  -0.00226750  0.83398824  0.49630865  1
  I  I116  1  -0.00008454  0.83832138  0.82590126  1
  I  I117  1  0.33642522  0.17090891  0.16708778  1
  I  I118  1  0.33498005  0.15843146  0.49894438  1
  I  I119  1  0.33421746  0.16728029  0.83364853  1
  I  I120  1  0.33344102  0.49861558  0.17035438  1
  I  I121  1  0.33335967  0.50806993  0.49706829  1
  I  I122  1  0.33308260  0.50283198  0.83380739  1
  I  I123  1  0.33130671  0.83018759  0.16885168  1
  I  I124  1  0.33607025  0.83977887  0.49460501  1
  I  I125  1  0.33332659  0.82769649  0.83627270  1
  I  I126  1  0.66220871  0.17255215  0.16749721  1
  I  I127  1  0.66330803  0.16570049  0.50050717  1
  I  I128  1  0.66345178  0.16711830  0.83365366  1
  I  I129  1  0.66708474  0.49905416  0.16179356  1
  I  I130  1  0.66668160  0.49200810  0.49773915  1
  I  I131  1  0.66933188  0.49839752  0.84205781  1
  I  I132  1  0.66908398  0.82995222  0.16928448  1
  I  I133  1  0.66643476  0.84211716  0.48998653  1
  I  I134  1  0.66669050  0.83730770  0.84088396  1
