# generated using pymatgen
data_Cs27Sn13Pb14I81
_symmetry_space_group_name_H-M   'P 1'
_cell_length_a   18.97196324
_cell_length_b   18.98110591
_cell_length_c   18.97757219
_cell_angle_alpha   90.00211126
_cell_angle_beta   90.00211601
_cell_angle_gamma   90.00103816
_symmetry_Int_Tables_number   1
_chemical_formula_structural   Cs27Sn13Pb14I81
_chemical_formula_sum   'Cs27 Sn13 Pb14 I81'
_cell_volume   6833.99156443
_cell_formula_units_Z   1
loop_
 _symmetry_equiv_pos_site_id
 _symmetry_equiv_pos_as_xyz
  1  'x, y, z'
loop_
 _atom_site_type_symbol
 _atom_site_label
 _atom_site_symmetry_multiplicity
 _atom_site_fract_x
 _atom_site_fract_y
 _atom_site_fract_z
 _atom_site_occupancy
  Cs  Cs0  1  0.00205730  -0.00008217  -0.00088248  1
  Cs  Cs1  1  -0.00044702  -0.00055810  0.33457237  1
  Cs  Cs2  1  -0.00111886  -0.00232746  0.66772198  1
  Cs  Cs3  1  -0.00122831  0.33232091  0.00064224  1
  Cs  Cs4  1  -0.00120971  0.32964669  0.33177950  1
  Cs  Cs5  1  0.00285572  0.33679677  0.66786329  1
  Cs  Cs6  1  0.00101005  0.66732516  -0.00157834  1
  Cs  Cs7  1  0.00003900  0.66955047  0.33239393  1
  Cs  Cs8  1  -0.00183206  0.66653685  0.66777739  1
  Cs  Cs9  1  0.33274584  -0.00017810  0.00205316  1
  Cs  Cs10  1  0.33149001  -0.00090473  0.33103595  1
  Cs  Cs11  1  0.33588725  0.00186866  0.66658643  1
  Cs  Cs12  1  0.33240750  0.33103167  -0.00250103  1
  Cs  Cs13  1  0.33308858  0.33245942  0.34117361  1
  Cs  Cs14  1  0.33997524  0.34014356  0.65839431  1
  Cs  Cs15  1  0.33769454  0.66655300  0.00009966  1
  Cs  Cs16  1  0.33579121  0.66753848  0.33278232  1
  Cs  Cs17  1  0.33414121  0.66022268  0.66642252  1
  Cs  Cs18  1  0.66343110  -0.00024620  -0.00228421  1
  Cs  Cs19  1  0.67124131  0.00094127  0.33660826  1
  Cs  Cs20  1  0.66583960  0.00189919  0.66562163  1
  Cs  Cs21  1  0.66831632  0.33466677  0.00333056  1
  Cs  Cs22  1  0.66799027  0.33441614  0.33078456  1
  Cs  Cs23  1  0.65892594  0.33307070  0.66609140  1
  Cs  Cs24  1  0.66111509  0.66653145  0.00263949  1
  Cs  Cs25  1  0.66465071  0.66469767  0.33149723  1
  Cs  Cs26  1  0.67081143  0.66728679  0.66674440  1
  Sn  Sn27  1  0.49908688  0.16646412  0.16662861  1
  Sn  Sn28  1  0.16662088  0.49992873  0.16660453  1
  Sn  Sn29  1  0.83418557  0.16653443  0.83328670  1
  Sn  Sn30  1  0.16770410  0.83340752  0.50057571  1
  Sn  Sn31  1  0.83360584  0.50001893  0.83276457  1
  Sn  Sn32  1  0.16605778  0.83310663  0.16627721  1
  Sn  Sn33  1  0.16635128  0.83385668  0.83317963  1
  Sn  Sn34  1  0.49910206  0.83356090  0.50021449  1
  Sn  Sn35  1  0.16749750  0.16677728  0.16599744  1
  Sn  Sn36  1  0.83391570  0.49972272  0.50030352  1
  Sn  Sn37  1  0.16624738  0.16633629  0.83339843  1
  Sn  Sn38  1  0.83390661  0.83349076  0.16551146  1
  Sn  Sn39  1  0.83395852  0.83353255  0.83458531  1
  Pb  Pb40  1  0.49949498  0.83336110  0.83113977  1
  Pb  Pb41  1  0.16454059  0.50270717  0.49753712  1
  Pb  Pb42  1  0.49989366  0.83503748  0.16832875  1
  Pb  Pb43  1  0.83368291  0.16968677  0.50340239  1
  Pb  Pb44  1  0.83404881  0.16418026  0.16469215  1
  Pb  Pb45  1  0.49994857  0.16437351  0.49717125  1
  Pb  Pb46  1  0.50271532  0.50257555  0.49974900  1
  Pb  Pb47  1  0.49908829  0.16656210  0.83508777  1
  Pb  Pb48  1  0.83377221  0.83220639  0.50027095  1
  Pb  Pb49  1  0.50313428  0.50000164  0.83364886  1
  Pb  Pb50  1  0.16522009  0.49985046  0.83500122  1
  Pb  Pb51  1  0.49666333  0.49696136  0.16674757  1
  Pb  Pb52  1  0.83519122  0.50237194  0.16614689  1
  Pb  Pb53  1  0.16641687  0.16458931  0.50078242  1
  I  I54  1  0.16714945  -0.00073858  0.16607968  1
  I  I55  1  0.16784080  -0.00401259  0.49524607  1
  I  I56  1  0.15838852  -0.00084048  0.83824388  1
  I  I57  1  0.16989971  0.33213804  0.16100336  1
  I  I58  1  0.16538346  0.33362333  0.49924018  1
  I  I59  1  0.16080081  0.33039341  0.84067532  1
  I  I60  1  0.16051591  0.66849192  0.16709222  1
  I  I61  1  0.16886807  0.67102422  0.50057763  1
  I  I62  1  0.16192122  0.66997169  0.83405524  1
  I  I63  1  0.49361993  0.00256756  0.16675089  1
  I  I64  1  0.49754861  -0.00348837  0.50039021  1
  I  I65  1  0.50572275  -0.00011831  0.83220273  1
  I  I66  1  0.49731434  0.32914391  0.16548624  1
  I  I67  1  0.50118390  0.33346090  0.49985671  1
  I  I68  1  0.49966494  0.33310847  0.83356546  1
  I  I69  1  0.50027413  0.66682017  0.16817140  1
  I  I70  1  0.49504658  0.67025496  0.49785953  1
  I  I71  1  0.49946781  0.66698724  0.83421691  1
  I  I72  1  0.83840275  -0.00381489  0.16362254  1
  I  I73  1  0.83264212  -0.00022193  0.49970086  1
  I  I74  1  0.83759008  -0.00093544  0.83837076  1
  I  I75  1  0.83399829  0.33320938  0.16629378  1
  I  I76  1  0.83394383  0.33745652  0.50265763  1
  I  I77  1  0.83819854  0.33294406  0.82931203  1
  I  I78  1  0.83892558  0.67038795  0.16264530  1
  I  I79  1  0.83417575  0.66471820  0.50574716  1
  I  I80  1  0.83798417  0.66782537  0.83209555  1
  I  I81  1  0.16627681  0.16166012  0.00044846  1
  I  I82  1  0.17049478  0.16559356  0.33004732  1
  I  I83  1  0.16049140  0.16071257  0.67054858  1
  I  I84  1  0.16306056  0.50425388  0.00292376  1
  I  I85  1  0.16345819  0.49955929  0.32962367  1
  I  I86  1  0.16651467  0.50035682  0.66670220  1
  I  I87  1  0.16080695  0.83445951  0.00029884  1
  I  I88  1  0.16570086  0.83327314  0.33200656  1
  I  I89  1  0.16472093  0.83829769  0.66793489  1
  I  I90  1  0.49757332  0.16381035  0.00292414  1
  I  I91  1  0.49272052  0.16568433  0.32931232  1
  I  I92  1  0.50080378  0.16607044  0.66659252  1
  I  I93  1  0.50308865  0.50218785  0.00048200  1
  I  I94  1  0.50400478  0.50040326  0.33319411  1
  I  I95  1  0.49670827  0.49920636  0.66648958  1
  I  I96  1  0.49942684  0.83420859  0.00009291  1
  I  I97  1  0.49646920  0.83457640  0.33600803  1
  I  I98  1  0.49709028  0.83356221  0.66336782  1
  I  I99  1  0.83491664  0.17104789  -0.00339208  1
  I  I100  1  0.83302932  0.16626866  0.33303916  1
  I  I101  1  0.83929021  0.15892057  0.67171071  1
  I  I102  1  0.83547929  0.49864638  -0.00299172  1
  I  I103  1  0.83475998  0.50436244  0.33498910  1
  I  I104  1  0.83502457  0.50417278  0.66809737  1
  I  I105  1  0.84103895  0.83163275  -0.00093922  1
  I  I106  1  0.83666016  0.83151541  0.33107056  1
  I  I107  1  0.83643197  0.83418186  0.66991578  1
  I  I108  1  0.00344498  0.16752436  0.16468673  1
  I  I109  1  0.00004923  0.16350703  0.49377230  1
  I  I110  1  0.00052801  0.16500206  0.83959845  1
  I  I111  1  0.00300677  0.49651995  0.16644574  1
  I  I112  1  -0.00295189  0.50380740  0.50501640  1
  I  I113  1  -0.00313183  0.50120653  0.83056715  1
  I  I114  1  0.00159790  0.83507504  0.16855926  1
  I  I115  1  0.00279324  0.83186943  0.49897082  1
  I  I116  1  0.00019019  0.83391143  0.83240762  1
  I  I117  1  0.33065955  0.16342576  0.16086418  1
  I  I118  1  0.33306091  0.16856378  0.50420615  1
  I  I119  1  0.32930064  0.15907501  0.83755383  1
  I  I120  1  0.32866760  0.50793329  0.16606578  1
  I  I121  1  0.33309657  0.49934356  0.49891347  1
  I  I122  1  0.33288652  0.50046100  0.83468022  1
  I  I123  1  0.32961183  0.83227633  0.16453525  1
  I  I124  1  0.33148946  0.83407541  0.49810606  1
  I  I125  1  0.32928103  0.83891359  0.83712523  1
  I  I126  1  0.66516146  0.16373506  0.16543687  1
  I  I127  1  0.66686541  0.16260901  0.49910385  1
  I  I128  1  0.66978483  0.16555024  0.83460814  1
  I  I129  1  0.66692553  0.50024447  0.16686626  1
  I  I130  1  0.67048871  0.50353667  0.50422885  1
  I  I131  1  0.67208665  0.50101013  0.83042250  1
  I  I132  1  0.66943461  0.83459289  0.16396855  1
  I  I133  1  0.66512684  0.83140447  0.49902589  1
  I  I134  1  0.67031083  0.83343417  0.83620400  1
