# generated using pymatgen
data_Cs27Sn13Pb14I81
_symmetry_space_group_name_H-M   'P 1'
_cell_length_a   18.97456649
_cell_length_b   18.97405548
_cell_length_c   18.98322439
_cell_angle_alpha   89.99897457
_cell_angle_beta   90.00066123
_cell_angle_gamma   89.99873439
_symmetry_Int_Tables_number   1
_chemical_formula_structural   Cs27Sn13Pb14I81
_chemical_formula_sum   'Cs27 Sn13 Pb14 I81'
_cell_volume   6834.42543581
_cell_formula_units_Z   1
loop_
 _symmetry_equiv_pos_site_id
 _symmetry_equiv_pos_as_xyz
  1  'x, y, z'
loop_
 _atom_site_type_symbol
 _atom_site_label
 _atom_site_symmetry_multiplicity
 _atom_site_fract_x
 _atom_site_fract_y
 _atom_site_fract_z
 _atom_site_occupancy
  Cs  Cs0  1  0.00500403  0.00044733  0.00236116  1
  Cs  Cs1  1  -0.00118833  -0.00223652  0.33085095  1
  Cs  Cs2  1  0.00002990  0.00117352  0.66718658  1
  Cs  Cs3  1  0.00223407  0.33405552  -0.00099430  1
  Cs  Cs4  1  -0.00377180  0.33339270  0.34155648  1
  Cs  Cs5  1  -0.00502337  0.33307208  0.66362735  1
  Cs  Cs6  1  -0.00221338  0.66545515  0.00458085  1
  Cs  Cs7  1  0.00416678  0.66773406  0.32904149  1
  Cs  Cs8  1  0.00345107  0.66480809  0.66486556  1
  Cs  Cs9  1  0.32889620  0.00362003  0.00041684  1
  Cs  Cs10  1  0.33295353  0.00158448  0.33199842  1
  Cs  Cs11  1  0.33440850  -0.00035843  0.66787700  1
  Cs  Cs12  1  0.33138299  0.33219717  0.00232196  1
  Cs  Cs13  1  0.33588478  0.33524175  0.33022512  1
  Cs  Cs14  1  0.33328793  0.33308154  0.66732224  1
  Cs  Cs15  1  0.33287583  0.66527063  -0.00230243  1
  Cs  Cs16  1  0.33211235  0.66322351  0.33884405  1
  Cs  Cs17  1  0.33230911  0.66694952  0.66490068  1
  Cs  Cs18  1  0.66575922  -0.00055566  -0.00065409  1
  Cs  Cs19  1  0.66709553  0.00003506  0.33544425  1
  Cs  Cs20  1  0.66572795  0.00015634  0.66633583  1
  Cs  Cs21  1  0.66654406  0.33417335  0.00048202  1
  Cs  Cs22  1  0.66668263  0.33834333  0.33270967  1
  Cs  Cs23  1  0.67028060  0.33120813  0.66677840  1
  Cs  Cs24  1  0.66967410  0.66752685  -0.00061716  1
  Cs  Cs25  1  0.66588564  0.66479511  0.32849485  1
  Cs  Cs26  1  0.66411231  0.67047522  0.67016526  1
  Sn  Sn27  1  0.16799587  0.16621314  0.50032982  1
  Sn  Sn28  1  0.16680003  0.49974774  0.16612835  1
  Sn  Sn29  1  0.83303478  0.83449252  0.83258249  1
  Sn  Sn30  1  0.49955969  0.83359302  0.16646325  1
  Sn  Sn31  1  0.49930000  0.49971687  0.83319835  1
  Sn  Sn32  1  0.83287860  0.16671790  0.16554243  1
  Sn  Sn33  1  0.49920707  0.16617181  0.50058694  1
  Sn  Sn34  1  0.83256026  0.83325661  0.50076136  1
  Sn  Sn35  1  0.83261335  0.16544414  0.83467944  1
  Sn  Sn36  1  0.50026223  0.83372782  0.83363691  1
  Sn  Sn37  1  0.16723952  0.49984712  0.83388469  1
  Sn  Sn38  1  0.50051828  0.16667167  0.83288553  1
  Sn  Sn39  1  0.50087542  0.83422200  0.49987414  1
  Pb  Pb40  1  0.16646721  0.16866571  0.83187155  1
  Pb  Pb41  1  0.83316255  0.50030550  0.83315457  1
  Pb  Pb42  1  0.16696783  0.83561895  0.50019108  1
  Pb  Pb43  1  0.50042902  0.50002570  0.50255266  1
  Pb  Pb44  1  0.50149907  0.16515337  0.16665182  1
  Pb  Pb45  1  0.83288171  0.50445482  0.50018634  1
  Pb  Pb46  1  0.16424468  0.16870969  0.16927645  1
  Pb  Pb47  1  0.16629383  0.83123006  0.83339006  1
  Pb  Pb48  1  0.49845637  0.50243225  0.16388444  1
  Pb  Pb49  1  0.83222799  0.16494169  0.50052425  1
  Pb  Pb50  1  0.83552494  0.49730889  0.16649921  1
  Pb  Pb51  1  0.16691371  0.49749087  0.50043721  1
  Pb  Pb52  1  0.83153172  0.83499073  0.16619306  1
  Pb  Pb53  1  0.16972282  0.83131726  0.16661001  1
  I  I54  1  0.16601463  0.00033048  0.16797017  1
  I  I55  1  0.16859812  0.00336416  0.50089504  1
  I  I56  1  0.16878430  0.00027852  0.83192158  1
  I  I57  1  0.16802791  0.33628442  0.16119787  1
  I  I58  1  0.17175494  0.32964800  0.50053997  1
  I  I59  1  0.17157778  0.33641719  0.83617596  1
  I  I60  1  0.16562442  0.66339652  0.16252896  1
  I  I61  1  0.16603168  0.66660786  0.49956886  1
  I  I62  1  0.17106809  0.66321144  0.83549901  1
  I  I63  1  0.50117330  -0.00291897  0.16272818  1
  I  I64  1  0.49973250  -0.00039525  0.50514480  1
  I  I65  1  0.50517004  -0.00015025  0.83171234  1
  I  I66  1  0.50039572  0.33337507  0.16710826  1
  I  I67  1  0.49586796  0.32989651  0.50432974  1
  I  I68  1  0.50035946  0.33210702  0.82849892  1
  I  I69  1  0.50084770  0.67054830  0.16803094  1
  I  I70  1  0.50392640  0.67034771  0.50080091  1
  I  I71  1  0.50017708  0.66795763  0.83314818  1
  I  I72  1  0.83334261  0.00278346  0.16525521  1
  I  I73  1  0.83132255  -0.00289089  0.50165695  1
  I  I74  1  0.82502086  0.00003433  0.83259071  1
  I  I75  1  0.83162449  0.32922043  0.16075183  1
  I  I76  1  0.83439097  0.33289828  0.50017567  1
  I  I77  1  0.83008572  0.33020331  0.83646859  1
  I  I78  1  0.83368771  0.66693479  0.16698325  1
  I  I79  1  0.82707723  0.67248248  0.50705140  1
  I  I80  1  0.82933577  0.67008073  0.82907723  1
  I  I81  1  0.16823343  0.16664416  -0.00006490  1
  I  I82  1  0.17170990  0.16831094  0.33692050  1
  I  I83  1  0.16661639  0.16870006  0.66411416  1
  I  I84  1  0.17135058  0.49920669  -0.00116120  1
  I  I85  1  0.16565910  0.49953311  0.33094203  1
  I  I86  1  0.17087866  0.50021433  0.66965314  1
  I  I87  1  0.16693848  0.83566527  -0.00014152  1
  I  I88  1  0.16552807  0.83058681  0.33347511  1
  I  I89  1  0.16976157  0.82991125  0.66679801  1
  I  I90  1  0.50248940  0.16560372  -0.00342172  1
  I  I91  1  0.49800365  0.16116214  0.33620774  1
  I  I92  1  0.50128465  0.16282241  0.66773315  1
  I  I93  1  0.49853892  0.49925942  -0.00437431  1
  I  I94  1  0.49764425  0.50027003  0.33320140  1
  I  I95  1  0.49362444  0.50433690  0.67087780  1
  I  I96  1  0.50423947  0.83232329  -0.00182632  1
  I  I97  1  0.50375484  0.83873519  0.33474084  1
  I  I98  1  0.50396646  0.83374823  0.66729864  1
  I  I99  1  0.82803741  0.16158003  -0.00224318  1
  I  I100  1  0.83480020  0.16509245  0.33195026  1
  I  I101  1  0.83241171  0.16545349  0.66958044  1
  I  I102  1  0.83170359  0.50434538  -0.00035268  1
  I  I103  1  0.83611043  0.49776279  0.33324476  1
  I  I104  1  0.83685731  0.49386282  0.66708648  1
  I  I105  1  0.82800098  0.83447064  -0.00328034  1
  I  I106  1  0.82883728  0.83602615  0.33577936  1
  I  I107  1  0.82497644  0.83912512  0.66782783  1
  I  I108  1  -0.00354494  0.16542299  0.16138725  1
  I  I109  1  0.00122949  0.16691429  0.49989003  1
  I  I110  1  -0.00303302  0.16368633  0.83446036  1
  I  I111  1  0.00343951  0.50103233  0.15873758  1
  I  I112  1  0.00016884  0.49737065  0.50308256  1
  I  I113  1  0.00259986  0.49969391  0.83679873  1
  I  I114  1  -0.00020004  0.83295676  0.16748038  1
  I  I115  1  -0.00303886  0.83530198  0.50531621  1
  I  I116  1  -0.00364895  0.83703707  0.82823095  1
  I  I117  1  0.33342861  0.16617038  0.16521807  1
  I  I118  1  0.33547483  0.16131622  0.50565014  1
  I  I119  1  0.33663043  0.16371933  0.83070883  1
  I  I120  1  0.33065628  0.49944924  0.16427536  1
  I  I121  1  0.33361656  0.50438615  0.49930288  1
  I  I122  1  0.33462068  0.50048586  0.83653287  1
  I  I123  1  0.33792910  0.83500349  0.16583233  1
  I  I124  1  0.33718904  0.83441137  0.50169973  1
  I  I125  1  0.33712791  0.83554026  0.83190525  1
  I  I126  1  0.66935902  0.16549112  0.16649418  1
  I  I127  1  0.66351507  0.16364770  0.50218204  1
  I  I128  1  0.66556540  0.16799132  0.83087597  1
  I  I129  1  0.66646770  0.50035842  0.16638777  1
  I  I130  1  0.66637299  0.49275060  0.50081722  1
  I  I131  1  0.66347928  0.50066937  0.83203324  1
  I  I132  1  0.66351348  0.83333142  0.16618083  1
  I  I133  1  0.66508529  0.83998469  0.50201736  1
  I  I134  1  0.66528814  0.83173294  0.83233044  1
