# generated using pymatgen
data_Cs27Sn13Pb14I81
_symmetry_space_group_name_H-M   'P 1'
_cell_length_a   18.97995357
_cell_length_b   18.98431217
_cell_length_c   18.96730668
_cell_angle_alpha   90.00033832
_cell_angle_beta   89.99868268
_cell_angle_gamma   89.99970028
_symmetry_Int_Tables_number   1
_chemical_formula_structural   Cs27Sn13Pb14I81
_chemical_formula_sum   'Cs27 Sn13 Pb14 I81'
_cell_volume   6834.32580386
_cell_formula_units_Z   1
loop_
 _symmetry_equiv_pos_site_id
 _symmetry_equiv_pos_as_xyz
  1  'x, y, z'
loop_
 _atom_site_type_symbol
 _atom_site_label
 _atom_site_symmetry_multiplicity
 _atom_site_fract_x
 _atom_site_fract_y
 _atom_site_fract_z
 _atom_site_occupancy
  Cs  Cs0  1  0.00869792  0.00711217  0.00181120  1
  Cs  Cs1  1  -0.00376825  -0.00001503  0.33015937  1
  Cs  Cs2  1  0.00017111  0.00049836  0.66950590  1
  Cs  Cs3  1  0.00138736  0.32722298  0.00461933  1
  Cs  Cs4  1  -0.00789585  0.33724803  0.32908797  1
  Cs  Cs5  1  -0.00309438  0.33143915  0.66660826  1
  Cs  Cs6  1  0.00163926  0.66728115  0.00510062  1
  Cs  Cs7  1  -0.00208481  0.66315537  0.32786827  1
  Cs  Cs8  1  -0.00043410  0.66802608  0.66655668  1
  Cs  Cs9  1  0.32738247  0.00123251  0.00647759  1
  Cs  Cs10  1  0.33665358  0.00131390  0.33461633  1
  Cs  Cs11  1  0.33266012  -0.00059193  0.66516542  1
  Cs  Cs12  1  0.33317947  0.33407778  0.00312463  1
  Cs  Cs13  1  0.33344165  0.33392578  0.33436061  1
  Cs  Cs14  1  0.33508295  0.33538350  0.66582051  1
  Cs  Cs15  1  0.33045587  0.66615321  0.00040855  1
  Cs  Cs16  1  0.33319160  0.66572688  0.33549414  1
  Cs  Cs17  1  0.33423242  0.66601026  0.66629691  1
  Cs  Cs18  1  0.66660034  0.00056623  0.00718094  1
  Cs  Cs19  1  0.66487478  -0.00022626  0.32682671  1
  Cs  Cs20  1  0.66628474  -0.00186692  0.66644309  1
  Cs  Cs21  1  0.66532324  0.33031191  -0.00264194  1
  Cs  Cs22  1  0.67244084  0.33333473  0.33298103  1
  Cs  Cs23  1  0.66722351  0.33304234  0.66719228  1
  Cs  Cs24  1  0.66687140  0.66760033  -0.00472620  1
  Cs  Cs25  1  0.66869074  0.66722976  0.33220843  1
  Cs  Cs26  1  0.66631380  0.66740410  0.66823098  1
  Sn  Sn27  1  0.49973687  0.16484672  0.83243002  1
  Sn  Sn28  1  0.83505866  0.50056182  0.83280917  1
  Sn  Sn29  1  0.83314476  0.83290870  0.83289588  1
  Sn  Sn30  1  0.50020472  0.50042832  0.16792849  1
  Sn  Sn31  1  0.50024943  0.83332175  0.50076977  1
  Sn  Sn32  1  0.49986382  0.50000697  0.49901623  1
  Sn  Sn33  1  0.50023717  0.83480831  0.83273155  1
  Sn  Sn34  1  0.16632644  0.83323305  0.50047675  1
  Sn  Sn35  1  0.16691303  0.16719706  0.50039680  1
  Sn  Sn36  1  0.16683209  0.49964156  0.50101676  1
  Sn  Sn37  1  0.83312567  0.83320627  0.50084736  1
  Sn  Sn38  1  0.16512082  0.50005699  0.83226728  1
  Sn  Sn39  1  0.49954816  0.16674074  0.50105412  1
  Pb  Pb40  1  0.83044848  0.50027337  0.16277863  1
  Pb  Pb41  1  0.49984371  0.83110212  0.16638111  1
  Pb  Pb42  1  0.16710608  0.16699911  0.17072083  1
  Pb  Pb43  1  0.16945304  0.16935705  0.83097136  1
  Pb  Pb44  1  0.49991372  0.16911278  0.16720446  1
  Pb  Pb45  1  0.83298194  0.16357714  0.50013139  1
  Pb  Pb46  1  0.83320261  0.16658749  0.16655745  1
  Pb  Pb47  1  0.83108818  0.16558035  0.83311409  1
  Pb  Pb48  1  0.16691488  0.83318949  0.17025602  1
  Pb  Pb49  1  0.49979952  0.50033280  0.83264534  1
  Pb  Pb50  1  0.16854288  0.50003141  0.16722523  1
  Pb  Pb51  1  0.83326847  0.50204812  0.50176213  1
  Pb  Pb52  1  0.16680753  0.83178258  0.83170339  1
  Pb  Pb53  1  0.83331117  0.83324733  0.16540948  1
  I  I54  1  0.16690492  0.00015397  0.16533891  1
  I  I55  1  0.17089991  -0.00043905  0.49963153  1
  I  I56  1  0.16403030  0.00013202  0.83206922  1
  I  I57  1  0.16850101  0.33365099  0.16711647  1
  I  I58  1  0.17648762  0.33409252  0.50458762  1
  I  I59  1  0.16378586  0.33730235  0.82689406  1
  I  I60  1  0.16799537  0.66634314  0.16855956  1
  I  I61  1  0.17138450  0.66632131  0.50407562  1
  I  I62  1  0.16951085  0.66372830  0.82653116  1
  I  I63  1  0.50070278  0.00002984  0.16885722  1
  I  I64  1  0.49689220  -0.00058826  0.50489248  1
  I  I65  1  0.50601787  -0.00113485  0.82354837  1
  I  I66  1  0.49909574  0.33686663  0.16934172  1
  I  I67  1  0.49271373  0.33355805  0.50099269  1
  I  I68  1  0.49974740  0.33171743  0.83010613  1
  I  I69  1  0.49923212  0.66344700  0.17121171  1
  I  I70  1  0.49710182  0.66699518  0.50058460  1
  I  I71  1  0.50137377  0.66909902  0.82963989  1
  I  I72  1  0.83125846  -0.00039543  0.16734314  1
  I  I73  1  0.83355448  -0.00466483  0.50684646  1
  I  I74  1  0.83003221  -0.00389564  0.82721929  1
  I  I75  1  0.83213683  0.33395060  0.16691994  1
  I  I76  1  0.83273978  0.33347140  0.50093041  1
  I  I77  1  0.83404825  0.33591296  0.83308628  1
  I  I78  1  0.83266558  0.66659334  0.16954176  1
  I  I79  1  0.83187725  0.67008957  0.50277593  1
  I  I80  1  0.82897717  0.66734371  0.82844588  1
  I  I81  1  0.16780826  0.16826049  -0.00026365  1
  I  I82  1  0.17542572  0.16780171  0.33912125  1
  I  I83  1  0.16944768  0.16436953  0.66269233  1
  I  I84  1  0.16610122  0.50146199  -0.00304176  1
  I  I85  1  0.17002527  0.50068393  0.33747945  1
  I  I86  1  0.17060224  0.50092425  0.66500958  1
  I  I87  1  0.16727749  0.83046306  -0.00033539  1
  I  I88  1  0.16838921  0.83003965  0.33951684  1
  I  I89  1  0.16808278  0.83407198  0.66280243  1
  I  I90  1  0.50244408  0.16501285  -0.00304458  1
  I  I91  1  0.49574617  0.16348677  0.33742675  1
  I  I92  1  0.49697553  0.16850200  0.66521838  1
  I  I93  1  0.50051828  0.49994080  0.00121538  1
  I  I94  1  0.49385348  0.50042231  0.33637158  1
  I  I95  1  0.49838848  0.50039656  0.66353471  1
  I  I96  1  0.50626525  0.83485436  -0.00372930  1
  I  I97  1  0.49992575  0.83591558  0.33737632  1
  I  I98  1  0.50064546  0.83123815  0.66524027  1
  I  I99  1  0.82994630  0.16627964  -0.00062963  1
  I  I100  1  0.83156772  0.16562619  0.33403301  1
  I  I101  1  0.83434840  0.16954753  0.66652198  1
  I  I102  1  0.83641312  0.50746929  -0.00515443  1
  I  I103  1  0.83539093  0.50121667  0.33339438  1
  I  I104  1  0.83112170  0.50246352  0.66964732  1
  I  I105  1  0.82511340  0.82773589  -0.00438191  1
  I  I106  1  0.83257095  0.83387765  0.33672193  1
  I  I107  1  0.83108361  0.82906564  0.66643360  1
  I  I108  1  0.00040039  0.16724779  0.16727617  1
  I  I109  1  0.00311554  0.16736650  0.49964132  1
  I  I110  1  0.00041208  0.16533202  0.83254871  1
  I  I111  1  -0.00014241  0.49985032  0.16944298  1
  I  I112  1  0.00294642  0.50003035  0.50283522  1
  I  I113  1  0.00029963  0.50602143  0.82592241  1
  I  I114  1  -0.00001455  0.83187126  0.16755570  1
  I  I115  1  0.00019149  0.83308811  0.50447615  1
  I  I116  1  -0.00263076  0.82891185  0.82698836  1
  I  I117  1  0.33372798  0.16738704  0.16395335  1
  I  I118  1  0.33446464  0.16335553  0.50371755  1
  I  I119  1  0.33745407  0.16260775  0.82998001  1
  I  I120  1  0.33644418  0.50011797  0.16622349  1
  I  I121  1  0.33382566  0.50370239  0.50215083  1
  I  I122  1  0.33147731  0.50009480  0.83141645  1
  I  I123  1  0.33364750  0.83199298  0.16512870  1
  I  I124  1  0.33419978  0.83265398  0.50346308  1
  I  I125  1  0.33641454  0.83376718  0.82806353  1
  I  I126  1  0.66592875  0.16757688  0.16880074  1
  I  I127  1  0.66288661  0.16846851  0.50361110  1
  I  I128  1  0.66277971  0.16993562  0.82610808  1
  I  I129  1  0.66281757  0.50007766  0.17382367  1
  I  I130  1  0.66352571  0.49967518  0.49842593  1
  I  I131  1  0.66822467  0.50134889  0.83346314  1
  I  I132  1  0.66648513  0.83242259  0.17181948  1
  I  I133  1  0.66546732  0.83226618  0.50427047  1
  I  I134  1  0.66593914  0.82924420  0.82434975  1
