# generated using pymatgen
data_Cs27Sn14Pb13I81
_symmetry_space_group_name_H-M   'P 1'
_cell_length_a   19.03237138
_cell_length_b   19.03814454
_cell_length_c   19.03010449
_cell_angle_alpha   90.00031015
_cell_angle_beta   90.00148238
_cell_angle_gamma   90.00129622
_symmetry_Int_Tables_number   1
_chemical_formula_structural   Cs27Sn14Pb13I81
_chemical_formula_sum   'Cs27 Sn14 Pb13 I81'
_cell_volume   6895.38779771
_cell_formula_units_Z   1
loop_
 _symmetry_equiv_pos_site_id
 _symmetry_equiv_pos_as_xyz
  1  'x, y, z'
loop_
 _atom_site_type_symbol
 _atom_site_label
 _atom_site_symmetry_multiplicity
 _atom_site_fract_x
 _atom_site_fract_y
 _atom_site_fract_z
 _atom_site_occupancy
  Cs  Cs0  1  0.00138098  -0.00043952  0.00178090  1
  Cs  Cs1  1  0.00067926  -0.00375457  0.33226384  1
  Cs  Cs2  1  0.01014071  -0.01124826  0.66518437  1
  Cs  Cs3  1  -0.00429659  0.33394317  0.00230182  1
  Cs  Cs4  1  -0.00371497  0.33418942  0.33024432  1
  Cs  Cs5  1  0.00312273  0.33219002  0.66911285  1
  Cs  Cs6  1  -0.00182602  0.66526266  0.00445424  1
  Cs  Cs7  1  -0.00058776  0.66882128  0.33103374  1
  Cs  Cs8  1  0.00309206  0.68310119  0.66613593  1
  Cs  Cs9  1  0.33714397  -0.00194057  -0.00089357  1
  Cs  Cs10  1  0.33879244  0.00125880  0.33289934  1
  Cs  Cs11  1  0.32160414  0.00357678  0.66397162  1
  Cs  Cs12  1  0.33196091  0.33217439  0.00082084  1
  Cs  Cs13  1  0.33497182  0.33442034  0.33351487  1
  Cs  Cs14  1  0.32463556  0.34111744  0.66750117  1
  Cs  Cs15  1  0.33873372  0.67064769  -0.00362599  1
  Cs  Cs16  1  0.33442671  0.66307579  0.33131240  1
  Cs  Cs17  1  0.32652284  0.65114593  0.67651974  1
  Cs  Cs18  1  0.66303577  0.00254082  -0.00342254  1
  Cs  Cs19  1  0.66226594  0.00370057  0.33701756  1
  Cs  Cs20  1  0.66814798  0.00114539  0.66235229  1
  Cs  Cs21  1  0.67033348  0.33055447  -0.00142136  1
  Cs  Cs22  1  0.66736899  0.33196260  0.33549357  1
  Cs  Cs23  1  0.66619240  0.33202939  0.66610451  1
  Cs  Cs24  1  0.66407567  0.67048650  -0.00245537  1
  Cs  Cs25  1  0.66727941  0.66638984  0.33415669  1
  Cs  Cs26  1  0.66778458  0.66802412  0.67107680  1
  Sn  Sn27  1  0.83345442  0.16738632  0.50186368  1
  Sn  Sn28  1  0.83354260  0.49937668  0.50063972  1
  Sn  Sn29  1  0.83270836  0.83266974  0.16682939  1
  Sn  Sn30  1  0.49945964  0.83300719  0.50064294  1
  Sn  Sn31  1  0.50024729  0.16645284  0.50106941  1
  Sn  Sn32  1  0.50047108  0.16681271  0.83219262  1
  Sn  Sn33  1  0.49933698  0.16792420  0.16655113  1
  Sn  Sn34  1  0.83361655  0.49923216  0.83269616  1
  Sn  Sn35  1  0.50100944  0.49873720  0.16655643  1
  Sn  Sn36  1  0.16641397  0.83344143  0.16712431  1
  Sn  Sn37  1  0.83299616  0.16705147  0.83103500  1
  Sn  Sn38  1  0.16792042  0.16673060  0.16709569  1
  Sn  Sn39  1  0.83243800  0.50107086  0.16675611  1
  Sn  Sn40  1  0.16688073  0.49989280  0.16664103  1
  Pb  Pb41  1  0.16712351  0.83321380  0.83656881  1
  Pb  Pb42  1  0.83297490  0.83429282  0.83584021  1
  Pb  Pb43  1  0.50006369  0.83649851  0.82921059  1
  Pb  Pb44  1  0.83148615  0.83382155  0.49767279  1
  Pb  Pb45  1  0.16602229  0.16685419  0.83608982  1
  Pb  Pb46  1  0.16291502  0.49997226  0.49756102  1
  Pb  Pb47  1  0.17067349  0.83292750  0.49686681  1
  Pb  Pb48  1  0.50204993  0.49952318  0.49851634  1
  Pb  Pb49  1  0.50028190  0.83347699  0.16792391  1
  Pb  Pb50  1  0.50263772  0.49719049  0.83593536  1
  Pb  Pb51  1  0.83278752  0.16648169  0.16689164  1
  Pb  Pb52  1  0.16621301  0.16702422  0.49720461  1
  Pb  Pb53  1  0.16287790  0.49984147  0.83639735  1
  I  I54  1  0.16504675  0.00025755  0.16666366  1
  I  I55  1  0.15937192  0.00014269  0.49666299  1
  I  I56  1  0.16283747  0.00037873  0.83714526  1
  I  I57  1  0.16604836  0.33352584  0.16645472  1
  I  I58  1  0.17373781  0.33334370  0.49602306  1
  I  I59  1  0.17008236  0.33325309  0.83678227  1
  I  I60  1  0.16357846  0.66615235  0.16775491  1
  I  I61  1  0.16684738  0.66659481  0.49601251  1
  I  I62  1  0.16592764  0.66631779  0.83441381  1
  I  I63  1  0.49698480  0.00324633  0.16451317  1
  I  I64  1  0.50882364  0.00257356  0.49399716  1
  I  I65  1  0.50966834  0.00453728  0.84613910  1
  I  I66  1  0.49690517  0.33221492  0.16973034  1
  I  I67  1  0.50341399  0.32984901  0.49920080  1
  I  I68  1  0.50234186  0.32959747  0.82826123  1
  I  I69  1  0.49802517  0.66406441  0.17045105  1
  I  I70  1  0.50278651  0.66842836  0.49047423  1
  I  I71  1  0.50051028  0.66661748  0.83496959  1
  I  I72  1  0.83819608  -0.00197980  0.16710814  1
  I  I73  1  0.83020506  0.00323637  0.50207330  1
  I  I74  1  0.82756692  0.00360596  0.83130057  1
  I  I75  1  0.83634193  0.33605616  0.16661849  1
  I  I76  1  0.82576438  0.33284130  0.49477491  1
  I  I77  1  0.82869705  0.33296298  0.83828762  1
  I  I78  1  0.83757252  0.66462047  0.16718137  1
  I  I79  1  0.83134786  0.66393142  0.50008419  1
  I  I80  1  0.83472799  0.66388027  0.83198620  1
  I  I81  1  0.17026593  0.16699278  0.00438297  1
  I  I82  1  0.17047736  0.16732128  0.32904268  1
  I  I83  1  0.16968620  0.16585998  0.66664992  1
  I  I84  1  0.16375195  0.49909929  0.00489156  1
  I  I85  1  0.16415470  0.49962842  0.32863953  1
  I  I86  1  0.16930269  0.49968512  0.66695666  1
  I  I87  1  0.16221695  0.83371350  0.00519855  1
  I  I88  1  0.15947979  0.83333295  0.32917525  1
  I  I89  1  0.16566047  0.83505655  0.66629861  1
  I  I90  1  0.50087971  0.17310127  0.00080861  1
  I  I91  1  0.50067053  0.16576189  0.33307933  1
  I  I92  1  0.51037550  0.15835884  0.66633453  1
  I  I93  1  0.50151459  0.49520517  0.00441868  1
  I  I94  1  0.50242043  0.49329452  0.32983913  1
  I  I95  1  0.50126763  0.50225930  0.66694391  1
  I  I96  1  0.49859131  0.83303252  -0.00014913  1
  I  I97  1  0.50093523  0.84271113  0.33486560  1
  I  I98  1  0.50705148  0.83967816  0.66186964  1
  I  I99  1  0.83070698  0.16971057  -0.00172577  1
  I  I100  1  0.83004296  0.16975801  0.33533899  1
  I  I101  1  0.82053362  0.17817598  0.66631872  1
  I  I102  1  0.83500596  0.49852848  0.00135732  1
  I  I103  1  0.83398078  0.49899349  0.33194951  1
  I  I104  1  0.82905098  0.49119963  0.66658365  1
  I  I105  1  0.83800322  0.82832570  0.00388807  1
  I  I106  1  0.83846552  0.82824018  0.33001452  1
  I  I107  1  0.83151025  0.82852926  0.66665634  1
  I  I108  1  0.00179160  0.16887471  0.16639440  1
  I  I109  1  -0.00339723  0.17344652  0.50254895  1
  I  I110  1  -0.00350864  0.17273038  0.83142448  1
  I  I111  1  -0.00092513  0.50013252  0.16631739  1
  I  I112  1  -0.00523167  0.49087079  0.49547950  1
  I  I113  1  -0.00478491  0.48937705  0.83760151  1
  I  I114  1  -0.00037831  0.83014023  0.16743580  1
  I  I115  1  0.00030459  0.83350162  0.50174243  1
  I  I116  1  -0.00034583  0.83691837  0.82885335  1
  I  I117  1  0.33474288  0.16978590  0.16683838  1
  I  I118  1  0.33642676  0.15925134  0.50141555  1
  I  I119  1  0.33628127  0.16351470  0.83167082  1
  I  I120  1  0.33367102  0.49914716  0.16875587  1
  I  I121  1  0.33315414  0.50019980  0.49710379  1
  I  I122  1  0.33313376  0.49988507  0.83394515  1
  I  I123  1  0.33111868  0.83049389  0.16912843  1
  I  I124  1  0.33778789  0.84677798  0.49467189  1
  I  I125  1  0.33387788  0.83588884  0.83858485  1
  I  I126  1  0.66368054  0.16956556  0.16710535  1
  I  I127  1  0.66656741  0.16662531  0.49519826  1
  I  I128  1  0.66695592  0.17145040  0.83847947  1
  I  I129  1  0.66765094  0.49973430  0.16733229  1
  I  I130  1  0.66995199  0.49800267  0.49327915  1
  I  I131  1  0.67028597  0.49848158  0.83858309  1
  I  I132  1  0.66891348  0.82788466  0.16797552  1
  I  I133  1  0.66443203  0.83688144  0.49273361  1
  I  I134  1  0.66661311  0.82935215  0.84090126  1
