# generated using pymatgen
data_Cs27Sn13Pb14I81
_symmetry_space_group_name_H-M   'P 1'
_cell_length_a   18.98706721
_cell_length_b   18.98624039
_cell_length_c   19.00432086
_cell_angle_alpha   89.99929352
_cell_angle_beta   90.00185027
_cell_angle_gamma   89.99479562
_symmetry_Int_Tables_number   1
_chemical_formula_structural   Cs27Sn13Pb14I81
_chemical_formula_sum   'Cs27 Sn13 Pb14 I81'
_cell_volume   6850.92502876
_cell_formula_units_Z   1
loop_
 _symmetry_equiv_pos_site_id
 _symmetry_equiv_pos_as_xyz
  1  'x, y, z'
loop_
 _atom_site_type_symbol
 _atom_site_label
 _atom_site_symmetry_multiplicity
 _atom_site_fract_x
 _atom_site_fract_y
 _atom_site_fract_z
 _atom_site_occupancy
  Cs  Cs0  1  -0.00121438  0.00011004  -0.00437115  1
  Cs  Cs1  1  -0.00081387  0.00029980  0.33041415  1
  Cs  Cs2  1  -0.00265194  -0.00046311  0.66995047  1
  Cs  Cs3  1  -0.00018684  0.33479482  0.00601822  1
  Cs  Cs4  1  0.00676447  0.33340530  0.32714560  1
  Cs  Cs5  1  -0.00206154  0.33299140  0.66617445  1
  Cs  Cs6  1  -0.00118273  0.66443432  0.00345297  1
  Cs  Cs7  1  -0.00156657  0.66461613  0.33080846  1
  Cs  Cs8  1  -0.00160722  0.66601435  0.66571504  1
  Cs  Cs9  1  0.33306849  -0.00282531  -0.00030307  1
  Cs  Cs10  1  0.33340462  0.00104591  0.33400706  1
  Cs  Cs11  1  0.33291563  -0.00012606  0.66614909  1
  Cs  Cs12  1  0.33462195  0.33439144  -0.00403291  1
  Cs  Cs13  1  0.32517404  0.32483295  0.33530514  1
  Cs  Cs14  1  0.33207055  0.33350189  0.66791126  1
  Cs  Cs15  1  0.33440351  0.66795082  -0.00058848  1
  Cs  Cs16  1  0.33782867  0.66944330  0.33354389  1
  Cs  Cs17  1  0.33323772  0.66624821  0.66681846  1
  Cs  Cs18  1  0.66786084  0.00179873  0.00196578  1
  Cs  Cs19  1  0.66757242  0.00198838  0.33142478  1
  Cs  Cs20  1  0.66999146  0.00150764  0.66669865  1
  Cs  Cs21  1  0.66570028  0.33033574  -0.00110055  1
  Cs  Cs22  1  0.66754266  0.33455190  0.33387819  1
  Cs  Cs23  1  0.66756718  0.33334723  0.66750201  1
  Cs  Cs24  1  0.66570162  0.66749299  0.00308551  1
  Cs  Cs25  1  0.66345677  0.66512711  0.33556970  1
  Cs  Cs26  1  0.66822979  0.66539804  0.66363236  1
  Sn  Sn27  1  0.49969586  0.83336524  0.83286377  1
  Sn  Sn28  1  0.49967905  0.50009084  0.16800772  1
  Sn  Sn29  1  0.83345885  0.16787444  0.50037554  1
  Sn  Sn30  1  0.83437840  0.16800720  0.83241610  1
  Sn  Sn31  1  0.83297310  0.49879752  0.50063881  1
  Sn  Sn32  1  0.49920532  0.83276909  0.16694287  1
  Sn  Sn33  1  0.16613540  0.16628658  0.83307410  1
  Sn  Sn34  1  0.50000949  0.50011602  0.49920355  1
  Sn  Sn35  1  0.16729131  0.83364295  0.83312523  1
  Sn  Sn36  1  0.83319886  0.49941995  0.83279540  1
  Sn  Sn37  1  0.16712411  0.83301955  0.50023620  1
  Sn  Sn38  1  0.49938144  0.83296595  0.50029392  1
  Sn  Sn39  1  0.16729773  0.83317041  0.16654430  1
  Pb  Pb40  1  0.83086840  0.49998492  0.16725226  1
  Pb  Pb41  1  0.16690131  0.50204471  0.50002992  1
  Pb  Pb42  1  0.16402260  0.16390970  0.50231935  1
  Pb  Pb43  1  0.49975087  0.16682824  0.16686230  1
  Pb  Pb44  1  0.83312388  0.83307413  0.49987840  1
  Pb  Pb45  1  0.17027435  0.50244591  0.16676753  1
  Pb  Pb46  1  0.50193865  0.16693792  0.50007472  1
  Pb  Pb47  1  0.83344644  0.83307872  0.83339183  1
  Pb  Pb48  1  0.50208284  0.50232035  0.83286084  1
  Pb  Pb49  1  0.50012658  0.16410787  0.83314941  1
  Pb  Pb50  1  0.16687202  0.16386628  0.16348849  1
  Pb  Pb51  1  0.16413333  0.50042437  0.83324010  1
  Pb  Pb52  1  0.83338478  0.16692228  0.16652806  1
  Pb  Pb53  1  0.83289374  0.83323587  0.16678109  1
  I  I54  1  0.17461149  -0.00450694  0.16988960  1
  I  I55  1  0.17258296  -0.00429275  0.49776344  1
  I  I56  1  0.16355694  -0.00156377  0.83354237  1
  I  I57  1  0.16706083  0.33322087  0.16534826  1
  I  I58  1  0.17020800  0.33311348  0.50240142  1
  I  I59  1  0.16438740  0.33042132  0.83232563  1
  I  I60  1  0.16694526  0.67105360  0.16269771  1
  I  I61  1  0.16547652  0.67077210  0.50359305  1
  I  I62  1  0.16983495  0.67052538  0.83376684  1
  I  I63  1  0.49641227  -0.00415131  0.16703122  1
  I  I64  1  0.49734199  -0.00361122  0.49906364  1
  I  I65  1  0.50108521  -0.00448984  0.83388748  1
  I  I66  1  0.50424736  0.33693802  0.17125555  1
  I  I67  1  0.50386725  0.33691742  0.49524465  1
  I  I68  1  0.49722106  0.33344900  0.83414678  1
  I  I69  1  0.49686589  0.66820968  0.16719349  1
  I  I70  1  0.50310469  0.66767828  0.49945242  1
  I  I71  1  0.49508791  0.67050153  0.83359121  1
  I  I72  1  0.83002500  0.00006790  0.16693295  1
  I  I73  1  0.83386856  0.00236728  0.50597311  1
  I  I74  1  0.83418399  0.00261327  0.82853312  1
  I  I75  1  0.83024411  0.33356377  0.16543275  1
  I  I76  1  0.82555156  0.33428131  0.50612247  1
  I  I77  1  0.83777281  0.33280899  0.82847155  1
  I  I78  1  0.83692883  0.66647667  0.16491624  1
  I  I79  1  0.83198441  0.66374723  0.50501125  1
  I  I80  1  0.83241853  0.66410691  0.82815914  1
  I  I81  1  0.15902154  0.16013451  -0.00434268  1
  I  I82  1  0.16473547  0.16559559  0.33343162  1
  I  I83  1  0.16508390  0.15886151  0.66996967  1
  I  I84  1  0.16554776  0.50244884  -0.00010625  1
  I  I85  1  0.15949576  0.50129729  0.33343100  1
  I  I86  1  0.17162543  0.50440796  0.66671180  1
  I  I87  1  0.17317985  0.83764616  -0.00055267  1
  I  I88  1  0.17270864  0.83156015  0.33345597  1
  I  I89  1  0.17292298  0.83677068  0.66712768  1
  I  I90  1  0.50354024  0.16677489  -0.00027209  1
  I  I91  1  0.50361400  0.16086666  0.33359947  1
  I  I92  1  0.49847762  0.16522020  0.66673598  1
  I  I93  1  0.50124585  0.50581104  0.00204790  1
  I  I94  1  0.50830572  0.51184891  0.33447805  1
  I  I95  1  0.50310325  0.50585271  0.66364144  1
  I  I96  1  0.49455672  0.82976020  0.00017385  1
  I  I97  1  0.49419967  0.82856434  0.33367190  1
  I  I98  1  0.49414026  0.82994980  0.66615411  1
  I  I99  1  0.83699323  0.16954238  -0.00382525  1
  I  I100  1  0.83070513  0.16915952  0.33667210  1
  I  I101  1  0.83655418  0.17015889  0.66745581  1
  I  I102  1  0.83318264  0.49657351  -0.00275639  1
  I  I103  1  0.83078589  0.49742260  0.33688952  1
  I  I104  1  0.82722938  0.49695763  0.66590131  1
  I  I105  1  0.83226158  0.83370357  -0.00025393  1
  I  I106  1  0.83498343  0.83445132  0.33361530  1
  I  I107  1  0.83280847  0.83320514  0.66665652  1
  I  I108  1  0.00021825  0.16378207  0.16910917  1
  I  I109  1  -0.00384717  0.17136829  0.50277866  1
  I  I110  1  -0.00047517  0.16173810  0.82884230  1
  I  I111  1  0.00011697  0.50183392  0.16649819  1
  I  I112  1  -0.00319012  0.49880913  0.50594933  1
  I  I113  1  -0.00390125  0.50226701  0.82606109  1
  I  I114  1  0.00355318  0.83524579  0.16599812  1
  I  I115  1  0.00286564  0.83408165  0.50150791  1
  I  I116  1  0.00312570  0.83488385  0.83299040  1
  I  I117  1  0.33309932  0.16936906  0.16534551  1
  I  I118  1  0.33303319  0.16907191  0.50101350  1
  I  I119  1  0.33042131  0.16252192  0.83495012  1
  I  I120  1  0.33818709  0.50354686  0.17215425  1
  I  I121  1  0.33688747  0.50457751  0.49609309  1
  I  I122  1  0.33350450  0.49710718  0.83340820  1
  I  I123  1  0.33406644  0.82908413  0.16568688  1
  I  I124  1  0.33435560  0.82791798  0.50057455  1
  I  I125  1  0.33293218  0.83852303  0.83363847  1
  I  I126  1  0.66664342  0.16140190  0.16300588  1
  I  I127  1  0.66998665  0.16436763  0.50786664  1
  I  I128  1  0.66999528  0.16883968  0.82975975  1
  I  I129  1  0.66323147  0.50989496  0.16749174  1
  I  I130  1  0.66636644  0.50380522  0.50034648  1
  I  I131  1  0.66988363  0.49539073  0.83179911  1
  I  I132  1  0.66248256  0.82973267  0.16630186  1
  I  I133  1  0.66333704  0.83238793  0.50010078  1
  I  I134  1  0.66375972  0.83276472  0.83335210  1
