# generated using pymatgen
data_Cs27Sn14Pb13I81
_symmetry_space_group_name_H-M   'P 1'
_cell_length_a   18.97076686
_cell_length_b   18.98208593
_cell_length_c   18.97194652
_cell_angle_alpha   89.99862267
_cell_angle_beta   90.00172993
_cell_angle_gamma   89.99919596
_symmetry_Int_Tables_number   1
_chemical_formula_structural   Cs27Sn14Pb13I81
_chemical_formula_sum   'Cs27 Sn14 Pb13 I81'
_cell_volume   6831.88761098
_cell_formula_units_Z   1
loop_
 _symmetry_equiv_pos_site_id
 _symmetry_equiv_pos_as_xyz
  1  'x, y, z'
loop_
 _atom_site_type_symbol
 _atom_site_label
 _atom_site_symmetry_multiplicity
 _atom_site_fract_x
 _atom_site_fract_y
 _atom_site_fract_z
 _atom_site_occupancy
  Cs  Cs0  1  0.01249369  0.00006082  -0.00178173  1
  Cs  Cs1  1  -0.00395111  -0.00105069  0.33331757  1
  Cs  Cs2  1  0.00077039  -0.00044700  0.66689646  1
  Cs  Cs3  1  0.00130616  0.33214516  -0.00816633  1
  Cs  Cs4  1  -0.00207673  0.33314017  0.33438985  1
  Cs  Cs5  1  -0.00139162  0.33715715  0.67204898  1
  Cs  Cs6  1  0.00885362  0.66935427  -0.00460299  1
  Cs  Cs7  1  -0.00491760  0.66680658  0.33285368  1
  Cs  Cs8  1  0.00271911  0.66391477  0.66845111  1
  Cs  Cs9  1  0.32546610  -0.00113348  0.00052052  1
  Cs  Cs10  1  0.33409397  0.00217328  0.33631393  1
  Cs  Cs11  1  0.33633912  -0.00116023  0.66516177  1
  Cs  Cs12  1  0.32933671  0.33267895  0.00672622  1
  Cs  Cs13  1  0.33141501  0.33439259  0.33403872  1
  Cs  Cs14  1  0.33743739  0.33479648  0.66290418  1
  Cs  Cs15  1  0.32917264  0.66798458  0.00940446  1
  Cs  Cs16  1  0.33322176  0.66179001  0.32840330  1
  Cs  Cs17  1  0.33389668  0.66812944  0.66573064  1
  Cs  Cs18  1  0.66599287  0.00009820  -0.00068117  1
  Cs  Cs19  1  0.66892821  0.00060719  0.33375911  1
  Cs  Cs20  1  0.66515495  -0.00078826  0.66613584  1
  Cs  Cs21  1  0.66855510  0.33375298  0.00018892  1
  Cs  Cs22  1  0.66693850  0.33262651  0.33337763  1
  Cs  Cs23  1  0.66622300  0.33309201  0.66735263  1
  Cs  Cs24  1  0.66511125  0.66689829  0.00162572  1
  Cs  Cs25  1  0.66942859  0.66717668  0.33028939  1
  Cs  Cs26  1  0.66587415  0.66788578  0.66702348  1
  Sn  Sn27  1  0.50044613  0.16663278  0.49998413  1
  Sn  Sn28  1  0.50027319  0.16674997  0.83380749  1
  Sn  Sn29  1  0.83212499  0.49921322  0.49956920  1
  Sn  Sn30  1  0.83248637  0.83370107  0.83350460  1
  Sn  Sn31  1  0.16759715  0.83375621  0.49992856  1
  Sn  Sn32  1  0.83337230  0.16752241  0.49985520  1
  Sn  Sn33  1  0.83261991  0.16734816  0.16674209  1
  Sn  Sn34  1  0.16620639  0.16611175  0.50014690  1
  Sn  Sn35  1  0.83319514  0.49915870  0.16669437  1
  Sn  Sn36  1  0.50015117  0.50031142  0.83321386  1
  Sn  Sn37  1  0.50097270  0.83303664  0.83293291  1
  Sn  Sn38  1  0.49941440  0.83299235  0.50010520  1
  Sn  Sn39  1  0.50088342  0.16633421  0.16680911  1
  Sn  Sn40  1  0.50124178  0.50022161  0.50042164  1
  Pb  Pb41  1  0.83328177  0.83404129  0.16328808  1
  Pb  Pb42  1  0.83301951  0.83316284  0.50148109  1
  Pb  Pb43  1  0.83161651  0.16469692  0.83342637  1
  Pb  Pb44  1  0.16232291  0.49941490  0.16702947  1
  Pb  Pb45  1  0.16807235  0.83331628  0.83068519  1
  Pb  Pb46  1  0.17028431  0.16697440  0.82994620  1
  Pb  Pb47  1  0.50015771  0.83619010  0.16687991  1
  Pb  Pb48  1  0.16583855  0.16682705  0.16945677  1
  Pb  Pb49  1  0.16647890  0.49991568  0.49992741  1
  Pb  Pb50  1  0.50166630  0.49758396  0.16692703  1
  Pb  Pb51  1  0.16664865  0.83345517  0.17077169  1
  Pb  Pb52  1  0.17097210  0.49991945  0.83304420  1
  Pb  Pb53  1  0.83127441  0.50213526  0.83330600  1
  I  I54  1  0.16475068  0.00033384  0.16424366  1
  I  I55  1  0.17091178  0.00074377  0.50038160  1
  I  I56  1  0.16711419  0.00012912  0.83501175  1
  I  I57  1  0.17168473  0.33291610  0.17024663  1
  I  I58  1  0.17077870  0.33029913  0.49894990  1
  I  I59  1  0.16480913  0.33318492  0.83095529  1
  I  I60  1  0.16669990  0.66648775  0.16800603  1
  I  I61  1  0.17041019  0.66942753  0.50171009  1
  I  I62  1  0.16580327  0.66687941  0.82977774  1
  I  I63  1  0.50689908  0.00443496  0.16880679  1
  I  I64  1  0.49953765  0.00102615  0.50228389  1
  I  I65  1  0.50456869  0.00002056  0.82884646  1
  I  I66  1  0.50180301  0.32949956  0.16750367  1
  I  I67  1  0.50015334  0.33243214  0.50277020  1
  I  I68  1  0.50012743  0.33294337  0.82784978  1
  I  I69  1  0.50132003  0.66642044  0.16683469  1
  I  I70  1  0.49987038  0.66655304  0.50756562  1
  I  I71  1  0.50529751  0.66699314  0.82338740  1
  I  I72  1  0.82834624  0.00373534  0.17315689  1
  I  I73  1  0.83077331  0.00293715  0.49711319  1
  I  I74  1  0.82546699  -0.00276842  0.83091772  1
  I  I75  1  0.82775834  0.33226463  0.17216092  1
  I  I76  1  0.82996592  0.33255546  0.49683527  1
  I  I77  1  0.83226945  0.33331220  0.83311211  1
  I  I78  1  0.83241988  0.66390973  0.17275532  1
  I  I79  1  0.83023128  0.66402461  0.49707676  1
  I  I80  1  0.82629165  0.66960362  0.83128250  1
  I  I81  1  0.16678639  0.16660723  -0.00007219  1
  I  I82  1  0.17249346  0.16277423  0.33754321  1
  I  I83  1  0.16557580  0.16233215  0.66187821  1
  I  I84  1  0.16708485  0.50065583  0.00003662  1
  I  I85  1  0.17355049  0.50085697  0.33384789  1
  I  I86  1  0.16035080  0.49963225  0.66613853  1
  I  I87  1  0.16616372  0.83278279  -0.00017309  1
  I  I88  1  0.17261618  0.83842980  0.33862748  1
  I  I89  1  0.16891459  0.83816807  0.66298069  1
  I  I90  1  0.50688834  0.16698315  -0.00014905  1
  I  I91  1  0.50005815  0.16639944  0.33504698  1
  I  I92  1  0.49977864  0.16636298  0.66532156  1
  I  I93  1  0.50231632  0.50025756  -0.00257259  1
  I  I94  1  0.50087932  0.50038524  0.33675242  1
  I  I95  1  0.50532546  0.49583714  0.66506303  1
  I  I96  1  0.50552273  0.83276948  -0.00331683  1
  I  I97  1  0.49597038  0.83345363  0.33707350  1
  I  I98  1  0.50025014  0.83743809  0.66572554  1
  I  I99  1  0.82626865  0.17034549  0.00277165  1
  I  I100  1  0.82847946  0.16914509  0.33486139  1
  I  I101  1  0.83220863  0.16957750  0.66326390  1
  I  I102  1  0.83051854  0.49554482  0.00243140  1
  I  I103  1  0.82739602  0.49719315  0.33497929  1
  I  I104  1  0.83153199  0.49595866  0.66362408  1
  I  I105  1  0.82380570  0.83274507  -0.00424062  1
  I  I106  1  0.83400100  0.83298502  0.33347270  1
  I  I107  1  0.83017267  0.83395997  0.66900065  1
  I  I108  1  -0.00380677  0.16982733  0.17240551  1
  I  I109  1  -0.00113217  0.16532488  0.49393289  1
  I  I110  1  0.00002601  0.16389935  0.83374313  1
  I  I111  1  -0.00565599  0.49367493  0.17548135  1
  I  I112  1  -0.00348027  0.49765325  0.49529701  1
  I  I113  1  -0.00032185  0.50286399  0.83318182  1
  I  I114  1  -0.00028922  0.83484042  0.16598798  1
  I  I115  1  0.00182542  0.83730635  0.50184962  1
  I  I116  1  -0.00204280  0.83306043  0.83234599  1
  I  I117  1  0.33635591  0.16566213  0.16663708  1
  I  I118  1  0.33535822  0.16583002  0.50082648  1
  I  I119  1  0.33890345  0.16304981  0.83407607  1
  I  I120  1  0.33354343  0.49943802  0.16609674  1
  I  I121  1  0.33692154  0.49745436  0.50510207  1
  I  I122  1  0.33933453  0.50173299  0.82411323  1
  I  I123  1  0.33365038  0.83462830  0.16137569  1
  I  I124  1  0.33541255  0.83781285  0.50624123  1
  I  I125  1  0.33749972  0.83452328  0.82991641  1
  I  I126  1  0.66650050  0.16959202  0.17243179  1
  I  I127  1  0.66554320  0.16669915  0.49966283  1
  I  I128  1  0.66299045  0.16791976  0.82769798  1
  I  I129  1  0.66951423  0.49756534  0.16922508  1
  I  I130  1  0.66584818  0.49687443  0.50040902  1
  I  I131  1  0.66301300  0.49756142  0.83029831  1
  I  I132  1  0.66672102  0.83242249  0.17162326  1
  I  I133  1  0.66352438  0.83609612  0.50268002  1
  I  I134  1  0.66426081  0.83400048  0.82633659  1
