# generated using pymatgen
data_Cs27Sn13Pb14I81
_symmetry_space_group_name_H-M   'P 1'
_cell_length_a   18.97477999
_cell_length_b   18.97296722
_cell_length_c   18.98333746
_cell_angle_alpha   89.99852142
_cell_angle_beta   90.00275234
_cell_angle_gamma   90.00027304
_symmetry_Int_Tables_number   1
_chemical_formula_structural   Cs27Sn13Pb14I81
_chemical_formula_sum   'Cs27 Sn13 Pb14 I81'
_cell_volume   6834.15104163
_cell_formula_units_Z   1
loop_
 _symmetry_equiv_pos_site_id
 _symmetry_equiv_pos_as_xyz
  1  'x, y, z'
loop_
 _atom_site_type_symbol
 _atom_site_label
 _atom_site_symmetry_multiplicity
 _atom_site_fract_x
 _atom_site_fract_y
 _atom_site_fract_z
 _atom_site_occupancy
  Cs  Cs0  1  -0.00100668  -0.00217170  0.00439235  1
  Cs  Cs1  1  -0.00402270  -0.00193653  0.33157731  1
  Cs  Cs2  1  -0.00219013  0.00448203  0.66407736  1
  Cs  Cs3  1  0.00082384  0.33476043  -0.00036991  1
  Cs  Cs4  1  0.00186290  0.33387307  0.33455068  1
  Cs  Cs5  1  0.00116421  0.33418598  0.66644660  1
  Cs  Cs6  1  0.00098035  0.66743338  -0.00258526  1
  Cs  Cs7  1  -0.00011247  0.66566751  0.33281373  1
  Cs  Cs8  1  -0.00016300  0.66394329  0.66963201  1
  Cs  Cs9  1  0.33850828  -0.00668141  -0.00200128  1
  Cs  Cs10  1  0.33132344  -0.00108172  0.33492679  1
  Cs  Cs11  1  0.33568362  -0.00025214  0.66699533  1
  Cs  Cs12  1  0.33410851  0.33299955  0.00211702  1
  Cs  Cs13  1  0.33182496  0.33361114  0.33525556  1
  Cs  Cs14  1  0.33090978  0.33414646  0.66423968  1
  Cs  Cs15  1  0.33315601  0.67482331  -0.00142034  1
  Cs  Cs16  1  0.33527246  0.66700382  0.33286625  1
  Cs  Cs17  1  0.33345092  0.66770913  0.66810813  1
  Cs  Cs18  1  0.66104275  0.00930072  0.00293636  1
  Cs  Cs19  1  0.67552129  -0.00867905  0.32842616  1
  Cs  Cs20  1  0.66642138  -0.00206462  0.66815221  1
  Cs  Cs21  1  0.66324644  0.32878799  0.00101500  1
  Cs  Cs22  1  0.66442734  0.33457747  0.33067722  1
  Cs  Cs23  1  0.66713323  0.33416138  0.66755717  1
  Cs  Cs24  1  0.66679342  0.66493854  -0.00005930  1
  Cs  Cs25  1  0.66484930  0.66943915  0.33243761  1
  Cs  Cs26  1  0.66737870  0.66655945  0.66674609  1
  Sn  Sn27  1  0.16618015  0.49944638  0.16718607  1
  Sn  Sn28  1  0.83314269  0.49972981  0.49970272  1
  Sn  Sn29  1  0.50031073  0.49976779  0.83270434  1
  Sn  Sn30  1  0.16687990  0.16734966  0.16664111  1
  Sn  Sn31  1  0.83315653  0.83334722  0.83350787  1
  Sn  Sn32  1  0.16680964  0.50029004  0.49935246  1
  Sn  Sn33  1  0.83236707  0.50035350  0.83358926  1
  Sn  Sn34  1  0.83413970  0.49973007  0.16649757  1
  Sn  Sn35  1  0.16734358  0.16651385  0.49979199  1
  Sn  Sn36  1  0.16636756  0.83312463  0.50032354  1
  Sn  Sn37  1  0.16664299  0.16650996  0.83369545  1
  Sn  Sn38  1  0.50002806  0.16712867  0.49953608  1
  Sn  Sn39  1  0.49988394  0.49914068  0.50097226  1
  Pb  Pb40  1  0.50284918  0.83095104  0.83299831  1
  Pb  Pb41  1  0.50012472  0.83355207  0.16675187  1
  Pb  Pb42  1  0.83564203  0.83056204  0.50185971  1
  Pb  Pb43  1  0.83350459  0.83054778  0.16368690  1
  Pb  Pb44  1  0.83281038  0.16864907  0.49989739  1
  Pb  Pb45  1  0.16697941  0.49893550  0.83377420  1
  Pb  Pb46  1  0.83507448  0.16715316  0.83330852  1
  Pb  Pb47  1  0.16662987  0.83306623  0.16888225  1
  Pb  Pb48  1  0.83557104  0.16925602  0.16680954  1
  Pb  Pb49  1  0.49758050  0.16911610  0.83097078  1
  Pb  Pb50  1  0.16452304  0.83648863  0.83086658  1
  Pb  Pb51  1  0.49724356  0.16677344  0.17019971  1
  Pb  Pb52  1  0.49822953  0.83332652  0.49999522  1
  Pb  Pb53  1  0.49936139  0.50013233  0.16679225  1
  I  I54  1  0.16769671  0.00322282  0.16837366  1
  I  I55  1  0.17191552  0.00148105  0.50086804  1
  I  I56  1  0.16462513  0.00437130  0.83278183  1
  I  I57  1  0.16255903  0.33427177  0.17183957  1
  I  I58  1  0.16689038  0.33399884  0.49955385  1
  I  I59  1  0.16450627  0.33114992  0.82804689  1
  I  I60  1  0.16305087  0.66300202  0.17137778  1
  I  I61  1  0.16611349  0.66462967  0.49589424  1
  I  I62  1  0.16839405  0.66662293  0.83278934  1
  I  I63  1  0.49768058  0.00063490  0.16729948  1
  I  I64  1  0.49176333  0.00321458  0.50018534  1
  I  I65  1  0.50055548  0.00032295  0.83195856  1
  I  I66  1  0.50240451  0.33365356  0.16441400  1
  I  I67  1  0.49414928  0.33504159  0.50371676  1
  I  I68  1  0.50695708  0.33714755  0.83102269  1
  I  I69  1  0.49683213  0.66578964  0.16907355  1
  I  I70  1  0.49893465  0.66274503  0.50305276  1
  I  I71  1  0.49904184  0.66238566  0.82658176  1
  I  I72  1  0.83472104  -0.00008672  0.16557156  1
  I  I73  1  0.83432513  -0.00023307  0.50276280  1
  I  I74  1  0.83844032  -0.00241403  0.83093634  1
  I  I75  1  0.83550951  0.33790578  0.16464196  1
  I  I76  1  0.83901999  0.33779930  0.50352978  1
  I  I77  1  0.83142503  0.33735210  0.83235337  1
  I  I78  1  0.84052355  0.66184331  0.16980534  1
  I  I79  1  0.83347055  0.66176222  0.49827043  1
  I  I80  1  0.83153625  0.66389532  0.83223945  1
  I  I81  1  0.16339405  0.17467475  0.00061219  1
  I  I82  1  0.17059659  0.16921760  0.33455225  1
  I  I83  1  0.16898181  0.16821695  0.66495255  1
  I  I84  1  0.16306085  0.49416679  0.00261121  1
  I  I85  1  0.16358443  0.49613393  0.33480845  1
  I  I86  1  0.16437691  0.49837534  0.66366033  1
  I  I87  1  0.16593212  0.83274871  -0.00018907  1
  I  I88  1  0.16616937  0.83586537  0.33704554  1
  I  I89  1  0.16616957  0.83022857  0.66301790  1
  I  I90  1  0.49835734  0.16806081  0.00002985  1
  I  I91  1  0.49263775  0.17679909  0.33814107  1
  I  I92  1  0.49242482  0.16994364  0.66308756  1
  I  I93  1  0.50352305  0.50045891  -0.00275362  1
  I  I94  1  0.50122506  0.49640720  0.33690025  1
  I  I95  1  0.50232134  0.49690672  0.66530432  1
  I  I96  1  0.49754965  0.83020835  -0.00057014  1
  I  I97  1  0.49957163  0.82996326  0.33398219  1
  I  I98  1  0.49901930  0.83412903  0.66649908  1
  I  I99  1  0.83655390  0.16947628  -0.00000135  1
  I  I100  1  0.83558431  0.16811433  0.33348340  1
  I  I101  1  0.83852360  0.17023613  0.66651888  1
  I  I102  1  0.83508799  0.50413502  -0.00034543  1
  I  I103  1  0.83560120  0.49770558  0.33399088  1
  I  I104  1  0.83400507  0.50310141  0.66634729  1
  I  I105  1  0.83655644  0.82538652  -0.00382787  1
  I  I106  1  0.83420049  0.83298306  0.33331953  1
  I  I107  1  0.83498309  0.82578308  0.66939144  1
  I  I108  1  0.00426028  0.16886035  0.17067274  1
  I  I109  1  0.00385941  0.16819181  0.50027207  1
  I  I110  1  0.00348251  0.17064045  0.82873398  1
  I  I111  1  0.00062872  0.49627209  0.17009495  1
  I  I112  1  0.00075790  0.49980047  0.50025182  1
  I  I113  1  -0.00251606  0.50152325  0.83076581  1
  I  I114  1  0.00013531  0.83489356  0.16703910  1
  I  I115  1  0.00372224  0.83467568  0.50047434  1
  I  I116  1  -0.00275112  0.82326219  0.83221963  1
  I  I117  1  0.32873570  0.17598840  0.16587890  1
  I  I118  1  0.33127218  0.17261894  0.50035904  1
  I  I119  1  0.32947481  0.16962163  0.83373686  1
  I  I120  1  0.32976856  0.49528145  0.17094843  1
  I  I121  1  0.33231914  0.49887644  0.50026447  1
  I  I122  1  0.33554731  0.49628677  0.82878053  1
  I  I123  1  0.33263610  0.82949007  0.16585627  1
  I  I124  1  0.32976510  0.82889575  0.50053151  1
  I  I125  1  0.33325300  0.83223899  0.83311195  1
  I  I126  1  0.66643962  0.16759870  0.16668788  1
  I  I127  1  0.66344762  0.17396214  0.50254825  1
  I  I128  1  0.66638853  0.16528748  0.83122200  1
  I  I129  1  0.66954104  0.50205705  0.16918489  1
  I  I130  1  0.66659176  0.49502358  0.50131087  1
  I  I131  1  0.66755101  0.50373240  0.82911020  1
  I  I132  1  0.66728165  0.83025695  0.16930718  1
  I  I133  1  0.66698461  0.83369031  0.50080947  1
  I  I134  1  0.67062521  0.82955788  0.83051256  1
