# generated using pymatgen
data_Cs27Sn13Pb14I81
_symmetry_space_group_name_H-M   'P 1'
_cell_length_a   18.97548526
_cell_length_b   18.97706656
_cell_length_c   18.97688289
_cell_angle_alpha   90.00041771
_cell_angle_beta   90.00132377
_cell_angle_gamma   90.00178833
_symmetry_Int_Tables_number   1
_chemical_formula_structural   Cs27Sn13Pb14I81
_chemical_formula_sum   'Cs27 Sn13 Pb14 I81'
_cell_volume   6833.55743399
_cell_formula_units_Z   1
loop_
 _symmetry_equiv_pos_site_id
 _symmetry_equiv_pos_as_xyz
  1  'x, y, z'
loop_
 _atom_site_type_symbol
 _atom_site_label
 _atom_site_symmetry_multiplicity
 _atom_site_fract_x
 _atom_site_fract_y
 _atom_site_fract_z
 _atom_site_occupancy
  Cs  Cs0  1  -0.00112917  -0.00404886  -0.00216271  1
  Cs  Cs1  1  -0.00448702  0.00162013  0.33203098  1
  Cs  Cs2  1  -0.00213268  0.00119731  0.67025638  1
  Cs  Cs3  1  0.00132718  0.33599423  -0.00013333  1
  Cs  Cs4  1  -0.00090156  0.33943341  0.33307506  1
  Cs  Cs5  1  0.00134313  0.33295378  0.66618299  1
  Cs  Cs6  1  0.00245635  0.66755269  -0.00101924  1
  Cs  Cs7  1  0.00310616  0.65659427  0.33246508  1
  Cs  Cs8  1  0.00362765  0.66522604  0.66874558  1
  Cs  Cs9  1  0.33231042  0.00083231  0.00583799  1
  Cs  Cs10  1  0.33191984  0.00020971  0.33277988  1
  Cs  Cs11  1  0.33035638  -0.00288506  0.66137694  1
  Cs  Cs12  1  0.33593091  0.33004988  -0.00111311  1
  Cs  Cs13  1  0.33252935  0.33054464  0.33138968  1
  Cs  Cs14  1  0.33313381  0.33387472  0.66907814  1
  Cs  Cs15  1  0.33553956  0.66812947  -0.00059985  1
  Cs  Cs16  1  0.33085333  0.66890061  0.33591971  1
  Cs  Cs17  1  0.33366771  0.66950307  0.66423469  1
  Cs  Cs18  1  0.66830839  0.00047981  0.00026115  1
  Cs  Cs19  1  0.66701592  -0.00122484  0.33381811  1
  Cs  Cs20  1  0.67009951  0.00047375  0.66503317  1
  Cs  Cs21  1  0.66242176  0.33254081  -0.00372406  1
  Cs  Cs22  1  0.66832221  0.33401497  0.33406519  1
  Cs  Cs23  1  0.66538185  0.33352309  0.66884872  1
  Cs  Cs24  1  0.66501485  0.66673974  0.00161942  1
  Cs  Cs25  1  0.66685807  0.66750931  0.33159985  1
  Cs  Cs26  1  0.66421135  0.66660434  0.66691195  1
  Sn  Sn27  1  0.83280921  0.83361698  0.16779626  1
  Sn  Sn28  1  0.16621146  0.16675563  0.50049224  1
  Sn  Sn29  1  0.50011383  0.50045909  0.16777825  1
  Sn  Sn30  1  0.83381164  0.50006194  0.83328391  1
  Sn  Sn31  1  0.50071699  0.83267810  0.16598565  1
  Sn  Sn32  1  0.16666735  0.16708601  0.83292528  1
  Sn  Sn33  1  0.50020137  0.49922059  0.49896852  1
  Sn  Sn34  1  0.16610072  0.49928935  0.83329202  1
  Sn  Sn35  1  0.83317434  0.16643368  0.16700764  1
  Sn  Sn36  1  0.50017626  0.16750443  0.49997859  1
  Sn  Sn37  1  0.50022576  0.83409385  0.83406216  1
  Sn  Sn38  1  0.83345383  0.16625548  0.49927339  1
  Sn  Sn39  1  0.83353896  0.83314305  0.49922043  1
  Pb  Pb40  1  0.49937504  0.50131089  0.83326141  1
  Pb  Pb41  1  0.17011999  0.49984839  0.16403668  1
  Pb  Pb42  1  0.16949598  0.49769981  0.50185685  1
  Pb  Pb43  1  0.83159041  0.49980345  0.50182541  1
  Pb  Pb44  1  0.16929304  0.83367030  0.83334122  1
  Pb  Pb45  1  0.83142286  0.50012328  0.16453772  1
  Pb  Pb46  1  0.16268898  0.83581699  0.49970354  1
  Pb  Pb47  1  0.83500259  0.16843381  0.83328985  1
  Pb  Pb48  1  0.50215116  0.16624587  0.16879845  1
  Pb  Pb49  1  0.83171556  0.83127565  0.83351530  1
  Pb  Pb50  1  0.49762418  0.16370139  0.83076274  1
  Pb  Pb51  1  0.16604421  0.83323151  0.16707091  1
  Pb  Pb52  1  0.50159726  0.83356565  0.49913478  1
  Pb  Pb53  1  0.16349573  0.16666635  0.16687608  1
  I  I54  1  0.17211943  0.00023411  0.16407823  1
  I  I55  1  0.17360513  0.00435935  0.50705920  1
  I  I56  1  0.16765133  0.00307387  0.82830912  1
  I  I57  1  0.16633424  0.33320015  0.16782358  1
  I  I58  1  0.16152083  0.32948478  0.50198437  1
  I  I59  1  0.16341122  0.33318536  0.82871478  1
  I  I60  1  0.16219369  0.66640138  0.16420187  1
  I  I61  1  0.16776029  0.66640340  0.50223405  1
  I  I62  1  0.16379836  0.66390817  0.83438733  1
  I  I63  1  0.50233647  -0.00285564  0.16359645  1
  I  I64  1  0.49869230  0.00275440  0.50115543  1
  I  I65  1  0.50074711  -0.00365873  0.83881329  1
  I  I66  1  0.50162341  0.33544956  0.16836086  1
  I  I67  1  0.50242125  0.33289754  0.49583635  1
  I  I68  1  0.50125691  0.33312156  0.83529200  1
  I  I69  1  0.50626970  0.66730696  0.16746574  1
  I  I70  1  0.50279128  0.66470207  0.50065006  1
  I  I71  1  0.49937976  0.66900940  0.83231746  1
  I  I72  1  0.82760294  -0.00050459  0.17025249  1
  I  I73  1  0.83047897  0.00121610  0.49733419  1
  I  I74  1  0.83394667  0.00002451  0.83308336  1
  I  I75  1  0.83274045  0.33085722  0.17099680  1
  I  I76  1  0.83460126  0.33000821  0.49682932  1
  I  I77  1  0.83295015  0.33620380  0.83312973  1
  I  I78  1  0.82963563  0.66965027  0.16978610  1
  I  I79  1  0.82862837  0.66906349  0.49720062  1
  I  I80  1  0.83815377  0.66358604  0.83272969  1
  I  I81  1  0.16586677  0.17077165  -0.00282743  1
  I  I82  1  0.16939372  0.16493468  0.33674645  1
  I  I83  1  0.16508968  0.17056416  0.66586182  1
  I  I84  1  0.16411088  0.49334062  -0.00399885  1
  I  I85  1  0.16552200  0.49891865  0.33349366  1
  I  I86  1  0.16511810  0.49808388  0.66978017  1
  I  I87  1  0.16327369  0.83591215  -0.00010294  1
  I  I88  1  0.17348579  0.83555666  0.33360190  1
  I  I89  1  0.16864192  0.83152780  0.66656021  1
  I  I90  1  0.50021046  0.16936029  0.00007133  1
  I  I91  1  0.49572854  0.16617506  0.33705760  1
  I  I92  1  0.50548626  0.17140305  0.66266120  1
  I  I93  1  0.50068232  0.50346040  0.00214852  1
  I  I94  1  0.50239059  0.50187617  0.33345605  1
  I  I95  1  0.50059589  0.49775782  0.66445114  1
  I  I96  1  0.50507509  0.82669013  0.00142823  1
  I  I97  1  0.50336259  0.83195722  0.33050258  1
  I  I98  1  0.50119616  0.83221500  0.66789116  1
  I  I99  1  0.83420192  0.16289978  0.00248687  1
  I  I100  1  0.83416533  0.16264240  0.33462048  1
  I  I101  1  0.83178335  0.16322423  0.66345173  1
  I  I102  1  0.83435431  0.49974864  -0.00306118  1
  I  I103  1  0.83292918  0.49989581  0.33330202  1
  I  I104  1  0.83360538  0.49979014  0.66949591  1
  I  I105  1  0.83030147  0.83724733  0.00303575  1
  I  I106  1  0.82574358  0.83894022  0.33285089  1
  I  I107  1  0.83059276  0.83786448  0.66418133  1
  I  I108  1  -0.00447979  0.16055515  0.17144261  1
  I  I109  1  -0.00074824  0.16074289  0.50112235  1
  I  I110  1  0.00287072  0.16801355  0.82759798  1
  I  I111  1  -0.00016322  0.50050079  0.16671941  1
  I  I112  1  0.00004758  0.50012056  0.50023768  1
  I  I113  1  0.00026638  0.49698925  0.83266415  1
  I  I114  1  -0.00417394  0.83895448  0.16956513  1
  I  I115  1  -0.00532597  0.83807823  0.49570186  1
  I  I116  1  -0.00006752  0.83370405  0.83341868  1
  I  I117  1  0.33353388  0.16657293  0.16730412  1
  I  I118  1  0.33357294  0.17167511  0.50531270  1
  I  I119  1  0.32987165  0.17404725  0.82880549  1
  I  I120  1  0.33818933  0.50557765  0.16904827  1
  I  I121  1  0.33752121  0.49651703  0.49896763  1
  I  I122  1  0.33096194  0.49665713  0.83317910  1
  I  I123  1  0.33692940  0.82943002  0.16182866  1
  I  I124  1  0.33340751  0.83393587  0.50082062  1
  I  I125  1  0.33720750  0.83066565  0.83808560  1
  I  I126  1  0.66998446  0.16538380  0.17191639  1
  I  I127  1  0.66728836  0.16623817  0.49557660  1
  I  I128  1  0.66661365  0.16865092  0.83204529  1
  I  I129  1  0.66358738  0.50156420  0.16726214  1
  I  I130  1  0.66366515  0.49482281  0.50033522  1
  I  I131  1  0.66800112  0.50187390  0.83305652  1
  I  I132  1  0.66664166  0.83327222  0.16654220  1
  I  I133  1  0.66935216  0.83927402  0.49964008  1
  I  I134  1  0.66398203  0.83000633  0.83418085  1
