# generated using pymatgen
data_Cs27Sn14Pb13I81
_symmetry_space_group_name_H-M   'P 1'
_cell_length_a   18.97874114
_cell_length_b   18.97016140
_cell_length_c   18.98558723
_cell_angle_alpha   90.00124816
_cell_angle_beta   89.99982863
_cell_angle_gamma   89.99946015
_symmetry_Int_Tables_number   1
_chemical_formula_structural   Cs27Sn14Pb13I81
_chemical_formula_sum   'Cs27 Sn14 Pb13 I81'
_cell_volume   6835.37684422
_cell_formula_units_Z   1
loop_
 _symmetry_equiv_pos_site_id
 _symmetry_equiv_pos_as_xyz
  1  'x, y, z'
loop_
 _atom_site_type_symbol
 _atom_site_label
 _atom_site_symmetry_multiplicity
 _atom_site_fract_x
 _atom_site_fract_y
 _atom_site_fract_z
 _atom_site_occupancy
  Cs  Cs0  1  -0.00230110  0.00055785  0.00202154  1
  Cs  Cs1  1  0.00002069  0.00146420  0.33258236  1
  Cs  Cs2  1  0.00126761  -0.00127541  0.66544906  1
  Cs  Cs3  1  -0.00482754  0.33448857  0.00106603  1
  Cs  Cs4  1  0.00605209  0.33154579  0.32864209  1
  Cs  Cs5  1  0.00695531  0.33509517  0.67029370  1
  Cs  Cs6  1  -0.00162066  0.66486026  -0.00122590  1
  Cs  Cs7  1  0.00061017  0.66589466  0.33246662  1
  Cs  Cs8  1  0.00062701  0.66609129  0.66869593  1
  Cs  Cs9  1  0.33458227  -0.00265100  -0.00127296  1
  Cs  Cs10  1  0.33434045  -0.00027150  0.33264057  1
  Cs  Cs11  1  0.33288318  0.00037535  0.66907050  1
  Cs  Cs12  1  0.33144096  0.33062912  -0.00216255  1
  Cs  Cs13  1  0.33116740  0.33346020  0.33499135  1
  Cs  Cs14  1  0.32814244  0.33067010  0.66598055  1
  Cs  Cs15  1  0.33505249  0.66907400  0.00040946  1
  Cs  Cs16  1  0.33592560  0.66655201  0.33210618  1
  Cs  Cs17  1  0.33448028  0.66742984  0.66754615  1
  Cs  Cs18  1  0.66650947  0.00134192  -0.00055415  1
  Cs  Cs19  1  0.66672561  0.00073092  0.33633459  1
  Cs  Cs20  1  0.66727036  0.00151837  0.66331362  1
  Cs  Cs21  1  0.67173748  0.33161654  -0.00169593  1
  Cs  Cs22  1  0.66625929  0.33319548  0.33504058  1
  Cs  Cs23  1  0.66683437  0.33262837  0.66475856  1
  Cs  Cs24  1  0.66553873  0.66614318  0.00070348  1
  Cs  Cs25  1  0.66535843  0.66601218  0.33611740  1
  Cs  Cs26  1  0.66611630  0.66645956  0.66339140  1
  Sn  Sn27  1  0.50069390  0.83264514  0.83393415  1
  Sn  Sn28  1  0.16666163  0.83317890  0.16665656  1
  Sn  Sn29  1  0.50049297  0.49886220  0.50025770  1
  Sn  Sn30  1  0.50018531  0.49948142  0.16633655  1
  Sn  Sn31  1  0.50060371  0.16765712  0.49923576  1
  Sn  Sn32  1  0.16691385  0.83302364  0.49975302  1
  Sn  Sn33  1  0.83315389  0.49852052  0.49983568  1
  Sn  Sn34  1  0.50019055  0.16672893  0.16742963  1
  Sn  Sn35  1  0.50050596  0.83341139  0.16604501  1
  Sn  Sn36  1  0.83262214  0.83326727  0.83404241  1
  Sn  Sn37  1  0.83265670  0.83313983  0.16605600  1
  Sn  Sn38  1  0.83309779  0.16845021  0.50009659  1
  Sn  Sn39  1  0.50017147  0.50053674  0.83320168  1
  Sn  Sn40  1  0.16664760  0.83318553  0.83363703  1
  Pb  Pb41  1  0.16691031  0.50222166  0.49986131  1
  Pb  Pb42  1  0.16635432  0.16454676  0.83383972  1
  Pb  Pb43  1  0.49845320  0.83345002  0.50013140  1
  Pb  Pb44  1  0.83325144  0.16466084  0.83071230  1
  Pb  Pb45  1  0.83108931  0.16470528  0.16872412  1
  Pb  Pb46  1  0.83547958  0.83310021  0.49986982  1
  Pb  Pb47  1  0.83103483  0.50201902  0.83113832  1
  Pb  Pb48  1  0.16689587  0.16443914  0.49994058  1
  Pb  Pb49  1  0.16906363  0.50200979  0.83370849  1
  Pb  Pb50  1  0.16909305  0.16471171  0.16641293  1
  Pb  Pb51  1  0.83117888  0.50195195  0.16881427  1
  Pb  Pb52  1  0.16896107  0.50194083  0.16640584  1
  Pb  Pb53  1  0.50010461  0.16685836  0.83321177  1
  I  I54  1  0.16984471  -0.00480537  0.16684705  1
  I  I55  1  0.16716869  -0.00388154  0.50048319  1
  I  I56  1  0.17220798  -0.00538230  0.83243221  1
  I  I57  1  0.16841027  0.33332115  0.16901764  1
  I  I58  1  0.16722436  0.33335689  0.50035939  1
  I  I59  1  0.16972165  0.33378375  0.83049297  1
  I  I60  1  0.17006751  0.67143263  0.16684882  1
  I  I61  1  0.16744961  0.67055008  0.50006007  1
  I  I62  1  0.16549727  0.67134245  0.83305556  1
  I  I63  1  0.49914546  -0.00151688  0.16730379  1
  I  I64  1  0.50277801  0.00219086  0.49690368  1
  I  I65  1  0.49840605  -0.00355033  0.83626602  1
  I  I66  1  0.50051863  0.33371801  0.16835500  1
  I  I67  1  0.50387409  0.33382478  0.49676927  1
  I  I68  1  0.50085333  0.33654582  0.83568364  1
  I  I69  1  0.49922012  0.66776275  0.16696606  1
  I  I70  1  0.50290319  0.66426696  0.49802754  1
  I  I71  1  0.49926822  0.66819088  0.83535328  1
  I  I72  1  0.83098383  -0.00410378  0.16588936  1
  I  I73  1  0.82879265  0.00171667  0.50001370  1
  I  I74  1  0.83008350  -0.00467536  0.83462355  1
  I  I75  1  0.83159900  0.33335327  0.16579100  1
  I  I76  1  0.82516263  0.33350495  0.49993096  1
  I  I77  1  0.83053722  0.33366571  0.83426373  1
  I  I78  1  0.83091601  0.67073777  0.16604031  1
  I  I79  1  0.82778916  0.66472806  0.49988363  1
  I  I80  1  0.83522619  0.67081392  0.83418105  1
  I  I81  1  0.17081902  0.16293309  0.00027697  1
  I  I82  1  0.16599114  0.16079301  0.33338096  1
  I  I83  1  0.17022591  0.16143088  0.66639788  1
  I  I84  1  0.16843627  0.50346738  0.00003235  1
  I  I85  1  0.16997248  0.50614854  0.33335662  1
  I  I86  1  0.16998753  0.50527321  0.66658239  1
  I  I87  1  0.16924329  0.83357958  0.00011467  1
  I  I88  1  0.16784112  0.83340298  0.33240450  1
  I  I89  1  0.16722701  0.83342236  0.66737856  1
  I  I90  1  0.49820104  0.16616111  0.00294703  1
  I  I91  1  0.50347462  0.16682507  0.33359431  1
  I  I92  1  0.50348391  0.16776973  0.66354200  1
  I  I93  1  0.49781201  0.50426487  0.00032865  1
  I  I94  1  0.50346107  0.50208597  0.33340604  1
  I  I95  1  0.50401882  0.50282850  0.66622705  1
  I  I96  1  0.49606231  0.83110658  0.00071118  1
  I  I97  1  0.49976081  0.83138423  0.33047966  1
  I  I98  1  0.49949974  0.83063940  0.66930352  1
  I  I99  1  0.83182540  0.16567358  0.00022160  1
  I  I100  1  0.82961878  0.16562652  0.33671637  1
  I  I101  1  0.82406694  0.16592075  0.66252473  1
  I  I102  1  0.83217803  0.50070661  0.00001091  1
  I  I103  1  0.82555973  0.50135177  0.33673422  1
  I  I104  1  0.82560740  0.50085721  0.66317436  1
  I  I105  1  0.83636160  0.83328478  0.00021869  1
  I  I106  1  0.83192126  0.83336540  0.33086052  1
  I  I107  1  0.83283248  0.83334817  0.66898441  1
  I  I108  1  -0.00030254  0.16227523  0.16985011  1
  I  I109  1  -0.00289722  0.16745496  0.50132577  1
  I  I110  1  -0.00027539  0.16289618  0.82948123  1
  I  I111  1  -0.00033564  0.50372804  0.17042813  1
  I  I112  1  -0.00293046  0.49901872  0.50040467  1
  I  I113  1  -0.00031557  0.50339895  0.82883652  1
  I  I114  1  -0.00006774  0.83375958  0.16504576  1
  I  I115  1  0.00312299  0.83366607  0.50014645  1
  I  I116  1  0.00000452  0.83550036  0.83477164  1
  I  I117  1  0.33803756  0.16415509  0.17392460  1
  I  I118  1  0.33673915  0.16983152  0.49630944  1
  I  I119  1  0.33387830  0.16354224  0.83021834  1
  I  I120  1  0.33834278  0.50365133  0.17068342  1
  I  I121  1  0.33719819  0.49754207  0.49957468  1
  I  I122  1  0.33804137  0.50690786  0.83046455  1
  I  I123  1  0.33471476  0.83330680  0.16469062  1
  I  I124  1  0.33069377  0.83323900  0.49989239  1
  I  I125  1  0.33420297  0.82977116  0.83559584  1
  I  I126  1  0.66262701  0.16249312  0.16877078  1
  I  I127  1  0.66527931  0.16793849  0.49633077  1
  I  I128  1  0.66632889  0.16101752  0.83458465  1
  I  I129  1  0.66232465  0.50467419  0.16528790  1
  I  I130  1  0.66477572  0.49853507  0.49984563  1
  I  I131  1  0.66260703  0.50806334  0.83522231  1
  I  I132  1  0.66519350  0.83319006  0.16022186  1
  I  I133  1  0.66660291  0.83365529  0.50032648  1
  I  I134  1  0.66565391  0.82990329  0.84001398  1
