# generated using pymatgen
data_Cs27Sn14Pb13I81
_symmetry_space_group_name_H-M   'P 1'
_cell_length_a   18.97406422
_cell_length_b   18.97351869
_cell_length_c   18.97761318
_cell_angle_alpha   90.00132967
_cell_angle_beta   89.99964168
_cell_angle_gamma   89.99799463
_symmetry_Int_Tables_number   1
_chemical_formula_structural   Cs27Sn14Pb13I81
_chemical_formula_sum   'Cs27 Sn14 Pb13 I81'
_cell_volume   6832.03111329
_cell_formula_units_Z   1
loop_
 _symmetry_equiv_pos_site_id
 _symmetry_equiv_pos_as_xyz
  1  'x, y, z'
loop_
 _atom_site_type_symbol
 _atom_site_label
 _atom_site_symmetry_multiplicity
 _atom_site_fract_x
 _atom_site_fract_y
 _atom_site_fract_z
 _atom_site_occupancy
  Cs  Cs0  1  -0.00547892  -0.00144989  -0.00477743  1
  Cs  Cs1  1  0.00464879  0.00028204  0.33635426  1
  Cs  Cs2  1  -0.00078872  0.00182574  0.66616806  1
  Cs  Cs3  1  0.00364655  0.34063861  -0.00155471  1
  Cs  Cs4  1  -0.00105810  0.33474035  0.33285924  1
  Cs  Cs5  1  -0.00066130  0.33153173  0.66728131  1
  Cs  Cs6  1  -0.00403683  0.66331811  0.00328183  1
  Cs  Cs7  1  0.00030052  0.66547014  0.33277814  1
  Cs  Cs8  1  -0.00203463  0.66712497  0.66516327  1
  Cs  Cs9  1  0.33476746  0.00026320  0.00222474  1
  Cs  Cs10  1  0.33262492  -0.00130644  0.33338397  1
  Cs  Cs11  1  0.33150080  -0.00319590  0.66417251  1
  Cs  Cs12  1  0.33331824  0.33251075  -0.00921765  1
  Cs  Cs13  1  0.33316408  0.33112001  0.33410090  1
  Cs  Cs14  1  0.33554318  0.33590357  0.67319299  1
  Cs  Cs15  1  0.33236430  0.66650155  0.00110280  1
  Cs  Cs16  1  0.33438710  0.66808406  0.33379510  1
  Cs  Cs17  1  0.33543185  0.66771601  0.66559240  1
  Cs  Cs18  1  0.67172615  0.00593522  0.00014988  1
  Cs  Cs19  1  0.66560848  0.00389858  0.33260690  1
  Cs  Cs20  1  0.67134058  -0.00002195  0.66617408  1
  Cs  Cs21  1  0.66329385  0.32222452  0.00368055  1
  Cs  Cs22  1  0.66737167  0.32888018  0.33117059  1
  Cs  Cs23  1  0.66621750  0.33710451  0.66846836  1
  Cs  Cs24  1  0.67098082  0.66939335  0.00283827  1
  Cs  Cs25  1  0.66455592  0.66663222  0.33390368  1
  Cs  Cs26  1  0.66648100  0.66477415  0.66653408  1
  Sn  Sn27  1  0.83283686  0.50005658  0.83284048  1
  Sn  Sn28  1  0.49962794  0.50045733  0.16670671  1
  Sn  Sn29  1  0.49892804  0.16591761  0.50039583  1
  Sn  Sn30  1  0.49944258  0.83255967  0.16640414  1
  Sn  Sn31  1  0.49969598  0.83322746  0.83356671  1
  Sn  Sn32  1  0.83390582  0.50083999  0.50066217  1
  Sn  Sn33  1  0.83325335  0.83251584  0.49953686  1
  Sn  Sn34  1  0.16721775  0.83410501  0.16642697  1
  Sn  Sn35  1  0.50035517  0.83412906  0.50003525  1
  Sn  Sn36  1  0.16638363  0.49991126  0.50009968  1
  Sn  Sn37  1  0.16659075  0.83309349  0.49998867  1
  Sn  Sn38  1  0.16791714  0.16694502  0.49943796  1
  Sn  Sn39  1  0.16672925  0.16596122  0.16704924  1
  Sn  Sn40  1  0.16716558  0.83307915  0.83352424  1
  Pb  Pb41  1  0.49761267  0.16582043  0.16852361  1
  Pb  Pb42  1  0.83768640  0.16651969  0.16692722  1
  Pb  Pb43  1  0.49980769  0.16340051  0.83002895  1
  Pb  Pb44  1  0.50236682  0.50269357  0.83635959  1
  Pb  Pb45  1  0.83055060  0.50000378  0.16736898  1
  Pb  Pb46  1  0.16877319  0.50009225  0.16867195  1
  Pb  Pb47  1  0.83360771  0.16706943  0.49997135  1
  Pb  Pb48  1  0.16522671  0.50302973  0.83059539  1
  Pb  Pb49  1  0.16669949  0.16402188  0.83308479  1
  Pb  Pb50  1  0.83359286  0.17015452  0.83309552  1
  Pb  Pb51  1  0.50009880  0.49986521  0.49879229  1
  Pb  Pb52  1  0.83354471  0.83361759  0.16958848  1
  Pb  Pb53  1  0.83327278  0.83203301  0.83102417  1
  I  I54  1  0.17292036  -0.00186856  0.17333146  1
  I  I55  1  0.16692681  -0.00162469  0.49939046  1
  I  I56  1  0.16989542  -0.00435733  0.82786860  1
  I  I57  1  0.16731490  0.33093767  0.17390743  1
  I  I58  1  0.16595595  0.33293414  0.49375355  1
  I  I59  1  0.16400766  0.33366262  0.83371923  1
  I  I60  1  0.16865789  0.67004250  0.16843727  1
  I  I61  1  0.16627660  0.66834924  0.49979015  1
  I  I62  1  0.17066831  0.67108745  0.83320880  1
  I  I63  1  0.49745144  -0.00362312  0.16627154  1
  I  I64  1  0.49710422  -0.00221274  0.49794118  1
  I  I65  1  0.49600688  -0.00489837  0.83826629  1
  I  I66  1  0.50077811  0.33496299  0.17097230  1
  I  I67  1  0.49704167  0.33103070  0.49590916  1
  I  I68  1  0.50217130  0.33343893  0.83380322  1
  I  I69  1  0.49473867  0.66929290  0.17042870  1
  I  I70  1  0.49755329  0.67008303  0.50103290  1
  I  I71  1  0.49588986  0.67075582  0.82609673  1
  I  I72  1  0.82723684  -0.00024143  0.16792185  1
  I  I73  1  0.83530644  -0.00301964  0.49963936  1
  I  I74  1  0.83338803  -0.00033880  0.83214543  1
  I  I75  1  0.83104303  0.33348725  0.16936763  1
  I  I76  1  0.83661174  0.33657452  0.50354522  1
  I  I77  1  0.83394876  0.33800561  0.82386754  1
  I  I78  1  0.83761185  0.66682012  0.16586662  1
  I  I79  1  0.83657869  0.66720415  0.50312904  1
  I  I80  1  0.83378009  0.66439005  0.82920420  1
  I  I81  1  0.16665738  0.16199536  0.00302385  1
  I  I82  1  0.17015515  0.16086571  0.33507216  1
  I  I83  1  0.16910598  0.16539090  0.66289731  1
  I  I84  1  0.16477826  0.49942932  -0.00004509  1
  I  I85  1  0.16109872  0.50478105  0.33700524  1
  I  I86  1  0.16659787  0.49990579  0.66219809  1
  I  I87  1  0.17433760  0.83789842  0.00080203  1
  I  I88  1  0.16861534  0.83381429  0.33455972  1
  I  I89  1  0.16919903  0.83286813  0.66489658  1
  I  I90  1  0.49946708  0.16739653  0.00011827  1
  I  I91  1  0.49838973  0.16109569  0.33656995  1
  I  I92  1  0.49307737  0.16279673  0.66188670  1
  I  I93  1  0.49994915  0.50608895  0.00387145  1
  I  I94  1  0.50078212  0.50711873  0.33133777  1
  I  I95  1  0.49866577  0.50007033  0.66664710  1
  I  I96  1  0.49168442  0.82673293  0.00063797  1
  I  I97  1  0.49738080  0.83256762  0.33410064  1
  I  I98  1  0.49664800  0.83739030  0.66532097  1
  I  I99  1  0.83252536  0.16691322  0.00005375  1
  I  I100  1  0.83008085  0.16926681  0.33388356  1
  I  I101  1  0.83576239  0.16316599  0.66602126  1
  I  I102  1  0.83293747  0.50190012  -0.00237631  1
  I  I103  1  0.83713880  0.50412472  0.33688098  1
  I  I104  1  0.83660444  0.50513387  0.66462020  1
  I  I105  1  0.83401713  0.83089268  -0.00011173  1
  I  I106  1  0.83388968  0.82645011  0.33795757  1
  I  I107  1  0.83373646  0.83151472  0.66268243  1
  I  I108  1  0.00559208  0.16038132  0.17599935  1
  I  I109  1  0.00355718  0.16353101  0.49652332  1
  I  I110  1  0.00039658  0.16215916  0.83099974  1
  I  I111  1  0.00023585  0.49969932  0.16542363  1
  I  I112  1  0.00051660  0.50412575  0.50214034  1
  I  I113  1  -0.00264975  0.50300639  0.83200177  1
  I  I114  1  0.00373988  0.83703258  0.16706869  1
  I  I115  1  0.00159468  0.83314455  0.50020883  1
  I  I116  1  0.00285774  0.83271987  0.83270868  1
  I  I117  1  0.32989345  0.16377420  0.17140433  1
  I  I118  1  0.33223021  0.16224904  0.49568866  1
  I  I119  1  0.33329686  0.17190555  0.83439117  1
  I  I120  1  0.33626719  0.50418910  0.17057513  1
  I  I121  1  0.33076229  0.50318414  0.49687004  1
  I  I122  1  0.33349122  0.49865022  0.83252538  1
  I  I123  1  0.33309411  0.83285271  0.17150645  1
  I  I124  1  0.33278352  0.83353806  0.49994140  1
  I  I125  1  0.33316177  0.83262132  0.82793390  1
  I  I126  1  0.66624507  0.16739901  0.16834857  1
  I  I127  1  0.66384119  0.16236408  0.49979830  1
  I  I128  1  0.66643356  0.16342975  0.83186321  1
  I  I129  1  0.66286063  0.50828922  0.16992693  1
  I  I130  1  0.66905809  0.50424581  0.50217514  1
  I  I131  1  0.66969397  0.50408702  0.82270619  1
  I  I132  1  0.66330152  0.82804502  0.16731801  1
  I  I133  1  0.66565056  0.83284696  0.50045001  1
  I  I134  1  0.66384132  0.83106514  0.83203924  1
