# generated using pymatgen
data_Cs27Sn13Pb14I81
_symmetry_space_group_name_H-M   'P 1'
_cell_length_a   18.97501190
_cell_length_b   18.97866438
_cell_length_c   18.97501199
_cell_angle_alpha   90.00049801
_cell_angle_beta   90.00132287
_cell_angle_gamma   90.00049801
_symmetry_Int_Tables_number   1
_chemical_formula_structural   Cs27Sn13Pb14I81
_chemical_formula_sum   'Cs27 Sn13 Pb14 I81'
_cell_volume   6833.28857233
_cell_formula_units_Z   1
loop_
 _symmetry_equiv_pos_site_id
 _symmetry_equiv_pos_as_xyz
  1  'x, y, z'
loop_
 _atom_site_type_symbol
 _atom_site_label
 _atom_site_symmetry_multiplicity
 _atom_site_fract_x
 _atom_site_fract_y
 _atom_site_fract_z
 _atom_site_occupancy
  Cs  Cs0  1  0.00010277  0.00269433  0.00137094  1
  Cs  Cs1  1  0.00159424  0.00246887  0.32926381  1
  Cs  Cs2  1  -0.00274135  0.00000009  0.66940791  1
  Cs  Cs3  1  0.00148385  0.33043348  -0.01067184  1
  Cs  Cs4  1  -0.00028864  0.33348422  0.33411440  1
  Cs  Cs5  1  0.00025012  0.33247167  0.67186692  1
  Cs  Cs6  1  -0.00207545  0.66710490  -0.00099622  1
  Cs  Cs7  1  0.00168419  0.66449659  0.33460298  1
  Cs  Cs8  1  -0.00520047  0.66752821  0.66641655  1
  Cs  Cs9  1  0.33336169  -0.00142987  0.00150260  1
  Cs  Cs10  1  0.33440760  -0.00000000  0.33225905  1
  Cs  Cs11  1  0.33740275  -0.00246876  0.66507245  1
  Cs  Cs12  1  0.33408094  0.33493926  -0.00461260  1
  Cs  Cs13  1  0.33248844  0.33458731  0.33604262  1
  Cs  Cs14  1  0.33206363  0.33550369  0.66498227  1
  Cs  Cs15  1  0.33590373  0.66773383  -0.00179600  1
  Cs  Cs16  1  0.33062406  0.66541282  0.33417807  1
  Cs  Cs17  1  0.33255223  0.66651571  0.66695523  1
  Cs  Cs18  1  0.66589513  0.00000000  0.00077145  1
  Cs  Cs19  1  0.66516390  0.00142994  0.33330497  1
  Cs  Cs20  1  0.66529563  -0.00269436  0.66656394  1
  Cs  Cs21  1  0.66482371  0.33874771  0.00211955  1
  Cs  Cs22  1  0.66846250  0.33226608  0.33076299  1
  Cs  Cs23  1  0.66766283  0.33289525  0.66874236  1
  Cs  Cs24  1  0.66454731  0.66125232  0.00184299  1
  Cs  Cs25  1  0.67127939  0.66506077  0.33258579  1
  Cs  Cs26  1  0.67733866  0.66956637  0.66518283  1
  Sn  Sn27  1  0.50024628  0.16624745  0.16594841  1
  Sn  Sn28  1  0.16669144  0.49960935  0.16660844  1
  Sn  Sn29  1  0.83245914  0.83399067  0.16684925  1
  Sn  Sn30  1  0.83416623  0.16636724  0.49941460  1
  Sn  Sn31  1  0.50005829  0.50039067  0.49997523  1
  Sn  Sn32  1  0.83271283  0.16600473  0.16726254  1
  Sn  Sn33  1  0.16725208  0.83363276  0.83250037  1
  Sn  Sn34  1  0.50071824  0.83375256  0.16642041  1
  Sn  Sn35  1  0.16586642  0.16637298  0.49975666  1
  Sn  Sn36  1  0.16690999  0.83362699  0.50080030  1
  Sn  Sn37  1  0.16736221  0.50000002  0.49930440  1
  Sn  Sn38  1  0.49981743  0.16600938  0.83420754  1
  Sn  Sn39  1  0.49940411  0.83399529  0.83395380  1
  Pb  Pb40  1  0.50010637  0.16813453  0.49973933  1
  Pb  Pb41  1  0.83272690  0.83359088  0.83632818  1
  Pb  Pb42  1  0.83632524  0.49909563  0.16660114  1
  Pb  Pb43  1  0.83320888  0.50000005  0.83345782  1
  Pb  Pb44  1  0.16675532  0.50275822  0.83254973  1
  Pb  Pb45  1  0.83033848  0.16640911  0.83393977  1
  Pb  Pb46  1  0.16705666  0.16897139  0.16799667  1
  Pb  Pb47  1  0.16692736  0.83186550  0.16656028  1
  Pb  Pb48  1  0.49866999  0.83102859  0.49961005  1
  Pb  Pb49  1  0.50006550  0.50090441  0.83034141  1
  Pb  Pb50  1  0.16937008  0.16401365  0.83042703  1
  Pb  Pb51  1  0.83623967  0.83598640  0.49729658  1
  Pb  Pb52  1  0.49810009  0.49999999  0.16856659  1
  Pb  Pb53  1  0.83411702  0.49724176  0.49991135  1
  I  I54  1  0.16652210  0.00009564  0.16859093  1
  I  I55  1  0.16315139  -0.00000001  0.50351503  1
  I  I56  1  0.16862806  -0.00376141  0.82954096  1
  I  I57  1  0.16746136  0.33642622  0.17452581  1
  I  I58  1  0.16742711  0.33345833  0.49399550  1
  I  I59  1  0.16740607  0.33305133  0.83312874  1
  I  I60  1  0.16712320  0.66432095  0.17315050  1
  I  I61  1  0.17267160  0.66654164  0.49923948  1
  I  I62  1  0.17379641  0.67060957  0.82920315  1
  I  I63  1  0.50254521  -0.00000000  0.16412164  1
  I  I64  1  0.49807597  -0.00009566  0.50014435  1
  I  I65  1  0.49572293  -0.00067391  0.83629163  1
  I  I66  1  0.50350622  0.33031188  0.16421029  1
  I  I67  1  0.49351629  0.33567909  0.49954341  1
  I  I68  1  0.50136215  0.33062303  0.83698424  1
  I  I69  1  0.50245639  0.66968817  0.16316024  1
  I  I70  1  0.49214045  0.66357379  0.49920539  1
  I  I71  1  0.49474814  0.67041438  0.83820137  1
  I  I72  1  0.83037515  0.00067391  0.17094389  1
  I  I73  1  0.83712586  0.00376142  0.49803830  1
  I  I74  1  0.83626003  -0.00000003  0.83040684  1
  I  I75  1  0.82846546  0.32958561  0.17191837  1
  I  I76  1  0.83746379  0.32939043  0.49287049  1
  I  I77  1  0.83246005  0.33262492  0.83462820  1
  I  I78  1  0.82968221  0.66937696  0.16530450  1
  I  I79  1  0.83353790  0.66694865  0.49926073  1
  I  I80  1  0.83203843  0.66737504  0.83420638  1
  I  I81  1  0.16391889  0.16755777  -0.00018662  1
  I  I82  1  0.16819147  0.16241470  0.33647819  1
  I  I83  1  0.16234227  0.17235842  0.66222697  1
  I  I84  1  0.16620296  0.50170631  0.00227265  1
  I  I85  1  0.17040093  0.50290345  0.33514874  1
  I  I86  1  0.17104274  0.49767568  0.66296737  1
  I  I87  1  0.16814252  0.83075757  -0.00208875  1
  I  I88  1  0.16681062  0.83364597  0.33590919  1
  I  I89  1  0.17321566  0.83216612  0.66605877  1
  I  I90  1  0.50467557  0.16324207  0.00121218  1
  I  I91  1  0.50077108  0.16319609  0.33057301  1
  I  I92  1  0.49886663  0.16353647  0.66870404  1
  I  I93  1  0.49810693  0.49957147  0.00007862  1
  I  I94  1  0.49564569  0.49915275  0.33622314  1
  I  I95  1  0.49154375  0.49777460  0.66278404  1
  I  I96  1  0.49673493  0.83712790  0.00040179  1
  I  I97  1  0.50126682  0.83760441  0.33028101  1
  I  I98  1  0.49579875  0.83734123  0.66921722  1
  I  I99  1  0.83222417  0.16253351  0.00360130  1
  I  I100  1  0.83123145  0.16321488  0.33253779  1
  I  I101  1  0.83696430  0.16903335  0.66401304  1
  I  I102  1  0.83531819  0.49845140  0.00067980  1
  I  I103  1  0.83214724  0.50207662  0.33325615  1
  I  I104  1  0.83409063  0.49903266  0.66608052  1
  I  I105  1  0.83605740  0.84035184  0.00411267  1
  I  I106  1  0.82803702  0.83499424  0.32959308  1
  I  I107  1  0.83135874  0.83345850  0.66647720  1
  I  I108  1  -0.00255052  0.16265892  0.17086769  1
  I  I109  1  0.00060794  0.16783392  0.49345135  1
  I  I110  1  0.00018946  0.16654177  0.83530786  1
  I  I111  1  0.00388267  0.50222535  0.17512313  1
  I  I112  1  0.00369930  0.50232451  0.49562382  1
  I  I113  1  0.00058616  0.50096728  0.83257600  1
  I  I114  1  -0.00203739  0.83646330  0.16780009  1
  I  I115  1  0.00443969  0.82764122  0.50432460  1
  I  I116  1  0.00265362  0.83096641  0.82970229  1
  I  I117  1  0.33638568  0.16239536  0.16540018  1
  I  I118  1  0.33075749  0.16635392  0.49985577  1
  I  I119  1  0.33707359  0.16500548  0.83862949  1
  I  I120  1  0.33044351  0.50084734  0.17102052  1
  I  I121  1  0.33151796  0.49709611  0.49626621  1
  I  I122  1  0.33341052  0.49792333  0.83451955  1
  I  I123  1  0.33609368  0.83680401  0.16589590  1
  I  I124  1  0.33018849  0.83758568  0.49847482  1
  I  I125  1  0.33412885  0.83678535  0.83543541  1
  I  I126  1  0.66626492  0.16287227  0.16993161  1
  I  I127  1  0.66875542  0.16924253  0.49852402  1
  I  I128  1  0.66255399  0.15964810  0.83060933  1
  I  I129  1  0.66658806  0.50042830  0.16856008  1
  I  I130  1  0.66439400  0.49829388  0.50046339  1
  I  I131  1  0.66598688  0.50154871  0.83134816  1
  I  I132  1  0.66545450  0.83675792  0.16199088  1
  I  I133  1  0.66685327  0.83244208  0.50274799  1
  I  I134  1  0.66306535  0.83746643  0.83444254  1
