# generated using pymatgen
data_Cs27Sn13Pb14I81
_symmetry_space_group_name_H-M   'P 1'
_cell_length_a   18.96996164
_cell_length_b   18.98984029
_cell_length_c   18.97565619
_cell_angle_alpha   90.00087008
_cell_angle_beta   90.00092661
_cell_angle_gamma   90.00107840
_symmetry_Int_Tables_number   1
_chemical_formula_structural   Cs27Sn13Pb14I81
_chemical_formula_sum   'Cs27 Sn13 Pb14 I81'
_cell_volume   6835.72476187
_cell_formula_units_Z   1
loop_
 _symmetry_equiv_pos_site_id
 _symmetry_equiv_pos_as_xyz
  1  'x, y, z'
loop_
 _atom_site_type_symbol
 _atom_site_label
 _atom_site_symmetry_multiplicity
 _atom_site_fract_x
 _atom_site_fract_y
 _atom_site_fract_z
 _atom_site_occupancy
  Cs  Cs0  1  0.00418040  0.00017907  0.00162452  1
  Cs  Cs1  1  0.00003632  0.00290896  0.33439880  1
  Cs  Cs2  1  0.00070677  0.00036890  0.66426034  1
  Cs  Cs3  1  0.00363237  0.33220381  -0.00029938  1
  Cs  Cs4  1  -0.00048676  0.33112050  0.33388970  1
  Cs  Cs5  1  0.00067716  0.33649221  0.66697206  1
  Cs  Cs6  1  -0.00083002  0.66738219  0.00003976  1
  Cs  Cs7  1  0.00212179  0.66462503  0.33411235  1
  Cs  Cs8  1  -0.00081894  0.66190233  0.66514790  1
  Cs  Cs9  1  0.32901829  -0.00232924  -0.00157825  1
  Cs  Cs10  1  0.33203794  0.00051263  0.33483788  1
  Cs  Cs11  1  0.33283029  -0.00108920  0.66607982  1
  Cs  Cs12  1  0.33379729  0.33299644  -0.00036052  1
  Cs  Cs13  1  0.33417812  0.33505649  0.33443575  1
  Cs  Cs14  1  0.33208281  0.33249129  0.66593171  1
  Cs  Cs15  1  0.32858479  0.66956276  0.00024655  1
  Cs  Cs16  1  0.33240799  0.66362481  0.33416162  1
  Cs  Cs17  1  0.33345290  0.66951501  0.66464433  1
  Cs  Cs18  1  0.66634771  -0.00086248  -0.00022022  1
  Cs  Cs19  1  0.66890259  0.00024685  0.33255536  1
  Cs  Cs20  1  0.66637655  -0.00215848  0.66724946  1
  Cs  Cs21  1  0.66607659  0.33537284  -0.00075995  1
  Cs  Cs22  1  0.66685048  0.33254723  0.33206269  1
  Cs  Cs23  1  0.66694491  0.33327882  0.67093047  1
  Cs  Cs24  1  0.66821426  0.66509079  0.00076250  1
  Cs  Cs25  1  0.66566835  0.66714048  0.33352242  1
  Cs  Cs26  1  0.66590657  0.66888591  0.66336411  1
  Sn  Sn27  1  0.49980105  0.16653700  0.50021449  1
  Sn  Sn28  1  0.50082264  0.50023360  0.16548912  1
  Sn  Sn29  1  0.83271071  0.16661844  0.83362096  1
  Sn  Sn30  1  0.50070004  0.16691004  0.83351988  1
  Sn  Sn31  1  0.16738591  0.16598536  0.50012691  1
  Sn  Sn32  1  0.50050582  0.49984745  0.83413138  1
  Sn  Sn33  1  0.50053926  0.83323001  0.16639988  1
  Sn  Sn34  1  0.16664138  0.83379540  0.49995097  1
  Sn  Sn35  1  0.83250539  0.83286094  0.16582652  1
  Sn  Sn36  1  0.50021675  0.16649831  0.16625009  1
  Sn  Sn37  1  0.83301804  0.83327320  0.83401763  1
  Sn  Sn38  1  0.83249020  0.50051340  0.16583119  1
  Sn  Sn39  1  0.83210528  0.50009711  0.83452390  1
  Pb  Pb40  1  0.50027496  0.49771601  0.50025794  1
  Pb  Pb41  1  0.83284499  0.49995983  0.49964081  1
  Pb  Pb42  1  0.16967656  0.16678414  0.16895784  1
  Pb  Pb43  1  0.16602849  0.83331413  0.16857793  1
  Pb  Pb44  1  0.16649448  0.49994270  0.16637331  1
  Pb  Pb45  1  0.83150213  0.16682512  0.16431788  1
  Pb  Pb46  1  0.50158384  0.83305183  0.83527914  1
  Pb  Pb47  1  0.16338918  0.83324678  0.83109453  1
  Pb  Pb48  1  0.83520587  0.83330647  0.49926473  1
  Pb  Pb49  1  0.83277514  0.16676399  0.50269231  1
  Pb  Pb50  1  0.16686515  0.49948547  0.50001796  1
  Pb  Pb51  1  0.16721389  0.50002807  0.83358915  1
  Pb  Pb52  1  0.16721266  0.16668361  0.83130215  1
  Pb  Pb53  1  0.49861804  0.83569679  0.49725146  1
  I  I54  1  0.16629796  0.00003833  0.16587804  1
  I  I55  1  0.17109620  0.00100613  0.49996065  1
  I  I56  1  0.16665937  0.00003636  0.83432574  1
  I  I57  1  0.16526337  0.33325715  0.17032704  1
  I  I58  1  0.17160593  0.32983542  0.50055334  1
  I  I59  1  0.16196318  0.33319736  0.82940319  1
  I  I60  1  0.17166338  0.66677356  0.17139932  1
  I  I61  1  0.16449259  0.66943984  0.49927454  1
  I  I62  1  0.16826641  0.66674332  0.82911235  1
  I  I63  1  0.50392104  0.00018276  0.16784183  1
  I  I64  1  0.49852852  0.00391937  0.50150538  1
  I  I65  1  0.50422487  0.00288769  0.83342183  1
  I  I66  1  0.50333645  0.33347664  0.16710836  1
  I  I67  1  0.49347966  0.32934535  0.49617624  1
  I  I68  1  0.50723416  0.33269516  0.83669265  1
  I  I69  1  0.50388812  0.66611092  0.16258049  1
  I  I70  1  0.49734525  0.66685968  0.50044528  1
  I  I71  1  0.50379596  0.66367109  0.83741707  1
  I  I72  1  0.82912368  -0.00257952  0.16319680  1
  I  I73  1  0.83187482  0.00012363  0.50034705  1
  I  I74  1  0.82914060  0.00013835  0.83571050  1
  I  I75  1  0.82930745  0.33619930  0.16376445  1
  I  I76  1  0.83682780  0.33310645  0.49881643  1
  I  I77  1  0.82892948  0.33375808  0.83553876  1
  I  I78  1  0.82555202  0.66665535  0.15915496  1
  I  I79  1  0.83704619  0.66679373  0.50475664  1
  I  I80  1  0.83046113  0.66608773  0.83705757  1
  I  I81  1  0.16702292  0.16707429  -0.00015979  1
  I  I82  1  0.17061071  0.16272206  0.33711949  1
  I  I83  1  0.17250046  0.16228559  0.66343312  1
  I  I84  1  0.16716442  0.50004736  0.00000156  1
  I  I85  1  0.16652008  0.49976184  0.33322733  1
  I  I86  1  0.16540981  0.50010577  0.66676095  1
  I  I87  1  0.16822406  0.83284102  0.00017012  1
  I  I88  1  0.16557516  0.83910385  0.33625619  1
  I  I89  1  0.16693897  0.83873188  0.66331999  1
  I  I90  1  0.50589717  0.16826268  -0.00029489  1
  I  I91  1  0.49474814  0.16664936  0.33271859  1
  I  I92  1  0.49979202  0.17169986  0.66769657  1
  I  I93  1  0.50468337  0.49380062  0.00037433  1
  I  I94  1  0.50356641  0.49941104  0.32972281  1
  I  I95  1  0.50449163  0.49503967  0.67034136  1
  I  I96  1  0.50107892  0.83829474  0.00354214  1
  I  I97  1  0.50610808  0.83228616  0.32892117  1
  I  I98  1  0.50057255  0.83318990  0.66674605  1
  I  I99  1  0.82752841  0.16653332  -0.00381494  1
  I  I100  1  0.83303035  0.16634524  0.33306310  1
  I  I101  1  0.82808469  0.16697181  0.67107768  1
  I  I102  1  0.82838876  0.50114648  -0.00043761  1
  I  I103  1  0.82918871  0.50521038  0.32922123  1
  I  I104  1  0.82998483  0.50033918  0.67072220  1
  I  I105  1  0.82924486  0.83234358  0.00025842  1
  I  I106  1  0.83013485  0.82872037  0.32946612  1
  I  I107  1  0.83494580  0.83286894  0.66981197  1
  I  I108  1  -0.00028454  0.16667888  0.16726678  1
  I  I109  1  0.00258914  0.16256288  0.50162721  1
  I  I110  1  -0.00321245  0.16773828  0.83155313  1
  I  I111  1  -0.00401900  0.50567452  0.16263005  1
  I  I112  1  -0.00008769  0.49749098  0.50034804  1
  I  I113  1  -0.00405393  0.49909603  0.83663195  1
  I  I114  1  -0.00386577  0.82803449  0.16360861  1
  I  I115  1  0.00299654  0.84190327  0.49898268  1
  I  I116  1  -0.00521884  0.83353740  0.84023879  1
  I  I117  1  0.33868621  0.16672952  0.16126912  1
  I  I118  1  0.33467330  0.16272708  0.50109647  1
  I  I119  1  0.33732993  0.17178491  0.83518951  1
  I  I120  1  0.33753424  0.50001246  0.16346902  1
  I  I121  1  0.33374575  0.50167686  0.49964848  1
  I  I122  1  0.33751521  0.49357035  0.83725455  1
  I  I123  1  0.33654630  0.83323601  0.16835496  1
  I  I124  1  0.33070346  0.83566534  0.49884059  1
  I  I125  1  0.33353082  0.83357740  0.83435028  1
  I  I126  1  0.66288994  0.16620188  0.17228450  1
  I  I127  1  0.66314176  0.16790963  0.49790279  1
  I  I128  1  0.66561946  0.16782000  0.83085876  1
  I  I129  1  0.66590495  0.50050711  0.16272093  1
  I  I130  1  0.66635927  0.49849005  0.49991487  1
  I  I131  1  0.66687758  0.49747192  0.83743946  1
  I  I132  1  0.66668643  0.83304929  0.16400972  1
  I  I133  1  0.66665873  0.83462049  0.50123505  1
  I  I134  1  0.66996609  0.83441561  0.83371007  1
