# generated using pymatgen
data_Cs27Sn13Pb14I81
_symmetry_space_group_name_H-M   'P 1'
_cell_length_a   18.97311037
_cell_length_b   18.98135932
_cell_length_c   18.98135932
_cell_angle_alpha   90.00100838
_cell_angle_beta   90.00000000
_cell_angle_gamma   89.99999999
_symmetry_Int_Tables_number   1
_chemical_formula_structural   Cs27Sn13Pb14I81
_chemical_formula_sum   'Cs27 Sn13 Pb14 I81'
_cell_volume   6835.85990917
_cell_formula_units_Z   1
loop_
 _symmetry_equiv_pos_site_id
 _symmetry_equiv_pos_as_xyz
  1  'x, y, z'
loop_
 _atom_site_type_symbol
 _atom_site_label
 _atom_site_symmetry_multiplicity
 _atom_site_fract_x
 _atom_site_fract_y
 _atom_site_fract_z
 _atom_site_occupancy
  Cs  Cs0  1  -0.00207426  -0.00059027  0.00059027  1
  Cs  Cs1  1  -0.00341392  0.00578013  0.33911334  1
  Cs  Cs2  1  0.00078347  -0.00692057  0.66063190  1
  Cs  Cs3  1  0.00078343  0.33936815  0.00692055  1
  Cs  Cs4  1  0.00078349  0.32729859  0.32641287  1
  Cs  Cs5  1  -0.00131710  0.33333335  0.66666666  1
  Cs  Cs6  1  -0.00341394  0.66088664  -0.00578012  1
  Cs  Cs7  1  -0.00207424  0.66725668  0.33274325  1
  Cs  Cs8  1  0.00078349  0.67358727  0.67270136  1
  Cs  Cs9  1  0.33421628  -0.00020619  0.00020621  1
  Cs  Cs10  1  0.33115600  -0.00193033  0.33140283  1
  Cs  Cs11  1  0.33270092  0.00017266  0.66759187  1
  Cs  Cs12  1  0.33270086  0.33240817  -0.00017269  1
  Cs  Cs13  1  0.33270092  0.33425862  0.33350600  1
  Cs  Cs14  1  0.33564915  0.33333330  0.66666668  1
  Cs  Cs15  1  0.33115595  0.66859733  0.00193037  1
  Cs  Cs16  1  0.33421636  0.66687286  0.33312721  1
  Cs  Cs17  1  0.33270093  0.66649403  0.66574145  1
  Cs  Cs18  1  0.66625335  -0.00139508  0.00139515  1
  Cs  Cs19  1  0.67160126  -0.00286378  0.33046928  1
  Cs  Cs20  1  0.66634042  0.00197046  0.66760881  1
  Cs  Cs21  1  0.66634038  0.33239122  -0.00197040  1
  Cs  Cs22  1  0.66634044  0.33427549  0.33530373  1
  Cs  Cs23  1  0.66470448  0.33333334  0.66666665  1
  Cs  Cs24  1  0.67160119  0.66953052  0.00286388  1
  Cs  Cs25  1  0.66625330  0.66806181  0.33193827  1
  Cs  Cs26  1  0.66634039  0.66469631  0.66572461  1
  Sn  Sn27  1  0.16631249  0.49986748  0.50013250  1
  Sn  Sn28  1  0.49983559  0.50049358  0.83382689  1
  Sn  Sn29  1  0.49986978  0.50002817  0.49997186  1
  Sn  Sn30  1  0.16635211  0.83333331  0.16666668  1
  Sn  Sn31  1  0.49986976  0.16663849  0.83336154  1
  Sn  Sn32  1  0.49978950  0.83348754  0.50073689  1
  Sn  Sn33  1  0.49978948  0.16740358  0.16682083  1
  Sn  Sn34  1  0.83368800  0.16679524  0.83320472  1
  Sn  Sn35  1  0.49978948  0.83317918  0.83259645  1
  Sn  Sn36  1  0.49983561  0.16617310  0.49950644  1
  Sn  Sn37  1  0.16631246  0.16679918  0.83320084  1
  Sn  Sn38  1  0.49978949  0.49926311  0.16651250  1
  Sn  Sn39  1  0.83368799  0.49987144  0.50012863  1
  Pb  Pb40  1  0.83110772  0.49798046  0.83131381  1
  Pb  Pb41  1  0.16869327  0.16857791  0.50191121  1
  Pb  Pb42  1  0.16880843  0.83126961  0.49835302  1
  Pb  Pb43  1  0.83075698  0.16678145  0.16419867  1
  Pb  Pb44  1  0.16880839  0.83539706  0.83498025  1
  Pb  Pb45  1  0.83075698  0.83580136  0.83321861  1
  Pb  Pb46  1  0.49942222  0.83333331  0.16666668  1
  Pb  Pb47  1  0.83110772  0.16868619  0.50201954  1
  Pb  Pb48  1  0.83731901  0.83333333  0.16666666  1
  Pb  Pb49  1  0.16880839  0.16501977  0.16460293  1
  Pb  Pb50  1  0.16869329  0.49808878  0.83142214  1
  Pb  Pb51  1  0.83075693  0.83086528  0.50011474  1
  Pb  Pb52  1  0.83075702  0.49988522  0.16913467  1
  Pb  Pb53  1  0.16880842  0.50164693  0.16873038  1
  I  I54  1  0.17359992  -0.00238705  0.16588167  1
  I  I55  1  0.16959301  0.00004125  0.50012039  1
  I  I56  1  0.17248512  0.00345854  0.83335470  1
  I  I57  1  0.16677770  0.33333332  0.16666687  1
  I  I58  1  0.17252010  0.33659369  0.50050040  1
  I  I59  1  0.17252026  0.33007296  0.83283273  1
  I  I60  1  0.17360018  0.66905376  0.16745153  1
  I  I61  1  0.17248493  0.66320819  0.49997837  1
  I  I62  1  0.16959295  0.66662543  0.83321346  1
  I  I63  1  0.49797093  0.00266830  0.16539894  1
  I  I64  1  0.49907084  0.00053793  0.50403544  1
  I  I65  1  0.49991653  0.00126550  0.83093309  1
  I  I66  1  0.49929916  0.33333330  0.16666665  1
  I  I67  1  0.50012417  0.33394551  0.50245377  1
  I  I68  1  0.50012421  0.33272119  0.83087960  1
  I  I69  1  0.49797085  0.66399837  0.16793447  1
  I  I70  1  0.49991646  0.66540112  0.50239992  1
  I  I71  1  0.49907079  0.66612874  0.82929804  1
  I  I72  1  0.82830091  0.00024971  0.16640884  1
  I  I73  1  0.83132252  0.00015431  0.50065592  1
  I  I74  1  0.82836344  0.00392276  0.83289193  1
  I  I75  1  0.83523469  0.33333334  0.16666674  1
  I  I76  1  0.82741236  0.33653160  0.50187256  1
  I  I77  1  0.82741225  0.33013505  0.83146070  1
  I  I78  1  0.82830069  0.66641693  0.16692449  1
  I  I79  1  0.82836361  0.66274392  0.50044149  1
  I  I80  1  0.83132275  0.66651240  0.83267739  1
  I  I81  1  0.17248508  0.16664490  -0.00345852  1
  I  I82  1  0.16959262  0.16678672  0.33337454  1
  I  I83  1  0.17252041  0.16716747  0.66992703  1
  I  I84  1  0.16959284  0.49987948  -0.00004127  1
  I  I85  1  0.17248503  0.50002193  0.33679182  1
  I  I86  1  0.17252016  0.49949944  0.66340626  1
  I  I87  1  0.17360003  0.83411897  0.00238706  1
  I  I88  1  0.17360027  0.83254793  0.33094625  1
  I  I89  1  0.16677758  0.83333308  0.66666666  1
  I  I90  1  0.49991654  0.16906659  -0.00126552  1
  I  I91  1  0.49907101  0.17070207  0.33387127  1
  I  I92  1  0.50012399  0.16912058  0.66727881  1
  I  I93  1  0.49907097  0.49596459  -0.00053792  1
  I  I94  1  0.49991647  0.49759999  0.33459883  1
  I  I95  1  0.50012411  0.49754619  0.66605450  1
  I  I96  1  0.49797103  0.83460126  -0.00266831  1
  I  I97  1  0.49797077  0.83206545  0.33600161  1
  I  I98  1  0.49929913  0.83333312  0.66666664  1
  I  I99  1  0.82836330  0.16710817  -0.00392274  1
  I  I100  1  0.83132276  0.16732233  0.33348766  1
  I  I101  1  0.82741231  0.16853947  0.66986494  1
  I  I102  1  0.83132269  0.49934428  -0.00015432  1
  I  I103  1  0.82836332  0.49955857  0.33725607  1
  I  I104  1  0.82741232  0.49812710  0.66346839  1
  I  I105  1  0.82830085  0.83359078  -0.00024976  1
  I  I106  1  0.82830088  0.83307591  0.33358310  1
  I  I107  1  0.83523482  0.83333337  0.66666667  1
  I  I108  1  0.00011272  0.16500544  0.16495206  1
  I  I109  1  -0.00002668  0.16900864  0.50234228  1
  I  I110  1  0.00013794  0.16740787  0.83259212  1
  I  I111  1  0.00011270  0.50166135  0.16838120  1
  I  I112  1  0.00013795  0.49925872  0.50074108  1
  I  I113  1  -0.00002670  0.49765789  0.83099125  1
  I  I114  1  0.00486734  0.83333318  0.16666663  1
  I  I115  1  0.00011273  0.83161906  0.49833864  1
  I  I116  1  0.00011267  0.83504773  0.83499471  1
  I  I117  1  0.33764512  0.17019377  0.16415070  1
  I  I118  1  0.33795356  0.16985996  0.50319305  1
  I  I119  1  0.33614135  0.16684894  0.83315124  1
  I  I120  1  0.33764511  0.49647267  0.16918282  1
  I  I121  1  0.33614132  0.49981770  0.50018223  1
  I  I122  1  0.33795358  0.49680672  0.83014007  1
  I  I123  1  0.33248719  0.83333345  0.16666647  1
  I  I124  1  0.33764507  0.83081713  0.50352735  1
  I  I125  1  0.33764514  0.83584942  0.82980625  1
  I  I126  1  0.66169685  0.16929513  0.16500504  1
  I  I127  1  0.66182877  0.16966809  0.50300156  1
  I  I128  1  0.66381471  0.16716240  0.83283741  1
  I  I129  1  0.66169681  0.49737139  0.16832837  1
  I  I130  1  0.66381469  0.49950422  0.50049586  1
  I  I131  1  0.66182877  0.49699874  0.83033186  1
  I  I132  1  0.66644553  0.83333338  0.16666673  1
  I  I133  1  0.66169681  0.83167149  0.50262852  1
  I  I134  1  0.66169682  0.83499494  0.83070466  1
