# generated using pymatgen
data_Cs27Sn13Pb14I81
_symmetry_space_group_name_H-M   'P 1'
_cell_length_a   18.98379427
_cell_length_b   18.97852294
_cell_length_c   18.96928035
_cell_angle_alpha   89.99998800
_cell_angle_beta   90.00067341
_cell_angle_gamma   90.00139084
_symmetry_Int_Tables_number   1
_chemical_formula_structural   Cs27Sn13Pb14I81
_chemical_formula_sum   'Cs27 Sn13 Pb14 I81'
_cell_volume   6834.33531494
_cell_formula_units_Z   1
loop_
 _symmetry_equiv_pos_site_id
 _symmetry_equiv_pos_as_xyz
  1  'x, y, z'
loop_
 _atom_site_type_symbol
 _atom_site_label
 _atom_site_symmetry_multiplicity
 _atom_site_fract_x
 _atom_site_fract_y
 _atom_site_fract_z
 _atom_site_occupancy
  Cs  Cs0  1  -0.00018040  -0.00393953  0.00103539  1
  Cs  Cs1  1  -0.00271309  -0.00150605  0.33460398  1
  Cs  Cs2  1  0.00030537  0.00070699  0.66427276  1
  Cs  Cs3  1  0.00184450  0.33239834  -0.00084506  1
  Cs  Cs4  1  0.00249048  0.33220503  0.33460462  1
  Cs  Cs5  1  0.00010211  0.33346353  0.66670066  1
  Cs  Cs6  1  0.00133229  0.67143771  -0.00241670  1
  Cs  Cs7  1  0.00094195  0.66967595  0.33506850  1
  Cs  Cs8  1  -0.00479269  0.66687022  0.66721032  1
  Cs  Cs9  1  0.33206520  -0.00055247  -0.00270346  1
  Cs  Cs10  1  0.33276294  0.00084159  0.33508877  1
  Cs  Cs11  1  0.34226778  0.00090810  0.66689995  1
  Cs  Cs12  1  0.33272500  0.33476761  0.00037960  1
  Cs  Cs13  1  0.33084142  0.33331146  0.33469397  1
  Cs  Cs14  1  0.33113066  0.32951933  0.66383760  1
  Cs  Cs15  1  0.33097380  0.66380314  0.00225417  1
  Cs  Cs16  1  0.33555228  0.66558992  0.33220714  1
  Cs  Cs17  1  0.33606703  0.66986851  0.66528105  1
  Cs  Cs18  1  0.66847893  0.00017434  -0.00073499  1
  Cs  Cs19  1  0.67126037  -0.00080183  0.33252363  1
  Cs  Cs20  1  0.65920450  0.00006614  0.66698621  1
  Cs  Cs21  1  0.66511628  0.33339993  0.00210761  1
  Cs  Cs22  1  0.66665088  0.33553869  0.32973665  1
  Cs  Cs23  1  0.66846681  0.33366644  0.66669081  1
  Cs  Cs24  1  0.66815859  0.66425607  -0.00176157  1
  Cs  Cs25  1  0.66263530  0.66434672  0.33464051  1
  Cs  Cs26  1  0.67024716  0.66738953  0.66569675  1
  Sn  Sn27  1  0.83342692  0.16627407  0.50095721  1
  Sn  Sn28  1  0.83425620  0.50024296  0.16655887  1
  Sn  Sn29  1  0.49968178  0.49973969  0.16589994  1
  Sn  Sn30  1  0.16617217  0.49941341  0.16602877  1
  Sn  Sn31  1  0.49899260  0.49970839  0.83381079  1
  Sn  Sn32  1  0.16650619  0.83348604  0.50030165  1
  Sn  Sn33  1  0.49891684  0.16641010  0.16650883  1
  Sn  Sn34  1  0.16588710  0.16713543  0.83405201  1
  Sn  Sn35  1  0.49986749  0.83360686  0.16621339  1
  Sn  Sn36  1  0.16753486  0.49931400  0.83386588  1
  Sn  Sn37  1  0.83407196  0.16667635  0.83270879  1
  Sn  Sn38  1  0.83396039  0.83414514  0.50005028  1
  Sn  Sn39  1  0.16726825  0.16697248  0.16593057  1
  Pb  Pb40  1  0.49987772  0.83014898  0.83619426  1
  Pb  Pb41  1  0.83404121  0.16802051  0.16645220  1
  Pb  Pb42  1  0.16676451  0.83347890  0.83083452  1
  Pb  Pb43  1  0.50037994  0.83338766  0.49793669  1
  Pb  Pb44  1  0.16670401  0.50211835  0.50060029  1
  Pb  Pb45  1  0.49957568  0.16876691  0.83549976  1
  Pb  Pb46  1  0.83353774  0.49968993  0.49774712  1
  Pb  Pb47  1  0.16829743  0.83353831  0.16813871  1
  Pb  Pb48  1  0.49972800  0.49962527  0.50051394  1
  Pb  Pb49  1  0.16514494  0.16490588  0.50015322  1
  Pb  Pb50  1  0.83384403  0.49801018  0.83546519  1
  Pb  Pb51  1  0.50302146  0.16695084  0.49696819  1
  Pb  Pb52  1  0.83328272  0.83641427  0.83089776  1
  Pb  Pb53  1  0.83118359  0.83051665  0.16849310  1
  I  I54  1  0.17100204  0.00320625  0.16383316  1
  I  I55  1  0.16360956  -0.00267270  0.49775961  1
  I  I56  1  0.16168886  0.00359592  0.83818348  1
  I  I57  1  0.17073275  0.33365400  0.16450468  1
  I  I58  1  0.16495678  0.33313708  0.49875309  1
  I  I59  1  0.16632950  0.33330039  0.83774605  1
  I  I60  1  0.16781798  0.66338660  0.16418478  1
  I  I61  1  0.16031642  0.66983325  0.49837243  1
  I  I62  1  0.17078743  0.66317653  0.83817039  1
  I  I63  1  0.49566976  0.00094586  0.16903246  1
  I  I64  1  0.49803467  0.00016835  0.49815463  1
  I  I65  1  0.49990659  0.00032236  0.83487254  1
  I  I66  1  0.50054456  0.33421276  0.16338376  1
  I  I67  1  0.50190510  0.33312028  0.49613653  1
  I  I68  1  0.49970745  0.33655214  0.84123488  1
  I  I69  1  0.50014842  0.66507879  0.16474978  1
  I  I70  1  0.50211303  0.66668310  0.49694407  1
  I  I71  1  0.49425177  0.66201435  0.83918624  1
  I  I72  1  0.83191830  0.00005876  0.16590099  1
  I  I73  1  0.83804609  0.00034827  0.50143059  1
  I  I74  1  0.83939352  0.00464869  0.83517829  1
  I  I75  1  0.82833200  0.33588504  0.16862116  1
  I  I76  1  0.83291169  0.33030396  0.50238275  1
  I  I77  1  0.83478380  0.33016367  0.82731316  1
  I  I78  1  0.83367783  0.66248277  0.16791616  1
  I  I79  1  0.83649082  0.66935792  0.49674535  1
  I  I80  1  0.83292475  0.66636752  0.83253194  1
  I  I81  1  0.16461556  0.17060410  0.00042116  1
  I  I82  1  0.16932520  0.17057125  0.33021689  1
  I  I83  1  0.16348475  0.17123092  0.66969924  1
  I  I84  1  0.16817081  0.49637711  0.00120515  1
  I  I85  1  0.16810946  0.49644494  0.32973746  1
  I  I86  1  0.17134412  0.49561542  0.67051317  1
  I  I87  1  0.16832009  0.83330146  0.00001068  1
  I  I88  1  0.16313607  0.83356158  0.33585950  1
  I  I89  1  0.16181983  0.83244044  0.66304937  1
  I  I90  1  0.50202875  0.16587229  0.00384978  1
  I  I91  1  0.49514996  0.17041681  0.32844385  1
  I  I92  1  0.49785171  0.16801752  0.66697321  1
  I  I93  1  0.49952032  0.50015055  0.00192464  1
  I  I94  1  0.50002135  0.50073437  0.32918825  1
  I  I95  1  0.49521662  0.49934784  0.67044420  1
  I  I96  1  0.49911949  0.83534537  0.00432768  1
  I  I97  1  0.50001650  0.82936954  0.32978003  1
  I  I98  1  0.50018204  0.83170841  0.66670734  1
  I  I99  1  0.83389308  0.17049597  -0.00216556  1
  I  I100  1  0.83249226  0.16394661  0.33525785  1
  I  I101  1  0.83963904  0.16454096  0.66705976  1
  I  I102  1  0.83133853  0.49715317  0.00350729  1
  I  I103  1  0.83156542  0.49760026  0.32937818  1
  I  I104  1  0.83254233  0.50160750  0.66694727  1
  I  I105  1  0.83197189  0.83406975  0.00019867  1
  I  I106  1  0.83688911  0.84060956  0.33629298  1
  I  I107  1  0.83721905  0.83187603  0.66267243  1
  I  I108  1  0.00296040  0.17231358  0.16642207  1
  I  I109  1  -0.00279420  0.16467020  0.49793303  1
  I  I110  1  0.00118031  0.17293591  0.83513432  1
  I  I111  1  0.00151331  0.49399436  0.16418674  1
  I  I112  1  0.00008002  0.49949405  0.49799264  1
  I  I113  1  0.00317385  0.49774453  0.83789319  1
  I  I114  1  0.00000151  0.83276984  0.16731706  1
  I  I115  1  -0.00068402  0.83676443  0.49764791  1
  I  I116  1  0.00005695  0.82834613  0.83605371  1
  I  I117  1  0.33258913  0.17103648  0.16230000  1
  I  I118  1  0.33320947  0.16437884  0.50164873  1
  I  I119  1  0.33025997  0.16857921  0.83603143  1
  I  I120  1  0.33328640  0.49988681  0.16306936  1
  I  I121  1  0.33305549  0.50303925  0.49475906  1
  I  I122  1  0.33244927  0.49512512  0.84286891  1
  I  I123  1  0.33614728  0.82865012  0.17019319  1
  I  I124  1  0.33107553  0.83195202  0.49847234  1
  I  I125  1  0.33327962  0.83823121  0.82860288  1
  I  I126  1  0.66452225  0.16880760  0.16763112  1
  I  I127  1  0.67097933  0.16009259  0.50487905  1
  I  I128  1  0.66877529  0.16795350  0.83087520  1
  I  I129  1  0.66527901  0.49929878  0.16444260  1
  I  I130  1  0.66681978  0.50226811  0.49854648  1
  I  I131  1  0.66451032  0.49884428  0.83898137  1
  I  I132  1  0.66318877  0.83412420  0.16935253  1
  I  I133  1  0.66965074  0.83727502  0.49774136  1
  I  I134  1  0.66658830  0.83297928  0.83145951  1
