# generated using pymatgen
data_Cs27Sn13Pb14I81
_symmetry_space_group_name_H-M   'P 1'
_cell_length_a   18.97152336
_cell_length_b   18.98013819
_cell_length_c   18.98045220
_cell_angle_alpha   89.99755088
_cell_angle_beta   90.00053071
_cell_angle_gamma   89.99836747
_symmetry_Int_Tables_number   1
_chemical_formula_structural   Cs27Sn13Pb14I81
_chemical_formula_sum   'Cs27 Sn13 Pb14 I81'
_cell_volume   6834.52174290
_cell_formula_units_Z   1
loop_
 _symmetry_equiv_pos_site_id
 _symmetry_equiv_pos_as_xyz
  1  'x, y, z'
loop_
 _atom_site_type_symbol
 _atom_site_label
 _atom_site_symmetry_multiplicity
 _atom_site_fract_x
 _atom_site_fract_y
 _atom_site_fract_z
 _atom_site_occupancy
  Cs  Cs0  1  0.00403712  -0.00661968  0.00609906  1
  Cs  Cs1  1  0.00539027  0.00357826  0.32797866  1
  Cs  Cs2  1  0.00505212  -0.00335354  0.66727882  1
  Cs  Cs3  1  -0.00071032  0.33434403  0.00362040  1
  Cs  Cs4  1  0.00377670  0.33129604  0.32938844  1
  Cs  Cs5  1  -0.00513929  0.33295526  0.66641346  1
  Cs  Cs6  1  0.00060672  0.66978763  -0.00276538  1
  Cs  Cs7  1  0.00906618  0.66519944  0.33362526  1
  Cs  Cs8  1  -0.00158823  0.67027465  0.66968523  1
  Cs  Cs9  1  0.33032545  0.00037153  -0.00308401  1
  Cs  Cs10  1  0.33111876  -0.00324705  0.33301867  1
  Cs  Cs11  1  0.32906497  0.00306256  0.66909083  1
  Cs  Cs12  1  0.33413226  0.33182490  -0.00277540  1
  Cs  Cs13  1  0.32900621  0.33620039  0.33487529  1
  Cs  Cs14  1  0.33271007  0.33156830  0.66729583  1
  Cs  Cs15  1  0.33576166  0.66663951  0.00339201  1
  Cs  Cs16  1  0.32731186  0.66562825  0.33268857  1
  Cs  Cs17  1  0.33483141  0.66538150  0.66381492  1
  Cs  Cs18  1  0.66678554  -0.00272581  0.00470850  1
  Cs  Cs19  1  0.66619047  0.00080193  0.33324681  1
  Cs  Cs20  1  0.66609704  0.00107974  0.66462778  1
  Cs  Cs21  1  0.66578452  0.33384835  -0.00074369  1
  Cs  Cs22  1  0.66684942  0.33249445  0.33417055  1
  Cs  Cs23  1  0.66662298  0.33335777  0.66608131  1
  Cs  Cs24  1  0.66570449  0.66721342  -0.00025969  1
  Cs  Cs25  1  0.66493711  0.66722669  0.33494900  1
  Cs  Cs26  1  0.66672017  0.66610140  0.66584389  1
  Sn  Sn27  1  0.83225897  0.50032442  0.16667393  1
  Sn  Sn28  1  0.83273929  0.83374686  0.49972480  1
  Sn  Sn29  1  0.50057894  0.16596865  0.49908250  1
  Sn  Sn30  1  0.83310268  0.16648686  0.83329050  1
  Sn  Sn31  1  0.50040585  0.16763396  0.16773119  1
  Sn  Sn32  1  0.50073278  0.83281519  0.83227761  1
  Sn  Sn33  1  0.83323401  0.49928622  0.83359271  1
  Sn  Sn34  1  0.83297181  0.50011757  0.49955869  1
  Sn  Sn35  1  0.50083693  0.83424957  0.50104989  1
  Sn  Sn36  1  0.16665882  0.49968426  0.83295512  1
  Sn  Sn37  1  0.50116089  0.49890149  0.16631004  1
  Sn  Sn38  1  0.50008196  0.50069286  0.83384747  1
  Sn  Sn39  1  0.83267276  0.16619441  0.50075572  1
  Pb  Pb40  1  0.16677080  0.83313555  0.16645849  1
  Pb  Pb41  1  0.83317145  0.83022019  0.17013679  1
  Pb  Pb42  1  0.16648738  0.16681473  0.50021017  1
  Pb  Pb43  1  0.50006985  0.83310585  0.16726928  1
  Pb  Pb44  1  0.17003095  0.83077310  0.83310602  1
  Pb  Pb45  1  0.16695178  0.49986617  0.16401026  1
  Pb  Pb46  1  0.83166816  0.16837972  0.16671912  1
  Pb  Pb47  1  0.50186578  0.16663430  0.83315310  1
  Pb  Pb48  1  0.16288401  0.49978728  0.50291292  1
  Pb  Pb49  1  0.83140024  0.83367192  0.83174347  1
  Pb  Pb50  1  0.16698996  0.83338533  0.50025294  1
  Pb  Pb51  1  0.17051303  0.16710464  0.16642668  1
  Pb  Pb52  1  0.50126944  0.49980314  0.49983092  1
  Pb  Pb53  1  0.16257687  0.16894638  0.83335108  1
  I  I54  1  0.16684423  0.00031102  0.16600120  1
  I  I55  1  0.16289081  0.00006029  0.50088150  1
  I  I56  1  0.16736784  -0.00007735  0.83337965  1
  I  I57  1  0.16448381  0.33377302  0.16684288  1
  I  I58  1  0.16869739  0.33346695  0.50052387  1
  I  I59  1  0.17301003  0.33713642  0.83322723  1
  I  I60  1  0.16931459  0.66590179  0.16764873  1
  I  I61  1  0.16780630  0.66646081  0.49939665  1
  I  I62  1  0.15944801  0.66272517  0.83331736  1
  I  I63  1  0.50075938  0.00275936  0.16741248  1
  I  I64  1  0.50856167  0.00025762  0.49987500  1
  I  I65  1  0.50328214  -0.00210472  0.83257298  1
  I  I66  1  0.50470246  0.33454813  0.16580986  1
  I  I67  1  0.50498477  0.33089365  0.49977976  1
  I  I68  1  0.49946932  0.33640970  0.83416693  1
  I  I69  1  0.50372347  0.66326082  0.16447967  1
  I  I70  1  0.50502540  0.66872382  0.50181655  1
  I  I71  1  0.50219430  0.66488928  0.83328570  1
  I  I72  1  0.83169359  0.00011636  0.16536735  1
  I  I73  1  0.82721315  0.00078765  0.50638800  1
  I  I74  1  0.82906360  0.00271016  0.82753137  1
  I  I75  1  0.83071141  0.33686162  0.16950640  1
  I  I76  1  0.82871886  0.33335252  0.50249640  1
  I  I77  1  0.83085998  0.33528694  0.82806411  1
  I  I78  1  0.82595325  0.66164502  0.16369336  1
  I  I79  1  0.82820123  0.66619094  0.50094349  1
  I  I80  1  0.83460048  0.66320833  0.83241663  1
  I  I81  1  0.16733398  0.16769049  -0.00023191  1
  I  I82  1  0.16166123  0.16785242  0.33336330  1
  I  I83  1  0.17202915  0.16805529  0.66686279  1
  I  I84  1  0.16249608  0.49992501  -0.00361035  1
  I  I85  1  0.16710629  0.50082378  0.33330021  1
  I  I86  1  0.16956318  0.50014099  0.67064135  1
  I  I87  1  0.16765269  0.83265813  -0.00060127  1
  I  I88  1  0.16886509  0.83120328  0.33370904  1
  I  I89  1  0.16510498  0.83165892  0.66673147  1
  I  I90  1  0.50208098  0.16874641  0.00182798  1
  I  I91  1  0.50696507  0.16673905  0.33448075  1
  I  I92  1  0.50311620  0.16634846  0.66404053  1
  I  I93  1  0.50441299  0.50010128  -0.00094502  1
  I  I94  1  0.50584336  0.49931034  0.33096269  1
  I  I95  1  0.50138111  0.50092376  0.66949372  1
  I  I96  1  0.49977148  0.83111775  -0.00261172  1
  I  I97  1  0.50487759  0.83427612  0.33679089  1
  I  I98  1  0.50444527  0.83164712  0.66617257  1
  I  I99  1  0.83060883  0.17393798  -0.00251429  1
  I  I100  1  0.83041694  0.16787926  0.33658028  1
  I  I101  1  0.82691364  0.17354078  0.66561093  1
  I  I102  1  0.83235578  0.49445968  -0.00113788  1
  I  I103  1  0.82622347  0.50026145  0.33356434  1
  I  I104  1  0.83286778  0.49905706  0.66705249  1
  I  I105  1  0.83194884  0.83351780  0.00000529  1
  I  I106  1  0.82453397  0.83451888  0.33845976  1
  I  I107  1  0.83015027  0.82811316  0.66348255  1
  I  I108  1  -0.00027880  0.16845611  0.16737807  1
  I  I109  1  -0.00423482  0.16743142  0.50485068  1
  I  I110  1  -0.00559512  0.17281368  0.82563903  1
  I  I111  1  -0.00336944  0.50017439  0.16732557  1
  I  I112  1  -0.00583076  0.49978379  0.49852766  1
  I  I113  1  -0.00191470  0.49486661  0.83224476  1
  I  I114  1  -0.00054422  0.83173008  0.16757652  1
  I  I115  1  -0.00361183  0.83194229  0.50075127  1
  I  I116  1  -0.00023314  0.83228981  0.83137575  1
  I  I117  1  0.33894021  0.17377359  0.17208749  1
  I  I118  1  0.33718872  0.16210750  0.49642213  1
  I  I119  1  0.33360546  0.16745413  0.83326830  1
  I  I120  1  0.33702432  0.49722505  0.16245199  1
  I  I121  1  0.33337934  0.50061543  0.49982101  1
  I  I122  1  0.33505443  0.50492093  0.83850482  1
  I  I123  1  0.33419511  0.83060926  0.16888964  1
  I  I124  1  0.33736807  0.83767562  0.50331726  1
  I  I125  1  0.33837690  0.82961626  0.82760441  1
  I  I126  1  0.66359450  0.16959966  0.16834170  1
  I  I127  1  0.66712708  0.16649005  0.50019741  1
  I  I128  1  0.66958137  0.17431761  0.83082705  1
  I  I129  1  0.66631660  0.49663481  0.16141452  1
  I  I130  1  0.66973357  0.49977503  0.50453686  1
  I  I131  1  0.66700885  0.50011773  0.83398885  1
  I  I132  1  0.66651070  0.83385377  0.16427290  1
  I  I133  1  0.66635874  0.83349346  0.50405830  1
  I  I134  1  0.66341011  0.82615144  0.83132391  1
