# generated using pymatgen
data_Cs27Sn13Pb14I81
_symmetry_space_group_name_H-M   'P 1'
_cell_length_a   18.97583373
_cell_length_b   18.97475723
_cell_length_c   18.97909788
_cell_angle_alpha   90.00179306
_cell_angle_beta   90.00036733
_cell_angle_gamma   89.99861972
_symmetry_Int_Tables_number   1
_chemical_formula_structural   Cs27Sn13Pb14I81
_chemical_formula_sum   'Cs27 Sn13 Pb14 I81'
_cell_volume   6833.64886560
_cell_formula_units_Z   1
loop_
 _symmetry_equiv_pos_site_id
 _symmetry_equiv_pos_as_xyz
  1  'x, y, z'
loop_
 _atom_site_type_symbol
 _atom_site_label
 _atom_site_symmetry_multiplicity
 _atom_site_fract_x
 _atom_site_fract_y
 _atom_site_fract_z
 _atom_site_occupancy
  Cs  Cs0  1  -0.00224975  0.00109993  0.00149143  1
  Cs  Cs1  1  -0.00094912  -0.00383053  0.33332815  1
  Cs  Cs2  1  0.00429179  -0.00237188  0.66532109  1
  Cs  Cs3  1  -0.00147912  0.33379521  -0.00156850  1
  Cs  Cs4  1  0.00553094  0.33678385  0.33594600  1
  Cs  Cs5  1  0.00020864  0.33277560  0.66866864  1
  Cs  Cs6  1  -0.00094753  0.66446205  -0.00058232  1
  Cs  Cs7  1  -0.00277624  0.66607531  0.34074224  1
  Cs  Cs8  1  -0.00085539  0.67009170  0.66342038  1
  Cs  Cs9  1  0.33358857  -0.00082247  0.00097714  1
  Cs  Cs10  1  0.33604695  0.00184378  0.33171482  1
  Cs  Cs11  1  0.33213562  -0.00089614  0.66653857  1
  Cs  Cs12  1  0.33177507  0.33381830  0.00161068  1
  Cs  Cs13  1  0.33070362  0.33671332  0.33138700  1
  Cs  Cs14  1  0.33320902  0.33176756  0.66527666  1
  Cs  Cs15  1  0.33443248  0.66704033  -0.00074542  1
  Cs  Cs16  1  0.33268238  0.65832675  0.32930763  1
  Cs  Cs17  1  0.33543614  0.67161603  0.67137015  1
  Cs  Cs18  1  0.66894227  0.00192111  0.00286704  1
  Cs  Cs19  1  0.66533981  -0.00049994  0.33186044  1
  Cs  Cs20  1  0.66439387  0.00380800  0.66575179  1
  Cs  Cs21  1  0.66961798  0.33252636  -0.00123654  1
  Cs  Cs22  1  0.66485193  0.33314771  0.33686738  1
  Cs  Cs23  1  0.66627409  0.33267886  0.66554769  1
  Cs  Cs24  1  0.66721289  0.66472141  -0.00273457  1
  Cs  Cs25  1  0.66972277  0.66771140  0.33737116  1
  Cs  Cs26  1  0.66628747  0.66311902  0.66767324  1
  Sn  Sn27  1  0.16615467  0.49964006  0.83337989  1
  Sn  Sn28  1  0.83320724  0.83301195  0.83357985  1
  Sn  Sn29  1  0.83430699  0.50090424  0.83403165  1
  Sn  Sn30  1  0.50061827  0.16596283  0.49957928  1
  Sn  Sn31  1  0.83334600  0.16642482  0.49975133  1
  Sn  Sn32  1  0.16752118  0.16725342  0.83434751  1
  Sn  Sn33  1  0.49943906  0.16625643  0.16652672  1
  Sn  Sn34  1  0.83315022  0.49987952  0.16649316  1
  Sn  Sn35  1  0.16716463  0.16575564  0.16576673  1
  Sn  Sn36  1  0.49971129  0.83397798  0.49904680  1
  Sn  Sn37  1  0.16706100  0.83376990  0.16657710  1
  Sn  Sn38  1  0.49936371  0.83376981  0.16751818  1
  Sn  Sn39  1  0.49914830  0.16668666  0.83380103  1
  Pb  Pb40  1  0.49972510  0.50017337  0.50002035  1
  Pb  Pb41  1  0.16462011  0.50007672  0.16483942  1
  Pb  Pb42  1  0.83332238  0.49773202  0.50084704  1
  Pb  Pb43  1  0.16690385  0.50037475  0.50393432  1
  Pb  Pb44  1  0.83380045  0.16852017  0.16894171  1
  Pb  Pb45  1  0.83394531  0.16689925  0.83180038  1
  Pb  Pb46  1  0.16752193  0.16652750  0.49957923  1
  Pb  Pb47  1  0.83090764  0.83571254  0.50247780  1
  Pb  Pb48  1  0.83298139  0.83135363  0.16539419  1
  Pb  Pb49  1  0.16995228  0.83349301  0.49667260  1
  Pb  Pb50  1  0.16489542  0.83381948  0.83545359  1
  Pb  Pb51  1  0.49991634  0.49722696  0.83347127  1
  Pb  Pb52  1  0.50241869  0.50003018  0.16658853  1
  Pb  Pb53  1  0.50192737  0.83583681  0.83396471  1
  I  I54  1  0.17002923  0.00129060  0.16054661  1
  I  I55  1  0.16279281  0.00018825  0.50651076  1
  I  I56  1  0.16876187  0.00317618  0.83469808  1
  I  I57  1  0.17035207  0.33029783  0.16522731  1
  I  I58  1  0.16834794  0.33297990  0.49523895  1
  I  I59  1  0.16437594  0.33201992  0.83887539  1
  I  I60  1  0.17143546  0.66924048  0.16480339  1
  I  I61  1  0.16730206  0.66704450  0.49903866  1
  I  I62  1  0.16330593  0.66439521  0.83496336  1
  I  I63  1  0.49713227  0.00112694  0.16716662  1
  I  I64  1  0.50460427  0.00155039  0.49923470  1
  I  I65  1  0.49651098  0.00403942  0.83268657  1
  I  I66  1  0.49649938  0.32961803  0.16738496  1
  I  I67  1  0.50422255  0.32936902  0.50019544  1
  I  I68  1  0.50163082  0.32868583  0.83330197  1
  I  I69  1  0.49636171  0.67013819  0.17124555  1
  I  I70  1  0.49989194  0.67030564  0.49494294  1
  I  I71  1  0.49858131  0.66692170  0.83241965  1
  I  I72  1  0.83348361  0.00007046  0.16506045  1
  I  I73  1  0.83084613  0.00342500  0.50153817  1
  I  I74  1  0.83236154  -0.00155947  0.83198224  1
  I  I75  1  0.83318925  0.33601364  0.15909116  1
  I  I76  1  0.82571838  0.32993304  0.50194612  1
  I  I77  1  0.83423092  0.33565068  0.83552713  1
  I  I78  1  0.83334980  0.66361294  0.16359004  1
  I  I79  1  0.83166639  0.66682807  0.49889615  1
  I  I80  1  0.83758814  0.66552440  0.83735574  1
  I  I81  1  0.17376362  0.16708955  -0.00002245  1
  I  I82  1  0.16900815  0.16318460  0.32987381  1
  I  I83  1  0.16875096  0.17154474  0.66966923  1
  I  I84  1  0.16367913  0.49702971  -0.00302713  1
  I  I85  1  0.16468283  0.49890869  0.33291623  1
  I  I86  1  0.15978483  0.49216841  0.67209910  1
  I  I87  1  0.17351689  0.83506361  0.00319838  1
  I  I88  1  0.16553295  0.84112310  0.32857972  1
  I  I89  1  0.16645112  0.83286525  0.66689425  1
  I  I90  1  0.49608118  0.16319294  0.00061154  1
  I  I91  1  0.50110418  0.16253624  0.33277042  1
  I  I92  1  0.50102378  0.16395336  0.66658834  1
  I  I93  1  0.50010208  0.50036256  -0.00003151  1
  I  I94  1  0.50228671  0.49540247  0.33307289  1
  I  I95  1  0.50199018  0.49962484  0.66696770  1
  I  I96  1  0.49769543  0.83766073  0.00316223  1
  I  I97  1  0.49786323  0.84283800  0.33242896  1
  I  I98  1  0.50310539  0.83807969  0.66467651  1
  I  I99  1  0.83040638  0.16609281  -0.00001706  1
  I  I100  1  0.82802903  0.16798785  0.33633945  1
  I  I101  1  0.82762157  0.16812976  0.66427987  1
  I  I102  1  0.83617581  0.50189010  -0.00142606  1
  I  I103  1  0.83242854  0.49835707  0.33113931  1
  I  I104  1  0.83718517  0.50243907  0.67023609  1
  I  I105  1  0.83115180  0.83297806  -0.00253870  1
  I  I106  1  0.83518867  0.83168861  0.33335127  1
  I  I107  1  0.83291634  0.82720165  0.67021856  1
  I  I108  1  0.00309372  0.16394632  0.16228532  1
  I  I109  1  -0.00198359  0.16898493  0.50150633  1
  I  I110  1  0.00279558  0.16790208  0.83651830  1
  I  I111  1  -0.00292972  0.49858584  0.16310375  1
  I  I112  1  -0.00019858  0.49694652  0.49669792  1
  I  I113  1  -0.00041652  0.49628957  0.83822885  1
  I  I114  1  0.00245446  0.83801116  0.16238977  1
  I  I115  1  -0.00009576  0.83458997  0.49953499  1
  I  I116  1  -0.00287446  0.83452468  0.83564309  1
  I  I117  1  0.33395192  0.16374013  0.16717897  1
  I  I118  1  0.33694321  0.16255679  0.50127928  1
  I  I119  1  0.33316328  0.17144706  0.83199697  1
  I  I120  1  0.33314839  0.49995680  0.16546733  1
  I  I121  1  0.33337333  0.49631008  0.49942279  1
  I  I122  1  0.33033516  0.49719379  0.83351533  1
  I  I123  1  0.33410221  0.83800948  0.16884340  1
  I  I124  1  0.33784250  0.84258161  0.50230634  1
  I  I125  1  0.33345628  0.83044117  0.83119273  1
  I  I126  1  0.66356596  0.16348234  0.16416729  1
  I  I127  1  0.66477287  0.16420719  0.50113602  1
  I  I128  1  0.66424040  0.16593357  0.83502817  1
  I  I129  1  0.67005615  0.49912530  0.15912853  1
  I  I130  1  0.66673632  0.49996329  0.50236351  1
  I  I131  1  0.66975361  0.50238154  0.83630400  1
  I  I132  1  0.66345795  0.83795415  0.16886255  1
  I  I133  1  0.66311040  0.83650981  0.49285723  1
  I  I134  1  0.66958827  0.82865230  0.83500580  1
