# generated using pymatgen
data_Cs27Sn13Pb14I81
_symmetry_space_group_name_H-M   'P 1'
_cell_length_a   18.98225711
_cell_length_b   18.97185147
_cell_length_c   18.97789473
_cell_angle_alpha   89.99959879
_cell_angle_beta   89.99870667
_cell_angle_gamma   89.99907255
_symmetry_Int_Tables_number   1
_chemical_formula_structural   Cs27Sn13Pb14I81
_chemical_formula_sum   'Cs27 Sn13 Pb14 I81'
_cell_volume   6834.48194709
_cell_formula_units_Z   1
loop_
 _symmetry_equiv_pos_site_id
 _symmetry_equiv_pos_as_xyz
  1  'x, y, z'
loop_
 _atom_site_type_symbol
 _atom_site_label
 _atom_site_symmetry_multiplicity
 _atom_site_fract_x
 _atom_site_fract_y
 _atom_site_fract_z
 _atom_site_occupancy
  Cs  Cs0  1  -0.00462697  0.00315277  0.00113040  1
  Cs  Cs1  1  -0.00180704  0.00368255  0.33182247  1
  Cs  Cs2  1  -0.00390931  0.00398264  0.66651162  1
  Cs  Cs3  1  -0.00245351  0.33349517  0.00023188  1
  Cs  Cs4  1  -0.00307593  0.32871574  0.33464725  1
  Cs  Cs5  1  0.00478961  0.33128556  0.66436647  1
  Cs  Cs6  1  0.00175755  0.66560954  -0.00083955  1
  Cs  Cs7  1  0.00265011  0.66708514  0.33398733  1
  Cs  Cs8  1  -0.00004372  0.66662138  0.66761166  1
  Cs  Cs9  1  0.33442524  -0.00134920  0.00087061  1
  Cs  Cs10  1  0.33275487  -0.00257915  0.33271590  1
  Cs  Cs11  1  0.33284835  0.00289661  0.66608853  1
  Cs  Cs12  1  0.33380631  0.33492051  -0.00017147  1
  Cs  Cs13  1  0.33626067  0.33516343  0.33380537  1
  Cs  Cs14  1  0.33184328  0.32573677  0.66624168  1
  Cs  Cs15  1  0.33238625  0.66633201  0.00023539  1
  Cs  Cs16  1  0.33232177  0.66708946  0.33172773  1
  Cs  Cs17  1  0.33129055  0.66806786  0.66860211  1
  Cs  Cs18  1  0.66762588  0.00126781  0.00156012  1
  Cs  Cs19  1  0.66867888  -0.00039026  0.32947345  1
  Cs  Cs20  1  0.67124177  0.00167384  0.66803335  1
  Cs  Cs21  1  0.66884723  0.33245319  0.00055774  1
  Cs  Cs22  1  0.66659505  0.33534186  0.34010757  1
  Cs  Cs23  1  0.66214019  0.33079539  0.65754831  1
  Cs  Cs24  1  0.66592490  0.66663472  -0.00126819  1
  Cs  Cs25  1  0.66591444  0.66510471  0.33608985  1
  Cs  Cs26  1  0.66953875  0.66774865  0.66644021  1
  Sn  Sn27  1  0.49938463  0.83312617  0.50046691  1
  Sn  Sn28  1  0.49942232  0.83264663  0.83292371  1
  Sn  Sn29  1  0.83253881  0.83160070  0.16647623  1
  Sn  Sn30  1  0.16714997  0.83307353  0.83260227  1
  Sn  Sn31  1  0.50074442  0.83348516  0.16657941  1
  Sn  Sn32  1  0.49997783  0.50052999  0.83328735  1
  Sn  Sn33  1  0.16706071  0.50094246  0.50066897  1
  Sn  Sn34  1  0.16800231  0.16673539  0.16623028  1
  Sn  Sn35  1  0.16691655  0.50076362  0.83255684  1
  Sn  Sn36  1  0.83324920  0.50130085  0.16627391  1
  Sn  Sn37  1  0.83304862  0.50012723  0.83362778  1
  Sn  Sn38  1  0.16735652  0.83264601  0.50106531  1
  Sn  Sn39  1  0.49880044  0.16637385  0.16639840  1
  Pb  Pb40  1  0.83239809  0.16715859  0.16658470  1
  Pb  Pb41  1  0.49731721  0.50251434  0.50310990  1
  Pb  Pb42  1  0.16696399  0.16593730  0.49758873  1
  Pb  Pb43  1  0.83594850  0.50034950  0.50061148  1
  Pb  Pb44  1  0.83316934  0.16652030  0.50020428  1
  Pb  Pb45  1  0.16463088  0.49784441  0.16655526  1
  Pb  Pb46  1  0.50198255  0.50035487  0.16497388  1
  Pb  Pb47  1  0.83309770  0.17046350  0.83322852  1
  Pb  Pb48  1  0.16677152  0.16619838  0.83555020  1
  Pb  Pb49  1  0.83350359  0.83176152  0.83523049  1
  Pb  Pb50  1  0.49975983  0.16328912  0.49716875  1
  Pb  Pb51  1  0.83380825  0.83318742  0.49755993  1
  Pb  Pb52  1  0.49998841  0.16613600  0.83535079  1
  Pb  Pb53  1  0.16667928  0.83458850  0.16632867  1
  I  I54  1  0.16600042  0.00220914  0.16676458  1
  I  I55  1  0.17096115  -0.00381136  0.50303018  1
  I  I56  1  0.17272132  -0.00375572  0.83061141  1
  I  I57  1  0.17108878  0.33033026  0.16622932  1
  I  I58  1  0.16469260  0.33615936  0.50423159  1
  I  I59  1  0.16657752  0.33693733  0.83033531  1
  I  I60  1  0.16772827  0.66660100  0.16692107  1
  I  I61  1  0.16954425  0.66753694  0.50262737  1
  I  I62  1  0.16742489  0.66649234  0.83108827  1
  I  I63  1  0.50171064  -0.00200054  0.16494029  1
  I  I64  1  0.49262220  -0.00503869  0.50459039  1
  I  I65  1  0.49406661  -0.00409935  0.83246491  1
  I  I66  1  0.49720028  0.33123182  0.16335381  1
  I  I67  1  0.49963577  0.33355113  0.49940673  1
  I  I68  1  0.49929131  0.33660174  0.83671153  1
  I  I69  1  0.50214108  0.67002602  0.16748262  1
  I  I70  1  0.49845508  0.67056486  0.49310543  1
  I  I71  1  0.49879460  0.66768211  0.83679563  1
  I  I72  1  0.83239032  -0.00267347  0.16739707  1
  I  I73  1  0.83624766  -0.00068913  0.49678850  1
  I  I74  1  0.83395517  -0.00034912  0.83574407  1
  I  I75  1  0.83509926  0.33632537  0.16147837  1
  I  I76  1  0.83500085  0.33398146  0.49650158  1
  I  I77  1  0.83467864  0.33911479  0.84281906  1
  I  I78  1  0.82877855  0.66703918  0.16299320  1
  I  I79  1  0.83167270  0.66673848  0.49908384  1
  I  I80  1  0.83391040  0.66355402  0.83662060  1
  I  I81  1  0.16991400  0.16612479  0.00323785  1
  I  I82  1  0.16940299  0.16599001  0.32984526  1
  I  I83  1  0.16562829  0.16742267  0.66665533  1
  I  I84  1  0.16776456  0.50376880  -0.00330797  1
  I  I85  1  0.16490695  0.50387199  0.33571529  1
  I  I86  1  0.16398382  0.50433868  0.66804041  1
  I  I87  1  0.16996481  0.82916121  -0.00278816  1
  I  I88  1  0.16958214  0.83019850  0.33561776  1
  I  I89  1  0.17470703  0.82851089  0.66720774  1
  I  I90  1  0.49668570  0.16038028  0.00343236  1
  I  I91  1  0.49629647  0.16239116  0.32897261  1
  I  I92  1  0.50072544  0.16729728  0.66655024  1
  I  I93  1  0.49481171  0.50552009  -0.00320934  1
  I  I94  1  0.50031570  0.49996322  0.33354896  1
  I  I95  1  0.50616262  0.50511838  0.67126633  1
  I  I96  1  0.49927033  0.83341491  -0.00018436  1
  I  I97  1  0.49942185  0.83838667  0.33278789  1
  I  I98  1  0.49458684  0.82707554  0.66750693  1
  I  I99  1  0.83446590  0.16488568  0.00039816  1
  I  I100  1  0.83492210  0.16856252  0.33252077  1
  I  I101  1  0.83418229  0.16621331  0.66691510  1
  I  I102  1  0.83603054  0.50410154  -0.00035403  1
  I  I103  1  0.83461057  0.50243881  0.33059017  1
  I  I104  1  0.83186565  0.50089150  0.67017552  1
  I  I105  1  0.83015915  0.83173755  0.00330159  1
  I  I106  1  0.82984126  0.82843393  0.32918538  1
  I  I107  1  0.83070447  0.83202892  0.66689954  1
  I  I108  1  0.00184751  0.16612801  0.16700809  1
  I  I109  1  0.00067174  0.16513680  0.49560460  1
  I  I110  1  0.00019354  0.16489498  0.83778649  1
  I  I111  1  -0.00307963  0.50449143  0.16135490  1
  I  I112  1  0.00389956  0.50645247  0.50416679  1
  I  I113  1  0.00086503  0.50434304  0.83448134  1
  I  I114  1  -0.00210206  0.83184630  0.16627817  1
  I  I115  1  0.00366918  0.82923604  0.50303529  1
  I  I116  1  0.00304165  0.82891230  0.83108092  1
  I  I117  1  0.33425416  0.16019946  0.16595245  1
  I  I118  1  0.33332982  0.16916815  0.49979473  1
  I  I119  1  0.33333238  0.17173205  0.83457436  1
  I  I120  1  0.33332540  0.50131319  0.16560331  1
  I  I121  1  0.32947928  0.50211269  0.50283916  1
  I  I122  1  0.33287753  0.50463602  0.83073689  1
  I  I123  1  0.33608875  0.83615795  0.16644058  1
  I  I124  1  0.33318167  0.82937998  0.49753118  1
  I  I125  1  0.33373587  0.82573425  0.83597052  1
  I  I126  1  0.66361034  0.16323724  0.16550057  1
  I  I127  1  0.66606120  0.16700440  0.49691717  1
  I  I128  1  0.66643212  0.16486740  0.83770191  1
  I  I129  1  0.66985387  0.49985466  0.16056587  1
  I  I130  1  0.66634489  0.49995109  0.50011844  1
  I  I131  1  0.66630017  0.50493713  0.84088160  1
  I  I132  1  0.66518061  0.83618035  0.16617843  1
  I  I133  1  0.66341350  0.83410777  0.50182631  1
  I  I134  1  0.66349176  0.82930201  0.83209505  1
