# generated using pymatgen
data_Cs27Sn13Pb14I81
_symmetry_space_group_name_H-M   'P 1'
_cell_length_a   19.29651838
_cell_length_b   19.29801694
_cell_length_c   19.29246032
_cell_angle_alpha   89.99302689
_cell_angle_beta   89.94570581
_cell_angle_gamma   89.99633058
_symmetry_Int_Tables_number   1
_chemical_formula_structural   Cs27Sn13Pb14I81
_chemical_formula_sum   'Cs27 Sn13 Pb14 I81'
_cell_volume   7184.21063708
_cell_formula_units_Z   1
loop_
 _symmetry_equiv_pos_site_id
 _symmetry_equiv_pos_as_xyz
  1  'x, y, z'
loop_
 _atom_site_type_symbol
 _atom_site_label
 _atom_site_symmetry_multiplicity
 _atom_site_fract_x
 _atom_site_fract_y
 _atom_site_fract_z
 _atom_site_occupancy
  Cs  Cs0  1  0.00461674  0.01447740  0.01178774  1
  Cs  Cs1  1  -0.00963527  0.00645495  0.32315851  1
  Cs  Cs2  1  0.01294474  0.00063276  0.68699515  1
  Cs  Cs3  1  0.00751348  0.31163919  0.01667262  1
  Cs  Cs4  1  -0.00391228  0.33128440  0.32691501  1
  Cs  Cs5  1  0.01294330  0.31965567  0.65932763  1
  Cs  Cs6  1  0.00292312  0.66850027  -0.01899487  1
  Cs  Cs7  1  -0.01935664  0.65270563  0.33044611  1
  Cs  Cs8  1  0.02359761  0.67057846  0.68071400  1
  Cs  Cs9  1  0.34014873  0.01479371  0.00880522  1
  Cs  Cs10  1  0.32079445  -0.02413310  0.31780727  1
  Cs  Cs11  1  0.35301411  -0.02061033  0.65586538  1
  Cs  Cs12  1  0.34093365  0.31177181  0.00403891  1
  Cs  Cs13  1  0.30880343  0.35242162  0.31520200  1
  Cs  Cs14  1  0.35465148  0.36641935  0.66715487  1
  Cs  Cs15  1  0.37097469  0.66007691  0.00447068  1
  Cs  Cs16  1  0.35567674  0.67239798  0.35198046  1
  Cs  Cs17  1  0.30270250  0.66434284  0.64204863  1
  Cs  Cs18  1  0.65215087  -0.00095516  -0.00557542  1
  Cs  Cs19  1  0.68339763  -0.00665252  0.35240528  1
  Cs  Cs20  1  0.64193933  0.01698350  0.66366068  1
  Cs  Cs21  1  0.64710938  0.32415686  -0.01116602  1
  Cs  Cs22  1  0.70424716  0.33843410  0.34671334  1
  Cs  Cs23  1  0.63623222  0.31523164  0.67296984  1
  Cs  Cs24  1  0.66759461  0.66115766  -0.01723226  1
  Cs  Cs25  1  0.67546341  0.67101950  0.32800989  1
  Cs  Cs26  1  0.68647160  0.66358374  0.70178526  1
  Sn  Sn27  1  0.83562074  0.83355609  0.16584007  1
  Sn  Sn28  1  0.83394271  0.50528048  0.50213230  1
  Sn  Sn29  1  0.16591839  0.16422176  0.49898258  1
  Sn  Sn30  1  0.83914715  0.16740299  0.83391433  1
  Sn  Sn31  1  0.15944136  0.82848771  0.16255791  1
  Sn  Sn32  1  0.15962169  0.50707239  0.16117710  1
  Sn  Sn33  1  0.83551377  0.82981521  0.50105928  1
  Sn  Sn34  1  0.83376406  0.50113291  0.16432708  1
  Sn  Sn35  1  0.50429761  0.16683668  0.17259731  1
  Sn  Sn36  1  0.16891042  0.16580577  0.17055031  1
  Sn  Sn37  1  0.16397388  0.16762068  0.83279523  1
  Sn  Sn38  1  0.82799304  0.16616617  0.16402328  1
  Sn  Sn39  1  0.49811437  0.83570146  0.83500694  1
  Pb  Pb40  1  0.16475845  0.49704260  0.83794534  1
  Pb  Pb41  1  0.50072495  0.83585988  0.16806707  1
  Pb  Pb42  1  0.49326892  0.16755766  0.49171486  1
  Pb  Pb43  1  0.16040198  0.83594114  0.49519797  1
  Pb  Pb44  1  0.50140306  0.49690886  0.17033564  1
  Pb  Pb45  1  0.83675785  0.16519656  0.50306057  1
  Pb  Pb46  1  0.49501026  0.16542446  0.83463753  1
  Pb  Pb47  1  0.83723188  0.49575465  0.83496264  1
  Pb  Pb48  1  0.16948741  0.83513310  0.83821163  1
  Pb  Pb49  1  0.16144214  0.49714727  0.49616116  1
  Pb  Pb50  1  0.50554866  0.50126350  0.49525463  1
  Pb  Pb51  1  0.50497771  0.83101326  0.50073713  1
  Pb  Pb52  1  0.83476279  0.83691371  0.83398795  1
  Pb  Pb53  1  0.49942952  0.50331553  0.83379820  1
  I  I54  1  0.16670258  0.00374299  0.16693471  1
  I  I55  1  0.15729868  0.00274881  0.49263121  1
  I  I56  1  0.14611511  0.00087624  0.83986625  1
  I  I57  1  0.16519773  0.32966780  0.16704260  1
  I  I58  1  0.15497585  0.33024765  0.49577536  1
  I  I59  1  0.14339926  0.33076690  0.83368145  1
  I  I60  1  0.13147704  0.66714177  0.16442000  1
  I  I61  1  0.18267959  0.66697552  0.48154002  1
  I  I62  1  0.18394461  0.66721150  0.82156442  1
  I  I63  1  0.49251247  0.00264033  0.15270016  1
  I  I64  1  0.51400168  0.00143306  0.50553679  1
  I  I65  1  0.51146057  0.00024449  0.83371284  1
  I  I66  1  0.49439217  0.33167052  0.14865398  1
  I  I67  1  0.50397024  0.33253666  0.51630942  1
  I  I68  1  0.50192431  0.33295465  0.82826048  1
  I  I69  1  0.48809655  0.66679172  0.16530186  1
  I  I70  1  0.47641873  0.66620273  0.51704328  1
  I  I71  1  0.51332962  0.66970845  0.84501025  1
  I  I72  1  0.83960541  0.00373742  0.16382776  1
  I  I73  1  0.83129213  -0.00217320  0.49175894  1
  I  I74  1  0.84622423  0.00266896  0.84827626  1
  I  I75  1  0.83665083  0.33057125  0.16878712  1
  I  I76  1  0.84445260  0.33563227  0.49577150  1
  I  I77  1  0.84374903  0.33033664  0.85192518  1
  I  I78  1  0.84560947  0.66754591  0.18362840  1
  I  I79  1  0.82610453  0.66705495  0.46305171  1
  I  I80  1  0.82051839  0.66717593  0.84928701  1
  I  I81  1  0.16895713  0.17008026  0.00183517  1
  I  I82  1  0.17647406  0.17274123  0.33177291  1
  I  I83  1  0.13187207  0.16127799  0.66794819  1
  I  I84  1  0.13412844  0.49993548  0.00247566  1
  I  I85  1  0.16622413  0.49024101  0.32989955  1
  I  I86  1  0.17464648  0.49973838  0.66601209  1
  I  I87  1  0.13336452  0.83382012  0.00158821  1
  I  I88  1  0.17367958  0.84286650  0.32919236  1
  I  I89  1  0.17644731  0.83468304  0.66559534  1
  I  I90  1  0.48744277  0.16826336  -0.00026334  1
  I  I91  1  0.52328194  0.15873491  0.32813507  1
  I  I92  1  0.49953113  0.16194745  0.66779958  1
  I  I93  1  0.51650118  0.50558858  0.00108159  1
  I  I94  1  0.46380020  0.50081349  0.33286558  1
  I  I95  1  0.51658221  0.49247313  0.66700977  1
  I  I96  1  0.51312378  0.83160705  0.00069776  1
  I  I97  1  0.47514952  0.83310432  0.33367695  1
  I  I98  1  0.51187945  0.85168740  0.66860420  1
  I  I99  1  0.84961183  0.16633434  0.00504851  1
  I  I100  1  0.81931848  0.16709663  0.33099459  1
  I  I101  1  0.86376424  0.16317237  0.67095581  1
  I  I102  1  0.83816014  0.52059376  0.00556134  1
  I  I103  1  0.84732712  0.48411591  0.32904142  1
  I  I104  1  0.82465091  0.52100563  0.66222653  1
  I  I105  1  0.84221376  0.81797852  0.00600313  1
  I  I106  1  0.84435728  0.85129145  0.32861163  1
  I  I107  1  0.81248441  0.81749248  0.66185634  1
  I  I108  1  0.00053072  0.16611531  0.16958170  1
  I  I109  1  0.00065322  0.16954362  0.47359054  1
  I  I110  1  0.00082996  0.16424593  0.85484067  1
  I  I111  1  0.00031507  0.47954854  0.18040415  1
  I  I112  1  -0.00453983  0.51744087  0.49850563  1
  I  I113  1  0.00002107  0.52600975  0.81932513  1
  I  I114  1  0.00146521  0.85733501  0.17873869  1
  I  I115  1  -0.00522819  0.81554994  0.50847896  1
  I  I116  1  -0.00030678  0.81902499  0.81349138  1
  I  I117  1  0.33396584  0.16730951  0.15873293  1
  I  I118  1  0.32955799  0.15604538  0.51680017  1
  I  I119  1  0.32681506  0.16477219  0.84392900  1
  I  I120  1  0.32747299  0.49387520  0.14538830  1
  I  I121  1  0.33256758  0.49103177  0.51133730  1
  I  I122  1  0.33354274  0.47849844  0.84659670  1
  I  I123  1  0.32768220  0.84241803  0.14748683  1
  I  I124  1  0.33333133  0.84208241  0.50614963  1
  I  I125  1  0.33643972  0.85663174  0.84782789  1
  I  I126  1  0.66526545  0.16652424  0.12789646  1
  I  I127  1  0.66848534  0.17230499  0.51831366  1
  I  I128  1  0.66783845  0.17210550  0.84192592  1
  I  I129  1  0.66917904  0.50400511  0.18855479  1
  I  I130  1  0.66831633  0.50399666  0.46453282  1
  I  I131  1  0.66980817  0.49056471  0.83673016  1
  I  I132  1  0.66866831  0.83312759  0.18682999  1
  I  I133  1  0.66686570  0.82633867  0.46729373  1
  I  I134  1  0.66797435  0.83881590  0.84319003  1
