# generated using pymatgen
data_Cs27Sn13Pb14I81
_symmetry_space_group_name_H-M   'P 1'
_cell_length_a   18.97636596
_cell_length_b   18.97528508
_cell_length_c   18.97632323
_cell_angle_alpha   89.99832546
_cell_angle_beta   89.99800910
_cell_angle_gamma   90.00157444
_symmetry_Int_Tables_number   1
_chemical_formula_structural   Cs27Sn13Pb14I81
_chemical_formula_sum   'Cs27 Sn13 Pb14 I81'
_cell_volume   6833.03153289
_cell_formula_units_Z   1
loop_
 _symmetry_equiv_pos_site_id
 _symmetry_equiv_pos_as_xyz
  1  'x, y, z'
loop_
 _atom_site_type_symbol
 _atom_site_label
 _atom_site_symmetry_multiplicity
 _atom_site_fract_x
 _atom_site_fract_y
 _atom_site_fract_z
 _atom_site_occupancy
  Cs  Cs0  1  -0.00020611  -0.00090947  0.00061291  1
  Cs  Cs1  1  0.00062847  -0.00060188  0.33360969  1
  Cs  Cs2  1  -0.00006852  0.00018764  0.66580313  1
  Cs  Cs3  1  0.00102951  0.34540372  -0.00477843  1
  Cs  Cs4  1  -0.00035596  0.32950643  0.33408810  1
  Cs  Cs5  1  -0.00018155  0.33415613  0.66957184  1
  Cs  Cs6  1  -0.00308938  0.66058963  0.00009177  1
  Cs  Cs7  1  0.00154060  0.66924449  0.33537753  1
  Cs  Cs8  1  -0.00102258  0.66694177  0.66533381  1
  Cs  Cs9  1  0.33433413  0.00027927  -0.00280839  1
  Cs  Cs10  1  0.32883658  -0.00298377  0.33262166  1
  Cs  Cs11  1  0.33335385  -0.00128174  0.67098171  1
  Cs  Cs12  1  0.33227955  0.33307169  -0.00029441  1
  Cs  Cs13  1  0.33977404  0.33574013  0.33177029  1
  Cs  Cs14  1  0.33549514  0.33053314  0.66871174  1
  Cs  Cs15  1  0.33359365  0.66668257  0.00115550  1
  Cs  Cs16  1  0.33279911  0.66654330  0.33439317  1
  Cs  Cs17  1  0.33610518  0.66897438  0.66452724  1
  Cs  Cs18  1  0.66534249  0.00168667  0.00015140  1
  Cs  Cs19  1  0.67018271  0.00617046  0.33080697  1
  Cs  Cs20  1  0.66702181  0.00107905  0.66845532  1
  Cs  Cs21  1  0.66754598  0.33671927  0.00919586  1
  Cs  Cs22  1  0.65780405  0.32436820  0.32865303  1
  Cs  Cs23  1  0.66558206  0.33294234  0.66257119  1
  Cs  Cs24  1  0.67099097  0.66507457  -0.00149064  1
  Cs  Cs25  1  0.66517286  0.66647036  0.33286476  1
  Cs  Cs26  1  0.66661498  0.66707126  0.66787035  1
  Sn  Sn27  1  0.16605514  0.49974165  0.50009429  1
  Sn  Sn28  1  0.16659396  0.83343009  0.50016370  1
  Sn  Sn29  1  0.16682569  0.16672714  0.49946326  1
  Sn  Sn30  1  0.16722938  0.83386441  0.16638361  1
  Sn  Sn31  1  0.83343795  0.16622670  0.83356158  1
  Sn  Sn32  1  0.49952984  0.83329190  0.16745869  1
  Sn  Sn33  1  0.83429569  0.83442602  0.83254256  1
  Sn  Sn34  1  0.50053226  0.83365732  0.49907570  1
  Sn  Sn35  1  0.83300695  0.83278280  0.50070658  1
  Sn  Sn36  1  0.83349699  0.50026354  0.49958094  1
  Sn  Sn37  1  0.49991265  0.50012036  0.83318889  1
  Sn  Sn38  1  0.16611985  0.16605638  0.16693699  1
  Sn  Sn39  1  0.16563021  0.83307570  0.83357469  1
  Pb  Pb40  1  0.83532983  0.16657540  0.50124536  1
  Pb  Pb41  1  0.16852343  0.50286304  0.83058626  1
  Pb  Pb42  1  0.49970175  0.50292001  0.16431775  1
  Pb  Pb43  1  0.83153272  0.50031946  0.83110621  1
  Pb  Pb44  1  0.16505566  0.16479734  0.83362003  1
  Pb  Pb45  1  0.83680722  0.16661584  0.16358251  1
  Pb  Pb46  1  0.50305360  0.16963314  0.83353040  1
  Pb  Pb47  1  0.50051898  0.83243490  0.83362423  1
  Pb  Pb48  1  0.50020777  0.50184778  0.50102093  1
  Pb  Pb49  1  0.49700686  0.16368149  0.16650580  1
  Pb  Pb50  1  0.83371279  0.83322131  0.16688044  1
  Pb  Pb51  1  0.49687977  0.16325520  0.50019391  1
  Pb  Pb52  1  0.83337897  0.49994070  0.17108129  1
  Pb  Pb53  1  0.16651664  0.50024611  0.16946562  1
  I  I54  1  0.16994460  -0.00190114  0.17216776  1
  I  I55  1  0.16651163  -0.00190207  0.49915897  1
  I  I56  1  0.16659967  -0.00383863  0.82832292  1
  I  I57  1  0.16500256  0.33033296  0.17113291  1
  I  I58  1  0.16070305  0.33335626  0.49620348  1
  I  I59  1  0.16576644  0.33346891  0.83328225  1
  I  I60  1  0.17035587  0.67039796  0.16773083  1
  I  I61  1  0.16613030  0.66861269  0.50039157  1
  I  I62  1  0.16109287  0.67132935  0.83371861  1
  I  I63  1  0.49804761  -0.00436632  0.16957279  1
  I  I64  1  0.50091597  -0.00517690  0.49848738  1
  I  I65  1  0.49842749  -0.00027631  0.83309075  1
  I  I66  1  0.49936883  0.33322891  0.16542244  1
  I  I67  1  0.50008258  0.33327851  0.50241375  1
  I  I68  1  0.49949147  0.33708528  0.83001274  1
  I  I69  1  0.49234151  0.67099661  0.17107365  1
  I  I70  1  0.49491635  0.67037860  0.49810876  1
  I  I71  1  0.50112571  0.66520539  0.83197997  1
  I  I72  1  0.83159303  -0.00030840  0.17071489  1
  I  I73  1  0.83463014  -0.00345149  0.50214175  1
  I  I74  1  0.83695205  -0.00234352  0.82674642  1
  I  I75  1  0.83542545  0.33317417  0.16460740  1
  I  I76  1  0.83996225  0.33581883  0.50378832  1
  I  I77  1  0.83289280  0.33132440  0.83131161  1
  I  I78  1  0.83525509  0.66707975  0.16098536  1
  I  I79  1  0.83867514  0.66870072  0.50594072  1
  I  I80  1  0.83561234  0.66983621  0.83108674  1
  I  I81  1  0.16615516  0.15928411  0.00262802  1
  I  I82  1  0.16530747  0.16002192  0.33433079  1
  I  I83  1  0.16505571  0.16476634  0.66383862  1
  I  I84  1  0.16794513  0.50006205  -0.00025666  1
  I  I85  1  0.16402170  0.50632651  0.33765868  1
  I  I86  1  0.16311744  0.50067014  0.66254407  1
  I  I87  1  0.16839791  0.83911333  0.00027757  1
  I  I88  1  0.16728518  0.83350249  0.33477809  1
  I  I89  1  0.16683692  0.83340163  0.66525393  1
  I  I90  1  0.49738695  0.16355994  0.00003499  1
  I  I91  1  0.50404763  0.17025379  0.33349255  1
  I  I92  1  0.49650173  0.16384633  0.66668295  1
  I  I93  1  0.50075713  0.50317758  -0.00332928  1
  I  I94  1  0.49986376  0.50024100  0.33339651  1
  I  I95  1  0.49979569  0.50508476  0.66855245  1
  I  I96  1  0.49522899  0.83163148  0.00233569  1
  I  I97  1  0.49507899  0.83152540  0.33434397  1
  I  I98  1  0.49670149  0.83105318  0.66408006  1
  I  I99  1  0.83374930  0.15784805  -0.00414549  1
  I  I100  1  0.83301046  0.16654407  0.33332364  1
  I  I101  1  0.83695378  0.16375480  0.66904401  1
  I  I102  1  0.83178269  0.50054146  -0.00029862  1
  I  I103  1  0.83839459  0.50928112  0.33898337  1
  I  I104  1  0.83743639  0.50323728  0.66336702  1
  I  I105  1  0.83585085  0.83681509  -0.00314566  1
  I  I106  1  0.83612978  0.82899740  0.33689895  1
  I  I107  1  0.83660500  0.83300108  0.66582468  1
  I  I108  1  0.00447001  0.15674929  0.17296461  1
  I  I109  1  0.00355416  0.16113261  0.49718252  1
  I  I110  1  -0.00268412  0.16390152  0.83195379  1
  I  I111  1  0.00025468  0.50279097  0.16190568  1
  I  I112  1  0.00069192  0.50650649  0.50129861  1
  I  I113  1  -0.00005015  0.49890063  0.83418745  1
  I  I114  1  0.00353304  0.83733030  0.16972991  1
  I  I115  1  0.00113930  0.83262831  0.50066725  1
  I  I116  1  0.00022073  0.83646040  0.82927637  1
  I  I117  1  0.32905849  0.16405962  0.17047340  1
  I  I118  1  0.32847064  0.16746245  0.49767652  1
  I  I119  1  0.33299271  0.16572134  0.83291983  1
  I  I120  1  0.33301002  0.49932410  0.16853850  1
  I  I121  1  0.33046544  0.50246027  0.50136365  1
  I  I122  1  0.33573573  0.50348222  0.83047740  1
  I  I123  1  0.33179176  0.83612655  0.16982086  1
  I  I124  1  0.33167938  0.83279848  0.50010398  1
  I  I125  1  0.33074369  0.83151161  0.83007070  1
  I  I126  1  0.66678744  0.16607485  0.16592769  1
  I  I127  1  0.66676572  0.16703235  0.50197503  1
  I  I128  1  0.67069465  0.15701454  0.83039509  1
  I  I129  1  0.66647838  0.50262907  0.16697251  1
  I  I130  1  0.66944339  0.50746792  0.50412027  1
  I  I131  1  0.66442677  0.50452713  0.82983370  1
  I  I132  1  0.66404231  0.83131554  0.16956138  1
  I  I133  1  0.66753378  0.82686540  0.50169040  1
  I  I134  1  0.66953333  0.83446767  0.82948392  1
