# generated using pymatgen
data_Cs27Sn13Pb14I81
_symmetry_space_group_name_H-M   'P 1'
_cell_length_a   18.98601394
_cell_length_b   18.97264779
_cell_length_c   18.97246684
_cell_angle_alpha   90.00000005
_cell_angle_beta   90.00000013
_cell_angle_gamma   89.99653594
_symmetry_Int_Tables_number   1
_chemical_formula_structural   Cs27Sn13Pb14I81
_chemical_formula_sum   'Cs27 Sn13 Pb14 I81'
_cell_volume   6834.16628408
_cell_formula_units_Z   1
loop_
 _symmetry_equiv_pos_site_id
 _symmetry_equiv_pos_as_xyz
  1  'x, y, z'
loop_
 _atom_site_type_symbol
 _atom_site_label
 _atom_site_symmetry_multiplicity
 _atom_site_fract_x
 _atom_site_fract_y
 _atom_site_fract_z
 _atom_site_occupancy
  Cs  Cs0  1  0.00351148  0.00158705  0.00089751  1
  Cs  Cs1  1  -0.00256104  -0.00104509  0.33439498  1
  Cs  Cs2  1  -0.00201931  -0.00038675  0.66416400  1
  Cs  Cs3  1  -0.00080334  0.33286128  0.00006910  1
  Cs  Cs4  1  0.00047476  0.33184395  0.33168934  1
  Cs  Cs5  1  0.00129504  0.33557720  0.67015312  1
  Cs  Cs6  1  0.00456876  0.66694860  -0.00425092  1
  Cs  Cs7  1  -0.00509051  0.67033648  0.33286728  1
  Cs  Cs8  1  0.00123755  0.66588393  0.67060068  1
  Cs  Cs9  1  0.33297182  -0.00600748  -0.00274660  1
  Cs  Cs10  1  0.33193688  0.00056408  0.33463953  1
  Cs  Cs11  1  0.33642752  0.00135206  0.66655052  1
  Cs  Cs12  1  0.33333319  0.33333328  0.00384642  1
  Cs  Cs13  1  0.33333342  0.33333329  0.33532933  1
  Cs  Cs14  1  0.33333334  0.33333328  0.65553772  1
  Cs  Cs15  1  0.33369475  0.67267406  -0.00274657  1
  Cs  Cs16  1  0.33472986  0.66610256  0.33463957  1
  Cs  Cs17  1  0.33023899  0.66531468  0.66655046  1
  Cs  Cs18  1  0.66209797  -0.00028185  -0.00425086  1
  Cs  Cs19  1  0.67175699  -0.00366978  0.33286719  1
  Cs  Cs20  1  0.66542916  0.00078279  0.67060068  1
  Cs  Cs21  1  0.66747002  0.33380537  0.00006905  1
  Cs  Cs22  1  0.66619181  0.33482274  0.33168928  1
  Cs  Cs23  1  0.66537149  0.33108950  0.67015333  1
  Cs  Cs24  1  0.66315518  0.66507948  0.00089766  1
  Cs  Cs25  1  0.66922768  0.66771175  0.33439497  1
  Cs  Cs26  1  0.66868574  0.66705355  0.66416425  1
  Sn  Sn27  1  0.83363195  0.49931517  0.16720388  1
  Sn  Sn28  1  0.16661194  0.49978061  0.16681012  1
  Sn  Sn29  1  0.83333328  0.83333334  0.83413648  1
  Sn  Sn30  1  0.50005473  0.16688609  0.16681007  1
  Sn  Sn31  1  0.16683189  0.16731210  0.16584123  1
  Sn  Sn32  1  0.83323817  0.16810644  0.49968195  1
  Sn  Sn33  1  0.16703753  0.16727497  0.83357183  1
  Sn  Sn34  1  0.49983473  0.49935457  0.16584118  1
  Sn  Sn35  1  0.83342845  0.49856024  0.49968199  1
  Sn  Sn36  1  0.49962910  0.49939176  0.83357186  1
  Sn  Sn37  1  0.83303471  0.16735148  0.16720390  1
  Sn  Sn38  1  0.16761983  0.83324456  0.49976142  1
  Sn  Sn39  1  0.49904682  0.83342211  0.49976146  1
  Pb  Pb40  1  0.16517622  0.83561159  0.83097153  1
  Pb  Pb41  1  0.83190105  0.50134133  0.83413542  1
  Pb  Pb42  1  0.50210292  0.50121840  0.49926965  1
  Pb  Pb43  1  0.83476566  0.16532532  0.83413543  1
  Pb  Pb44  1  0.49726604  0.16894859  0.83558998  1
  Pb  Pb45  1  0.83333333  0.83333332  0.50151811  1
  Pb  Pb46  1  0.16940065  0.49771809  0.83558993  1
  Pb  Pb47  1  0.50149051  0.83105503  0.83097156  1
  Pb  Pb48  1  0.50282535  0.16479698  0.49728854  1
  Pb  Pb49  1  0.50001510  0.83315663  0.16842370  1
  Pb  Pb50  1  0.16456374  0.16544829  0.49926960  1
  Pb  Pb51  1  0.16665162  0.83351004  0.16842373  1
  Pb  Pb52  1  0.83333330  0.83333331  0.16376307  1
  Pb  Pb53  1  0.16384134  0.50186964  0.49728850  1
  I  I54  1  0.16586383  0.00367753  0.16438885  1
  I  I55  1  0.16675474  -0.00243424  0.49792651  1
  I  I56  1  0.16591695  0.00326141  0.84170804  1
  I  I57  1  0.16589815  0.33278404  0.16383890  1
  I  I58  1  0.16709098  0.33340380  0.50201823  1
  I  I59  1  0.16321874  0.32999425  0.83508191  1
  I  I60  1  0.16598779  0.66337047  0.16909004  1
  I  I61  1  0.16782470  0.66959382  0.49889257  1
  I  I62  1  0.16605534  0.66645587  0.83405751  1
  I  I63  1  0.50067875  0.00329617  0.16908985  1
  I  I64  1  0.49884198  -0.00292715  0.49889286  1
  I  I65  1  0.50061123  0.00021084  0.83405738  1
  I  I66  1  0.50076866  0.33388260  0.16383917  1
  I  I67  1  0.49957548  0.33326285  0.50201804  1
  I  I68  1  0.50344796  0.33667244  0.83508164  1
  I  I69  1  0.50080285  0.66298914  0.16438883  1
  I  I70  1  0.49991206  0.66910090  0.49792620  1
  I  I71  1  0.50074998  0.66340524  0.84170813  1
  I  I72  1  0.83416497  0.00359865  0.17139536  1
  I  I73  1  0.83415430  0.00239386  0.49573055  1
  I  I74  1  0.83368508  -0.00231037  0.83088876  1
  I  I75  1  0.83333321  0.33333332  0.17043616  1
  I  I76  1  0.83333355  0.33333332  0.49532891  1
  I  I77  1  0.83333331  0.33333334  0.83204007  1
  I  I78  1  0.83250181  0.66306803  0.17139559  1
  I  I79  1  0.83251221  0.66427279  0.49573036  1
  I  I80  1  0.83298165  0.66897705  0.83088825  1
  I  I81  1  0.16297231  0.16966217  0.00236153  1
  I  I82  1  0.16781610  0.16919074  0.32969760  1
  I  I83  1  0.16356520  0.16324126  0.66844306  1
  I  I84  1  0.16024060  0.49877533  0.00410688  1
  I  I85  1  0.17185859  0.49301706  0.32909288  1
  I  I86  1  0.16676419  0.49945442  0.66654701  1
  I  I87  1  0.16473782  0.83206081  -0.00009814  1
  I  I88  1  0.16801247  0.83527281  0.33622748  1
  I  I89  1  0.16880202  0.83491627  0.66327661  1
  I  I90  1  0.50642630  0.16789154  0.00410692  1
  I  I91  1  0.49480838  0.17364929  0.32909290  1
  I  I92  1  0.49990209  0.16721235  0.66654703  1
  I  I93  1  0.50369426  0.49700437  0.00236153  1
  I  I94  1  0.49885019  0.49747600  0.32969761  1
  I  I95  1  0.50310198  0.50342549  0.66844304  1
  I  I96  1  0.50192911  0.83460588  -0.00009811  1
  I  I97  1  0.49865409  0.83139417  0.33622746  1
  I  I98  1  0.49786459  0.83174997  0.66327665  1
  I  I99  1  0.83235603  0.17033212  0.00379803  1
  I  I100  1  0.83546902  0.16881303  0.33199409  1
  I  I101  1  0.83620662  0.16819860  0.66424895  1
  I  I102  1  0.83431047  0.49633472  0.00379803  1
  I  I103  1  0.83119786  0.49785346  0.33199408  1
  I  I104  1  0.83046001  0.49846799  0.66424891  1
  I  I105  1  0.83333301  0.83333312  -0.00329858  1
  I  I106  1  0.83333343  0.83333348  0.33325758  1
  I  I107  1  0.83333362  0.83333355  0.66876426  1
  I  I108  1  -0.00027587  0.17186224  0.16662034  1
  I  I109  1  -0.00327056  0.16614573  0.49408909  1
  I  I110  1  0.00243025  0.16588569  0.83922768  1
  I  I111  1  -0.00060008  0.49420756  0.17172650  1
  I  I112  1  -0.00405215  0.49936102  0.49548378  1
  I  I113  1  0.00025993  0.50155992  0.83339278  1
  I  I114  1  -0.00010051  0.83333652  0.17023501  1
  I  I115  1  0.00149663  0.83407287  0.50091786  1
  I  I116  1  -0.00241779  0.83161027  0.83024319  1
  I  I117  1  0.33305035  0.17284192  0.16266856  1
  I  I118  1  0.33342087  0.16560718  0.49955303  1
  I  I119  1  0.32973499  0.16535224  0.83913419  1
  I  I120  1  0.33361634  0.49382477  0.16266840  1
  I  I121  1  0.33324583  0.50105952  0.49955349  1
  I  I122  1  0.33693173  0.50131466  0.83913376  1
  I  I123  1  0.33333333  0.83333326  0.16592277  1
  I  I124  1  0.33333334  0.83333324  0.49878785  1
  I  I125  1  0.33333330  0.83333327  0.83346490  1
  I  I126  1  0.66726679  0.17245891  0.17172657  1
  I  I127  1  0.67071883  0.16730593  0.49548384  1
  I  I128  1  0.66640674  0.16510664  0.83339255  1
  I  I129  1  0.66694251  0.49480463  0.16662051  1
  I  I130  1  0.66993723  0.50052070  0.49408872  1
  I  I131  1  0.66423646  0.50078091  0.83922786  1
  I  I132  1  0.66676720  0.83333018  0.17023534  1
  I  I133  1  0.66517003  0.83259383  0.50091785  1
  I  I134  1  0.66908446  0.83505642  0.83024251  1
