# generated using pymatgen
data_Cs27Sn13Pb14I81
_symmetry_space_group_name_H-M   'P 1'
_cell_length_a   18.98026187
_cell_length_b   18.98008309
_cell_length_c   18.97061829
_cell_angle_alpha   89.99930876
_cell_angle_beta   89.99860847
_cell_angle_gamma   89.99954708
_symmetry_Int_Tables_number   1
_chemical_formula_structural   Cs27Sn13Pb14I81
_chemical_formula_sum   'Cs27 Sn13 Pb14 I81'
_cell_volume   6834.10732706
_cell_formula_units_Z   1
loop_
 _symmetry_equiv_pos_site_id
 _symmetry_equiv_pos_as_xyz
  1  'x, y, z'
loop_
 _atom_site_type_symbol
 _atom_site_label
 _atom_site_symmetry_multiplicity
 _atom_site_fract_x
 _atom_site_fract_y
 _atom_site_fract_z
 _atom_site_occupancy
  Cs  Cs0  1  0.00147593  -0.00154121  -0.00016426  1
  Cs  Cs1  1  0.00473025  0.00020901  0.33367394  1
  Cs  Cs2  1  -0.00008688  0.00582966  0.66782152  1
  Cs  Cs3  1  -0.00138974  0.33671834  -0.00260928  1
  Cs  Cs4  1  -0.00090706  0.33516936  0.33530199  1
  Cs  Cs5  1  -0.00140086  0.33190887  0.66692006  1
  Cs  Cs6  1  0.00004078  0.66594320  0.00023902  1
  Cs  Cs7  1  -0.00175573  0.66592774  0.33188294  1
  Cs  Cs8  1  -0.00048204  0.66242960  0.66873648  1
  Cs  Cs9  1  0.32926910  0.00343750  0.00138841  1
  Cs  Cs10  1  0.32495855  -0.00157001  0.33295699  1
  Cs  Cs11  1  0.33410004  -0.00143352  0.66617628  1
  Cs  Cs12  1  0.33743356  0.33229850  -0.00020685  1
  Cs  Cs13  1  0.33555080  0.33245851  0.33144675  1
  Cs  Cs14  1  0.33365704  0.33303787  0.66796515  1
  Cs  Cs15  1  0.33462461  0.66361969  -0.00334954  1
  Cs  Cs16  1  0.33168920  0.66852313  0.33579569  1
  Cs  Cs17  1  0.33605144  0.66921728  0.66742794  1
  Cs  Cs18  1  0.66845567  -0.00211874  0.00041200  1
  Cs  Cs19  1  0.66766118  -0.00292861  0.33180037  1
  Cs  Cs20  1  0.66562126  0.00038987  0.66975327  1
  Cs  Cs21  1  0.66298877  0.33419262  0.00206549  1
  Cs  Cs22  1  0.66604485  0.33438881  0.33299306  1
  Cs  Cs23  1  0.66803624  0.32961469  0.66461708  1
  Cs  Cs24  1  0.66484263  0.66867861  -0.00302251  1
  Cs  Cs25  1  0.66885774  0.66675270  0.33293051  1
  Cs  Cs26  1  0.66419993  0.67107985  0.66947324  1
  Sn  Sn27  1  0.50032291  0.49956754  0.49991724  1
  Sn  Sn28  1  0.49991352  0.83334733  0.16706402  1
  Sn  Sn29  1  0.49942265  0.16656637  0.83284411  1
  Sn  Sn30  1  0.83272827  0.83328654  0.16755300  1
  Sn  Sn31  1  0.83301844  0.50099195  0.49940113  1
  Sn  Sn32  1  0.83382919  0.50001453  0.16724334  1
  Sn  Sn33  1  0.83353439  0.16673365  0.16691021  1
  Sn  Sn34  1  0.16667284  0.49990401  0.49919573  1
  Sn  Sn35  1  0.16646648  0.83382752  0.83305059  1
  Sn  Sn36  1  0.16640008  0.49986695  0.16739014  1
  Sn  Sn37  1  0.49996466  0.16667539  0.50001213  1
  Sn  Sn38  1  0.83350617  0.83295056  0.49963838  1
  Sn  Sn39  1  0.16726157  0.16603867  0.83324323  1
  Pb  Pb40  1  0.49781354  0.83586698  0.83579643  1
  Pb  Pb41  1  0.16891824  0.16901002  0.50177421  1
  Pb  Pb42  1  0.16608426  0.83101334  0.16521928  1
  Pb  Pb43  1  0.16671700  0.49953329  0.83328456  1
  Pb  Pb44  1  0.50159705  0.16454654  0.16720426  1
  Pb  Pb45  1  0.83284620  0.50010040  0.83317516  1
  Pb  Pb46  1  0.50181930  0.83361771  0.49834389  1
  Pb  Pb47  1  0.83298862  0.16670012  0.83595614  1
  Pb  Pb48  1  0.16430608  0.16955205  0.16469397  1
  Pb  Pb49  1  0.50024522  0.49767418  0.83026567  1
  Pb  Pb50  1  0.83535588  0.83331728  0.83325835  1
  Pb  Pb51  1  0.50028178  0.50199272  0.16878722  1
  Pb  Pb52  1  0.16373926  0.83104457  0.50222503  1
  Pb  Pb53  1  0.83148135  0.16657296  0.49794890  1
  I  I54  1  0.16565637  0.00002509  0.16605603  1
  I  I55  1  0.16686244  -0.00001507  0.49957959  1
  I  I56  1  0.16990438  0.00064410  0.83486751  1
  I  I57  1  0.16201821  0.33738168  0.16878938  1
  I  I58  1  0.16075931  0.33724696  0.49875286  1
  I  I59  1  0.17066115  0.33064618  0.83349160  1
  I  I60  1  0.16121149  0.66327674  0.16793591  1
  I  I61  1  0.17126844  0.66282512  0.49874003  1
  I  I62  1  0.16453806  0.66852039  0.83392987  1
  I  I63  1  0.50702170  -0.00305312  0.16750389  1
  I  I64  1  0.50332357  0.00256445  0.50348913  1
  I  I65  1  0.49884682  0.00352767  0.82613887  1
  I  I66  1  0.50110729  0.33337961  0.16454239  1
  I  I67  1  0.50220260  0.33413616  0.50331928  1
  I  I68  1  0.49287602  0.32966093  0.83461084  1
  I  I69  1  0.50548028  0.66957715  0.16839935  1
  I  I70  1  0.49870020  0.66390120  0.49690650  1
  I  I71  1  0.49819633  0.66701976  0.83301181  1
  I  I72  1  0.82762757  -0.00113221  0.16913826  1
  I  I73  1  0.83084778  -0.00251962  0.49544741  1
  I  I74  1  0.83265201  0.00005284  0.83333494  1
  I  I75  1  0.83756987  0.33470575  0.16984539  1
  I  I76  1  0.83462037  0.33648710  0.49608742  1
  I  I77  1  0.83671824  0.33318923  0.83351129  1
  I  I78  1  0.83400414  0.66636151  0.17139551  1
  I  I79  1  0.83213685  0.66543777  0.49202312  1
  I  I80  1  0.83656480  0.66680770  0.83686579  1
  I  I81  1  0.17291619  0.16528653  -0.00321289  1
  I  I82  1  0.16796739  0.16566966  0.33328344  1
  I  I83  1  0.16669921  0.16514446  0.66987185  1
  I  I84  1  0.16017680  0.50073225  0.00276434  1
  I  I85  1  0.16473851  0.50062624  0.33374002  1
  I  I86  1  0.16523073  0.49989554  0.66349838  1
  I  I87  1  0.16502328  0.83499007  -0.00250554  1
  I  I88  1  0.16844097  0.83396768  0.33340234  1
  I  I89  1  0.16622746  0.83528507  0.66977654  1
  I  I90  1  0.49714900  0.16433568  -0.00223004  1
  I  I91  1  0.50360903  0.17140015  0.33602071  1
  I  I92  1  0.49734708  0.17130788  0.66642400  1
  I  I93  1  0.49937196  0.49946837  0.00032579  1
  I  I94  1  0.50038339  0.49318822  0.33688501  1
  I  I95  1  0.49948114  0.50038355  0.66180832  1
  I  I96  1  0.50797594  0.83332391  0.00351274  1
  I  I97  1  0.50238340  0.83477607  0.33050097  1
  I  I98  1  0.50106866  0.83136058  0.66657086  1
  I  I99  1  0.83181995  0.16677439  0.00407117  1
  I  I100  1  0.83062882  0.16732962  0.33002889  1
  I  I101  1  0.83448331  0.16702171  0.66645447  1
  I  I102  1  0.83953254  0.50073504  0.00395447  1
  I  I103  1  0.83440341  0.50068994  0.33324893  1
  I  I104  1  0.83502760  0.50411364  0.66244584  1
  I  I105  1  0.83069725  0.83237723  0.00357503  1
  I  I106  1  0.82958313  0.83151193  0.33222536  1
  I  I107  1  0.83427828  0.82711168  0.66352547  1
  I  I108  1  -0.00364231  0.16179665  0.16594667  1
  I  I109  1  -0.00006031  0.16754331  0.50157191  1
  I  I110  1  0.00267386  0.16350150  0.83525643  1
  I  I111  1  -0.00124592  0.50134461  0.17331479  1
  I  I112  1  -0.00069380  0.50473947  0.49603479  1
  I  I113  1  0.00011087  0.49722673  0.82963539  1
  I  I114  1  -0.00337696  0.83409265  0.16862042  1
  I  I115  1  -0.00412032  0.82884295  0.49290262  1
  I  I116  1  0.00303705  0.83943377  0.83538426  1
  I  I117  1  0.33323711  0.16617659  0.16737972  1
  I  I118  1  0.33698179  0.17165162  0.50040890  1
  I  I119  1  0.33343430  0.16319917  0.83003050  1
  I  I120  1  0.33106528  0.50226075  0.17016537  1
  I  I121  1  0.33326970  0.49477480  0.49640837  1
  I  I122  1  0.33328620  0.50210306  0.83455415  1
  I  I123  1  0.33517796  0.83226970  0.16489058  1
  I  I124  1  0.33322129  0.83187405  0.49884549  1
  I  I125  1  0.33020915  0.83368815  0.83482173  1
  I  I126  1  0.66966142  0.17162751  0.16495839  1
  I  I127  1  0.66364669  0.17279317  0.50608241  1
  I  I128  1  0.66369872  0.16804336  0.82972149  1
  I  I129  1  0.66992564  0.49823814  0.17088211  1
  I  I130  1  0.66750320  0.49899534  0.49545635  1
  I  I131  1  0.66643651  0.49817995  0.83511619  1
  I  I132  1  0.66862379  0.83161688  0.16969907  1
  I  I133  1  0.66986596  0.82748188  0.49780720  1
  I  I134  1  0.66655017  0.83449561  0.83260217  1
