# generated using pymatgen
data_Cs27Sn13Pb14I81
_symmetry_space_group_name_H-M   'P 1'
_cell_length_a   19.00614857
_cell_length_b   18.98789143
_cell_length_c   18.98637202
_cell_angle_alpha   89.99986254
_cell_angle_beta   90.00000003
_cell_angle_gamma   90.00000004
_symmetry_Int_Tables_number   1
_chemical_formula_structural   Cs27Sn13Pb14I81
_chemical_formula_sum   'Cs27 Sn13 Pb14 I81'
_cell_volume   6851.92887013
_cell_formula_units_Z   1
loop_
 _symmetry_equiv_pos_site_id
 _symmetry_equiv_pos_as_xyz
  1  'x, y, z'
loop_
 _atom_site_type_symbol
 _atom_site_label
 _atom_site_symmetry_multiplicity
 _atom_site_fract_x
 _atom_site_fract_y
 _atom_site_fract_z
 _atom_site_occupancy
  Cs  Cs0  1  0.00000006  0.00147179  0.00029879  1
  Cs  Cs1  1  0.00000002  0.00334094  0.33339040  1
  Cs  Cs2  1  0.00000000  0.00233938  0.66605795  1
  Cs  Cs3  1  0.00000013  0.33401340  0.00103360  1
  Cs  Cs4  1  0.00000002  0.33147110  0.33275343  1
  Cs  Cs5  1  -0.00000005  0.33056907  0.66583811  1
  Cs  Cs6  1  -0.00000001  0.66529686  0.00092219  1
  Cs  Cs7  1  -0.00000003  0.66522149  0.33014063  1
  Cs  Cs8  1  -0.00000002  0.66730948  0.66751842  1
  Cs  Cs9  1  0.33695515  0.00250464  0.00304047  1
  Cs  Cs10  1  0.33556027  -0.00041686  0.33318079  1
  Cs  Cs11  1  0.33037807  -0.00290425  0.66497378  1
  Cs  Cs12  1  0.34391026  0.33009943  0.00040982  1
  Cs  Cs13  1  0.33620230  0.33566946  0.33211163  1
  Cs  Cs14  1  0.33297946  0.33605486  0.66930725  1
  Cs  Cs15  1  0.32866785  0.66625161  0.00315065  1
  Cs  Cs16  1  0.33055040  0.66443574  0.33082895  1
  Cs  Cs17  1  0.33195167  0.66789358  0.66603612  1
  Cs  Cs18  1  0.66304479  0.00250467  0.00304045  1
  Cs  Cs19  1  0.66443977  -0.00041678  0.33318083  1
  Cs  Cs20  1  0.66962192  -0.00290429  0.66497378  1
  Cs  Cs21  1  0.65608983  0.33009922  0.00041000  1
  Cs  Cs22  1  0.66379789  0.33566965  0.33211152  1
  Cs  Cs23  1  0.66702066  0.33605485  0.66930712  1
  Cs  Cs24  1  0.67133215  0.66625149  0.00315069  1
  Cs  Cs25  1  0.66944955  0.66443595  0.33082884  1
  Cs  Cs26  1  0.66804832  0.66789351  0.66603609  1
  Sn  Sn27  1  0.83408016  0.16668084  0.16668644  1
  Sn  Sn28  1  0.50000003  0.83287812  0.83256295  1
  Sn  Sn29  1  0.16543896  0.50078455  0.50099499  1
  Sn  Sn30  1  0.50000003  0.16622524  0.50105076  1
  Sn  Sn31  1  0.83385077  0.83266014  0.50043401  1
  Sn  Sn32  1  0.16575071  0.50055272  0.83244445  1
  Sn  Sn33  1  0.16640391  0.83282690  0.83263675  1
  Sn  Sn34  1  0.83456104  0.50078459  0.50099499  1
  Sn  Sn35  1  0.16614923  0.83266016  0.50043400  1
  Sn  Sn36  1  0.50000001  0.83382193  0.50069289  1
  Sn  Sn37  1  0.83424925  0.50055272  0.83244444  1
  Sn  Sn38  1  0.16591986  0.16668086  0.16668646  1
  Sn  Sn39  1  0.83359607  0.83282690  0.83263677  1
  Pb  Pb40  1  0.50000000  0.16632745  0.16931856  1
  Pb  Pb41  1  0.16642464  0.83515114  0.16661838  1
  Pb  Pb42  1  0.50000000  0.50138818  0.50025045  1
  Pb  Pb43  1  0.50000002  0.50333790  0.83298884  1
  Pb  Pb44  1  0.83158435  0.16702463  0.49872875  1
  Pb  Pb45  1  0.83338752  0.16690195  0.83518854  1
  Pb  Pb46  1  0.50000000  0.50065999  0.16645259  1
  Pb  Pb47  1  0.16841563  0.16702465  0.49872877  1
  Pb  Pb48  1  0.50000001  0.16358091  0.82990905  1
  Pb  Pb49  1  0.16661249  0.16690194  0.83518849  1
  Pb  Pb50  1  0.50000000  0.83292165  0.16696572  1
  Pb  Pb51  1  0.83357535  0.83515112  0.16661839  1
  Pb  Pb52  1  0.16649942  0.49771157  0.16620360  1
  Pb  Pb53  1  0.83350057  0.49771157  0.16620356  1
  I  I54  1  0.16304902  0.00283966  0.16726244  1
  I  I55  1  0.16462373  -0.00342252  0.50336365  1
  I  I56  1  0.16582209  -0.00379815  0.82928785  1
  I  I57  1  0.16184301  0.33017879  0.16862139  1
  I  I58  1  0.16336449  0.33672508  0.50288461  1
  I  I59  1  0.16028173  0.33707951  0.82887161  1
  I  I60  1  0.16823131  0.66649617  0.16719202  1
  I  I61  1  0.16889329  0.66754151  0.50312289  1
  I  I62  1  0.16660297  0.66759948  0.82946869  1
  I  I63  1  0.49999998  -0.00001413  0.16428567  1
  I  I64  1  0.50000014  -0.00214304  0.50253398  1
  I  I65  1  0.50000002  -0.00469481  0.83311556  1
  I  I66  1  0.50000004  0.33276933  0.16861368  1
  I  I67  1  0.49999970  0.33153930  0.49520879  1
  I  I68  1  0.50000012  0.33355169  0.83480629  1
  I  I69  1  0.50000002  0.66706446  0.17050705  1
  I  I70  1  0.50000010  0.67054508  0.50533509  1
  I  I71  1  0.49999991  0.67104020  0.82322093  1
  I  I72  1  0.83695098  0.00283967  0.16726231  1
  I  I73  1  0.83537615  -0.00342252  0.50336365  1
  I  I74  1  0.83417791  -0.00379817  0.82928806  1
  I  I75  1  0.83815678  0.33017880  0.16862153  1
  I  I76  1  0.83663570  0.33672508  0.50288462  1
  I  I77  1  0.83971807  0.33707951  0.82887154  1
  I  I78  1  0.83176871  0.66649618  0.16719227  1
  I  I79  1  0.83110660  0.66754148  0.50312283  1
  I  I80  1  0.83339716  0.66759951  0.82946855  1
  I  I81  1  0.16240293  0.16545728  0.00307537  1
  I  I82  1  0.16331245  0.16590779  0.33099113  1
  I  I83  1  0.16871698  0.16636501  0.66658471  1
  I  I84  1  0.16174415  0.50563847  -0.00373537  1
  I  I85  1  0.16359878  0.50421179  0.33670870  1
  I  I86  1  0.16313484  0.50360305  0.66627463  1
  I  I87  1  0.16680798  0.82952576  -0.00382590  1
  I  I88  1  0.16749102  0.83000823  0.33715998  1
  I  I89  1  0.16758964  0.83073872  0.66620430  1
  I  I90  1  0.50000010  0.16630281  0.00001467  1
  I  I91  1  0.50000009  0.15869656  0.33667749  1
  I  I92  1  0.49999968  0.16505438  0.66250701  1
  I  I93  1  0.50000001  0.49993141  -0.00080402  1
  I  I94  1  0.50000000  0.50065153  0.33411396  1
  I  I95  1  0.50000001  0.49366302  0.66652034  1
  I  I96  1  0.50000002  0.83234773  -0.00374901  1
  I  I97  1  0.50000016  0.83831684  0.33750803  1
  I  I98  1  0.49999986  0.83838842  0.66583579  1
  I  I99  1  0.83759692  0.16545746  0.00307532  1
  I  I100  1  0.83668744  0.16590762  0.33099113  1
  I  I101  1  0.83128321  0.16636495  0.66658471  1
  I  I102  1  0.83825577  0.50563858  -0.00373538  1
  I  I103  1  0.83640117  0.50421160  0.33670869  1
  I  I104  1  0.83686520  0.50360302  0.66627462  1
  I  I105  1  0.83319200  0.82952544  -0.00382589  1
  I  I106  1  0.83250887  0.83000830  0.33715998  1
  I  I107  1  0.83241050  0.83073881  0.66620431  1
  I  I108  1  -0.00000003  0.16565915  0.16860855  1
  I  I109  1  0.00000001  0.16385234  0.49875118  1
  I  I110  1  -0.00000000  0.16094599  0.83177789  1
  I  I111  1  0.00000002  0.49968275  0.16751906  1
  I  I112  1  0.00000001  0.50710789  0.50289433  1
  I  I113  1  0.00000001  0.50867010  0.82991586  1
  I  I114  1  -0.00000000  0.83473814  0.16730212  1
  I  I115  1  -0.00000001  0.82982529  0.50516969  1
  I  I116  1  -0.00000001  0.82995673  0.82793429  1
  I  I117  1  0.33113500  0.16663923  0.16711577  1
  I  I118  1  0.33599637  0.16108901  0.49645878  1
  I  I119  1  0.33334636  0.16802962  0.83810686  1
  I  I120  1  0.33271123  0.49605381  0.16780218  1
  I  I121  1  0.33005715  0.50205096  0.50319960  1
  I  I122  1  0.32991726  0.50307794  0.82883898  1
  I  I123  1  0.33309764  0.83751752  0.16665560  1
  I  I124  1  0.33276506  0.83446438  0.50550417  1
  I  I125  1  0.33254304  0.83068720  0.82669522  1
  I  I126  1  0.66886500  0.16663923  0.16711574  1
  I  I127  1  0.66400360  0.16108938  0.49645915  1
  I  I128  1  0.66665363  0.16802944  0.83810654  1
  I  I129  1  0.66728879  0.49605388  0.16780216  1
  I  I130  1  0.66994285  0.50205057  0.50319973  1
  I  I131  1  0.67008276  0.50307836  0.82883890  1
  I  I132  1  0.66690236  0.83751752  0.16665552  1
  I  I133  1  0.66723496  0.83446440  0.50550439  1
  I  I134  1  0.66745695  0.83068715  0.82669505  1
