# generated using pymatgen
data_Cs27Sn14Pb13I81
_symmetry_space_group_name_H-M   'P 1'
_cell_length_a   18.97124333
_cell_length_b   18.96969994
_cell_length_c   18.98423588
_cell_angle_alpha   90.00181929
_cell_angle_beta   89.99953558
_cell_angle_gamma   90.00401062
_symmetry_Int_Tables_number   1
_chemical_formula_structural   Cs27Sn14Pb13I81
_chemical_formula_sum   'Cs27 Sn14 Pb13 I81'
_cell_volume   6832.02388171
_cell_formula_units_Z   1
loop_
 _symmetry_equiv_pos_site_id
 _symmetry_equiv_pos_as_xyz
  1  'x, y, z'
loop_
 _atom_site_type_symbol
 _atom_site_label
 _atom_site_symmetry_multiplicity
 _atom_site_fract_x
 _atom_site_fract_y
 _atom_site_fract_z
 _atom_site_occupancy
  Cs  Cs0  1  -0.00080171  0.00261343  0.00007547  1
  Cs  Cs1  1  0.00211573  0.00157504  0.33384510  1
  Cs  Cs2  1  -0.00184742  0.00129200  0.66600479  1
  Cs  Cs3  1  0.00263202  0.33046681  0.00073479  1
  Cs  Cs4  1  0.00023886  0.33332377  0.33245337  1
  Cs  Cs5  1  -0.00084143  0.33208892  0.66694939  1
  Cs  Cs6  1  0.00264005  0.67070565  -0.00055435  1
  Cs  Cs7  1  -0.00362042  0.66549464  0.32786672  1
  Cs  Cs8  1  0.00035480  0.66772609  0.67025692  1
  Cs  Cs9  1  0.33558032  0.00117771  0.00397759  1
  Cs  Cs10  1  0.34004318  -0.00879291  0.34248026  1
  Cs  Cs11  1  0.33418458  -0.00008119  0.65456470  1
  Cs  Cs12  1  0.33285039  0.33415978  0.00146702  1
  Cs  Cs13  1  0.33131064  0.33375371  0.33274286  1
  Cs  Cs14  1  0.33369521  0.33420153  0.66424311  1
  Cs  Cs15  1  0.32895369  0.66471969  -0.00158481  1
  Cs  Cs16  1  0.33448016  0.66852998  0.33416620  1
  Cs  Cs17  1  0.33156917  0.66582533  0.66808033  1
  Cs  Cs18  1  0.66537000  0.00083986  -0.00125476  1
  Cs  Cs19  1  0.66008029  -0.00346444  0.33248556  1
  Cs  Cs20  1  0.66889983  -0.00132502  0.66880494  1
  Cs  Cs21  1  0.66518803  0.33217922  -0.00164643  1
  Cs  Cs22  1  0.66804245  0.33763029  0.33232871  1
  Cs  Cs23  1  0.66730948  0.33371281  0.66853399  1
  Cs  Cs24  1  0.66813736  0.66691597  -0.00138307  1
  Cs  Cs25  1  0.66865103  0.66503479  0.33072158  1
  Cs  Cs26  1  0.66748914  0.66634418  0.66784845  1
  Sn  Sn27  1  0.16669193  0.16642979  0.83357837  1
  Sn  Sn28  1  0.83402715  0.16668186  0.83350077  1
  Sn  Sn29  1  0.49931937  0.49986729  0.50023525  1
  Sn  Sn30  1  0.83351484  0.16675207  0.16675238  1
  Sn  Sn31  1  0.83355503  0.83394426  0.50044839  1
  Sn  Sn32  1  0.16659949  0.16673945  0.16644947  1
  Sn  Sn33  1  0.50072606  0.50069454  0.83339058  1
  Sn  Sn34  1  0.50005266  0.83271584  0.83337410  1
  Sn  Sn35  1  0.83281588  0.83351315  0.83276907  1
  Sn  Sn36  1  0.16730938  0.49941323  0.16756933  1
  Sn  Sn37  1  0.83304092  0.16591303  0.49970937  1
  Sn  Sn38  1  0.16685977  0.49994336  0.49911737  1
  Sn  Sn39  1  0.83313229  0.49989290  0.83360686  1
  Sn  Sn40  1  0.49925383  0.49973395  0.16631017  1
  Pb  Pb41  1  0.83341920  0.83660513  0.16626414  1
  Pb  Pb42  1  0.16693521  0.49827374  0.83362588  1
  Pb  Pb43  1  0.16481783  0.16833743  0.49941932  1
  Pb  Pb44  1  0.50314231  0.16913339  0.49990712  1
  Pb  Pb45  1  0.83391447  0.49805726  0.16371115  1
  Pb  Pb46  1  0.83360992  0.50015804  0.50195810  1
  Pb  Pb47  1  0.50003977  0.83016558  0.16375897  1
  Pb  Pb48  1  0.16710398  0.83710891  0.83329219  1
  Pb  Pb49  1  0.50264799  0.83033680  0.50249856  1
  Pb  Pb50  1  0.49945067  0.16645131  0.83317573  1
  Pb  Pb51  1  0.49926177  0.16846818  0.16689399  1
  Pb  Pb52  1  0.16358216  0.83001944  0.50004759  1
  Pb  Pb53  1  0.16678173  0.83409779  0.16672888  1
  I  I54  1  0.15918592  0.00416362  0.15974929  1
  I  I55  1  0.16760969  0.00010175  0.50026553  1
  I  I56  1  0.16074177  0.00496336  0.84005460  1
  I  I57  1  0.16611500  0.33366066  0.16594078  1
  I  I58  1  0.16774368  0.33641149  0.49953422  1
  I  I59  1  0.16093349  0.33054451  0.83432039  1
  I  I60  1  0.17075883  0.66306032  0.16993724  1
  I  I61  1  0.16924673  0.66188920  0.49557012  1
  I  I62  1  0.16316448  0.66661369  0.83374337  1
  I  I63  1  0.50021605  -0.00015986  0.16446408  1
  I  I64  1  0.49828043  -0.00047536  0.50140932  1
  I  I65  1  0.50510439  -0.00267334  0.83387306  1
  I  I66  1  0.49979583  0.33713485  0.16251889  1
  I  I67  1  0.49906344  0.33762020  0.50417226  1
  I  I68  1  0.50429407  0.33668766  0.83353682  1
  I  I69  1  0.49522100  0.66167960  0.16925041  1
  I  I70  1  0.49875073  0.66230482  0.49808219  1
  I  I71  1  0.50903821  0.66507687  0.83334445  1
  I  I72  1  0.84017824  0.00472922  0.16162406  1
  I  I73  1  0.83457494  0.00079602  0.50630594  1
  I  I74  1  0.83296299  0.00052946  0.83258529  1
  I  I75  1  0.83417752  0.33006225  0.16707916  1
  I  I76  1  0.83327661  0.33102719  0.50205381  1
  I  I77  1  0.83256229  0.33271224  0.83249515  1
  I  I78  1  0.83332580  0.66644049  0.16708198  1
  I  I79  1  0.83299506  0.66871766  0.50648825  1
  I  I80  1  0.82847298  0.66668737  0.82784062  1
  I  I81  1  0.15692556  0.17382362  0.00028723  1
  I  I82  1  0.15966641  0.17194771  0.33037003  1
  I  I83  1  0.16160029  0.16893997  0.66886075  1
  I  I84  1  0.16943686  0.49699843  0.00242252  1
  I  I85  1  0.17351310  0.49383412  0.33251713  1
  I  I86  1  0.16897583  0.49802528  0.66501317  1
  I  I87  1  0.16420936  0.82756568  -0.00030422  1
  I  I88  1  0.16450330  0.83734661  0.33356417  1
  I  I89  1  0.16826329  0.83240600  0.66680759  1
  I  I90  1  0.50475005  0.16909725  -0.00015050  1
  I  I91  1  0.50168976  0.16897545  0.33336936  1
  I  I92  1  0.49868329  0.17066321  0.66678972  1
  I  I93  1  0.50033694  0.50295584  -0.00068531  1
  I  I94  1  0.49600785  0.49674184  0.33325918  1
  I  I95  1  0.50057224  0.50307879  0.66747526  1
  I  I96  1  0.50825246  0.82885158  -0.00420705  1
  I  I97  1  0.50141956  0.83303370  0.33368577  1
  I  I98  1  0.50264577  0.82762239  0.67026924  1
  I  I99  1  0.83735618  0.16789977  -0.00106874  1
  I  I100  1  0.83784353  0.16425036  0.33324564  1
  I  I101  1  0.83695426  0.16670790  0.66794669  1
  I  I102  1  0.82910625  0.50043398  -0.00436831  1
  I  I103  1  0.83054628  0.49987131  0.33317580  1
  I  I104  1  0.83002601  0.49556329  0.66995828  1
  I  I105  1  0.82960566  0.83283839  -0.00368423  1
  I  I106  1  0.83466674  0.83615294  0.33612501  1
  I  I107  1  0.82985176  0.83769127  0.66828425  1
  I  I108  1  -0.00020316  0.17337938  0.16487534  1
  I  I109  1  -0.00350611  0.16680710  0.50170181  1
  I  I110  1  -0.00206624  0.16804634  0.83393106  1
  I  I111  1  0.00278630  0.49736295  0.17114304  1
  I  I112  1  0.00213287  0.49899540  0.49653122  1
  I  I113  1  -0.00259570  0.50162884  0.83200514  1
  I  I114  1  -0.00022288  0.82617648  0.16423243  1
  I  I115  1  -0.00425337  0.83555301  0.50834101  1
  I  I116  1  -0.00347611  0.82978098  0.82985558  1
  I  I117  1  0.32967486  0.17127336  0.15809708  1
  I  I118  1  0.33321189  0.16642598  0.50105213  1
  I  I119  1  0.33028943  0.16930501  0.84028372  1
  I  I120  1  0.33310835  0.49389564  0.16465327  1
  I  I121  1  0.33378931  0.49854838  0.50258228  1
  I  I122  1  0.33616395  0.50298691  0.83316036  1
  I  I123  1  0.33360023  0.83831574  0.16427786  1
  I  I124  1  0.33366386  0.83518995  0.50125176  1
  I  I125  1  0.33633417  0.82622579  0.83535926  1
  I  I126  1  0.66963264  0.16821979  0.16435787  1
  I  I127  1  0.67155040  0.16572800  0.50272503  1
  I  I128  1  0.67003909  0.16760417  0.83371595  1
  I  I129  1  0.66436419  0.49849359  0.16900523  1
  I  I130  1  0.66441353  0.49943194  0.49829784  1
  I  I131  1  0.66662375  0.49803091  0.83265941  1
  I  I132  1  0.66683901  0.83303209  0.16872390  1
  I  I133  1  0.67037859  0.83615671  0.50299065  1
  I  I134  1  0.66821740  0.83368761  0.82960852  1
