# generated using pymatgen
data_Cs27Sn13Pb14I81
_symmetry_space_group_name_H-M   'P 1'
_cell_length_a   19.00452507
_cell_length_b   18.99578247
_cell_length_c   18.97736670
_cell_angle_alpha   90.00147073
_cell_angle_beta   90.00004729
_cell_angle_gamma   89.99976931
_symmetry_Int_Tables_number   1
_chemical_formula_structural   Cs27Sn13Pb14I81
_chemical_formula_sum   'Cs27 Sn13 Pb14 I81'
_cell_volume   6850.93990514
_cell_formula_units_Z   1
loop_
 _symmetry_equiv_pos_site_id
 _symmetry_equiv_pos_as_xyz
  1  'x, y, z'
loop_
 _atom_site_type_symbol
 _atom_site_label
 _atom_site_symmetry_multiplicity
 _atom_site_fract_x
 _atom_site_fract_y
 _atom_site_fract_z
 _atom_site_occupancy
  Cs  Cs0  1  0.00032942  0.00308488  -0.00016349  1
  Cs  Cs1  1  0.00366211  -0.00795146  0.34091643  1
  Cs  Cs2  1  -0.00152441  0.00309348  0.66224452  1
  Cs  Cs3  1  0.00177682  0.33221333  0.00164840  1
  Cs  Cs4  1  0.00035581  0.33520898  0.33104962  1
  Cs  Cs5  1  -0.00000429  0.33028423  0.66562157  1
  Cs  Cs6  1  -0.00123419  0.66591654  -0.00064537  1
  Cs  Cs7  1  -0.00750844  0.67196301  0.33339266  1
  Cs  Cs8  1  0.00096794  0.66603018  0.67095475  1
  Cs  Cs9  1  0.33473045  0.00165563  0.00078092  1
  Cs  Cs10  1  0.33092400  -0.00694280  0.33982833  1
  Cs  Cs11  1  0.33231649  0.00116713  0.66367942  1
  Cs  Cs12  1  0.33321852  0.33307206  0.00116996  1
  Cs  Cs13  1  0.33272809  0.33223049  0.33080363  1
  Cs  Cs14  1  0.33290403  0.33521814  0.66448247  1
  Cs  Cs15  1  0.33356802  0.66525797  -0.00175808  1
  Cs  Cs16  1  0.33380739  0.67292043  0.33452354  1
  Cs  Cs17  1  0.33414330  0.66311423  0.66991008  1
  Cs  Cs18  1  0.66441103  0.00290035  -0.00164611  1
  Cs  Cs19  1  0.66521667  -0.00976296  0.33948469  1
  Cs  Cs20  1  0.67029488  0.00380451  0.66632661  1
  Cs  Cs21  1  0.66522917  0.33099205  0.00087174  1
  Cs  Cs22  1  0.66697996  0.33786000  0.33659156  1
  Cs  Cs23  1  0.66825205  0.33249913  0.66055451  1
  Cs  Cs24  1  0.66701643  0.66662221  0.00006145  1
  Cs  Cs25  1  0.67569345  0.67077138  0.34110517  1
  Cs  Cs26  1  0.66579244  0.66467626  0.66517652  1
  Sn  Sn27  1  0.16769617  0.16598309  0.83408304  1
  Sn  Sn28  1  0.16742314  0.49993051  0.16777991  1
  Sn  Sn29  1  0.83293502  0.16617320  0.16684262  1
  Sn  Sn30  1  0.50119453  0.49926951  0.83433275  1
  Sn  Sn31  1  0.83321619  0.83277683  0.83422537  1
  Sn  Sn32  1  0.16686471  0.49996277  0.49799982  1
  Sn  Sn33  1  0.16678421  0.83491352  0.83409932  1
  Sn  Sn34  1  0.83199220  0.49989418  0.83412230  1
  Sn  Sn35  1  0.49960395  0.49992318  0.16615638  1
  Sn  Sn36  1  0.50006540  0.83365753  0.83392619  1
  Sn  Sn37  1  0.16691858  0.16688528  0.16610249  1
  Sn  Sn38  1  0.49894640  0.16713233  0.83358853  1
  Sn  Sn39  1  0.50004894  0.16711551  0.16659882  1
  Pb  Pb40  1  0.49988708  0.16692477  0.49895812  1
  Pb  Pb41  1  0.83288303  0.49859787  0.16470814  1
  Pb  Pb42  1  0.83338022  0.16689459  0.49550853  1
  Pb  Pb43  1  0.83626766  0.49973607  0.50296808  1
  Pb  Pb44  1  0.16670624  0.83319979  0.16435176  1
  Pb  Pb45  1  0.49805848  0.49992362  0.49902848  1
  Pb  Pb46  1  0.16680985  0.83006879  0.50351232  1
  Pb  Pb47  1  0.16685636  0.16866397  0.49943173  1
  Pb  Pb48  1  0.16699315  0.49923577  0.83431426  1
  Pb  Pb49  1  0.83345569  0.83330910  0.50366176  1
  Pb  Pb50  1  0.83320729  0.16690294  0.83435866  1
  Pb  Pb51  1  0.50008262  0.83299347  0.16486006  1
  Pb  Pb52  1  0.83325496  0.83641367  0.16391605  1
  Pb  Pb53  1  0.49982587  0.83310408  0.50360317  1
  I  I54  1  0.16768384  0.00354392  0.16220593  1
  I  I55  1  0.16602390  -0.00028472  0.49823105  1
  I  I56  1  0.16920576  0.00109237  0.83925504  1
  I  I57  1  0.16706344  0.33272139  0.16312420  1
  I  I58  1  0.16711518  0.33619223  0.50356502  1
  I  I59  1  0.16868685  0.33054634  0.83407086  1
  I  I60  1  0.17212280  0.66321051  0.16769287  1
  I  I61  1  0.16784158  0.66270146  0.49567116  1
  I  I62  1  0.16846229  0.66832689  0.83225021  1
  I  I63  1  0.49914733  0.00361457  0.16059678  1
  I  I64  1  0.49911404  0.00000249  0.49904099  1
  I  I65  1  0.49949271  0.00073534  0.83776548  1
  I  I66  1  0.49814855  0.33307247  0.15684168  1
  I  I67  1  0.49978708  0.33348097  0.50778948  1
  I  I68  1  0.49905280  0.33327290  0.83767817  1
  I  I69  1  0.49297501  0.66298677  0.15992973  1
  I  I70  1  0.49782779  0.66645214  0.50099200  1
  I  I71  1  0.49936197  0.66605373  0.83663697  1
  I  I72  1  0.83352396  0.00454452  0.16162984  1
  I  I73  1  0.83447082  -0.00003891  0.50285547  1
  I  I74  1  0.83121265  -0.00223368  0.83568356  1
  I  I75  1  0.83449881  0.33070533  0.16054218  1
  I  I76  1  0.83356125  0.33355155  0.50639878  1
  I  I77  1  0.83160810  0.33564755  0.83515839  1
  I  I78  1  0.83420600  0.66667365  0.16691628  1
  I  I79  1  0.83406244  0.66648049  0.49688601  1
  I  I80  1  0.83192910  0.66659277  0.83380235  1
  I  I81  1  0.16731151  0.16924043  -0.00013898  1
  I  I82  1  0.16751889  0.17028210  0.32936963  1
  I  I83  1  0.17056960  0.16452939  0.67006790  1
  I  I84  1  0.16751196  0.49847175  0.00259376  1
  I  I85  1  0.17272674  0.49130609  0.33103681  1
  I  I86  1  0.16599894  0.50139607  0.66574581  1
  I  I87  1  0.16730450  0.83178078  -0.00416729  1
  I  I88  1  0.16641576  0.83661681  0.33345599  1
  I  I89  1  0.16683314  0.83766209  0.67191255  1
  I  I90  1  0.49881830  0.16724203  -0.00092384  1
  I  I91  1  0.49910536  0.17429008  0.32872954  1
  I  I92  1  0.49540060  0.16643368  0.67077674  1
  I  I93  1  0.49687241  0.49911625  -0.00120457  1
  I  I94  1  0.49686410  0.49151437  0.32927747  1
  I  I95  1  0.50140551  0.50080139  0.67029453  1
  I  I96  1  0.49945267  0.83329898  -0.00420404  1
  I  I97  1  0.49988196  0.83419126  0.33321779  1
  I  I98  1  0.49939821  0.83241261  0.67275001  1
  I  I99  1  0.83414045  0.16696134  0.00209324  1
  I  I100  1  0.83388795  0.17072330  0.32755663  1
  I  I101  1  0.83395927  0.16582349  0.66688297  1
  I  I102  1  0.83504690  0.50421165  -0.00349800  1
  I  I103  1  0.83078247  0.49777964  0.33312843  1
  I  I104  1  0.82881550  0.50348711  0.67145105  1
  I  I105  1  0.83344792  0.82823717  -0.00440962  1
  I  I106  1  0.83351766  0.83445051  0.33338404  1
  I  I107  1  0.83325025  0.83044647  0.67210744  1
  I  I108  1  0.00163584  0.17206786  0.15941650  1
  I  I109  1  0.00026439  0.16817438  0.50425500  1
  I  I110  1  0.00261196  0.16496695  0.83758353  1
  I  I111  1  0.00272603  0.49466934  0.16714636  1
  I  I112  1  0.00383986  0.49888362  0.49579360  1
  I  I113  1  -0.00149730  0.50372720  0.83283672  1
  I  I114  1  0.00012425  0.83267774  0.16173308  1
  I  I115  1  0.00029535  0.83313490  0.50244535  1
  I  I116  1  0.00022769  0.83136565  0.83404875  1
  I  I117  1  0.33326595  0.17303364  0.15956522  1
  I  I118  1  0.33325923  0.16718857  0.49932922  1
  I  I119  1  0.33354695  0.16435880  0.84020101  1
  I  I120  1  0.33346323  0.49150181  0.16255509  1
  I  I121  1  0.33046596  0.49890756  0.50385014  1
  I  I122  1  0.33594613  0.50283584  0.83340218  1
  I  I123  1  0.33335761  0.83633675  0.16312348  1
  I  I124  1  0.33297346  0.83387939  0.50177970  1
  I  I125  1  0.33360457  0.83260029  0.83381290  1
  I  I126  1  0.66506888  0.17142506  0.15834412  1
  I  I127  1  0.66661728  0.16725073  0.50414067  1
  I  I128  1  0.66369046  0.16412265  0.83806931  1
  I  I129  1  0.66337930  0.49416822  0.16105025  1
  I  I130  1  0.66680602  0.50064065  0.49869677  1
  I  I131  1  0.66507307  0.50339341  0.83892444  1
  I  I132  1  0.66657933  0.83386329  0.16278229  1
  I  I133  1  0.66676037  0.83233482  0.50014421  1
  I  I134  1  0.66608448  0.83265366  0.83446950  1
