# generated using pymatgen
data_Cs27Sn14Pb13I81
_symmetry_space_group_name_H-M   'P 1'
_cell_length_a   18.96618688
_cell_length_b   18.97606601
_cell_length_c   18.98396450
_cell_angle_alpha   90.00044887
_cell_angle_beta   90.00045429
_cell_angle_gamma   89.99589927
_symmetry_Int_Tables_number   1
_chemical_formula_structural   Cs27Sn14Pb13I81
_chemical_formula_sum   'Cs27 Sn14 Pb13 I81'
_cell_volume   6832.39741590
_cell_formula_units_Z   1
loop_
 _symmetry_equiv_pos_site_id
 _symmetry_equiv_pos_as_xyz
  1  'x, y, z'
loop_
 _atom_site_type_symbol
 _atom_site_label
 _atom_site_symmetry_multiplicity
 _atom_site_fract_x
 _atom_site_fract_y
 _atom_site_fract_z
 _atom_site_occupancy
  Cs  Cs0  1  0.00071810  -0.00204457  0.00095749  1
  Cs  Cs1  1  -0.00165324  -0.00155615  0.33256522  1
  Cs  Cs2  1  -0.00111756  -0.00041294  0.66666382  1
  Cs  Cs3  1  -0.00146844  0.33431723  0.00184416  1
  Cs  Cs4  1  -0.00097380  0.33295654  0.33544568  1
  Cs  Cs5  1  0.00232603  0.32928800  0.66159428  1
  Cs  Cs6  1  0.00076421  0.66689866  0.00076812  1
  Cs  Cs7  1  0.00125534  0.66752167  0.33172020  1
  Cs  Cs8  1  0.00260275  0.66907673  0.66803359  1
  Cs  Cs9  1  0.33916331  0.00974689  0.00299141  1
  Cs  Cs10  1  0.33768482  -0.00113169  0.32800437  1
  Cs  Cs11  1  0.33479050  0.00043245  0.66964179  1
  Cs  Cs12  1  0.33546749  0.32720648  -0.00110521  1
  Cs  Cs13  1  0.33189448  0.33491805  0.33392390  1
  Cs  Cs14  1  0.33169327  0.33235789  0.66727683  1
  Cs  Cs15  1  0.32968865  0.66593536  0.00161140  1
  Cs  Cs16  1  0.33368961  0.66674714  0.33282259  1
  Cs  Cs17  1  0.33181759  0.66678576  0.66734456  1
  Cs  Cs18  1  0.66121716  -0.00031074  -0.00093555  1
  Cs  Cs19  1  0.66715115  0.00076042  0.33491646  1
  Cs  Cs20  1  0.66871996  -0.00167235  0.66459933  1
  Cs  Cs21  1  0.66614990  0.33791042  -0.00352398  1
  Cs  Cs22  1  0.66914298  0.33483321  0.33511307  1
  Cs  Cs23  1  0.66628843  0.33382229  0.66444123  1
  Cs  Cs24  1  0.66654352  0.66255813  -0.01057723  1
  Cs  Cs25  1  0.66522086  0.66530813  0.33367210  1
  Cs  Cs26  1  0.66445511  0.66749086  0.67216618  1
  Sn  Sn27  1  0.50063314  0.49933359  0.49920573  1
  Sn  Sn28  1  0.83285772  0.50077298  0.50005338  1
  Sn  Sn29  1  0.50043264  0.16748068  0.49960667  1
  Sn  Sn30  1  0.16620518  0.83287622  0.16649062  1
  Sn  Sn31  1  0.83339477  0.16584000  0.16641177  1
  Sn  Sn32  1  0.16665072  0.83322947  0.83404282  1
  Sn  Sn33  1  0.16624824  0.83356043  0.49954119  1
  Sn  Sn34  1  0.83357120  0.16660003  0.83357439  1
  Sn  Sn35  1  0.83329578  0.83361255  0.16710575  1
  Sn  Sn36  1  0.83277246  0.16651504  0.49967955  1
  Sn  Sn37  1  0.16746014  0.50029295  0.16592945  1
  Sn  Sn38  1  0.16629704  0.50005179  0.83439458  1
  Sn  Sn39  1  0.49933703  0.50043606  0.16724999  1
  Sn  Sn40  1  0.83405302  0.83269928  0.49921629  1
  Pb  Pb41  1  0.16462726  0.16671014  0.16689530  1
  Pb  Pb42  1  0.50327876  0.16955059  0.16903342  1
  Pb  Pb43  1  0.83625493  0.49789231  0.82997458  1
  Pb  Pb44  1  0.83349736  0.50077178  0.16814829  1
  Pb  Pb45  1  0.50081711  0.83075992  0.16659555  1
  Pb  Pb46  1  0.49716971  0.49996305  0.83283421  1
  Pb  Pb47  1  0.16686363  0.50182247  0.49961433  1
  Pb  Pb48  1  0.50047726  0.83297717  0.49993105  1
  Pb  Pb49  1  0.49638362  0.83337589  0.83366419  1
  Pb  Pb50  1  0.83499126  0.83500744  0.83371129  1
  Pb  Pb51  1  0.50304323  0.16685618  0.83038157  1
  Pb  Pb52  1  0.16698774  0.16336275  0.49965025  1
  Pb  Pb53  1  0.16463578  0.16656818  0.83343192  1
  I  I54  1  0.16353424  -0.00349710  0.16674757  1
  I  I55  1  0.16144821  -0.00482001  0.50054919  1
  I  I56  1  0.16402377  -0.00323805  0.83226400  1
  I  I57  1  0.16885957  0.33666047  0.16199721  1
  I  I58  1  0.16359625  0.33342062  0.50076914  1
  I  I59  1  0.16546287  0.33620935  0.83743445  1
  I  I60  1  0.16406149  0.66727313  0.16647324  1
  I  I61  1  0.16218537  0.66981282  0.50002125  1
  I  I62  1  0.16533403  0.66724902  0.83328792  1
  I  I63  1  0.49664334  0.00024518  0.16769412  1
  I  I64  1  0.50384387  0.00250055  0.50132467  1
  I  I65  1  0.49708330  0.00037766  0.83158330  1
  I  I66  1  0.49401857  0.33718433  0.16916033  1
  I  I67  1  0.50899161  0.33396324  0.49644068  1
  I  I68  1  0.49691190  0.33342970  0.83511601  1
  I  I69  1  0.49982906  0.66294332  0.17530502  1
  I  I70  1  0.50281949  0.66350470  0.49619996  1
  I  I71  1  0.50512682  0.66629669  0.82990828  1
  I  I72  1  0.84036529  -0.00066686  0.17245037  1
  I  I73  1  0.83366390  0.00015330  0.49994969  1
  I  I74  1  0.83664875  0.00280516  0.82759842  1
  I  I75  1  0.83355660  0.33128637  0.16876845  1
  I  I76  1  0.82926650  0.33290067  0.49978506  1
  I  I77  1  0.83573262  0.33005072  0.83439788  1
  I  I78  1  0.83570240  0.66955818  0.17319690  1
  I  I79  1  0.83419814  0.66745742  0.49392015  1
  I  I80  1  0.83214832  0.66657690  0.83315116  1
  I  I81  1  0.16370986  0.16313951  0.00018447  1
  I  I82  1  0.16367418  0.16865965  0.33340508  1
  I  I83  1  0.16381689  0.16733259  0.66640716  1
  I  I84  1  0.17047308  0.50859373  0.00120096  1
  I  I85  1  0.16735705  0.50439319  0.33084324  1
  I  I86  1  0.16533858  0.50467431  0.66824932  1
  I  I87  1  0.16073038  0.82712310  0.00106900  1
  I  I88  1  0.16159620  0.82893096  0.33275442  1
  I  I89  1  0.16241363  0.82921648  0.66636277  1
  I  I90  1  0.50087315  0.16731421  0.00027055  1
  I  I91  1  0.50619336  0.16753631  0.33678038  1
  I  I92  1  0.50483071  0.17298463  0.66236609  1
  I  I93  1  0.49872680  0.50178308  0.00275579  1
  I  I94  1  0.49756045  0.49681127  0.33424445  1
  I  I95  1  0.50337247  0.49615887  0.66318942  1
  I  I96  1  0.50282667  0.83132955  0.00034170  1
  I  I97  1  0.49434899  0.83466891  0.33343333  1
  I  I98  1  0.50000485  0.83163389  0.66633469  1
  I  I99  1  0.83752746  0.16187002  0.00087126  1
  I  I100  1  0.83019723  0.16567306  0.33441923  1
  I  I101  1  0.83039773  0.16679704  0.66489540  1
  I  I102  1  0.83065263  0.49889196  -0.00010210  1
  I  I103  1  0.83474313  0.49559111  0.33636308  1
  I  I104  1  0.82878916  0.50095911  0.66178980  1
  I  I105  1  0.83813216  0.83794551  0.00312560  1
  I  I106  1  0.84203938  0.83823762  0.33414048  1
  I  I107  1  0.83728048  0.83462147  0.66358941  1
  I  I108  1  -0.00378930  0.16814160  0.17119563  1
  I  I109  1  -0.00367114  0.17007461  0.50030161  1
  I  I110  1  -0.00335038  0.16685606  0.82818075  1
  I  I111  1  0.00256507  0.50133384  0.16454680  1
  I  I112  1  -0.00261705  0.49666403  0.49982573  1
  I  I113  1  0.00371706  0.50472070  0.83918405  1
  I  I114  1  0.00042371  0.83128992  0.16812536  1
  I  I115  1  -0.00102670  0.83299175  0.49959524  1
  I  I116  1  0.00316995  0.82976886  0.83244435  1
  I  I117  1  0.33380547  0.16381694  0.16800024  1
  I  I118  1  0.33626822  0.17182659  0.50054975  1
  I  I119  1  0.33343450  0.16583471  0.83125009  1
  I  I120  1  0.33224079  0.50637244  0.16984005  1
  I  I121  1  0.33577847  0.49647800  0.49939552  1
  I  I122  1  0.32926078  0.50493283  0.83129523  1
  I  I123  1  0.32998026  0.83010527  0.16832029  1
  I  I124  1  0.33030845  0.83227359  0.50002905  1
  I  I125  1  0.32773049  0.82865534  0.83052598  1
  I  I126  1  0.67129077  0.16066328  0.16595262  1
  I  I127  1  0.66867132  0.16571287  0.49994290  1
  I  I128  1  0.67106252  0.16657194  0.83548837  1
  I  I129  1  0.66473229  0.49853589  0.17134981  1
  I  I130  1  0.66707023  0.50006035  0.49362719  1
  I  I131  1  0.66694813  0.49851353  0.83611449  1
  I  I132  1  0.67044783  0.83751291  0.17466874  1
  I  I133  1  0.67036689  0.83458124  0.49453527  1
  I  I134  1  0.66704952  0.83453947  0.83259152  1
