# generated using pymatgen
data_Cs27Sn14Pb13I81
_symmetry_space_group_name_H-M   'P 1'
_cell_length_a   18.96886520
_cell_length_b   18.97897021
_cell_length_c   18.97768346
_cell_angle_alpha   90.00052768
_cell_angle_beta   90.00130802
_cell_angle_gamma   90.00040315
_symmetry_Int_Tables_number   1
_chemical_formula_structural   Cs27Sn14Pb13I81
_chemical_formula_sum   'Cs27 Sn14 Pb13 I81'
_cell_volume   6832.14685285
_cell_formula_units_Z   1
loop_
 _symmetry_equiv_pos_site_id
 _symmetry_equiv_pos_as_xyz
  1  'x, y, z'
loop_
 _atom_site_type_symbol
 _atom_site_label
 _atom_site_symmetry_multiplicity
 _atom_site_fract_x
 _atom_site_fract_y
 _atom_site_fract_z
 _atom_site_occupancy
  Cs  Cs0  1  -0.00106780  -0.00126365  0.00084386  1
  Cs  Cs1  1  0.00155090  -0.00146934  0.33204530  1
  Cs  Cs2  1  0.00000568  -0.00106660  0.66798819  1
  Cs  Cs3  1  0.00308242  0.33634461  0.00364042  1
  Cs  Cs4  1  0.00005174  0.33272588  0.33214106  1
  Cs  Cs5  1  0.00122860  0.33223148  0.66245298  1
  Cs  Cs6  1  -0.00090972  0.66544629  0.00057658  1
  Cs  Cs7  1  -0.00065213  0.66902562  0.33174393  1
  Cs  Cs8  1  -0.00026001  0.66920154  0.66668301  1
  Cs  Cs9  1  0.33496214  0.00067651  0.00026934  1
  Cs  Cs10  1  0.33733589  -0.00393751  0.33362851  1
  Cs  Cs11  1  0.33113974  -0.00238698  0.66530296  1
  Cs  Cs12  1  0.33238530  0.33593709  -0.00132601  1
  Cs  Cs13  1  0.33206006  0.33250361  0.33415921  1
  Cs  Cs14  1  0.33233302  0.33273417  0.66729440  1
  Cs  Cs15  1  0.33431676  0.66352096  -0.00186285  1
  Cs  Cs16  1  0.33585707  0.67155452  0.33744607  1
  Cs  Cs17  1  0.33426122  0.66867867  0.66659034  1
  Cs  Cs18  1  0.66507413  0.00170908  -0.00140592  1
  Cs  Cs19  1  0.65869818  -0.00054564  0.33089094  1
  Cs  Cs20  1  0.67130093  0.01229168  0.67242941  1
  Cs  Cs21  1  0.66457520  0.33540967  -0.00017592  1
  Cs  Cs22  1  0.66734188  0.33489576  0.34095199  1
  Cs  Cs23  1  0.66698050  0.32885102  0.65856144  1
  Cs  Cs24  1  0.66710764  0.66658410  -0.00043198  1
  Cs  Cs25  1  0.66588340  0.66495003  0.33390307  1
  Cs  Cs26  1  0.66674916  0.66326017  0.66902886  1
  Sn  Sn27  1  0.83271605  0.83349156  0.49927129  1
  Sn  Sn28  1  0.49965602  0.83293001  0.83328338  1
  Sn  Sn29  1  0.16636318  0.16726817  0.49941213  1
  Sn  Sn30  1  0.83268096  0.49955367  0.83358104  1
  Sn  Sn31  1  0.16733092  0.83397571  0.83462956  1
  Sn  Sn32  1  0.16651121  0.49993790  0.49981402  1
  Sn  Sn33  1  0.16610421  0.16562056  0.16656282  1
  Sn  Sn34  1  0.50128370  0.50054880  0.83396313  1
  Sn  Sn35  1  0.83232185  0.49983990  0.16601246  1
  Sn  Sn36  1  0.83363889  0.83369202  0.16763493  1
  Sn  Sn37  1  0.50079070  0.50002952  0.16628621  1
  Sn  Sn38  1  0.16632321  0.83396894  0.16554649  1
  Sn  Sn39  1  0.16645232  0.16579868  0.83395548  1
  Sn  Sn40  1  0.83361308  0.16655056  0.16662877  1
  Pb  Pb41  1  0.16660799  0.50038796  0.83156550  1
  Pb  Pb42  1  0.16551842  0.83392469  0.49986489  1
  Pb  Pb43  1  0.49758066  0.50016169  0.50039962  1
  Pb  Pb44  1  0.83330650  0.83199402  0.83403439  1
  Pb  Pb45  1  0.83606537  0.16996455  0.83589284  1
  Pb  Pb46  1  0.50400084  0.83343242  0.50383207  1
  Pb  Pb47  1  0.50008875  0.83121963  0.16472081  1
  Pb  Pb48  1  0.49763365  0.16724225  0.83349565  1
  Pb  Pb49  1  0.49976967  0.16954117  0.16663648  1
  Pb  Pb50  1  0.83559514  0.16391118  0.49698029  1
  Pb  Pb51  1  0.83524524  0.50148424  0.49960697  1
  Pb  Pb52  1  0.49715152  0.16632774  0.49988820  1
  Pb  Pb53  1  0.16673287  0.50063351  0.16852987  1
  I  I54  1  0.15890444  -0.00005041  0.16737596  1
  I  I55  1  0.16433918  0.00266970  0.50053870  1
  I  I56  1  0.17158717  -0.00077560  0.83172878  1
  I  I57  1  0.16402189  0.33088314  0.16479967  1
  I  I58  1  0.16573678  0.33238181  0.50039996  1
  I  I59  1  0.16587102  0.33107594  0.83575550  1
  I  I60  1  0.16299426  0.66950432  0.16323655  1
  I  I61  1  0.16492618  0.66527058  0.50019901  1
  I  I62  1  0.16689183  0.66933669  0.83639316  1
  I  I63  1  0.50202518  -0.00017922  0.16542177  1
  I  I64  1  0.49690375  -0.00047844  0.49965903  1
  I  I65  1  0.49748878  -0.00274420  0.83298252  1
  I  I66  1  0.50176189  0.33750526  0.15945600  1
  I  I67  1  0.50199365  0.33357343  0.50179247  1
  I  I68  1  0.50128749  0.33677474  0.83803441  1
  I  I69  1  0.50280208  0.66338311  0.16391524  1
  I  I70  1  0.49449721  0.66680053  0.49805028  1
  I  I71  1  0.49669719  0.66603184  0.83752565  1
  I  I72  1  0.84056611  -0.00054505  0.17132963  1
  I  I73  1  0.83718515  -0.00364826  0.49732431  1
  I  I74  1  0.83075784  0.00025774  0.83271683  1
  I  I75  1  0.83567699  0.33375536  0.16079638  1
  I  I76  1  0.83356382  0.33299027  0.50001859  1
  I  I77  1  0.82933130  0.33781312  0.83824255  1
  I  I78  1  0.83495394  0.66679053  0.16638518  1
  I  I79  1  0.83870045  0.66908527  0.49452955  1
  I  I80  1  0.83542589  0.66409004  0.83879196  1
  I  I81  1  0.16304079  0.16224769  0.00076452  1
  I  I82  1  0.16180963  0.16791514  0.33226494  1
  I  I83  1  0.16864102  0.16741012  0.66697276  1
  I  I84  1  0.16666536  0.49773637  0.00011390  1
  I  I85  1  0.16560404  0.49613324  0.33590017  1
  I  I86  1  0.16592276  0.49626103  0.66409350  1
  I  I87  1  0.16401952  0.83986000  0.00039880  1
  I  I88  1  0.16362278  0.83493506  0.33047201  1
  I  I89  1  0.16810234  0.83520111  0.66922721  1
  I  I90  1  0.49691690  0.16533142  0.00007769  1
  I  I91  1  0.49767368  0.16866123  0.33291461  1
  I  I92  1  0.49932790  0.16872259  0.66699210  1
  I  I93  1  0.50283826  0.50355422  -0.00054540  1
  I  I94  1  0.50396094  0.49930464  0.33051384  1
  I  I95  1  0.50257267  0.50428842  0.67022913  1
  I  I96  1  0.49941104  0.83057348  -0.00312085  1
  I  I97  1  0.49655112  0.83148448  0.33325924  1
  I  I98  1  0.49146240  0.82485667  0.67149051  1
  I  I99  1  0.83958482  0.16109656  0.00388502  1
  I  I100  1  0.84045266  0.17320446  0.32901619  1
  I  I101  1  0.83467223  0.16625708  0.66666300  1
  I  I102  1  0.83128591  0.50283285  0.00128671  1
  I  I103  1  0.83090153  0.49855420  0.32975939  1
  I  I104  1  0.83139169  0.50396655  0.66913433  1
  I  I105  1  0.83552129  0.83398126  0.00321612  1
  I  I106  1  0.84154562  0.83044104  0.33083373  1
  I  I107  1  0.83544460  0.82903855  0.66534270  1
  I  I108  1  0.00091052  0.16868734  0.16616477  1
  I  I109  1  0.00373300  0.17086185  0.50246476  1
  I  I110  1  0.00413780  0.16100190  0.83118164  1
  I  I111  1  -0.00278278  0.50031383  0.16320246  1
  I  I112  1  0.00293474  0.49647614  0.50059694  1
  I  I113  1  -0.00217903  0.50070828  0.83794411  1
  I  I114  1  0.00014211  0.83149248  0.16454756  1
  I  I115  1  -0.00214564  0.83221720  0.50009637  1
  I  I116  1  0.00264247  0.83528343  0.83397532  1
  I  I117  1  0.32945654  0.16340933  0.16708310  1
  I  I118  1  0.32821030  0.17027742  0.49730030  1
  I  I119  1  0.32904807  0.16833605  0.83620745  1
  I  I120  1  0.33535355  0.49961385  0.16254213  1
  I  I121  1  0.32965332  0.49644409  0.49966773  1
  I  I122  1  0.33557844  0.50065657  0.83695645  1
  I  I123  1  0.33036941  0.83672437  0.16514805  1
  I  I124  1  0.33336622  0.83328544  0.49780022  1
  I  I125  1  0.33186334  0.83075326  0.83835225  1
  I  I126  1  0.66994175  0.16294581  0.16582389  1
  I  I127  1  0.66738040  0.16611508  0.49960676  1
  I  I128  1  0.66703993  0.16330280  0.83497955  1
  I  I129  1  0.66809844  0.50101368  0.16223989  1
  I  I130  1  0.66684135  0.50189832  0.50027256  1
  I  I131  1  0.66642219  0.50793808  0.83829207  1
  I  I132  1  0.66985726  0.83532847  0.16922243  1
  I  I133  1  0.67134656  0.82988441  0.49124583  1
  I  I134  1  0.66446995  0.82833503  0.83313148  1
