# generated using pymatgen
data_Cs27Sn14Pb13I81
_symmetry_space_group_name_H-M   'P 1'
_cell_length_a   18.98662611
_cell_length_b   18.96873599
_cell_length_c   18.97319233
_cell_angle_alpha   90.00100741
_cell_angle_beta   89.99999739
_cell_angle_gamma   89.99960962
_symmetry_Int_Tables_number   1
_chemical_formula_structural   Cs27Sn14Pb13I81
_chemical_formula_sum   'Cs27 Sn14 Pb13 I81'
_cell_volume   6833.23881934
_cell_formula_units_Z   1
loop_
 _symmetry_equiv_pos_site_id
 _symmetry_equiv_pos_as_xyz
  1  'x, y, z'
loop_
 _atom_site_type_symbol
 _atom_site_label
 _atom_site_symmetry_multiplicity
 _atom_site_fract_x
 _atom_site_fract_y
 _atom_site_fract_z
 _atom_site_occupancy
  Cs  Cs0  1  0.00126505  0.00207991  0.00038659  1
  Cs  Cs1  1  -0.00433229  -0.00328319  0.33043398  1
  Cs  Cs2  1  0.00205852  -0.00304938  0.66902961  1
  Cs  Cs3  1  -0.00404172  0.33096283  -0.00108839  1
  Cs  Cs4  1  -0.00002596  0.33389448  0.33325557  1
  Cs  Cs5  1  0.00131420  0.33337155  0.66744845  1
  Cs  Cs6  1  0.00190022  0.66688770  -0.00429752  1
  Cs  Cs7  1  0.00167014  0.67074544  0.33306021  1
  Cs  Cs8  1  0.00056606  0.66676909  0.66736035  1
  Cs  Cs9  1  0.33705104  -0.00266768  -0.00128875  1
  Cs  Cs10  1  0.33289654  0.00273586  0.33525152  1
  Cs  Cs11  1  0.33556991  0.00332147  0.66595593  1
  Cs  Cs12  1  0.33257951  0.33432708  0.00379562  1
  Cs  Cs13  1  0.33039063  0.33338930  0.33450274  1
  Cs  Cs14  1  0.33204228  0.32834485  0.66221946  1
  Cs  Cs15  1  0.33492940  0.66820309  0.00384169  1
  Cs  Cs16  1  0.33129235  0.66476626  0.32857749  1
  Cs  Cs17  1  0.33284141  0.66727950  0.66714510  1
  Cs  Cs18  1  0.66118742  -0.00037766  -0.00189621  1
  Cs  Cs19  1  0.67085582  0.00045674  0.33390945  1
  Cs  Cs20  1  0.66143976  0.00103590  0.66744581  1
  Cs  Cs21  1  0.67056762  0.33393040  0.00171705  1
  Cs  Cs22  1  0.66694819  0.33284823  0.33280369  1
  Cs  Cs23  1  0.66700742  0.33589525  0.66567578  1
  Cs  Cs24  1  0.66279043  0.66551309  -0.00133240  1
  Cs  Cs25  1  0.66742866  0.66878083  0.33597115  1
  Cs  Cs26  1  0.66701455  0.66564442  0.66582659  1
  Sn  Sn27  1  0.50044294  0.16687746  0.16682896  1
  Sn  Sn28  1  0.16635386  0.16669322  0.16662971  1
  Sn  Sn29  1  0.83302053  0.49941244  0.49976721  1
  Sn  Sn30  1  0.16779893  0.83305480  0.50056889  1
  Sn  Sn31  1  0.83314470  0.16737966  0.16751082  1
  Sn  Sn32  1  0.49971589  0.49977357  0.83257820  1
  Sn  Sn33  1  0.16692318  0.50029428  0.83311008  1
  Sn  Sn34  1  0.83358334  0.16743515  0.49990415  1
  Sn  Sn35  1  0.16618964  0.83244899  0.83240441  1
  Sn  Sn36  1  0.83358885  0.83271067  0.83336919  1
  Sn  Sn37  1  0.49882576  0.83235829  0.49989512  1
  Sn  Sn38  1  0.83345477  0.50017081  0.16701553  1
  Sn  Sn39  1  0.83336674  0.50086442  0.83321724  1
  Sn  Sn40  1  0.50030584  0.50080768  0.50055859  1
  Pb  Pb41  1  0.16362822  0.16394298  0.49808306  1
  Pb  Pb42  1  0.16663202  0.83536585  0.16608865  1
  Pb  Pb43  1  0.49993758  0.17017691  0.83548612  1
  Pb  Pb44  1  0.50019341  0.83554115  0.17000611  1
  Pb  Pb45  1  0.83324099  0.16662241  0.83310904  1
  Pb  Pb46  1  0.49960797  0.83112929  0.83140700  1
  Pb  Pb47  1  0.16386871  0.49827228  0.16402735  1
  Pb  Pb48  1  0.50207810  0.49851996  0.16738483  1
  Pb  Pb49  1  0.50208440  0.16736545  0.49825209  1
  Pb  Pb50  1  0.16683303  0.16641505  0.83518900  1
  Pb  Pb51  1  0.16648961  0.50167893  0.50177225  1
  Pb  Pb52  1  0.83328823  0.83314993  0.50217777  1
  Pb  Pb53  1  0.83319236  0.83318831  0.16340209  1
  I  I54  1  0.16244898  0.00350708  0.16542000  1
  I  I55  1  0.17179912  -0.00383032  0.50717673  1
  I  I56  1  0.16044047  -0.00352264  0.83140878  1
  I  I57  1  0.16815629  0.33026737  0.16542468  1
  I  I58  1  0.16907268  0.33334044  0.50099892  1
  I  I59  1  0.16417754  0.33664584  0.83545215  1
  I  I60  1  0.16477919  0.66655464  0.16807020  1
  I  I61  1  0.16466001  0.66969347  0.50150976  1
  I  I62  1  0.16361819  0.66650290  0.82998937  1
  I  I63  1  0.50363432  0.00386031  0.16697165  1
  I  I64  1  0.49809749  -0.00221496  0.49822418  1
  I  I65  1  0.50049155  -0.00021620  0.83314313  1
  I  I66  1  0.49920493  0.33046874  0.16754733  1
  I  I67  1  0.50339660  0.33656611  0.50331606  1
  I  I68  1  0.50214024  0.33841723  0.82625041  1
  I  I69  1  0.50178904  0.66629687  0.16464227  1
  I  I70  1  0.50401335  0.66543049  0.50415629  1
  I  I71  1  0.50201595  0.66298641  0.83287436  1
  I  I72  1  0.83382253  0.00338921  0.17142737  1
  I  I73  1  0.83365263  0.00204450  0.49505976  1
  I  I74  1  0.83957750  -0.00281916  0.83288640  1
  I  I75  1  0.83323835  0.33322396  0.16447997  1
  I  I76  1  0.82772548  0.33498329  0.50112196  1
  I  I77  1  0.83388903  0.33692594  0.83408566  1
  I  I78  1  0.83278015  0.66324889  0.16976768  1
  I  I79  1  0.83192325  0.66352120  0.49805385  1
  I  I80  1  0.83445343  0.66473840  0.83291301  1
  I  I81  1  0.16206020  0.16618391  0.00329044  1
  I  I82  1  0.16831104  0.16612206  0.33013242  1
  I  I83  1  0.16474056  0.16792303  0.66647343  1
  I  I84  1  0.16764742  0.50621129  -0.00420742  1
  I  I85  1  0.16690688  0.50088976  0.33330734  1
  I  I86  1  0.16115738  0.50132880  0.67001773  1
  I  I87  1  0.16149774  0.83072294  -0.00355656  1
  I  I88  1  0.17002997  0.83518035  0.33614675  1
  I  I89  1  0.16502747  0.82969673  0.66752471  1
  I  I90  1  0.50400985  0.16739991  0.00366201  1
  I  I91  1  0.49921547  0.16831285  0.33032709  1
  I  I92  1  0.50210185  0.16463844  0.66623452  1
  I  I93  1  0.50153964  0.49779257  -0.00259946  1
  I  I94  1  0.50551420  0.50236034  0.33659467  1
  I  I95  1  0.50645528  0.50356315  0.66636269  1
  I  I96  1  0.49979698  0.83365662  -0.00025058  1
  I  I97  1  0.49497619  0.82558160  0.33802727  1
  I  I98  1  0.50017599  0.83287897  0.66354330  1
  I  I99  1  0.83384961  0.17036593  0.00312778  1
  I  I100  1  0.83317288  0.17397868  0.33252066  1
  I  I101  1  0.83263708  0.17031925  0.66390208  1
  I  I102  1  0.83360397  0.49850200  -0.00073614  1
  I  I103  1  0.82776107  0.49403598  0.33408836  1
  I  I104  1  0.83219877  0.49973099  0.66677038  1
  I  I105  1  0.83998137  0.82963061  -0.00453204  1
  I  I106  1  0.83396971  0.83168185  0.33355571  1
  I  I107  1  0.83509730  0.82882343  0.66980692  1
  I  I108  1  -0.00155882  0.17034635  0.16965168  1
  I  I109  1  -0.00407354  0.17226312  0.49470070  1
  I  I110  1  -0.00017003  0.17039161  0.83613577  1
  I  I111  1  -0.00433196  0.49372048  0.16770459  1
  I  I112  1  -0.00325381  0.49716391  0.50063651  1
  I  I113  1  -0.00106047  0.50391775  0.83400868  1
  I  I114  1  -0.00018944  0.83633453  0.17177926  1
  I  I115  1  0.00187571  0.83427050  0.50252075  1
  I  I116  1  0.00030876  0.82541098  0.82770627  1
  I  I117  1  0.33342889  0.16549569  0.16471059  1
  I  I118  1  0.33327049  0.16854302  0.49721449  1
  I  I119  1  0.33337106  0.16654284  0.83601820  1
  I  I120  1  0.33325666  0.49698876  0.16597209  1
  I  I121  1  0.33605792  0.50190213  0.50477713  1
  I  I122  1  0.33334780  0.50342030  0.82933220  1
  I  I123  1  0.33336927  0.83550662  0.16187206  1
  I  I124  1  0.33336386  0.82909593  0.50572946  1
  I  I125  1  0.33045715  0.82953218  0.83207054  1
  I  I126  1  0.66819770  0.17121621  0.17043339  1
  I  I127  1  0.66992229  0.16571394  0.49394211  1
  I  I128  1  0.66681424  0.16417564  0.83628236  1
  I  I129  1  0.67020752  0.49316209  0.16168121  1
  I  I130  1  0.66747724  0.50162955  0.50457427  1
  I  I131  1  0.66787131  0.50336145  0.83314356  1
  I  I132  1  0.66685333  0.83676252  0.16629298  1
  I  I133  1  0.66481403  0.83244097  0.50107830  1
  I  I134  1  0.66894197  0.82971362  0.83267080  1
