# generated using pymatgen
data_Cs27Sn14Pb13I81
_symmetry_space_group_name_H-M   'P 1'
_cell_length_a   18.98656974
_cell_length_b   18.96884163
_cell_length_c   18.97045515
_cell_angle_alpha   89.99979245
_cell_angle_beta   90.00068024
_cell_angle_gamma   89.99942437
_symmetry_Int_Tables_number   1
_chemical_formula_structural   Cs27Sn14Pb13I81
_chemical_formula_sum   'Cs27 Sn14 Pb13 I81'
_cell_volume   6832.27078289
_cell_formula_units_Z   1
loop_
 _symmetry_equiv_pos_site_id
 _symmetry_equiv_pos_as_xyz
  1  'x, y, z'
loop_
 _atom_site_type_symbol
 _atom_site_label
 _atom_site_symmetry_multiplicity
 _atom_site_fract_x
 _atom_site_fract_y
 _atom_site_fract_z
 _atom_site_occupancy
  Cs  Cs0  1  -0.00088578  0.00723113  -0.00895184  1
  Cs  Cs1  1  -0.00251106  0.00032124  0.33504175  1
  Cs  Cs2  1  0.00150301  -0.00318584  0.66983428  1
  Cs  Cs3  1  0.00125187  0.32652100  -0.00035942  1
  Cs  Cs4  1  0.00075520  0.33337776  0.33392671  1
  Cs  Cs5  1  -0.00191731  0.33575155  0.66482497  1
  Cs  Cs6  1  -0.00003640  0.66688884  0.00278481  1
  Cs  Cs7  1  0.00063502  0.66694601  0.33119406  1
  Cs  Cs8  1  0.00068471  0.66815206  0.67207478  1
  Cs  Cs9  1  0.33457724  0.00728670  -0.00221435  1
  Cs  Cs10  1  0.33529962  -0.00121907  0.33551232  1
  Cs  Cs11  1  0.33120812  -0.00199706  0.66446043  1
  Cs  Cs12  1  0.33315258  0.32788387  -0.00233648  1
  Cs  Cs13  1  0.33124470  0.33364041  0.33388838  1
  Cs  Cs14  1  0.33554837  0.33504264  0.66695070  1
  Cs  Cs15  1  0.33343162  0.66602988  0.00506573  1
  Cs  Cs16  1  0.33305887  0.66739119  0.33108074  1
  Cs  Cs17  1  0.33246492  0.66740356  0.66776164  1
  Cs  Cs18  1  0.66725633  0.00407023  -0.00231289  1
  Cs  Cs19  1  0.66673012  -0.00118671  0.33443628  1
  Cs  Cs20  1  0.66699092  -0.00084239  0.66295327  1
  Cs  Cs21  1  0.66578794  0.32451148  -0.00740107  1
  Cs  Cs22  1  0.66858588  0.33280938  0.33551781  1
  Cs  Cs23  1  0.66571567  0.34293224  0.67022515  1
  Cs  Cs24  1  0.66651325  0.66818726  0.00245216  1
  Cs  Cs25  1  0.66662015  0.66792334  0.33211227  1
  Cs  Cs26  1  0.66725228  0.66038186  0.66940395  1
  Sn  Sn27  1  0.83304583  0.16618752  0.49966819  1
  Sn  Sn28  1  0.83357605  0.83309296  0.16714683  1
  Sn  Sn29  1  0.50000204  0.83300437  0.16634589  1
  Sn  Sn30  1  0.50034020  0.49983421  0.16683184  1
  Sn  Sn31  1  0.16637010  0.83376122  0.16662822  1
  Sn  Sn32  1  0.16669352  0.49979026  0.49995774  1
  Sn  Sn33  1  0.16658758  0.16731423  0.49946089  1
  Sn  Sn34  1  0.16666331  0.50044074  0.83400744  1
  Sn  Sn35  1  0.16665563  0.50040738  0.16646798  1
  Sn  Sn36  1  0.83306090  0.50005545  0.16673871  1
  Sn  Sn37  1  0.83260534  0.83344257  0.49941377  1
  Sn  Sn38  1  0.50097371  0.83345034  0.50021371  1
  Sn  Sn39  1  0.50041262  0.16651353  0.49960438  1
  Sn  Sn40  1  0.50001559  0.83298549  0.83350852  1
  Pb  Pb41  1  0.83328255  0.16615298  0.16849771  1
  Pb  Pb42  1  0.16683992  0.16936006  0.82970982  1
  Pb  Pb43  1  0.83569164  0.50030866  0.83728375  1
  Pb  Pb44  1  0.49804991  0.50218711  0.83669549  1
  Pb  Pb45  1  0.16894479  0.83151073  0.83694229  1
  Pb  Pb46  1  0.16633766  0.83305763  0.49843498  1
  Pb  Pb47  1  0.49993194  0.16398208  0.82960155  1
  Pb  Pb48  1  0.50007289  0.16637667  0.16891112  1
  Pb  Pb49  1  0.16666649  0.16645951  0.16873469  1
  Pb  Pb50  1  0.83106251  0.83310968  0.83366348  1
  Pb  Pb51  1  0.49807472  0.50079164  0.49802994  1
  Pb  Pb52  1  0.83553793  0.50101710  0.49821499  1
  Pb  Pb53  1  0.83318995  0.16663744  0.82914438  1
  I  I54  1  0.16827055  -0.00325511  0.17029908  1
  I  I55  1  0.16740954  0.00203857  0.49682729  1
  I  I56  1  0.16717729  -0.00005427  0.83347603  1
  I  I57  1  0.16674093  0.33702992  0.16569238  1
  I  I58  1  0.16684965  0.33369490  0.49717296  1
  I  I59  1  0.16796136  0.33728990  0.84084174  1
  I  I60  1  0.16737246  0.66584045  0.17001257  1
  I  I61  1  0.16733499  0.66399922  0.49963721  1
  I  I62  1  0.16717037  0.66360830  0.82703707  1
  I  I63  1  0.49979739  -0.00400700  0.16570923  1
  I  I64  1  0.49781059  -0.00128630  0.49763100  1
  I  I65  1  0.49894260  -0.00397652  0.84066061  1
  I  I66  1  0.49752001  0.33631216  0.16966317  1
  I  I67  1  0.50107147  0.33117416  0.49688675  1
  I  I68  1  0.49911533  0.33349168  0.83340214  1
  I  I69  1  0.49882762  0.66790969  0.16962513  1
  I  I70  1  0.50315127  0.67025712  0.50022975  1
  I  I71  1  0.49950962  0.66999007  0.82721949  1
  I  I72  1  0.83199819  -0.00379395  0.16992536  1
  I  I73  1  0.83397396  -0.00089342  0.49361136  1
  I  I74  1  0.83456918  -0.00026124  0.83889054  1
  I  I75  1  0.83583540  0.33630074  0.16905147  1
  I  I76  1  0.83221995  0.33114234  0.49786394  1
  I  I77  1  0.83266472  0.33356415  0.83357870  1
  I  I78  1  0.83372858  0.66762408  0.17300400  1
  I  I79  1  0.82892742  0.66996306  0.49707840  1
  I  I80  1  0.83363282  0.66669185  0.82618153  1
  I  I81  1  0.16682056  0.16680689  -0.00019333  1
  I  I82  1  0.16702201  0.17276622  0.33697796  1
  I  I83  1  0.16693105  0.17005592  0.66147782  1
  I  I84  1  0.16684220  0.50742020  0.00183084  1
  I  I85  1  0.16688712  0.49933832  0.33218439  1
  I  I86  1  0.16744822  0.49437632  0.66589817  1
  I  I87  1  0.16586099  0.82603669  0.00520927  1
  I  I88  1  0.17089327  0.82766983  0.33039573  1
  I  I89  1  0.16714961  0.83211516  0.66665360  1
  I  I90  1  0.49915929  0.16657303  -0.00017341  1
  I  I91  1  0.49935105  0.16053623  0.33712957  1
  I  I92  1  0.49888207  0.16188297  0.66139696  1
  I  I93  1  0.49784187  0.50691297  0.00484515  1
  I  I94  1  0.49677127  0.50578249  0.32998980  1
  I  I95  1  0.49741482  0.50049099  0.66662287  1
  I  I96  1  0.49919774  0.82622427  0.00176518  1
  I  I97  1  0.50025705  0.83378747  0.33304040  1
  I  I98  1  0.50318221  0.83909005  0.66511629  1
  I  I99  1  0.83410045  0.16670871  -0.00009157  1
  I  I100  1  0.83357413  0.16510797  0.33693671  1
  I  I101  1  0.83472635  0.15950546  0.66082175  1
  I  I102  1  0.83461574  0.50891848  0.00548104  1
  I  I103  1  0.83618364  0.50171395  0.33004603  1
  I  I104  1  0.83540657  0.49914383  0.66658765  1
  I  I105  1  0.83300336  0.82701593  0.00384093  1
  I  I106  1  0.82893970  0.83344467  0.33301437  1
  I  I107  1  0.83016856  0.83868085  0.66318872  1
  I  I108  1  0.00000071  0.16687340  0.17100349  1
  I  I109  1  -0.00010082  0.16710064  0.49796293  1
  I  I110  1  0.00025171  0.16603218  0.83257957  1
  I  I111  1  0.00079129  0.50692672  0.16796359  1
  I  I112  1  0.00360596  0.49607204  0.49677574  1
  I  I113  1  0.00376971  0.50130723  0.83294890  1
  I  I114  1  -0.00038673  0.82516646  0.17440435  1
  I  I115  1  -0.00246565  0.83605997  0.49415119  1
  I  I116  1  0.00023955  0.83258640  0.83223202  1
  I  I117  1  0.33337610  0.16626825  0.17099851  1
  I  I118  1  0.33354797  0.16590799  0.49889741  1
  I  I119  1  0.33336155  0.16648861  0.83157671  1
  I  I120  1  0.33265897  0.50691777  0.16818995  1
  I  I121  1  0.32997059  0.49665129  0.49666503  1
  I  I122  1  0.33020584  0.50130447  0.83430946  1
  I  I123  1  0.33394286  0.82642348  0.16870426  1
  I  I124  1  0.33594791  0.83600605  0.49837324  1
  I  I125  1  0.33664710  0.83218254  0.83043040  1
  I  I126  1  0.66664871  0.16865407  0.17019165  1
  I  I127  1  0.66660025  0.15938910  0.49784360  1
  I  I128  1  0.66637670  0.16737145  0.83365360  1
  I  I129  1  0.66652473  0.50827444  0.16962324  1
  I  I130  1  0.66668483  0.49657281  0.49819732  1
  I  I131  1  0.66645243  0.50019255  0.83297015  1
  I  I132  1  0.66632679  0.82650134  0.16872952  1
  I  I133  1  0.66605170  0.84203550  0.49451579  1
  I  I134  1  0.66315192  0.83274872  0.83712214  1
