# generated using pymatgen
data_Cs27Sn14Pb13I81
_symmetry_space_group_name_H-M   'P 1'
_cell_length_a   18.98016172
_cell_length_b   18.96485296
_cell_length_c   18.98134138
_cell_angle_alpha   89.99997281
_cell_angle_beta   89.99890934
_cell_angle_gamma   90.00093744
_symmetry_Int_Tables_number   1
_chemical_formula_structural   Cs27Sn14Pb13I81
_chemical_formula_sum   'Cs27 Sn14 Pb13 I81'
_cell_volume   6832.44726409
_cell_formula_units_Z   1
loop_
 _symmetry_equiv_pos_site_id
 _symmetry_equiv_pos_as_xyz
  1  'x, y, z'
loop_
 _atom_site_type_symbol
 _atom_site_label
 _atom_site_symmetry_multiplicity
 _atom_site_fract_x
 _atom_site_fract_y
 _atom_site_fract_z
 _atom_site_occupancy
  Cs  Cs0  1  0.00074051  0.00148741  -0.00061250  1
  Cs  Cs1  1  0.00094756  0.00073507  0.33575657  1
  Cs  Cs2  1  -0.00034009  0.00014949  0.66585466  1
  Cs  Cs3  1  -0.00179192  0.33158314  0.00069686  1
  Cs  Cs4  1  -0.00260168  0.33506713  0.33183703  1
  Cs  Cs5  1  0.00180146  0.33235539  0.66708928  1
  Cs  Cs6  1  0.00161099  0.66754726  -0.00195655  1
  Cs  Cs7  1  -0.00213631  0.66447574  0.33537587  1
  Cs  Cs8  1  -0.00030351  0.66532578  0.66719354  1
  Cs  Cs9  1  0.33029663  -0.00384303  0.00305251  1
  Cs  Cs10  1  0.33242905  -0.00021448  0.33325366  1
  Cs  Cs11  1  0.33138502  -0.00142416  0.66543626  1
  Cs  Cs12  1  0.33746592  0.33399488  0.00211158  1
  Cs  Cs13  1  0.34112883  0.33194378  0.33540585  1
  Cs  Cs14  1  0.33834824  0.33525120  0.66400955  1
  Cs  Cs15  1  0.33177601  0.66923158  -0.00169670  1
  Cs  Cs16  1  0.33101568  0.66841237  0.33297323  1
  Cs  Cs17  1  0.33108483  0.66624501  0.66841094  1
  Cs  Cs18  1  0.67034537  0.00196308  -0.00205737  1
  Cs  Cs19  1  0.66496304  -0.00156959  0.33719116  1
  Cs  Cs20  1  0.66853391  0.00214366  0.66591407  1
  Cs  Cs21  1  0.66277356  0.32939638  0.00561795  1
  Cs  Cs22  1  0.65962943  0.34134930  0.32617064  1
  Cs  Cs23  1  0.65370588  0.32784604  0.66884731  1
  Cs  Cs24  1  0.66696768  0.66667889  0.00051274  1
  Cs  Cs25  1  0.67324288  0.66272263  0.33244824  1
  Cs  Cs26  1  0.67078454  0.66679479  0.66631562  1
  Sn  Sn27  1  0.16576639  0.49966763  0.83426776  1
  Sn  Sn28  1  0.83377256  0.16758356  0.49975107  1
  Sn  Sn29  1  0.83373492  0.49979951  0.83292982  1
  Sn  Sn30  1  0.16608420  0.83250878  0.16685980  1
  Sn  Sn31  1  0.16711417  0.83378154  0.50015942  1
  Sn  Sn32  1  0.50024865  0.83328204  0.83311677  1
  Sn  Sn33  1  0.49924848  0.83303913  0.50020084  1
  Sn  Sn34  1  0.16540796  0.16613015  0.50070607  1
  Sn  Sn35  1  0.16664137  0.16698839  0.83265413  1
  Sn  Sn36  1  0.83389842  0.83371815  0.16587730  1
  Sn  Sn37  1  0.83370882  0.83271088  0.83413645  1
  Sn  Sn38  1  0.16635575  0.83339023  0.83306485  1
  Sn  Sn39  1  0.50034868  0.83328154  0.16670498  1
  Sn  Sn40  1  0.16658198  0.50073897  0.16596840  1
  Pb  Pb41  1  0.49998731  0.16370685  0.16651445  1
  Pb  Pb42  1  0.49946834  0.16439496  0.49985389  1
  Pb  Pb43  1  0.83368943  0.83417946  0.50032713  1
  Pb  Pb44  1  0.16662730  0.16701450  0.16706910  1
  Pb  Pb45  1  0.49700035  0.50313524  0.16634577  1
  Pb  Pb46  1  0.83351010  0.16435277  0.16953420  1
  Pb  Pb47  1  0.49660233  0.16361554  0.83362581  1
  Pb  Pb48  1  0.49998306  0.50239475  0.83347102  1
  Pb  Pb49  1  0.50008736  0.50371519  0.50009421  1
  Pb  Pb50  1  0.83337326  0.49602684  0.50333695  1
  Pb  Pb51  1  0.16654507  0.49967753  0.50001330  1
  Pb  Pb52  1  0.83569539  0.50215932  0.16402414  1
  Pb  Pb53  1  0.83510012  0.16707542  0.83191352  1
  I  I54  1  0.16786876  -0.00386856  0.16406739  1
  I  I55  1  0.16699724  -0.00173478  0.50312563  1
  I  I56  1  0.16699104  -0.00194001  0.83299625  1
  I  I57  1  0.16497054  0.33639441  0.16236004  1
  I  I58  1  0.16170493  0.33010666  0.50381426  1
  I  I59  1  0.15983133  0.33379817  0.83346058  1
  I  I60  1  0.16767669  0.66923016  0.16332418  1
  I  I61  1  0.17127772  0.67010308  0.50213139  1
  I  I62  1  0.16703707  0.66852939  0.83369700  1
  I  I63  1  0.49445063  -0.00550935  0.16679294  1
  I  I64  1  0.49768901  -0.00424221  0.49988116  1
  I  I65  1  0.50107060  -0.00521339  0.83316166  1
  I  I66  1  0.49850448  0.33390932  0.16780396  1
  I  I67  1  0.49905218  0.33307661  0.50041580  1
  I  I68  1  0.50034568  0.33324058  0.83207454  1
  I  I69  1  0.50123786  0.67168668  0.16593989  1
  I  I70  1  0.49231544  0.67230606  0.50079768  1
  I  I71  1  0.49416452  0.67133414  0.83380817  1
  I  I72  1  0.83674740  -0.00477611  0.15893154  1
  I  I73  1  0.83588151  0.00166306  0.50234825  1
  I  I74  1  0.83396995  -0.00342072  0.83584126  1
  I  I75  1  0.83598398  0.33368379  0.16604809  1
  I  I76  1  0.84505799  0.32873012  0.50140658  1
  I  I77  1  0.84162300  0.33611410  0.83021337  1
  I  I78  1  0.83086706  0.67096999  0.16717353  1
  I  I79  1  0.83265987  0.66664192  0.49826223  1
  I  I80  1  0.83831190  0.66879892  0.83602809  1
  I  I81  1  0.16663134  0.16203169  -0.00293549  1
  I  I82  1  0.16366532  0.16064946  0.33650989  1
  I  I83  1  0.16270639  0.16103911  0.66684959  1
  I  I84  1  0.16363940  0.50534266  -0.00124691  1
  I  I85  1  0.16713268  0.50601686  0.33063394  1
  I  I86  1  0.16338307  0.50416747  0.67006552  1
  I  I87  1  0.16879980  0.83330761  -0.00077152  1
  I  I88  1  0.16963750  0.83374561  0.33315244  1
  I  I89  1  0.16908835  0.83377375  0.66764102  1
  I  I90  1  0.49881780  0.16405935  -0.00026501  1
  I  I91  1  0.49664907  0.16285508  0.33355484  1
  I  I92  1  0.50200040  0.16351014  0.66672661  1
  I  I93  1  0.50061185  0.50252010  -0.00010725  1
  I  I94  1  0.49805675  0.50153191  0.33303732  1
  I  I95  1  0.49729132  0.50259469  0.66706027  1
  I  I96  1  0.49586996  0.83310297  -0.00022817  1
  I  I97  1  0.49548941  0.83479819  0.33322722  1
  I  I98  1  0.49600689  0.83366218  0.66709255  1
  I  I99  1  0.83493692  0.16659659  -0.00016646  1
  I  I100  1  0.84281954  0.16164507  0.33730210  1
  I  I101  1  0.83722767  0.16170381  0.66411117  1
  I  I102  1  0.83695661  0.50306937  -0.00391912  1
  I  I103  1  0.83486158  0.50163384  0.33318805  1
  I  I104  1  0.84286858  0.51163345  0.67110092  1
  I  I105  1  0.83391877  0.83059850  -0.00100888  1
  I  I106  1  0.83360715  0.83631909  0.33101150  1
  I  I107  1  0.83381696  0.83151098  0.66972600  1
  I  I108  1  0.00032817  0.16200095  0.16525696  1
  I  I109  1  0.00204494  0.15779714  0.50421136  1
  I  I110  1  0.00349537  0.16035434  0.83141456  1
  I  I111  1  0.00360829  0.50748087  0.16509143  1
  I  I112  1  0.00014560  0.50642730  0.49832254  1
  I  I113  1  0.00161157  0.50675341  0.83625184  1
  I  I114  1  0.00109248  0.83038676  0.16397362  1
  I  I115  1  0.00315763  0.83557789  0.50015674  1
  I  I116  1  0.00119459  0.83323265  0.83532066  1
  I  I117  1  0.33282537  0.16436525  0.16836643  1
  I  I118  1  0.32977821  0.16373566  0.50384863  1
  I  I119  1  0.32820242  0.16700804  0.82641371  1
  I  I120  1  0.32894180  0.50599426  0.16003464  1
  I  I121  1  0.33286852  0.49574355  0.50217337  1
  I  I122  1  0.32961378  0.50160438  0.83613923  1
  I  I123  1  0.33225280  0.83031484  0.16441892  1
  I  I124  1  0.33167026  0.83857399  0.50014333  1
  I  I125  1  0.33187164  0.83389163  0.83489980  1
  I  I126  1  0.66687169  0.16460293  0.16806383  1
  I  I127  1  0.66891857  0.16213908  0.50155491  1
  I  I128  1  0.66663053  0.16567053  0.83035279  1
  I  I129  1  0.66674064  0.50122914  0.16646803  1
  I  I130  1  0.66695060  0.50093265  0.50145722  1
  I  I131  1  0.66970409  0.50728661  0.83085126  1
  I  I132  1  0.66668921  0.83576584  0.16407927  1
  I  I133  1  0.66440387  0.83584860  0.50030367  1
  I  I134  1  0.66722263  0.82853255  0.83551047  1
