# generated using pymatgen
data_Cs27Sn14Pb13I81
_symmetry_space_group_name_H-M   'P 1'
_cell_length_a   18.96754642
_cell_length_b   18.97729599
_cell_length_c   18.98305218
_cell_angle_alpha   89.99975691
_cell_angle_beta   90.00071319
_cell_angle_gamma   90.00111845
_symmetry_Int_Tables_number   1
_chemical_formula_structural   Cs27Sn14Pb13I81
_chemical_formula_sum   'Cs27 Sn14 Pb13 I81'
_cell_volume   6833.00169428
_cell_formula_units_Z   1
loop_
 _symmetry_equiv_pos_site_id
 _symmetry_equiv_pos_as_xyz
  1  'x, y, z'
loop_
 _atom_site_type_symbol
 _atom_site_label
 _atom_site_symmetry_multiplicity
 _atom_site_fract_x
 _atom_site_fract_y
 _atom_site_fract_z
 _atom_site_occupancy
  Cs  Cs0  1  -0.00107956  -0.00011699  0.00018099  1
  Cs  Cs1  1  0.00226855  -0.00072701  0.32886710  1
  Cs  Cs2  1  0.00058410  -0.00012217  0.66828236  1
  Cs  Cs3  1  0.00011790  0.33482366  0.00327015  1
  Cs  Cs4  1  -0.00984504  0.34002963  0.33494525  1
  Cs  Cs5  1  -0.00267443  0.33606222  0.66241317  1
  Cs  Cs6  1  -0.00080017  0.66500726  0.00465606  1
  Cs  Cs7  1  0.00608378  0.65972169  0.32657694  1
  Cs  Cs8  1  -0.00071301  0.66599768  0.66640692  1
  Cs  Cs9  1  0.33304856  0.00168126  0.00056254  1
  Cs  Cs10  1  0.33349119  0.00154344  0.33417642  1
  Cs  Cs11  1  0.33276991  0.00022675  0.66489050  1
  Cs  Cs12  1  0.33348885  0.33346857  -0.00194189  1
  Cs  Cs13  1  0.33572876  0.32830097  0.33231520  1
  Cs  Cs14  1  0.33346274  0.33343612  0.66952407  1
  Cs  Cs15  1  0.33311935  0.66256136  -0.00099554  1
  Cs  Cs16  1  0.33223208  0.66690732  0.33423613  1
  Cs  Cs17  1  0.33129960  0.66534175  0.66662899  1
  Cs  Cs18  1  0.66888883  -0.00078946  -0.00139608  1
  Cs  Cs19  1  0.66430648  -0.00022821  0.33390555  1
  Cs  Cs20  1  0.66791296  -0.00259718  0.66771094  1
  Cs  Cs21  1  0.66674924  0.33000119  -0.00381510  1
  Cs  Cs22  1  0.66884823  0.33513397  0.33461688  1
  Cs  Cs23  1  0.66902576  0.33153122  0.66820131  1
  Cs  Cs24  1  0.66687843  0.66927875  -0.00162661  1
  Cs  Cs25  1  0.66465673  0.66545263  0.33362601  1
  Cs  Cs26  1  0.66670784  0.66997167  0.66832520  1
  Sn  Sn27  1  0.83316106  0.50080016  0.83326725  1
  Sn  Sn28  1  0.49974216  0.16673718  0.16719175  1
  Sn  Sn29  1  0.16672526  0.16612286  0.83317271  1
  Sn  Sn30  1  0.83352605  0.83333275  0.49978633  1
  Sn  Sn31  1  0.49953804  0.16679703  0.49970306  1
  Sn  Sn32  1  0.49981146  0.83338822  0.16684367  1
  Sn  Sn33  1  0.16696434  0.16665605  0.49974279  1
  Sn  Sn34  1  0.83374299  0.83240227  0.83246197  1
  Sn  Sn35  1  0.16675587  0.83375930  0.83327351  1
  Sn  Sn36  1  0.16721934  0.16683423  0.16703801  1
  Sn  Sn37  1  0.49982490  0.49993775  0.49975311  1
  Sn  Sn38  1  0.49999127  0.49966478  0.16717616  1
  Sn  Sn39  1  0.50044565  0.83324561  0.50001106  1
  Sn  Sn40  1  0.49940353  0.83358013  0.83319990  1
  Pb  Pb41  1  0.83137222  0.83330653  0.16716696  1
  Pb  Pb42  1  0.16417270  0.50012382  0.83325485  1
  Pb  Pb43  1  0.50155263  0.50234121  0.83309856  1
  Pb  Pb44  1  0.16930606  0.49698590  0.49994768  1
  Pb  Pb45  1  0.16936457  0.83512666  0.16425911  1
  Pb  Pb46  1  0.83642330  0.16607974  0.83324155  1
  Pb  Pb47  1  0.83290134  0.16389835  0.49992123  1
  Pb  Pb48  1  0.16952630  0.49684337  0.16685293  1
  Pb  Pb49  1  0.83270831  0.16658414  0.16694364  1
  Pb  Pb50  1  0.16655648  0.83482393  0.50146849  1
  Pb  Pb51  1  0.83015300  0.50014946  0.16426334  1
  Pb  Pb52  1  0.49838425  0.16444151  0.83308624  1
  Pb  Pb53  1  0.83072043  0.50323465  0.50166630  1
  I  I54  1  0.17351378  0.00335604  0.16864251  1
  I  I55  1  0.17348163  0.00315335  0.49888828  1
  I  I56  1  0.16592664  -0.00034171  0.83322352  1
  I  I57  1  0.17356426  0.32855614  0.16208651  1
  I  I58  1  0.17239609  0.32833620  0.50394229  1
  I  I59  1  0.16675797  0.33002136  0.83396107  1
  I  I60  1  0.16771570  0.66662869  0.16393984  1
  I  I61  1  0.16793358  0.66674848  0.50366315  1
  I  I62  1  0.16977840  0.67010182  0.83225915  1
  I  I63  1  0.49649633  0.00011090  0.16910752  1
  I  I64  1  0.49983547  -0.00029869  0.49791447  1
  I  I65  1  0.50466678  -0.00395440  0.83324058  1
  I  I66  1  0.49586682  0.33249875  0.17355042  1
  I  I67  1  0.49475373  0.33251106  0.49288923  1
  I  I68  1  0.50082096  0.33328365  0.83362062  1
  I  I69  1  0.50242881  0.66731584  0.16865383  1
  I  I70  1  0.50527877  0.66773278  0.49786043  1
  I  I71  1  0.49608395  0.67084104  0.83341103  1
  I  I72  1  0.83031063  -0.00024252  0.16320738  1
  I  I73  1  0.82556882  -0.00375455  0.50850939  1
  I  I74  1  0.83070643  -0.00366813  0.83001944  1
  I  I75  1  0.83152174  0.33346527  0.16352649  1
  I  I76  1  0.83303982  0.33355568  0.50230542  1
  I  I77  1  0.83277394  0.33564473  0.83452601  1
  I  I78  1  0.83165960  0.66682512  0.16743483  1
  I  I79  1  0.82604863  0.67102035  0.50403483  1
  I  I80  1  0.83321662  0.66903919  0.82918360  1
  I  I81  1  0.17124940  0.16217590  0.00011441  1
  I  I82  1  0.17432888  0.16568645  0.33341098  1
  I  I83  1  0.17134229  0.16190614  0.66650589  1
  I  I84  1  0.16947522  0.49743486  -0.00005310  1
  I  I85  1  0.16298759  0.50177696  0.33334926  1
  I  I86  1  0.17039381  0.49649666  0.66674617  1
  I  I87  1  0.16601909  0.83964433  -0.00406278  1
  I  I88  1  0.16591044  0.83529033  0.33319507  1
  I  I89  1  0.17143731  0.83996308  0.66985684  1
  I  I90  1  0.49617085  0.16707905  0.00268763  1
  I  I91  1  0.49236897  0.16176972  0.33361614  1
  I  I92  1  0.49605933  0.16680024  0.66365528  1
  I  I93  1  0.50132524  0.49953175  0.00260734  1
  I  I94  1  0.49995241  0.50417790  0.33350865  1
  I  I95  1  0.50127295  0.49933621  0.66384621  1
  I  I96  1  0.49999524  0.83375070  -0.00021738  1
  I  I97  1  0.50516481  0.83406031  0.33399122  1
  I  I98  1  0.50110807  0.83384376  0.66637898  1
  I  I99  1  0.83166502  0.16456043  -0.00018352  1
  I  I100  1  0.83776457  0.16470625  0.33357861  1
  I  I101  1  0.83219794  0.16843694  0.66668467  1
  I  I102  1  0.83201853  0.50772696  -0.00348024  1
  I  I103  1  0.83457502  0.50017562  0.33348409  1
  I  I104  1  0.83093101  0.50209932  0.66948407  1
  I  I105  1  0.83185440  0.83054908  -0.00334936  1
  I  I106  1  0.82611822  0.83659310  0.33651957  1
  I  I107  1  0.82688983  0.83107278  0.66773133  1
  I  I108  1  0.00343180  0.16468608  0.16553675  1
  I  I109  1  0.00304536  0.16363040  0.50103325  1
  I  I110  1  0.00458111  0.16016385  0.83365648  1
  I  I111  1  -0.00003867  0.49825770  0.16535044  1
  I  I112  1  -0.00036226  0.49907313  0.50187214  1
  I  I113  1  -0.00352984  0.50591326  0.83237606  1
  I  I114  1  0.00037945  0.83634472  0.16613721  1
  I  I115  1  -0.00245906  0.83721704  0.50816586  1
  I  I116  1  -0.00033985  0.83470215  0.82724520  1
  I  I117  1  0.33472726  0.16582718  0.16709966  1
  I  I118  1  0.33483517  0.16375534  0.49941556  1
  I  I119  1  0.33033200  0.16117190  0.83330859  1
  I  I120  1  0.33785690  0.50343876  0.16834257  1
  I  I121  1  0.33793362  0.50688237  0.49796456  1
  I  I122  1  0.33354128  0.50118124  0.83380997  1
  I  I123  1  0.33804390  0.83206948  0.16810608  1
  I  I124  1  0.33700533  0.83248622  0.50077698  1
  I  I125  1  0.33400109  0.83863321  0.83330781  1
  I  I126  1  0.66212813  0.16630976  0.17151046  1
  I  I127  1  0.66275758  0.16809994  0.49471526  1
  I  I128  1  0.66667327  0.16589732  0.83391921  1
  I  I129  1  0.66190327  0.49766795  0.17114518  1
  I  I130  1  0.66241958  0.49462402  0.49602098  1
  I  I131  1  0.66922105  0.50652449  0.83359931  1
  I  I132  1  0.66218124  0.83663375  0.16181013  1
  I  I133  1  0.66432170  0.83551776  0.50521497  1
  I  I134  1  0.66613617  0.82906401  0.83301583  1
