# generated using pymatgen
data_Cs27Sn14Pb13I81
_symmetry_space_group_name_H-M   'P 1'
_cell_length_a   18.96595852
_cell_length_b   18.98241652
_cell_length_c   18.97802719
_cell_angle_alpha   89.99951581
_cell_angle_beta   90.00196130
_cell_angle_gamma   90.00082770
_symmetry_Int_Tables_number   1
_chemical_formula_structural   Cs27Sn14Pb13I81
_chemical_formula_sum   'Cs27 Sn14 Pb13 I81'
_cell_volume   6832.46411252
_cell_formula_units_Z   1
loop_
 _symmetry_equiv_pos_site_id
 _symmetry_equiv_pos_as_xyz
  1  'x, y, z'
loop_
 _atom_site_type_symbol
 _atom_site_label
 _atom_site_symmetry_multiplicity
 _atom_site_fract_x
 _atom_site_fract_y
 _atom_site_fract_z
 _atom_site_occupancy
  Cs  Cs0  1  0.00070310  0.00181577  0.00203393  1
  Cs  Cs1  1  -0.00081081  0.00113381  0.33317403  1
  Cs  Cs2  1  -0.00156675  -0.00208911  0.66581807  1
  Cs  Cs3  1  0.00828947  0.33185196  -0.00143933  1
  Cs  Cs4  1  -0.00344727  0.32873466  0.33387282  1
  Cs  Cs5  1  0.00147739  0.34463574  0.66765042  1
  Cs  Cs6  1  -0.00400322  0.66611327  -0.00160190  1
  Cs  Cs7  1  0.00825233  0.66784341  0.34108820  1
  Cs  Cs8  1  0.00008831  0.65864092  0.65979724  1
  Cs  Cs9  1  0.33253897  -0.00057641  -0.00247574  1
  Cs  Cs10  1  0.33356828  -0.00069884  0.33510925  1
  Cs  Cs11  1  0.33576869  0.00201659  0.66781397  1
  Cs  Cs12  1  0.32767251  0.33458161  0.00177752  1
  Cs  Cs13  1  0.33461285  0.33647875  0.33341820  1
  Cs  Cs14  1  0.33416412  0.32963916  0.66668384  1
  Cs  Cs15  1  0.33376372  0.66711404  0.00414887  1
  Cs  Cs16  1  0.32797897  0.66440112  0.33112943  1
  Cs  Cs17  1  0.33541570  0.66773328  0.66568121  1
  Cs  Cs18  1  0.66630044  -0.00225008  -0.00142575  1
  Cs  Cs19  1  0.66791228  0.00141176  0.33272750  1
  Cs  Cs20  1  0.66426983  -0.00094881  0.66846365  1
  Cs  Cs21  1  0.66641010  0.33468885  0.00108094  1
  Cs  Cs22  1  0.66733097  0.33074647  0.33129758  1
  Cs  Cs23  1  0.66647252  0.33384232  0.66686228  1
  Cs  Cs24  1  0.66738885  0.66751696  0.00106592  1
  Cs  Cs25  1  0.66562723  0.66701733  0.32802227  1
  Cs  Cs26  1  0.66677444  0.66696434  0.66845836  1
  Sn  Sn27  1  0.50071857  0.16702413  0.83389358  1
  Sn  Sn28  1  0.83279989  0.16634472  0.83310916  1
  Sn  Sn29  1  0.16713829  0.16642932  0.50044032  1
  Sn  Sn30  1  0.50009897  0.83312477  0.83354259  1
  Sn  Sn31  1  0.50006884  0.49994763  0.83294921  1
  Sn  Sn32  1  0.50034265  0.83304742  0.49963191  1
  Sn  Sn33  1  0.83349083  0.83399391  0.83380473  1
  Sn  Sn34  1  0.49959541  0.16664685  0.49989134  1
  Sn  Sn35  1  0.16611354  0.83306814  0.83319607  1
  Sn  Sn36  1  0.50000515  0.16574133  0.16620485  1
  Sn  Sn37  1  0.83276256  0.83234226  0.16623578  1
  Sn  Sn38  1  0.50054459  0.83442588  0.16659490  1
  Sn  Sn39  1  0.50053860  0.50010504  0.50064033  1
  Sn  Sn40  1  0.83344964  0.50098970  0.16661959  1
  Pb  Pb41  1  0.83119163  0.83334153  0.49996872  1
  Pb  Pb42  1  0.16979917  0.16628623  0.16928537  1
  Pb  Pb43  1  0.83044207  0.50011081  0.49704281  1
  Pb  Pb44  1  0.16991307  0.50313654  0.83342896  1
  Pb  Pb45  1  0.16631833  0.83340149  0.16455616  1
  Pb  Pb46  1  0.50080895  0.50014990  0.16654163  1
  Pb  Pb47  1  0.16647584  0.16484736  0.83139680  1
  Pb  Pb48  1  0.83124429  0.50011801  0.83487291  1
  Pb  Pb49  1  0.16256090  0.50018608  0.16670661  1
  Pb  Pb50  1  0.83137909  0.16599505  0.16408606  1
  Pb  Pb51  1  0.16959725  0.49720050  0.50000998  1
  Pb  Pb52  1  0.16933232  0.83536818  0.50252429  1
  Pb  Pb53  1  0.83281943  0.16666649  0.50323160  1
  I  I54  1  0.16273273  -0.00008115  0.16689186  1
  I  I55  1  0.17524217  0.00283726  0.50085001  1
  I  I56  1  0.17295142  -0.00289626  0.83256789  1
  I  I57  1  0.16782693  0.33306411  0.16523341  1
  I  I58  1  0.17418625  0.32964050  0.50198288  1
  I  I59  1  0.16611498  0.33331448  0.83228931  1
  I  I60  1  0.17411440  0.66701998  0.16687316  1
  I  I61  1  0.16761519  0.66673140  0.50061499  1
  I  I62  1  0.16688927  0.67115675  0.83325550  1
  I  I63  1  0.50516428  -0.00095540  0.16668568  1
  I  I64  1  0.49660110  0.00012922  0.50248298  1
  I  I65  1  0.50045543  -0.00051490  0.83143590  1
  I  I66  1  0.50241129  0.33085397  0.16706791  1
  I  I67  1  0.49636938  0.33249921  0.50283191  1
  I  I68  1  0.50546088  0.33220793  0.83032240  1
  I  I69  1  0.50225622  0.66978886  0.16572090  1
  I  I70  1  0.50248020  0.66739082  0.50432939  1
  I  I71  1  0.50013435  0.66814183  0.83049796  1
  I  I72  1  0.83004880  -0.00317546  0.16405566  1
  I  I73  1  0.83106155  0.00009325  0.49561519  1
  I  I74  1  0.82718645  -0.00128834  0.83813596  1
  I  I75  1  0.82908067  0.33484608  0.16646208  1
  I  I76  1  0.83038289  0.33318773  0.49922268  1
  I  I77  1  0.82643863  0.33083742  0.83392728  1
  I  I78  1  0.82368270  0.66874451  0.15907553  1
  I  I79  1  0.83107432  0.66681247  0.50530158  1
  I  I80  1  0.83059119  0.67000790  0.83614943  1
  I  I81  1  0.16748741  0.16631223  -0.00030017  1
  I  I82  1  0.17306639  0.16593064  0.33714602  1
  I  I83  1  0.17605810  0.16438486  0.66402753  1
  I  I84  1  0.17177092  0.49799770  -0.00024768  1
  I  I85  1  0.17077881  0.50136909  0.33359344  1
  I  I86  1  0.16285501  0.50061198  0.66676111  1
  I  I87  1  0.17368023  0.83542130  -0.00343318  1
  I  I88  1  0.16687857  0.83376966  0.33365285  1
  I  I89  1  0.16773763  0.83507388  0.67040151  1
  I  I90  1  0.50544376  0.16368886  -0.00091904  1
  I  I91  1  0.49591218  0.16436463  0.33365618  1
  I  I92  1  0.49961856  0.16441944  0.66713547  1
  I  I93  1  0.50230606  0.50052747  -0.00261282  1
  I  I94  1  0.50203333  0.49902396  0.33581089  1
  I  I95  1  0.50047763  0.50043341  0.66708213  1
  I  I96  1  0.50044170  0.83548161  -0.00089584  1
  I  I97  1  0.50527850  0.83666328  0.33289616  1
  I  I98  1  0.49973696  0.83535399  0.66766288  1
  I  I99  1  0.82631746  0.16445357  -0.00371447  1
  I  I100  1  0.83236739  0.16679343  0.33324603  1
  I  I101  1  0.82546566  0.15941853  0.67105630  1
  I  I102  1  0.82703925  0.50255330  0.00245340  1
  I  I103  1  0.82909169  0.50570307  0.32928955  1
  I  I104  1  0.83438722  0.49977522  0.66680338  1
  I  I105  1  0.82702973  0.83311118  -0.00092505  1
  I  I106  1  0.82665028  0.83013220  0.33003043  1
  I  I107  1  0.83074836  0.83848697  0.67031142  1
  I  I108  1  -0.00022127  0.16725248  0.16711204  1
  I  I109  1  0.00242139  0.16537921  0.50128183  1
  I  I110  1  -0.00286599  0.16068093  0.83274317  1
  I  I111  1  -0.00530529  0.50682095  0.16401781  1
  I  I112  1  0.00007357  0.49829590  0.49894438  1
  I  I113  1  -0.00015743  0.49884376  0.83545334  1
  I  I114  1  -0.00366803  0.82930318  0.16070979  1
  I  I115  1  0.00021155  0.83554404  0.50002461  1
  I  I116  1  -0.00137372  0.84063112  0.83998154  1
  I  I117  1  0.33860973  0.16120565  0.16056658  1
  I  I118  1  0.33679944  0.16615933  0.50256718  1
  I  I119  1  0.33719801  0.16529497  0.83419395  1
  I  I120  1  0.33358342  0.49980931  0.16699438  1
  I  I121  1  0.33817613  0.50287246  0.50278563  1
  I  I122  1  0.33848507  0.49805415  0.83021588  1
  I  I123  1  0.33706814  0.83724124  0.16562865  1
  I  I124  1  0.33831758  0.83169924  0.49988520  1
  I  I125  1  0.33595919  0.83400615  0.83271504  1
  I  I126  1  0.66283156  0.16537854  0.17193948  1
  I  I127  1  0.66238603  0.16633245  0.49845785  1
  I  I128  1  0.66420712  0.16163606  0.83132352  1
  I  I129  1  0.66831702  0.50234386  0.16621656  1
  I  I130  1  0.66205756  0.49668499  0.50527247  1
  I  I131  1  0.66284129  0.50361368  0.82980196  1
  I  I132  1  0.66515598  0.83329564  0.16192274  1
  I  I133  1  0.66208783  0.83730724  0.50489461  1
  I  I134  1  0.66508875  0.83426570  0.83386290  1
