# generated using pymatgen
data_Cs27Sn13Pb14I81
_symmetry_space_group_name_H-M   'P 1'
_cell_length_a   18.97179287
_cell_length_b   18.98199684
_cell_length_c   18.97717961
_cell_angle_alpha   90.00164916
_cell_angle_beta   89.99807094
_cell_angle_gamma   90.00058005
_symmetry_Int_Tables_number   1
_chemical_formula_structural   Cs27Sn13Pb14I81
_chemical_formula_sum   'Cs27 Sn13 Pb14 I81'
_cell_volume   6834.10959157
_cell_formula_units_Z   1
loop_
 _symmetry_equiv_pos_site_id
 _symmetry_equiv_pos_as_xyz
  1  'x, y, z'
loop_
 _atom_site_type_symbol
 _atom_site_label
 _atom_site_symmetry_multiplicity
 _atom_site_fract_x
 _atom_site_fract_y
 _atom_site_fract_z
 _atom_site_occupancy
  Cs  Cs0  1  -0.00011790  -0.00004513  -0.00231745  1
  Cs  Cs1  1  -0.00132367  0.00169006  0.33580954  1
  Cs  Cs2  1  0.00055258  -0.00104356  0.66797303  1
  Cs  Cs3  1  -0.00005114  0.33365648  -0.00130721  1
  Cs  Cs4  1  0.00143258  0.33078950  0.34207178  1
  Cs  Cs5  1  0.00038948  0.33166393  0.66425542  1
  Cs  Cs6  1  -0.00042757  0.66663257  -0.00047006  1
  Cs  Cs7  1  0.00158286  0.66582360  0.33123189  1
  Cs  Cs8  1  -0.00178111  0.67071505  0.67001215  1
  Cs  Cs9  1  0.33741834  0.00142420  0.00300207  1
  Cs  Cs10  1  0.33659105  -0.00224300  0.33158591  1
  Cs  Cs11  1  0.33333808  0.00034748  0.66624942  1
  Cs  Cs12  1  0.33380621  0.33204951  -0.00139944  1
  Cs  Cs13  1  0.32663809  0.33557316  0.33746576  1
  Cs  Cs14  1  0.33509070  0.33401303  0.66447016  1
  Cs  Cs15  1  0.33269292  0.66723634  0.00449737  1
  Cs  Cs16  1  0.33325634  0.66603755  0.32996391  1
  Cs  Cs17  1  0.34239157  0.66727063  0.66542805  1
  Cs  Cs18  1  0.66261958  0.00377350  0.00283324  1
  Cs  Cs19  1  0.66441425  0.00350715  0.33026909  1
  Cs  Cs20  1  0.66389022  -0.00303457  0.66783510  1
  Cs  Cs21  1  0.66480200  0.33317336  0.00186060  1
  Cs  Cs22  1  0.67024089  0.33086127  0.33186314  1
  Cs  Cs23  1  0.66384543  0.33740705  0.66465150  1
  Cs  Cs24  1  0.66968056  0.66412587  -0.00053042  1
  Cs  Cs25  1  0.66602946  0.66569117  0.33527408  1
  Cs  Cs26  1  0.66211390  0.66592746  0.66417845  1
  Sn  Sn27  1  0.50062219  0.49988046  0.16647901  1
  Sn  Sn28  1  0.16604032  0.50031853  0.83316861  1
  Sn  Sn29  1  0.16607029  0.83311265  0.50068212  1
  Sn  Sn30  1  0.83362243  0.16675580  0.83340479  1
  Sn  Sn31  1  0.83414113  0.83322804  0.50006273  1
  Sn  Sn32  1  0.16590220  0.16653564  0.83422881  1
  Sn  Sn33  1  0.16590566  0.16655677  0.16608149  1
  Sn  Sn34  1  0.16648901  0.83318892  0.83269829  1
  Sn  Sn35  1  0.83362843  0.83347996  0.83356738  1
  Sn  Sn36  1  0.50020941  0.16668363  0.50009709  1
  Sn  Sn37  1  0.83300680  0.50038550  0.16615521  1
  Sn  Sn38  1  0.83356999  0.83299006  0.16634331  1
  Sn  Sn39  1  0.83425097  0.49989384  0.83389937  1
  Pb  Pb40  1  0.16442839  0.83514266  0.16613730  1
  Pb  Pb41  1  0.16792853  0.16427455  0.50093697  1
  Pb  Pb42  1  0.50018109  0.49999090  0.83519037  1
  Pb  Pb43  1  0.50010635  0.49773364  0.49693617  1
  Pb  Pb44  1  0.83369152  0.50241305  0.50032461  1
  Pb  Pb45  1  0.49734777  0.16924149  0.16867929  1
  Pb  Pb46  1  0.49998335  0.83476374  0.49988231  1
  Pb  Pb47  1  0.50319383  0.83106857  0.16656231  1
  Pb  Pb48  1  0.49977657  0.16680353  0.83187570  1
  Pb  Pb49  1  0.49992840  0.83330753  0.83374358  1
  Pb  Pb50  1  0.83155119  0.16405039  0.50313330  1
  Pb  Pb51  1  0.83517106  0.16718948  0.16478189  1
  Pb  Pb52  1  0.16637369  0.50343906  0.50350439  1
  Pb  Pb53  1  0.16532519  0.49801865  0.16470760  1
  I  I54  1  0.16509168  0.00280086  0.16099801  1
  I  I55  1  0.16278461  -0.00332569  0.50572444  1
  I  I56  1  0.16012544  -0.00023244  0.83253110  1
  I  I57  1  0.16618943  0.33029654  0.16072711  1
  I  I58  1  0.16922773  0.33320303  0.49999473  1
  I  I59  1  0.16081121  0.33302273  0.83911349  1
  I  I60  1  0.16935597  0.66663006  0.16681988  1
  I  I61  1  0.16251089  0.67139153  0.50299040  1
  I  I62  1  0.15962109  0.66721307  0.82952559  1
  I  I63  1  0.50049657  0.00032217  0.16783473  1
  I  I64  1  0.49980492  0.00233219  0.49998362  1
  I  I65  1  0.50108441  0.00009850  0.83325988  1
  I  I66  1  0.50848216  0.33655348  0.16614579  1
  I  I67  1  0.49859303  0.33023885  0.50201325  1
  I  I68  1  0.50007481  0.33338623  0.83227820  1
  I  I69  1  0.49927788  0.66324937  0.16622611  1
  I  I70  1  0.49991164  0.66665245  0.49991359  1
  I  I71  1  0.49951859  0.66658695  0.83238029  1
  I  I72  1  0.83642001  -0.00255905  0.16571485  1
  I  I73  1  0.83707575  -0.00402848  0.49942746  1
  I  I74  1  0.83937318  -0.00083983  0.83264278  1
  I  I75  1  0.82995674  0.33624427  0.16061114  1
  I  I76  1  0.83127948  0.33308935  0.49971690  1
  I  I77  1  0.83919820  0.33385287  0.83889195  1
  I  I78  1  0.83045430  0.66677249  0.16183125  1
  I  I79  1  0.83609938  0.67069704  0.50451508  1
  I  I80  1  0.83907825  0.66706033  0.83485699  1
  I  I81  1  0.16350831  0.16457635  -0.00216875  1
  I  I82  1  0.16871630  0.16581040  0.33154252  1
  I  I83  1  0.16401878  0.16784877  0.67036529  1
  I  I84  1  0.16497127  0.50487567  -0.00367258  1
  I  I85  1  0.16745034  0.49852516  0.33327675  1
  I  I86  1  0.16014344  0.49352816  0.67177356  1
  I  I87  1  0.16209703  0.83172479  -0.00349924  1
  I  I88  1  0.16223948  0.83686604  0.33544894  1
  I  I89  1  0.15821545  0.83576115  0.66820218  1
  I  I90  1  0.50078621  0.16719847  0.00021388  1
  I  I91  1  0.49909567  0.16559461  0.33605892  1
  I  I92  1  0.49840623  0.16572665  0.66427348  1
  I  I93  1  0.50262754  0.49882688  0.00283121  1
  I  I94  1  0.50674899  0.50036375  0.32922498  1
  I  I95  1  0.50012033  0.49944832  0.66659636  1
  I  I96  1  0.49823055  0.83506445  0.00022693  1
  I  I97  1  0.49900814  0.83403908  0.33324614  1
  I  I98  1  0.50395626  0.83295110  0.66671154  1
  I  I99  1  0.83498584  0.16203028  -0.00356726  1
  I  I100  1  0.83425072  0.16634288  0.33338753  1
  I  I101  1  0.84021492  0.16761840  0.67137364  1
  I  I102  1  0.83314940  0.50519750  -0.00095204  1
  I  I103  1  0.82852818  0.50459199  0.33019368  1
  I  I104  1  0.83774486  0.49991265  0.67050583  1
  I  I105  1  0.83747457  0.83161045  -0.00116502  1
  I  I106  1  0.83719781  0.82845305  0.33319828  1
  I  I107  1  0.83764186  0.83433430  0.66794936  1
  I  I108  1  0.00292886  0.16773600  0.16470212  1
  I  I109  1  -0.00003735  0.16747652  0.49808128  1
  I  I110  1  0.00038165  0.16602137  0.83643567  1
  I  I111  1  -0.00345943  0.50453960  0.16288429  1
  I  I112  1  0.00005047  0.49529528  0.49366110  1
  I  I113  1  -0.00098402  0.50078883  0.83946615  1
  I  I114  1  -0.00372846  0.82666815  0.16565340  1
  I  I115  1  -0.00066296  0.83460860  0.50231700  1
  I  I116  1  -0.00069669  0.83345191  0.83243935  1
  I  I117  1  0.32964142  0.16695601  0.15928527  1
  I  I118  1  0.33542330  0.16422641  0.50121330  1
  I  I119  1  0.32956996  0.16636444  0.83571657  1
  I  I120  1  0.33472312  0.49690943  0.16532154  1
  I  I121  1  0.33313506  0.50201243  0.49965673  1
  I  I122  1  0.33002601  0.49937755  0.83444795  1
  I  I123  1  0.33302071  0.83282725  0.16742389  1
  I  I124  1  0.33020049  0.83530097  0.50641218  1
  I  I125  1  0.32930274  0.83372454  0.82748717  1
  I  I126  1  0.66695261  0.16457401  0.16619168  1
  I  I127  1  0.66419963  0.16455105  0.50045638  1
  I  I128  1  0.67002865  0.16560077  0.83188675  1
  I  I129  1  0.66867876  0.50348133  0.16068111  1
  I  I130  1  0.66696633  0.50260314  0.50528366  1
  I  I131  1  0.67047046  0.50051728  0.83495811  1
  I  I132  1  0.67170269  0.83404452  0.16578080  1
  I  I133  1  0.67009668  0.83421057  0.50200282  1
  I  I134  1  0.67108210  0.83313110  0.83188792  1
