# generated using pymatgen
data_Cs27Sn13Pb14I81
_symmetry_space_group_name_H-M   'P 1'
_cell_length_a   18.99882451
_cell_length_b   18.98420998
_cell_length_c   18.99028700
_cell_angle_alpha   90.00419639
_cell_angle_beta   89.99997942
_cell_angle_gamma   89.99742774
_symmetry_Int_Tables_number   1
_chemical_formula_structural   Cs27Sn13Pb14I81
_chemical_formula_sum   'Cs27 Sn13 Pb14 I81'
_cell_volume   6849.37251702
_cell_formula_units_Z   1
loop_
 _symmetry_equiv_pos_site_id
 _symmetry_equiv_pos_as_xyz
  1  'x, y, z'
loop_
 _atom_site_type_symbol
 _atom_site_label
 _atom_site_symmetry_multiplicity
 _atom_site_fract_x
 _atom_site_fract_y
 _atom_site_fract_z
 _atom_site_occupancy
  Cs  Cs0  1  0.00342775  0.00123502  -0.00100669  1
  Cs  Cs1  1  -0.00097192  0.00210035  0.33652600  1
  Cs  Cs2  1  -0.00109348  0.00076404  0.66526847  1
  Cs  Cs3  1  -0.00091902  0.33186931  0.00196912  1
  Cs  Cs4  1  0.00070685  0.33175493  0.33569427  1
  Cs  Cs5  1  0.00538268  0.33359416  0.66046783  1
  Cs  Cs6  1  -0.01074584  0.66614754  0.00033432  1
  Cs  Cs7  1  -0.00189313  0.66629586  0.32673099  1
  Cs  Cs8  1  0.00366547  0.66523728  0.67114422  1
  Cs  Cs9  1  0.33124674  0.00017959  -0.00103583  1
  Cs  Cs10  1  0.33505675  -0.00311875  0.33123095  1
  Cs  Cs11  1  0.33281566  -0.00198116  0.67004137  1
  Cs  Cs12  1  0.33516779  0.33179255  0.00033183  1
  Cs  Cs13  1  0.33416645  0.33399451  0.33305299  1
  Cs  Cs14  1  0.33422417  0.33782009  0.66634349  1
  Cs  Cs15  1  0.33203543  0.66909948  0.00029054  1
  Cs  Cs16  1  0.33621217  0.66873950  0.33216787  1
  Cs  Cs17  1  0.33042592  0.66651401  0.66784362  1
  Cs  Cs18  1  0.66726326  0.00353130  -0.00175471  1
  Cs  Cs19  1  0.66416254  -0.00513219  0.33883072  1
  Cs  Cs20  1  0.66876251  -0.00306271  0.66435259  1
  Cs  Cs21  1  0.66500195  0.33249262  0.00005762  1
  Cs  Cs22  1  0.66522154  0.33426833  0.33285382  1
  Cs  Cs23  1  0.66119290  0.33374391  0.66544563  1
  Cs  Cs24  1  0.68128932  0.66540127  -0.00094893  1
  Cs  Cs25  1  0.66551859  0.66844868  0.33463291  1
  Cs  Cs26  1  0.67045167  0.66932016  0.66605008  1
  Sn  Sn27  1  0.16747947  0.83404982  0.83273342  1
  Sn  Sn28  1  0.49931970  0.49966903  0.16681373  1
  Sn  Sn29  1  0.49966587  0.83289746  0.83402228  1
  Sn  Sn30  1  0.16759043  0.49922964  0.16624327  1
  Sn  Sn31  1  0.16599935  0.16655132  0.83362995  1
  Sn  Sn32  1  0.83444022  0.16712746  0.83327436  1
  Sn  Sn33  1  0.83267451  0.49972307  0.50002662  1
  Sn  Sn34  1  0.49942624  0.16694498  0.49943307  1
  Sn  Sn35  1  0.50065743  0.49951952  0.49932391  1
  Sn  Sn36  1  0.16677918  0.83341764  0.50032989  1
  Sn  Sn37  1  0.49995013  0.16708201  0.16769735  1
  Sn  Sn38  1  0.16680501  0.16744160  0.16617094  1
  Sn  Sn39  1  0.83317823  0.16668218  0.16652585  1
  Pb  Pb40  1  0.83279128  0.49742729  0.16838560  1
  Pb  Pb41  1  0.16675077  0.49976049  0.83646638  1
  Pb  Pb42  1  0.83315473  0.83711791  0.16695164  1
  Pb  Pb43  1  0.83427110  0.83598480  0.83323965  1
  Pb  Pb44  1  0.49960074  0.16548326  0.83343059  1
  Pb  Pb45  1  0.16662907  0.83347186  0.16585107  1
  Pb  Pb46  1  0.16929970  0.16523081  0.49988759  1
  Pb  Pb47  1  0.50007326  0.50299866  0.83402016  1
  Pb  Pb48  1  0.83645100  0.83036020  0.50012600  1
  Pb  Pb49  1  0.83342554  0.49616525  0.83039614  1
  Pb  Pb50  1  0.49832820  0.83270350  0.50194257  1
  Pb  Pb51  1  0.83084323  0.16820112  0.50004043  1
  Pb  Pb52  1  0.16743461  0.50230797  0.49736244  1
  Pb  Pb53  1  0.50026022  0.83288963  0.16383221  1
  I  I54  1  0.16746012  0.00352666  0.16526689  1
  I  I55  1  0.16909547  -0.00244281  0.49964749  1
  I  I56  1  0.16720358  0.00093773  0.83596162  1
  I  I57  1  0.16765752  0.33163584  0.16186927  1
  I  I58  1  0.16534790  0.33341522  0.50288655  1
  I  I59  1  0.16264277  0.32981368  0.83562180  1
  I  I60  1  0.17309992  0.66382763  0.16917120  1
  I  I61  1  0.16837467  0.66978542  0.50620869  1
  I  I62  1  0.17209587  0.66963541  0.82939843  1
  I  I63  1  0.49876051  0.00359054  0.17021226  1
  I  I64  1  0.49858641  0.00244364  0.49570036  1
  I  I65  1  0.49778208  -0.00213285  0.83294776  1
  I  I66  1  0.49880827  0.33225792  0.17021975  1
  I  I67  1  0.50282612  0.33347881  0.49704176  1
  I  I68  1  0.49980188  0.33333920  0.83223024  1
  I  I69  1  0.49273744  0.66304176  0.17185374  1
  I  I70  1  0.50270232  0.66347780  0.49534487  1
  I  I71  1  0.49092845  0.67061999  0.83191328  1
  I  I72  1  0.83456726  0.00564733  0.16309345  1
  I  I73  1  0.83189261  0.00028629  0.49966087  1
  I  I74  1  0.83408432  0.00380519  0.83734493  1
  I  I75  1  0.83370275  0.32957193  0.16261175  1
  I  I76  1  0.83263191  0.33591192  0.49983888  1
  I  I77  1  0.83843428  0.32854878  0.83947517  1
  I  I78  1  0.83429501  0.66605314  0.16718993  1
  I  I79  1  0.82433991  0.66277688  0.49832761  1
  I  I80  1  0.83340534  0.66657105  0.83306186  1
  I  I81  1  0.16803271  0.16404745  0.00054772  1
  I  I82  1  0.16379161  0.16877530  0.33016514  1
  I  I83  1  0.16279288  0.16315878  0.66936154  1
  I  I84  1  0.17354531  0.49945696  0.00439096  1
  I  I85  1  0.16748316  0.49422199  0.32981403  1
  I  I86  1  0.16668147  0.49812789  0.66658697  1
  I  I87  1  0.17158102  0.83640044  -0.00311947  1
  I  I88  1  0.16707619  0.83326218  0.33516158  1
  I  I89  1  0.17082397  0.83846198  0.66807615  1
  I  I90  1  0.50016347  0.16969260  0.00308341  1
  I  I91  1  0.49974215  0.16995412  0.33214023  1
  I  I92  1  0.50026123  0.16982829  0.66432646  1
  I  I93  1  0.49469635  0.49414341  0.00373265  1
  I  I94  1  0.49951361  0.49539100  0.33303824  1
  I  I95  1  0.50358678  0.49515904  0.66358400  1
  I  I96  1  0.49074998  0.83612661  -0.00352292  1
  I  I97  1  0.49788000  0.83459887  0.33328878  1
  I  I98  1  0.49687979  0.83569589  0.66951441  1
  I  I99  1  0.83175628  0.16652953  0.00070522  1
  I  I100  1  0.83733288  0.16890209  0.33048579  1
  I  I101  1  0.83734325  0.16723625  0.66918083  1
  I  I102  1  0.83332560  0.50270712  0.00025394  1
  I  I103  1  0.83238571  0.49691130  0.33586976  1
  I  I104  1  0.82613881  0.49871727  0.66278971  1
  I  I105  1  0.83480609  0.82813630  -0.00015062  1
  I  I106  1  0.83547753  0.83624342  0.33372653  1
  I  I107  1  0.83052696  0.83649163  0.66669535  1
  I  I108  1  0.00089984  0.16996728  0.16120643  1
  I  I109  1  0.00016594  0.16720680  0.49781302  1
  I  I110  1  0.00123447  0.16060158  0.84185345  1
  I  I111  1  0.00220505  0.49698132  0.16830310  1
  I  I112  1  -0.00156253  0.50111996  0.49897000  1
  I  I113  1  0.00013269  0.50560648  0.83295168  1
  I  I114  1  0.00025760  0.83013253  0.16535457  1
  I  I115  1  0.00404496  0.83442604  0.50665417  1
  I  I116  1  0.00351034  0.83595515  0.82951926  1
  I  I117  1  0.33325643  0.17050871  0.16589626  1
  I  I118  1  0.33696505  0.17276070  0.49652608  1
  I  I119  1  0.33056174  0.16318170  0.83705510  1
  I  I120  1  0.33407234  0.49140351  0.17239913  1
  I  I121  1  0.33643583  0.49695841  0.49769496  1
  I  I122  1  0.33338006  0.49557629  0.82848384  1
  I  I123  1  0.33335401  0.83753096  0.16796106  1
  I  I124  1  0.33072604  0.83224086  0.50263988  1
  I  I125  1  0.33180219  0.84021764  0.82988254  1
  I  I126  1  0.66588986  0.17100097  0.16477262  1
  I  I127  1  0.66302550  0.16735041  0.49689673  1
  I  I128  1  0.66841554  0.16502553  0.83685942  1
  I  I129  1  0.66352852  0.49554666  0.16859370  1
  I  I130  1  0.66484343  0.49558021  0.49412878  1
  I  I131  1  0.66666194  0.50077622  0.83822613  1
  I  I132  1  0.66643377  0.83249945  0.16451693  1
  I  I133  1  0.66647621  0.83564059  0.50213658  1
  I  I134  1  0.66458973  0.83491408  0.83380557  1
