# generated using pymatgen
data_Cs27Sn13Pb14I81
_symmetry_space_group_name_H-M   'P 1'
_cell_length_a   18.97327213
_cell_length_b   18.97325605
_cell_length_c   18.98203416
_cell_angle_alpha   90.00297296
_cell_angle_beta   90.00242251
_cell_angle_gamma   90.00217400
_symmetry_Int_Tables_number   1
_chemical_formula_structural   Cs27Sn13Pb14I81
_chemical_formula_sum   'Cs27 Sn13 Pb14 I81'
_cell_volume   6833.24280610
_cell_formula_units_Z   1
loop_
 _symmetry_equiv_pos_site_id
 _symmetry_equiv_pos_as_xyz
  1  'x, y, z'
loop_
 _atom_site_type_symbol
 _atom_site_label
 _atom_site_symmetry_multiplicity
 _atom_site_fract_x
 _atom_site_fract_y
 _atom_site_fract_z
 _atom_site_occupancy
  Cs  Cs0  1  0.00037257  -0.00021508  0.00111385  1
  Cs  Cs1  1  -0.00528588  -0.00253219  0.33113868  1
  Cs  Cs2  1  -0.00088939  0.00151844  0.66740637  1
  Cs  Cs3  1  0.00062196  0.33201918  -0.00255860  1
  Cs  Cs4  1  0.00687147  0.33416519  0.33558647  1
  Cs  Cs5  1  -0.00060848  0.33316254  0.66720884  1
  Cs  Cs6  1  0.00463679  0.66850134  0.00165650  1
  Cs  Cs7  1  0.00120124  0.66869651  0.33366546  1
  Cs  Cs8  1  -0.00664375  0.66501228  0.66478659  1
  Cs  Cs9  1  0.33244070  -0.00173688  -0.00525716  1
  Cs  Cs10  1  0.33505039  0.00155912  0.33940386  1
  Cs  Cs11  1  0.33476682  -0.00095813  0.66690845  1
  Cs  Cs12  1  0.33211462  0.33381249  -0.00040275  1
  Cs  Cs13  1  0.33029013  0.33269082  0.33725398  1
  Cs  Cs14  1  0.33188251  0.33029873  0.66472421  1
  Cs  Cs15  1  0.33212172  0.66840170  0.00066492  1
  Cs  Cs16  1  0.33434782  0.66517111  0.33219066  1
  Cs  Cs17  1  0.33557513  0.67071496  0.66732729  1
  Cs  Cs18  1  0.66683231  0.00387980  0.00025132  1
  Cs  Cs19  1  0.67007588  -0.00004170  0.32943138  1
  Cs  Cs20  1  0.66703842  0.00096889  0.66892114  1
  Cs  Cs21  1  0.66648753  0.33409883  0.00228440  1
  Cs  Cs22  1  0.66360778  0.33133400  0.32647358  1
  Cs  Cs23  1  0.66889284  0.33444061  0.66822161  1
  Cs  Cs24  1  0.66420569  0.66159099  0.00022780  1
  Cs  Cs25  1  0.66506812  0.66833228  0.33464443  1
  Cs  Cs26  1  0.66882840  0.66530308  0.66481620  1
  Sn  Sn27  1  0.50034911  0.50073216  0.16689626  1
  Sn  Sn28  1  0.49883922  0.49974632  0.83314310  1
  Sn  Sn29  1  0.83401426  0.16589543  0.83276964  1
  Sn  Sn30  1  0.83370206  0.50023252  0.16689116  1
  Sn  Sn31  1  0.49989259  0.83312584  0.16700582  1
  Sn  Sn32  1  0.50008836  0.50026527  0.49996864  1
  Sn  Sn33  1  0.16608729  0.16719341  0.83402450  1
  Sn  Sn34  1  0.16672501  0.83309486  0.50008919  1
  Sn  Sn35  1  0.16746749  0.49972246  0.83303671  1
  Sn  Sn36  1  0.49948084  0.83267214  0.49917958  1
  Sn  Sn37  1  0.83322933  0.83384505  0.83374381  1
  Sn  Sn38  1  0.16702200  0.16634178  0.16605714  1
  Sn  Sn39  1  0.83303519  0.16703841  0.50027332  1
  Pb  Pb40  1  0.16739802  0.49876646  0.16496248  1
  Pb  Pb41  1  0.50257566  0.16630208  0.49998951  1
  Pb  Pb42  1  0.83356441  0.49952493  0.83486140  1
  Pb  Pb43  1  0.49725559  0.16660511  0.16657735  1
  Pb  Pb44  1  0.83092421  0.49770832  0.49717498  1
  Pb  Pb45  1  0.50212272  0.83109084  0.83324924  1
  Pb  Pb46  1  0.83104561  0.83105820  0.16422699  1
  Pb  Pb47  1  0.16880221  0.50224986  0.50274343  1
  Pb  Pb48  1  0.49995778  0.16925285  0.83330241  1
  Pb  Pb49  1  0.16926884  0.83575620  0.16883480  1
  Pb  Pb50  1  0.83538228  0.16870882  0.16613146  1
  Pb  Pb51  1  0.83241795  0.83488832  0.50140537  1
  Pb  Pb52  1  0.16471952  0.83336379  0.83145960  1
  Pb  Pb53  1  0.16471363  0.16461034  0.50069956  1
  I  I54  1  0.16624551  0.00339759  0.15917244  1
  I  I55  1  0.17435895  -0.00293909  0.50209927  1
  I  I56  1  0.16346531  0.00285301  0.83584600  1
  I  I57  1  0.16766584  0.33073333  0.16515586  1
  I  I58  1  0.16741114  0.33331559  0.49861122  1
  I  I59  1  0.16485662  0.33272825  0.83659357  1
  I  I60  1  0.16472169  0.66675555  0.16533400  1
  I  I61  1  0.16736201  0.66994229  0.50102717  1
  I  I62  1  0.16936485  0.66413482  0.83259873  1
  I  I63  1  0.49894599  -0.00297639  0.17254338  1
  I  I64  1  0.49719942  -0.00341991  0.49564031  1
  I  I65  1  0.49847969  -0.00019573  0.83329807  1
  I  I66  1  0.50348627  0.33678340  0.16648472  1
  I  I67  1  0.50185107  0.33648573  0.49915655  1
  I  I68  1  0.50130612  0.33769420  0.83403306  1
  I  I69  1  0.50350414  0.66543128  0.16717875  1
  I  I70  1  0.49684972  0.66651559  0.49950983  1
  I  I71  1  0.49653123  0.66290484  0.83411360  1
  I  I72  1  0.83225118  0.00007332  0.16781936  1
  I  I73  1  0.83220319  0.00284581  0.50189958  1
  I  I74  1  0.83798623  0.00141835  0.82986840  1
  I  I75  1  0.82504485  0.33631841  0.16417197  1
  I  I76  1  0.83366333  0.33017551  0.50813440  1
  I  I77  1  0.83461918  0.33070644  0.83097057  1
  I  I78  1  0.83172422  0.66323644  0.16426956  1
  I  I79  1  0.83487808  0.66660710  0.50219539  1
  I  I80  1  0.83257671  0.66817692  0.83417546  1
  I  I81  1  0.16139164  0.17035480  -0.00174030  1
  I  I82  1  0.16578926  0.16628199  0.33160351  1
  I  I83  1  0.16386144  0.16994854  0.66980947  1
  I  I84  1  0.17123525  0.49861382  -0.00315459  1
  I  I85  1  0.16678315  0.49757090  0.33348463  1
  I  I86  1  0.17024941  0.49320901  0.67066427  1
  I  I87  1  0.16710786  0.83228761  -0.00014114  1
  I  I88  1  0.16731554  0.83492259  0.33660472  1
  I  I89  1  0.17430783  0.83519834  0.66390776  1
  I  I90  1  0.50426723  0.16659236  -0.00009141  1
  I  I91  1  0.49962868  0.17112643  0.33330317  1
  I  I92  1  0.49653282  0.16678775  0.66669677  1
  I  I93  1  0.50082388  0.50309110  0.00040676  1
  I  I94  1  0.50554096  0.50420812  0.33299351  1
  I  I95  1  0.49592348  0.50368380  0.66663901  1
  I  I96  1  0.50211701  0.82845331  0.00231551  1
  I  I97  1  0.49679117  0.82510039  0.33385505  1
  I  I98  1  0.49780430  0.82918003  0.66390749  1
  I  I99  1  0.83569848  0.16463130  -0.00301117  1
  I  I100  1  0.83396964  0.16778490  0.33514564  1
  I  I101  1  0.83832204  0.16401524  0.66834271  1
  I  I102  1  0.82626045  0.49825354  0.00232400  1
  I  I103  1  0.82797270  0.49839777  0.32964813  1
  I  I104  1  0.83201481  0.50106794  0.66670478  1
  I  I105  1  0.83310682  0.83986071  -0.00339891  1
  I  I106  1  0.83476732  0.83508175  0.33323034  1
  I  I107  1  0.83176811  0.83401485  0.66938422  1
  I  I108  1  0.00294798  0.16923486  0.16492769  1
  I  I109  1  -0.00290570  0.16465026  0.50184989  1
  I  I110  1  0.00016080  0.16945810  0.83311434  1
  I  I111  1  -0.00177643  0.49672521  0.16282001  1
  I  I112  1  -0.00001855  0.50131073  0.50001154  1
  I  I113  1  0.00225174  0.49860928  0.83605111  1
  I  I114  1  0.00003968  0.83183237  0.16813030  1
  I  I115  1  0.00173771  0.83636134  0.50305549  1
  I  I116  1  -0.00296944  0.83229206  0.83069429  1
  I  I117  1  0.32965470  0.16887072  0.16037330  1
  I  I118  1  0.33331317  0.16778850  0.50015721  1
  I  I119  1  0.33016683  0.16920932  0.83735055  1
  I  I120  1  0.33678119  0.50250963  0.16745128  1
  I  I121  1  0.33721111  0.49998277  0.49463598  1
  I  I122  1  0.33379840  0.49512452  0.83554667  1
  I  I123  1  0.33715355  0.82558901  0.16646682  1
  I  I124  1  0.33479447  0.83079380  0.49784361  1
  I  I125  1  0.33353045  0.83525726  0.83410670  1
  I  I126  1  0.66664187  0.16614277  0.16650053  1
  I  I127  1  0.67022046  0.16564154  0.50668068  1
  I  I128  1  0.66975850  0.16410323  0.82927275  1
  I  I129  1  0.66479487  0.50163462  0.16363471  1
  I  I130  1  0.66265448  0.50665151  0.50585730  1
  I  I131  1  0.66404858  0.50078591  0.83259541  1
  I  I132  1  0.66303668  0.83209249  0.17354225  1
  I  I133  1  0.66333127  0.82971216  0.49768206  1
  I  I134  1  0.66975327  0.83823376  0.83152550  1
