# generated using pymatgen
data_Cs27Sn14Pb13I81
_symmetry_space_group_name_H-M   'P 1'
_cell_length_a   18.98490654
_cell_length_b   18.97157741
_cell_length_c   18.97146739
_cell_angle_alpha   90.00305206
_cell_angle_beta   90.00056094
_cell_angle_gamma   90.00139513
_symmetry_Int_Tables_number   1
_chemical_formula_structural   Cs27Sn14Pb13I81
_chemical_formula_sum   'Cs27 Sn14 Pb13 I81'
_cell_volume   6833.02214968
_cell_formula_units_Z   1
loop_
 _symmetry_equiv_pos_site_id
 _symmetry_equiv_pos_as_xyz
  1  'x, y, z'
loop_
 _atom_site_type_symbol
 _atom_site_label
 _atom_site_symmetry_multiplicity
 _atom_site_fract_x
 _atom_site_fract_y
 _atom_site_fract_z
 _atom_site_occupancy
  Cs  Cs0  1  -0.00016935  0.00160139  -0.00047973  1
  Cs  Cs1  1  -0.00225561  -0.00061555  0.33268651  1
  Cs  Cs2  1  -0.00228441  0.00039340  0.66821058  1
  Cs  Cs3  1  -0.00107150  0.33037272  0.00328886  1
  Cs  Cs4  1  0.00091359  0.33501805  0.33118452  1
  Cs  Cs5  1  0.00004782  0.33938875  0.66412502  1
  Cs  Cs6  1  0.00633049  0.66743880  0.00248557  1
  Cs  Cs7  1  -0.00084854  0.66526302  0.33204267  1
  Cs  Cs8  1  0.00191290  0.66074860  0.66611544  1
  Cs  Cs9  1  0.33061123  -0.00122263  -0.00144169  1
  Cs  Cs10  1  0.33773850  0.00167085  0.33651561  1
  Cs  Cs11  1  0.33526495  -0.00019281  0.66527662  1
  Cs  Cs12  1  0.33473462  0.33572575  0.00190291  1
  Cs  Cs13  1  0.33268041  0.32927031  0.33378749  1
  Cs  Cs14  1  0.33006019  0.33378239  0.66341866  1
  Cs  Cs15  1  0.33113086  0.66430813  0.00001583  1
  Cs  Cs16  1  0.33770189  0.66987100  0.33274953  1
  Cs  Cs17  1  0.33327255  0.66744325  0.66793504  1
  Cs  Cs18  1  0.66945616  0.00108123  -0.00393064  1
  Cs  Cs19  1  0.66658278  -0.00095447  0.33378230  1
  Cs  Cs20  1  0.66689106  -0.00140414  0.66786115  1
  Cs  Cs21  1  0.66560112  0.33459897  -0.00002107  1
  Cs  Cs22  1  0.66587624  0.33170609  0.33127322  1
  Cs  Cs23  1  0.66930820  0.33542082  0.66963617  1
  Cs  Cs24  1  0.66246065  0.66390299  0.00140591  1
  Cs  Cs25  1  0.66508091  0.66953210  0.33471991  1
  Cs  Cs26  1  0.66616019  0.66763375  0.66411833  1
  Sn  Sn27  1  0.83370034  0.49955910  0.16655888  1
  Sn  Sn28  1  0.50015798  0.83270652  0.50107077  1
  Sn  Sn29  1  0.83359510  0.16633565  0.83294963  1
  Sn  Sn30  1  0.16610795  0.49931077  0.16704307  1
  Sn  Sn31  1  0.16605114  0.16706441  0.16615583  1
  Sn  Sn32  1  0.50000397  0.16612433  0.83318776  1
  Sn  Sn33  1  0.83382084  0.16726808  0.16666336  1
  Sn  Sn34  1  0.83295582  0.83329997  0.83258605  1
  Sn  Sn35  1  0.16612861  0.83366789  0.50000062  1
  Sn  Sn36  1  0.16635642  0.16677229  0.83355870  1
  Sn  Sn37  1  0.83389643  0.83393568  0.50108073  1
  Sn  Sn38  1  0.50021036  0.50006855  0.50016072  1
  Sn  Sn39  1  0.50079456  0.83412911  0.83277897  1
  Sn  Sn40  1  0.83343176  0.16634873  0.50027149  1
  Pb  Pb41  1  0.50260219  0.16624885  0.50244344  1
  Pb  Pb42  1  0.49987436  0.49976917  0.16906017  1
  Pb  Pb43  1  0.50010048  0.83370890  0.16563261  1
  Pb  Pb44  1  0.50007027  0.50037881  0.83103877  1
  Pb  Pb45  1  0.50011720  0.16632765  0.16377988  1
  Pb  Pb46  1  0.16667696  0.83431408  0.16901452  1
  Pb  Pb47  1  0.16891049  0.50239105  0.49739191  1
  Pb  Pb48  1  0.16628118  0.83527102  0.83135152  1
  Pb  Pb49  1  0.16654342  0.49688991  0.83570628  1
  Pb  Pb50  1  0.16413355  0.16499745  0.49981176  1
  Pb  Pb51  1  0.83319186  0.83366564  0.16594804  1
  Pb  Pb52  1  0.83185928  0.50033372  0.49788660  1
  Pb  Pb53  1  0.83341671  0.50070027  0.83592160  1
  I  I54  1  0.16093010  0.00372647  0.16269879  1
  I  I55  1  0.17210674  -0.00286298  0.49782142  1
  I  I56  1  0.16587764  0.00346955  0.84039663  1
  I  I57  1  0.16181534  0.33208724  0.16319494  1
  I  I58  1  0.16778986  0.33314743  0.50203289  1
  I  I59  1  0.16592710  0.32832973  0.83281829  1
  I  I60  1  0.16189973  0.66411402  0.16934551  1
  I  I61  1  0.16120636  0.67043014  0.49922901  1
  I  I62  1  0.16765744  0.66688603  0.83471669  1
  I  I63  1  0.49930463  0.00027113  0.17351715  1
  I  I64  1  0.49835321  -0.00315233  0.50158703  1
  I  I65  1  0.50136698  -0.00021341  0.82756589  1
  I  I66  1  0.50070030  0.33303031  0.16770873  1
  I  I67  1  0.50194293  0.33505083  0.50021737  1
  I  I68  1  0.50170065  0.33014532  0.83290165  1
  I  I69  1  0.49997664  0.66651820  0.16292743  1
  I  I70  1  0.50221072  0.66899015  0.50426702  1
  I  I71  1  0.50588693  0.67033554  0.83124476  1
  I  I72  1  0.83814048  0.00343784  0.16662578  1
  I  I73  1  0.83120866  -0.00042817  0.49790195  1
  I  I74  1  0.83232324  0.00116471  0.83472713  1
  I  I75  1  0.83715490  0.33151280  0.16706907  1
  I  I76  1  0.83138265  0.33045765  0.50283672  1
  I  I77  1  0.83252100  0.32967325  0.83055052  1
  I  I78  1  0.83754944  0.66412297  0.16782610  1
  I  I79  1  0.83400615  0.67012535  0.50293602  1
  I  I80  1  0.82690951  0.67037533  0.82876817  1
  I  I81  1  0.16199405  0.16897462  0.00004551  1
  I  I82  1  0.16153274  0.16936634  0.33051196  1
  I  I83  1  0.16650243  0.16288651  0.66931225  1
  I  I84  1  0.16324112  0.50097457  0.00386604  1
  I  I85  1  0.16223281  0.49208926  0.32976873  1
  I  I86  1  0.16821883  0.49899737  0.66629100  1
  I  I87  1  0.16713718  0.83111583  -0.00015517  1
  I  I88  1  0.16639009  0.83496231  0.33714720  1
  I  I89  1  0.16716976  0.83598900  0.66339307  1
  I  I90  1  0.50479763  0.16076531  -0.00433146  1
  I  I91  1  0.50001721  0.16638309  0.33372142  1
  I  I92  1  0.49899851  0.16498457  0.67042040  1
  I  I93  1  0.49970809  0.50091325  0.00004032  1
  I  I94  1  0.50094044  0.50798142  0.33676058  1
  I  I95  1  0.50132745  0.50243386  0.66331449  1
  I  I96  1  0.50592427  0.83818105  -0.00433829  1
  I  I97  1  0.50090388  0.82891641  0.33691481  1
  I  I98  1  0.50119990  0.83375987  0.66615368  1
  I  I99  1  0.83372341  0.16601441  -0.00061697  1
  I  I100  1  0.83780229  0.16601887  0.33308174  1
  I  I101  1  0.83261417  0.16089626  0.66742318  1
  I  I102  1  0.83630240  0.49535502  0.00388099  1
  I  I103  1  0.83645660  0.49534817  0.33010004  1
  I  I104  1  0.83143531  0.49669392  0.66653916  1
  I  I105  1  0.82797953  0.83736388  -0.00353791  1
  I  I106  1  0.83213120  0.83657265  0.33644004  1
  I  I107  1  0.83157601  0.84229036  0.66612593  1
  I  I108  1  -0.00094171  0.17040038  0.16204547  1
  I  I109  1  -0.00392951  0.16105269  0.50366662  1
  I  I110  1  -0.00122457  0.16174433  0.83546025  1
  I  I111  1  -0.00031269  0.49515325  0.16790058  1
  I  I112  1  0.00000128  0.50116618  0.50041748  1
  I  I113  1  -0.00009534  0.50240525  0.82906533  1
  I  I114  1  -0.00016886  0.83225921  0.16749225  1
  I  I115  1  -0.00158686  0.83937142  0.50271363  1
  I  I116  1  -0.00311797  0.83843513  0.82959101  1
  I  I117  1  0.33009205  0.17119532  0.16305337  1
  I  I118  1  0.33343552  0.16564529  0.49940525  1
  I  I119  1  0.33332238  0.16248424  0.83820658  1
  I  I120  1  0.33029659  0.49489182  0.16759404  1
  I  I121  1  0.33667530  0.50495178  0.49867745  1
  I  I122  1  0.33335911  0.50019380  0.83610789  1
  I  I123  1  0.33314843  0.83254323  0.16758003  1
  I  I124  1  0.33448905  0.82862759  0.50261603  1
  I  I125  1  0.33600480  0.83815146  0.82866102  1
  I  I126  1  0.67024313  0.17059053  0.16669218  1
  I  I127  1  0.67065790  0.16188514  0.49799862  1
  I  I128  1  0.66780245  0.16249778  0.83315677  1
  I  I129  1  0.66950019  0.49515022  0.16698544  1
  I  I130  1  0.66426697  0.50609538  0.49768594  1
  I  I131  1  0.66678502  0.49457142  0.83723488  1
  I  I132  1  0.66699269  0.83246590  0.17200838  1
  I  I133  1  0.66699887  0.83297243  0.50341810  1
  I  I134  1  0.66702195  0.84275515  0.82514159  1
