# generated using pymatgen
data_Cs27Sn14Pb13I81
_symmetry_space_group_name_H-M   'P 1'
_cell_length_a   18.97466510
_cell_length_b   18.97040444
_cell_length_c   18.98100257
_cell_angle_alpha   89.99954553
_cell_angle_beta   89.99944113
_cell_angle_gamma   90.00010250
_symmetry_Int_Tables_number   1
_chemical_formula_structural   Cs27Sn14Pb13I81
_chemical_formula_sum   'Cs27 Sn14 Pb13 I81'
_cell_volume   6832.34609132
_cell_formula_units_Z   1
loop_
 _symmetry_equiv_pos_site_id
 _symmetry_equiv_pos_as_xyz
  1  'x, y, z'
loop_
 _atom_site_type_symbol
 _atom_site_label
 _atom_site_symmetry_multiplicity
 _atom_site_fract_x
 _atom_site_fract_y
 _atom_site_fract_z
 _atom_site_occupancy
  Cs  Cs0  1  0.00113376  -0.00238074  0.00043539  1
  Cs  Cs1  1  -0.00149867  -0.00280838  0.33267561  1
  Cs  Cs2  1  -0.00043307  -0.00079549  0.66715412  1
  Cs  Cs3  1  0.00171945  0.33075212  -0.00099589  1
  Cs  Cs4  1  0.00037981  0.33483291  0.33330035  1
  Cs  Cs5  1  -0.00085157  0.33058340  0.66706125  1
  Cs  Cs6  1  -0.00008496  0.66811761  0.00085378  1
  Cs  Cs7  1  -0.00023488  0.66642630  0.33273613  1
  Cs  Cs8  1  0.00176945  0.66814848  0.66682197  1
  Cs  Cs9  1  0.33849019  0.00892521  0.00121418  1
  Cs  Cs10  1  0.34289716  0.00101029  0.33510560  1
  Cs  Cs11  1  0.34169738  -0.00129892  0.66325892  1
  Cs  Cs12  1  0.33065260  0.32625525  -0.00033111  1
  Cs  Cs13  1  0.33168576  0.33583990  0.33221660  1
  Cs  Cs14  1  0.33128776  0.33378276  0.66827660  1
  Cs  Cs15  1  0.33224443  0.66615045  -0.00068413  1
  Cs  Cs16  1  0.33182881  0.66504742  0.33491209  1
  Cs  Cs17  1  0.33201692  0.66824576  0.66566695  1
  Cs  Cs18  1  0.65873864  -0.00349609  0.00249114  1
  Cs  Cs19  1  0.66274701  0.00353116  0.33410060  1
  Cs  Cs20  1  0.66122721  0.00947320  0.66479390  1
  Cs  Cs21  1  0.66791054  0.33564983  -0.00870396  1
  Cs  Cs22  1  0.66810778  0.33516503  0.33490249  1
  Cs  Cs23  1  0.66744889  0.32731250  0.67231282  1
  Cs  Cs24  1  0.66667416  0.66695004  -0.00172918  1
  Cs  Cs25  1  0.67008904  0.66464895  0.33112237  1
  Cs  Cs26  1  0.66670047  0.66509443  0.67197889  1
  Sn  Sn27  1  0.16626437  0.83281511  0.83450239  1
  Sn  Sn28  1  0.16662861  0.50066981  0.16623708  1
  Sn  Sn29  1  0.16629595  0.49924563  0.50015348  1
  Sn  Sn30  1  0.83330713  0.83272875  0.50018679  1
  Sn  Sn31  1  0.83302932  0.50072762  0.50000054  1
  Sn  Sn32  1  0.16659647  0.83301833  0.16602500  1
  Sn  Sn33  1  0.83404740  0.83340555  0.16679291  1
  Sn  Sn34  1  0.83331971  0.49973980  0.16690965  1
  Sn  Sn35  1  0.83386652  0.83333498  0.83323541  1
  Sn  Sn36  1  0.83363117  0.16679905  0.16645247  1
  Sn  Sn37  1  0.16622159  0.16676698  0.49947321  1
  Sn  Sn38  1  0.50001826  0.50030021  0.16706386  1
  Sn  Sn39  1  0.16611003  0.50078913  0.83359756  1
  Sn  Sn40  1  0.50056797  0.50040879  0.49963653  1
  Pb  Pb41  1  0.50397130  0.83016551  0.49985753  1
  Pb  Pb42  1  0.83567484  0.50155638  0.83327751  1
  Pb  Pb43  1  0.50336032  0.17056008  0.16687778  1
  Pb  Pb44  1  0.49676878  0.50018955  0.83347176  1
  Pb  Pb45  1  0.16510365  0.16598015  0.16871125  1
  Pb  Pb46  1  0.49989354  0.16689648  0.83341950  1
  Pb  Pb47  1  0.16531303  0.83318723  0.49953718  1
  Pb  Pb48  1  0.16643063  0.16534532  0.83083241  1
  Pb  Pb49  1  0.49928185  0.83302177  0.83343960  1
  Pb  Pb50  1  0.49961334  0.83077696  0.16678290  1
  Pb  Pb51  1  0.83381975  0.16278641  0.83656022  1
  Pb  Pb52  1  0.83502398  0.16701189  0.49823859  1
  Pb  Pb53  1  0.49718688  0.17028473  0.49961185  1
  I  I54  1  0.15956892  -0.00337703  0.16338116  1
  I  I55  1  0.16165729  0.00164492  0.49987109  1
  I  I56  1  0.16093067  -0.00405413  0.83745337  1
  I  I57  1  0.16585246  0.33689799  0.16507342  1
  I  I58  1  0.16480700  0.33662540  0.49926917  1
  I  I59  1  0.16788144  0.33625149  0.83597420  1
  I  I60  1  0.16219450  0.66524209  0.16827205  1
  I  I61  1  0.16815360  0.66320407  0.49981396  1
  I  I62  1  0.16293079  0.66628452  0.83210362  1
  I  I63  1  0.49953392  0.00013868  0.16539926  1
  I  I64  1  0.49877553  0.00012566  0.50159874  1
  I  I65  1  0.49827450  -0.00029498  0.83315259  1
  I  I66  1  0.49692529  0.33855261  0.17194317  1
  I  I67  1  0.50522987  0.33832297  0.49489162  1
  I  I68  1  0.49945663  0.33414932  0.83350859  1
  I  I69  1  0.50393340  0.66266574  0.17096566  1
  I  I70  1  0.49269627  0.66225362  0.49575598  1
  I  I71  1  0.50226340  0.66633405  0.83309458  1
  I  I72  1  0.84034541  -0.00178126  0.16681252  1
  I  I73  1  0.83806078  -0.00279780  0.49862681  1
  I  I74  1  0.84196781  -0.00535152  0.83140225  1
  I  I75  1  0.83390321  0.33546515  0.17331271  1
  I  I76  1  0.83260327  0.33712502  0.49443546  1
  I  I77  1  0.83386541  0.33329786  0.83330379  1
  I  I78  1  0.83407273  0.66624597  0.16792483  1
  I  I79  1  0.83628069  0.66542833  0.49457140  1
  I  I80  1  0.83561355  0.66968900  0.83724698  1
  I  I81  1  0.16585190  0.16984361  0.00027758  1
  I  I82  1  0.16443508  0.17313287  0.33617479  1
  I  I83  1  0.16480981  0.17317905  0.66311885  1
  I  I84  1  0.16610353  0.50480874  0.00120960  1
  I  I85  1  0.16644997  0.50003261  0.33296082  1
  I  I86  1  0.16686575  0.50019040  0.66585895  1
  I  I87  1  0.15695946  0.82346815  0.00085011  1
  I  I88  1  0.16104423  0.82901588  0.33041588  1
  I  I89  1  0.16098280  0.82902535  0.66876913  1
  I  I90  1  0.49889481  0.16856612  0.00063357  1
  I  I91  1  0.49955567  0.16351101  0.33325340  1
  I  I92  1  0.50055508  0.16831368  0.66606766  1
  I  I93  1  0.50242251  0.50094220  0.00327678  1
  I  I94  1  0.49616679  0.50063034  0.33321082  1
  I  I95  1  0.50015477  0.50062893  0.66347918  1
  I  I96  1  0.50526906  0.82985059  0.00028607  1
  I  I97  1  0.49757778  0.83503555  0.33333003  1
  I  I98  1  0.49824249  0.83034408  0.66649478  1
  I  I99  1  0.83576425  0.17156768  0.00443578  1
  I  I100  1  0.83538248  0.16343065  0.33044736  1
  I  I101  1  0.83366362  0.16693083  0.66665328  1
  I  I102  1  0.83238483  0.50043138  0.00340310  1
  I  I103  1  0.83685936  0.50396042  0.33274259  1
  I  I104  1  0.83373639  0.50491092  0.66362329  1
  I  I105  1  0.83787385  0.83258920  0.00126117  1
  I  I106  1  0.83836276  0.83116067  0.33224698  1
  I  I107  1  0.83913814  0.82608759  0.66636889  1
  I  I108  1  -0.00274165  0.17128753  0.16849407  1
  I  I109  1  0.00256668  0.17466245  0.49915023  1
  I  I110  1  0.00007533  0.16995697  0.83243351  1
  I  I111  1  -0.00009526  0.50107600  0.16985728  1
  I  I112  1  0.00005062  0.50016920  0.49651858  1
  I  I113  1  0.00380623  0.50214875  0.83297613  1
  I  I114  1  -0.00088273  0.82826557  0.16620123  1
  I  I115  1  -0.00293551  0.82744210  0.49885379  1
  I  I116  1  0.00019632  0.82851565  0.83477508  1
  I  I117  1  0.33340710  0.16605928  0.16713261  1
  I  I118  1  0.32928471  0.17045115  0.49920935  1
  I  I119  1  0.33266211  0.16600299  0.83418292  1
  I  I120  1  0.33175558  0.50525859  0.17018391  1
  I  I121  1  0.33213896  0.49521783  0.49691434  1
  I  I122  1  0.32847626  0.50647819  0.83237426  1
  I  I123  1  0.32963180  0.82801590  0.16211900  1
  I  I124  1  0.33334994  0.83388559  0.50082256  1
  I  I125  1  0.32913283  0.82808455  0.83727104  1
  I  I126  1  0.67124290  0.16283180  0.16895990  1
  I  I127  1  0.66670815  0.16604098  0.49937988  1
  I  I128  1  0.66730334  0.16690801  0.83200116  1
  I  I129  1  0.66817591  0.50031224  0.17451717  1
  I  I130  1  0.66788959  0.50622901  0.49076745  1
  I  I131  1  0.66693701  0.50131293  0.83361706  1
  I  I132  1  0.67050499  0.83263608  0.16595033  1
  I  I133  1  0.67228013  0.82893238  0.49798070  1
  I  I134  1  0.67010265  0.83226647  0.83551455  1
