# generated using pymatgen
data_Cs27Sn13Pb14I81
_symmetry_space_group_name_H-M   'P 1'
_cell_length_a   18.98100008
_cell_length_b   18.97250017
_cell_length_c   18.97826573
_cell_angle_alpha   90.00024948
_cell_angle_beta   90.00058484
_cell_angle_gamma   89.99972799
_symmetry_Int_Tables_number   1
_chemical_formula_structural   Cs27Sn13Pb14I81
_chemical_formula_sum   'Cs27 Sn13 Pb14 I81'
_cell_volume   6834.39663728
_cell_formula_units_Z   1
loop_
 _symmetry_equiv_pos_site_id
 _symmetry_equiv_pos_as_xyz
  1  'x, y, z'
loop_
 _atom_site_type_symbol
 _atom_site_label
 _atom_site_symmetry_multiplicity
 _atom_site_fract_x
 _atom_site_fract_y
 _atom_site_fract_z
 _atom_site_occupancy
  Cs  Cs0  1  0.00049027  -0.00052624  0.00100326  1
  Cs  Cs1  1  0.00391861  0.00012882  0.33004593  1
  Cs  Cs2  1  -0.00053713  0.00067647  0.66846362  1
  Cs  Cs3  1  0.00246556  0.33157692  0.00121414  1
  Cs  Cs4  1  0.00040327  0.33146535  0.33146040  1
  Cs  Cs5  1  0.00124979  0.33320542  0.66701305  1
  Cs  Cs6  1  -0.00346977  0.66988276  0.00007166  1
  Cs  Cs7  1  0.00543472  0.66746743  0.34063934  1
  Cs  Cs8  1  -0.00220699  0.66614722  0.66084713  1
  Cs  Cs9  1  0.33427733  -0.00084440  -0.00112283  1
  Cs  Cs10  1  0.33427424  -0.00234351  0.33372616  1
  Cs  Cs11  1  0.33576480  0.00161086  0.66739529  1
  Cs  Cs12  1  0.32760295  0.34201262  -0.00079564  1
  Cs  Cs13  1  0.33418968  0.33971282  0.33124393  1
  Cs  Cs14  1  0.33036436  0.33524433  0.67012193  1
  Cs  Cs15  1  0.33298815  0.66122306  0.00181317  1
  Cs  Cs16  1  0.32515328  0.66048061  0.33809696  1
  Cs  Cs17  1  0.33310037  0.65949260  0.66182445  1
  Cs  Cs18  1  0.66675154  -0.00134292  -0.00060441  1
  Cs  Cs19  1  0.66496840  0.00125258  0.33179901  1
  Cs  Cs20  1  0.66580031  0.00046775  0.66784423  1
  Cs  Cs21  1  0.66763879  0.33468099  0.00094964  1
  Cs  Cs22  1  0.66681871  0.33177315  0.33208353  1
  Cs  Cs23  1  0.66715045  0.33114035  0.66688360  1
  Cs  Cs24  1  0.66833145  0.66840316  -0.00046286  1
  Cs  Cs25  1  0.66654159  0.66519390  0.33843994  1
  Cs  Cs26  1  0.66770172  0.66616071  0.66199030  1
  Sn  Sn27  1  0.83353507  0.16603582  0.50054336  1
  Sn  Sn28  1  0.16726033  0.83328998  0.83325093  1
  Sn  Sn29  1  0.49978859  0.83361663  0.83397050  1
  Sn  Sn30  1  0.83273914  0.16674435  0.83295242  1
  Sn  Sn31  1  0.83294698  0.50153916  0.16613671  1
  Sn  Sn32  1  0.49964471  0.16629854  0.50015987  1
  Sn  Sn33  1  0.83293713  0.50001676  0.83419142  1
  Sn  Sn34  1  0.83304411  0.83322741  0.83377649  1
  Sn  Sn35  1  0.16696115  0.16609786  0.49999615  1
  Sn  Sn36  1  0.83234388  0.83234460  0.16638101  1
  Sn  Sn37  1  0.50061117  0.83358271  0.16618886  1
  Sn  Sn38  1  0.50004798  0.16620414  0.16569555  1
  Sn  Sn39  1  0.50049396  0.16641199  0.83423050  1
  Pb  Pb40  1  0.16286654  0.50030439  0.16637369  1
  Pb  Pb41  1  0.50036192  0.49678621  0.50009881  1
  Pb  Pb42  1  0.17061564  0.16639424  0.16887872  1
  Pb  Pb43  1  0.16724889  0.83339900  0.16465592  1
  Pb  Pb44  1  0.16693260  0.16512537  0.83221301  1
  Pb  Pb45  1  0.83326269  0.83603937  0.49950459  1
  Pb  Pb46  1  0.50236862  0.50046719  0.83342002  1
  Pb  Pb47  1  0.16320562  0.50341509  0.83337950  1
  Pb  Pb48  1  0.50000712  0.83484309  0.49985584  1
  Pb  Pb49  1  0.50220484  0.50120128  0.16647964  1
  Pb  Pb50  1  0.16631868  0.49686326  0.50032478  1
  Pb  Pb51  1  0.16681384  0.83561543  0.50291825  1
  Pb  Pb52  1  0.83316254  0.49710645  0.49979950  1
  Pb  Pb53  1  0.83193585  0.16602655  0.16604219  1
  I  I54  1  0.16018053  -0.00001638  0.16740392  1
  I  I55  1  0.16641196  0.00378796  0.50018986  1
  I  I56  1  0.16161042  -0.00272127  0.83231505  1
  I  I57  1  0.16615355  0.33317987  0.16676107  1
  I  I58  1  0.16651865  0.32862754  0.50250693  1
  I  I59  1  0.16672709  0.33343763  0.83118012  1
  I  I60  1  0.17175884  0.66693066  0.16661216  1
  I  I61  1  0.16631195  0.66666810  0.50012027  1
  I  I62  1  0.16880958  0.67137552  0.83459313  1
  I  I63  1  0.50656089  0.00003969  0.16624706  1
  I  I64  1  0.50134948  0.00396721  0.50072241  1
  I  I65  1  0.50470492  0.00052049  0.83296319  1
  I  I66  1  0.50223745  0.33043540  0.16827332  1
  I  I67  1  0.50155941  0.32755876  0.50021884  1
  I  I68  1  0.50488757  0.32975395  0.83203593  1
  I  I69  1  0.50309615  0.67067089  0.15858824  1
  I  I70  1  0.49981875  0.66676733  0.50043584  1
  I  I71  1  0.50071701  0.67062546  0.83956250  1
  I  I72  1  0.83140082  -0.00283528  0.16354161  1
  I  I73  1  0.83173035  0.00430413  0.50487629  1
  I  I74  1  0.83279438  -0.00018575  0.83270101  1
  I  I75  1  0.83163062  0.33484581  0.16419058  1
  I  I76  1  0.83203423  0.32875546  0.50373398  1
  I  I77  1  0.82830525  0.33209033  0.83275567  1
  I  I78  1  0.82736829  0.66804156  0.15613483  1
  I  I79  1  0.83408417  0.66674117  0.50266301  1
  I  I80  1  0.83358584  0.66787717  0.83882301  1
  I  I81  1  0.16519661  0.16589182  -0.00007123  1
  I  I82  1  0.16249129  0.16601157  0.33714967  1
  I  I83  1  0.16976627  0.16442165  0.66410011  1
  I  I84  1  0.16937047  0.49698797  -0.00039526  1
  I  I85  1  0.16501070  0.50008034  0.33344153  1
  I  I86  1  0.16442183  0.50062539  0.66699869  1
  I  I87  1  0.16460186  0.83655425  -0.00344076  1
  I  I88  1  0.16570146  0.83412769  0.33343351  1
  I  I89  1  0.16476050  0.83514745  0.67101034  1
  I  I90  1  0.50737238  0.16139694  -0.00110868  1
  I  I91  1  0.50147366  0.16262602  0.33324676  1
  I  I92  1  0.50186241  0.16250545  0.66748271  1
  I  I93  1  0.49876919  0.49283907  -0.00008212  1
  I  I94  1  0.50372708  0.49876571  0.33314899  1
  I  I95  1  0.50298785  0.50084319  0.66696766  1
  I  I96  1  0.50229280  0.84295941  -0.00092846  1
  I  I97  1  0.50692464  0.83966720  0.32982252  1
  I  I98  1  0.50220389  0.83833565  0.67041087  1
  I  I99  1  0.82902817  0.16649112  -0.00332534  1
  I  I100  1  0.83177839  0.16723130  0.33543321  1
  I  I101  1  0.82912178  0.16650617  0.66815873  1
  I  I102  1  0.83207232  0.49843970  -0.00094437  1
  I  I103  1  0.83209217  0.50279344  0.33023710  1
  I  I104  1  0.83333865  0.50255106  0.66991206  1
  I  I105  1  0.83303703  0.83504916  -0.00143285  1
  I  I106  1  0.82804878  0.83062614  0.32978139  1
  I  I107  1  0.83235291  0.83139378  0.67031982  1
  I  I108  1  -0.00013560  0.16705612  0.16782860  1
  I  I109  1  -0.00103074  0.16676053  0.50612828  1
  I  I110  1  -0.00333365  0.16584902  0.82869636  1
  I  I111  1  -0.00536611  0.50407653  0.16162686  1
  I  I112  1  -0.00050447  0.49713878  0.49997712  1
  I  I113  1  -0.00506054  0.49685995  0.83725360  1
  I  I114  1  -0.00338699  0.83052572  0.16209462  1
  I  I115  1  -0.00019559  0.83741661  0.50028928  1
  I  I116  1  -0.00204327  0.83440247  0.83666494  1
  I  I117  1  0.33897228  0.15944229  0.16532661  1
  I  I118  1  0.33452287  0.16486716  0.50066669  1
  I  I119  1  0.33678058  0.16107268  0.83149840  1
  I  I120  1  0.33341494  0.49897920  0.16810435  1
  I  I121  1  0.33325114  0.49867059  0.49972240  1
  I  I122  1  0.33324166  0.49871912  0.83207046  1
  I  I123  1  0.33722236  0.84081448  0.16201509  1
  I  I124  1  0.33352042  0.83794851  0.50008846  1
  I  I125  1  0.33500717  0.84198439  0.83679621  1
  I  I126  1  0.66386600  0.16574337  0.17094303  1
  I  I127  1  0.66646687  0.16674291  0.50169906  1
  I  I128  1  0.66701242  0.16283716  0.82862639  1
  I  I129  1  0.67014346  0.49983330  0.16173270  1
  I  I130  1  0.66715892  0.49793919  0.50044125  1
  I  I131  1  0.67061010  0.50202363  0.83691246  1
  I  I132  1  0.66702071  0.83498161  0.15839186  1
  I  I133  1  0.66672266  0.83621961  0.50400727  1
  I  I134  1  0.66714312  0.83564336  0.83751801  1
