# generated using pymatgen
data_Cs27Sn13Pb14I81
_symmetry_space_group_name_H-M   'P 1'
_cell_length_a   19.00129852
_cell_length_b   18.98782163
_cell_length_c   18.98756419
_cell_angle_alpha   89.99915242
_cell_angle_beta   90.00087955
_cell_angle_gamma   89.99928024
_symmetry_Int_Tables_number   1
_chemical_formula_structural   Cs27Sn13Pb14I81
_chemical_formula_sum   'Cs27 Sn13 Pb14 I81'
_cell_volume   6850.58531392
_cell_formula_units_Z   1
loop_
 _symmetry_equiv_pos_site_id
 _symmetry_equiv_pos_as_xyz
  1  'x, y, z'
loop_
 _atom_site_type_symbol
 _atom_site_label
 _atom_site_symmetry_multiplicity
 _atom_site_fract_x
 _atom_site_fract_y
 _atom_site_fract_z
 _atom_site_occupancy
  Cs  Cs0  1  -0.00004048  0.00879891  -0.00642797  1
  Cs  Cs1  1  -0.00027097  0.00427864  0.33199326  1
  Cs  Cs2  1  0.00080053  -0.00358239  0.67447356  1
  Cs  Cs3  1  0.00159802  0.32685053  -0.00079344  1
  Cs  Cs4  1  0.00425191  0.33098779  0.33629787  1
  Cs  Cs5  1  -0.00009619  0.33280986  0.66440987  1
  Cs  Cs6  1  -0.00149159  0.66551758  0.00200535  1
  Cs  Cs7  1  0.00104278  0.66557692  0.33856465  1
  Cs  Cs8  1  -0.00035152  0.67168567  0.65694484  1
  Cs  Cs9  1  0.33094093  -0.00125898  -0.00149719  1
  Cs  Cs10  1  0.33619990  0.00023054  0.33619425  1
  Cs  Cs11  1  0.33253763  -0.00796339  0.66362847  1
  Cs  Cs12  1  0.33332523  0.33510136  -0.00095584  1
  Cs  Cs13  1  0.33247328  0.33277526  0.33418162  1
  Cs  Cs14  1  0.33616889  0.33284573  0.66821771  1
  Cs  Cs15  1  0.33473147  0.66496708  0.00133809  1
  Cs  Cs16  1  0.32818683  0.66620086  0.33063978  1
  Cs  Cs17  1  0.33053044  0.67314998  0.66850842  1
  Cs  Cs18  1  0.67013520  -0.00032040  0.00067544  1
  Cs  Cs19  1  0.66456519  0.00214433  0.33362867  1
  Cs  Cs20  1  0.66691651  -0.00874613  0.66427237  1
  Cs  Cs21  1  0.66591165  0.33548954  -0.00085787  1
  Cs  Cs22  1  0.66561747  0.33228889  0.33487269  1
  Cs  Cs23  1  0.66481107  0.33457397  0.66612430  1
  Cs  Cs24  1  0.66524695  0.66521463  0.00136615  1
  Cs  Cs25  1  0.66960031  0.66567782  0.32903832  1
  Cs  Cs26  1  0.67051528  0.67020214  0.66676293  1
  Sn  Sn27  1  0.50050923  0.49964672  0.16703052  1
  Sn  Sn28  1  0.16592823  0.16674558  0.50042589  1
  Sn  Sn29  1  0.50016134  0.49956342  0.83296298  1
  Sn  Sn30  1  0.50002826  0.83328089  0.16643538  1
  Sn  Sn31  1  0.16595431  0.83351176  0.16621032  1
  Sn  Sn32  1  0.49999588  0.16711744  0.16543609  1
  Sn  Sn33  1  0.50026942  0.16674051  0.83371855  1
  Sn  Sn34  1  0.16615649  0.50012013  0.83330326  1
  Sn  Sn35  1  0.49990640  0.50046100  0.50003593  1
  Sn  Sn36  1  0.83318557  0.49996751  0.16608319  1
  Sn  Sn37  1  0.83363654  0.49985630  0.83384961  1
  Sn  Sn38  1  0.83395521  0.83299697  0.16650939  1
  Sn  Sn39  1  0.83394638  0.16677175  0.50035364  1
  Pb  Pb40  1  0.83152157  0.49861419  0.49961724  1
  Pb  Pb41  1  0.83127202  0.16746814  0.16775772  1
  Pb  Pb42  1  0.50012772  0.83297975  0.83577661  1
  Pb  Pb43  1  0.16929421  0.49851938  0.50262734  1
  Pb  Pb44  1  0.16644022  0.83057788  0.83601996  1
  Pb  Pb45  1  0.83340194  0.83048013  0.83615875  1
  Pb  Pb46  1  0.16959185  0.16448103  0.16788557  1
  Pb  Pb47  1  0.83332029  0.83610357  0.49701219  1
  Pb  Pb48  1  0.16611236  0.50112107  0.16510792  1
  Pb  Pb49  1  0.50016450  0.82965570  0.49702191  1
  Pb  Pb50  1  0.83046511  0.16903818  0.83101032  1
  Pb  Pb51  1  0.50008134  0.16795587  0.50070720  1
  Pb  Pb52  1  0.16652151  0.83598059  0.49752093  1
  Pb  Pb53  1  0.16945692  0.16858517  0.83113404  1
  I  I54  1  0.16683229  -0.00354015  0.16813143  1
  I  I55  1  0.16599208  0.00375696  0.49936219  1
  I  I56  1  0.16868516  0.00010843  0.83276859  1
  I  I57  1  0.16710842  0.33314068  0.16701816  1
  I  I58  1  0.16356011  0.33085796  0.49750337  1
  I  I59  1  0.16651768  0.33661501  0.83565376  1
  I  I60  1  0.17282863  0.66912328  0.16530934  1
  I  I61  1  0.16843401  0.66670210  0.50067991  1
  I  I62  1  0.17270198  0.66245593  0.83346008  1
  I  I63  1  0.50006634  0.00008976  0.16298917  1
  I  I64  1  0.49955368  -0.00017692  0.49939098  1
  I  I65  1  0.49928720  0.00286089  0.83786207  1
  I  I66  1  0.50492692  0.33472752  0.16634042  1
  I  I67  1  0.50039122  0.33589873  0.49496457  1
  I  I68  1  0.49981209  0.33519835  0.83882172  1
  I  I69  1  0.50066830  0.66558535  0.16680263  1
  I  I70  1  0.50067602  0.66173010  0.50264653  1
  I  I71  1  0.49998975  0.66266320  0.83426037  1
  I  I72  1  0.83036656  -0.00238535  0.17115004  1
  I  I73  1  0.83423078  0.00390775  0.49761479  1
  I  I74  1  0.83208619  0.00021045  0.83346343  1
  I  I75  1  0.82684856  0.33670200  0.16412221  1
  I  I76  1  0.83536593  0.33098798  0.49657789  1
  I  I77  1  0.83374370  0.33723513  0.84146007  1
  I  I78  1  0.82673320  0.66572254  0.16289825  1
  I  I79  1  0.83150023  0.66656464  0.50195854  1
  I  I80  1  0.82755515  0.66194820  0.83412380  1
  I  I81  1  0.16616413  0.16576111  -0.00023372  1
  I  I82  1  0.16557711  0.16774350  0.33574397  1
  I  I83  1  0.16527317  0.16924548  0.66350651  1
  I  I84  1  0.17289672  0.50062918  -0.00270163  1
  I  I85  1  0.16774050  0.50068251  0.33341175  1
  I  I86  1  0.16731010  0.49819394  0.67055920  1
  I  I87  1  0.16940030  0.83355208  0.00404054  1
  I  I88  1  0.16891583  0.83045076  0.32942566  1
  I  I89  1  0.16755169  0.83325520  0.66670742  1
  I  I90  1  0.50015871  0.17252117  0.00088389  1
  I  I91  1  0.50023842  0.16753364  0.33066862  1
  I  I92  1  0.49989939  0.17571160  0.66928882  1
  I  I93  1  0.50050914  0.49985692  0.00047702  1
  I  I94  1  0.50519741  0.49919589  0.33144233  1
  I  I95  1  0.50020968  0.49130586  0.66814908  1
  I  I96  1  0.50029360  0.82812184  0.00428161  1
  I  I97  1  0.50036909  0.83570304  0.32845502  1
  I  I98  1  0.49888455  0.83480946  0.66667548  1
  I  I99  1  0.83383713  0.16434022  -0.00009652  1
  I  I100  1  0.83347676  0.16877093  0.33550783  1
  I  I101  1  0.83448702  0.17105982  0.66343554  1
  I  I102  1  0.82685403  0.50392614  0.00076150  1
  I  I103  1  0.82684150  0.50327118  0.32999093  1
  I  I104  1  0.83037820  0.49578708  0.66941492  1
  I  I105  1  0.83057201  0.83261493  0.00449585  1
  I  I106  1  0.83163779  0.82477899  0.32880656  1
  I  I107  1  0.83346771  0.83242477  0.66665249  1
  I  I108  1  -0.00001488  0.16623178  0.16745267  1
  I  I109  1  -0.00016536  0.16954806  0.49664964  1
  I  I110  1  -0.00006604  0.16864053  0.83394401  1
  I  I111  1  -0.00326193  0.50542767  0.16227369  1
  I  I112  1  0.00002487  0.49983777  0.49981861  1
  I  I113  1  -0.00077341  0.50063176  0.84062195  1
  I  I114  1  -0.00081984  0.82556499  0.16780034  1
  I  I115  1  -0.00006453  0.82906407  0.49589791  1
  I  I116  1  -0.00009035  0.83254669  0.83713763  1
  I  I117  1  0.33782027  0.16920867  0.16638312  1
  I  I118  1  0.33189752  0.16929693  0.49846510  1
  I  I119  1  0.33717514  0.17456060  0.83626307  1
  I  I120  1  0.33671801  0.50085554  0.16589141  1
  I  I121  1  0.33717769  0.49563641  0.49671277  1
  I  I122  1  0.33524606  0.49562803  0.83432712  1
  I  I123  1  0.33462830  0.83244606  0.16686562  1
  I  I124  1  0.33350772  0.83654175  0.49704866  1
  I  I125  1  0.33350601  0.83092501  0.83637091  1
  I  I126  1  0.66310887  0.16367583  0.16698619  1
  I  I127  1  0.66810563  0.16953271  0.49802202  1
  I  I128  1  0.66280207  0.17412373  0.83614034  1
  I  I129  1  0.66522181  0.50431609  0.16296470  1
  I  I130  1  0.66367045  0.49528263  0.50232069  1
  I  I131  1  0.66549751  0.49569613  0.83534198  1
  I  I132  1  0.66612448  0.83105183  0.16682691  1
  I  I133  1  0.66656742  0.83756895  0.49834838  1
  I  I134  1  0.66659107  0.83238464  0.83472085  1
