# generated using pymatgen
data_Cs27Sn13Pb14I81
_symmetry_space_group_name_H-M   'P 1'
_cell_length_a   18.98546276
_cell_length_b   18.99481466
_cell_length_c   18.99423951
_cell_angle_alpha   89.99965259
_cell_angle_beta   90.00072940
_cell_angle_gamma   90.00024947
_symmetry_Int_Tables_number   1
_chemical_formula_structural   Cs27Sn13Pb14I81
_chemical_formula_sum   'Cs27 Sn13 Pb14 I81'
_cell_volume   6849.80419965
_cell_formula_units_Z   1
loop_
 _symmetry_equiv_pos_site_id
 _symmetry_equiv_pos_as_xyz
  1  'x, y, z'
loop_
 _atom_site_type_symbol
 _atom_site_label
 _atom_site_symmetry_multiplicity
 _atom_site_fract_x
 _atom_site_fract_y
 _atom_site_fract_z
 _atom_site_occupancy
  Cs  Cs0  1  -0.00033516  -0.00024367  -0.00521564  1
  Cs  Cs1  1  0.00349825  0.00056776  0.33352998  1
  Cs  Cs2  1  -0.00420566  0.00363448  0.67577987  1
  Cs  Cs3  1  0.00072558  0.33558176  -0.00313291  1
  Cs  Cs4  1  0.00014319  0.33290962  0.33262726  1
  Cs  Cs5  1  -0.01072707  0.33288926  0.67281967  1
  Cs  Cs6  1  0.00153748  0.66394297  -0.00768581  1
  Cs  Cs7  1  0.00321010  0.66748166  0.33366532  1
  Cs  Cs8  1  -0.00780100  0.66344560  0.67407975  1
  Cs  Cs9  1  0.33318141  0.00024738  -0.00227524  1
  Cs  Cs10  1  0.33099844  0.00139788  0.33487016  1
  Cs  Cs11  1  0.33221182  -0.00118181  0.66569079  1
  Cs  Cs12  1  0.33527939  0.33402790  0.00093929  1
  Cs  Cs13  1  0.33340175  0.33301068  0.33324262  1
  Cs  Cs14  1  0.33660838  0.33201759  0.66377690  1
  Cs  Cs15  1  0.33160124  0.66519412  -0.00369060  1
  Cs  Cs16  1  0.33098474  0.66598166  0.33547052  1
  Cs  Cs17  1  0.33399640  0.66942412  0.66431890  1
  Cs  Cs18  1  0.66695133  -0.00746888  0.00361273  1
  Cs  Cs19  1  0.66947514  -0.00588501  0.33181414  1
  Cs  Cs20  1  0.67359376  -0.00619293  0.66572277  1
  Cs  Cs21  1  0.66227147  0.33322205  0.00290915  1
  Cs  Cs22  1  0.66523301  0.33282418  0.33185358  1
  Cs  Cs23  1  0.66790062  0.33371024  0.66668222  1
  Cs  Cs24  1  0.66686937  0.67452234  0.00267743  1
  Cs  Cs25  1  0.66916481  0.67328589  0.33275160  1
  Cs  Cs26  1  0.67336921  0.67096773  0.66589575  1
  Sn  Sn27  1  0.16668133  0.16610705  0.16705279  1
  Sn  Sn28  1  0.83335414  0.16765886  0.16702979  1
  Sn  Sn29  1  0.83252150  0.49929134  0.16732165  1
  Sn  Sn30  1  0.16686290  0.16725440  0.49973623  1
  Sn  Sn31  1  0.16674731  0.49919511  0.50018076  1
  Sn  Sn32  1  0.16652006  0.83365604  0.49977124  1
  Sn  Sn33  1  0.49983856  0.49949612  0.83297979  1
  Sn  Sn34  1  0.50002400  0.16701439  0.16704800  1
  Sn  Sn35  1  0.49955925  0.49951116  0.49994893  1
  Sn  Sn36  1  0.50072723  0.49971162  0.16706348  1
  Sn  Sn37  1  0.49988675  0.16695271  0.83294729  1
  Sn  Sn38  1  0.16712919  0.83411528  0.16693887  1
  Sn  Sn39  1  0.49980405  0.16705374  0.49994767  1
  Pb  Pb40  1  0.16897627  0.16705943  0.83300643  1
  Pb  Pb41  1  0.83753343  0.83349740  0.49960585  1
  Pb  Pb42  1  0.82944147  0.49959897  0.83683357  1
  Pb  Pb43  1  0.49977446  0.83340105  0.83313564  1
  Pb  Pb44  1  0.16704379  0.49945580  0.16799346  1
  Pb  Pb45  1  0.16701477  0.83339279  0.83277359  1
  Pb  Pb46  1  0.83323293  0.83340985  0.83371023  1
  Pb  Pb47  1  0.82933466  0.16694512  0.83696672  1
  Pb  Pb48  1  0.83303602  0.16678755  0.49769729  1
  Pb  Pb49  1  0.83693995  0.83317106  0.16683911  1
  Pb  Pb50  1  0.49830616  0.83359504  0.49983045  1
  Pb  Pb51  1  0.83258815  0.49972769  0.49745904  1
  Pb  Pb52  1  0.49707052  0.83321790  0.16684746  1
  Pb  Pb53  1  0.16944549  0.49947540  0.82933679  1
  I  I54  1  0.16750722  0.00191511  0.17478350  1
  I  I55  1  0.17251036  0.00126218  0.49346110  1
  I  I56  1  0.16984774  0.00033326  0.83017827  1
  I  I57  1  0.16747703  0.33011934  0.17083737  1
  I  I58  1  0.17328970  0.33246160  0.49334282  1
  I  I59  1  0.16508416  0.33332166  0.83692284  1
  I  I60  1  0.16734920  0.66829467  0.17223178  1
  I  I61  1  0.17268853  0.66627478  0.49369862  1
  I  I62  1  0.16960107  0.66638603  0.83589058  1
  I  I63  1  0.50304131  0.00375266  0.16643254  1
  I  I64  1  0.49562989  0.00382275  0.49898611  1
  I  I65  1  0.49854718  0.00369193  0.83496174  1
  I  I66  1  0.49833635  0.33255308  0.16650570  1
  I  I67  1  0.49175708  0.33311599  0.49888700  1
  I  I68  1  0.49867320  0.33316157  0.83439712  1
  I  I69  1  0.50385004  0.66312934  0.16625289  1
  I  I70  1  0.49515021  0.66319257  0.49964571  1
  I  I71  1  0.49884835  0.66300057  0.83446350  1
  I  I72  1  0.82885087  0.00323386  0.16696111  1
  I  I73  1  0.83021285  0.00021348  0.49682353  1
  I  I74  1  0.83149756  0.00060002  0.83514151  1
  I  I75  1  0.83384669  0.33258090  0.16799808  1
  I  I76  1  0.83968002  0.33328225  0.50080065  1
  I  I77  1  0.83735542  0.33329065  0.83069675  1
  I  I78  1  0.82739707  0.66364948  0.16723365  1
  I  I79  1  0.83195988  0.66650149  0.49700977  1
  I  I80  1  0.83181698  0.66608410  0.83563702  1
  I  I81  1  0.16743059  0.16121566  0.00354740  1
  I  I82  1  0.17141484  0.16579408  0.33301427  1
  I  I83  1  0.17269624  0.16493106  0.66282987  1
  I  I84  1  0.16664840  0.50176446  -0.00002713  1
  I  I85  1  0.17253201  0.50021363  0.33604774  1
  I  I86  1  0.17273144  0.50063706  0.66108910  1
  I  I87  1  0.16684891  0.83897699  0.00316221  1
  I  I88  1  0.16787915  0.83475318  0.33353188  1
  I  I89  1  0.16957312  0.83436496  0.66279914  1
  I  I90  1  0.49918715  0.17289755  0.00147419  1
  I  I91  1  0.49801218  0.17315758  0.33288688  1
  I  I92  1  0.49209904  0.17386087  0.66550774  1
  I  I93  1  0.50422453  0.49294326  0.00102196  1
  I  I94  1  0.49900658  0.49339657  0.33323951  1
  I  I95  1  0.49214500  0.49264377  0.66574199  1
  I  I96  1  0.49718498  0.83341611  0.00026138  1
  I  I97  1  0.50140407  0.83229787  0.33322860  1
  I  I98  1  0.49594400  0.83376316  0.66644623  1
  I  I99  1  0.83633791  0.17091959  0.00500242  1
  I  I100  1  0.82921454  0.17073597  0.32951241  1
  I  I101  1  0.83481443  0.16492559  0.66695272  1
  I  I102  1  0.83093152  0.49521186  0.00464134  1
  I  I103  1  0.82737206  0.49528757  0.32973814  1
  I  I104  1  0.83452095  0.50213993  0.66688732  1
  I  I105  1  0.83516573  0.83339780  0.00082541  1
  I  I106  1  0.82984600  0.83289393  0.33284239  1
  I  I107  1  0.83455013  0.83292471  0.66655741  1
  I  I108  1  0.00093019  0.16668687  0.17340136  1
  I  I109  1  0.00360056  0.16638797  0.49362072  1
  I  I110  1  -0.00040996  0.16462248  0.83259843  1
  I  I111  1  -0.00179431  0.49695310  0.17042211  1
  I  I112  1  0.00305122  0.50043991  0.49547037  1
  I  I113  1  -0.00039700  0.50243873  0.83352273  1
  I  I114  1  0.00449236  0.83729034  0.17303890  1
  I  I115  1  0.00575150  0.83336410  0.49217329  1
  I  I116  1  0.00030844  0.83305264  0.83373178  1
  I  I117  1  0.33398382  0.16690154  0.16723918  1
  I  I118  1  0.33354542  0.16727126  0.49507243  1
  I  I119  1  0.33704675  0.17089796  0.83891127  1
  I  I120  1  0.33663861  0.49706319  0.16499867  1
  I  I121  1  0.33420468  0.49946242  0.49683313  1
  I  I122  1  0.33749359  0.49599119  0.84136414  1
  I  I123  1  0.32953859  0.83758597  0.17144029  1
  I  I124  1  0.33009695  0.83319665  0.49520203  1
  I  I125  1  0.33332484  0.83284892  0.83466237  1
  I  I126  1  0.66526620  0.17262294  0.16622296  1
  I  I127  1  0.66275983  0.17377860  0.49972507  1
  I  I128  1  0.66145734  0.17281266  0.83098257  1
  I  I129  1  0.66486072  0.49113634  0.16795013  1
  I  I130  1  0.66257292  0.49323974  0.50211976  1
  I  I131  1  0.66166924  0.49405271  0.82684962  1
  I  I132  1  0.66675417  0.83544725  0.16514929  1
  I  I133  1  0.66683797  0.83299836  0.50150120  1
  I  I134  1  0.66636157  0.83369863  0.83412010  1
