# generated using pymatgen
data_Cs27Sn14Pb13I81
_symmetry_space_group_name_H-M   'P 1'
_cell_length_a   18.97171561
_cell_length_b   18.98530913
_cell_length_c   18.97210063
_cell_angle_alpha   90.00081163
_cell_angle_beta   89.99881663
_cell_angle_gamma   89.99963614
_symmetry_Int_Tables_number   1
_chemical_formula_structural   Cs27Sn14Pb13I81
_chemical_formula_sum   'Cs27 Sn14 Pb13 I81'
_cell_volume   6833.44492140
_cell_formula_units_Z   1
loop_
 _symmetry_equiv_pos_site_id
 _symmetry_equiv_pos_as_xyz
  1  'x, y, z'
loop_
 _atom_site_type_symbol
 _atom_site_label
 _atom_site_symmetry_multiplicity
 _atom_site_fract_x
 _atom_site_fract_y
 _atom_site_fract_z
 _atom_site_occupancy
  Cs  Cs0  1  0.00084111  -0.00407540  -0.00221094  1
  Cs  Cs1  1  -0.00042738  0.00300941  0.33422818  1
  Cs  Cs2  1  -0.00079758  -0.00413349  0.66748061  1
  Cs  Cs3  1  0.00100130  0.33524958  0.00115014  1
  Cs  Cs4  1  0.00074118  0.33166955  0.33233589  1
  Cs  Cs5  1  0.00119989  0.33752839  0.66902390  1
  Cs  Cs6  1  -0.00200634  0.66877182  -0.00438489  1
  Cs  Cs7  1  0.00376440  0.66566888  0.33074296  1
  Cs  Cs8  1  -0.00873550  0.66732263  0.67518041  1
  Cs  Cs9  1  0.33388262  -0.00184597  0.00001044  1
  Cs  Cs10  1  0.33240341  -0.00207722  0.33350663  1
  Cs  Cs11  1  0.33273187  0.00454982  0.66690890  1
  Cs  Cs12  1  0.33583347  0.33307825  -0.00014479  1
  Cs  Cs13  1  0.33198695  0.33433241  0.33355258  1
  Cs  Cs14  1  0.33274661  0.33074017  0.66700880  1
  Cs  Cs15  1  0.33317585  0.66831176  0.00232998  1
  Cs  Cs16  1  0.33273976  0.66853458  0.33380881  1
  Cs  Cs17  1  0.33460082  0.66480634  0.66242938  1
  Cs  Cs18  1  0.66418758  0.00306661  -0.00028754  1
  Cs  Cs19  1  0.67080106  -0.00054423  0.33498176  1
  Cs  Cs20  1  0.66804505  -0.00118887  0.66826647  1
  Cs  Cs21  1  0.66389118  0.33105942  0.00129284  1
  Cs  Cs22  1  0.67001245  0.33272466  0.33219831  1
  Cs  Cs23  1  0.66573151  0.33460506  0.66591919  1
  Cs  Cs24  1  0.66695234  0.66653532  0.00057846  1
  Cs  Cs25  1  0.66529284  0.66816621  0.33869490  1
  Cs  Cs26  1  0.67331801  0.66790121  0.66073147  1
  Sn  Sn27  1  0.16690875  0.49929450  0.16709656  1
  Sn  Sn28  1  0.49971656  0.16682236  0.49935450  1
  Sn  Sn29  1  0.83305670  0.50107306  0.16670322  1
  Sn  Sn30  1  0.49991822  0.50041881  0.83360824  1
  Sn  Sn31  1  0.16652255  0.49992650  0.49967867  1
  Sn  Sn32  1  0.83295597  0.16711883  0.83352943  1
  Sn  Sn33  1  0.16772981  0.16725133  0.16709192  1
  Sn  Sn34  1  0.50008346  0.49947194  0.16630538  1
  Sn  Sn35  1  0.50085634  0.16683083  0.83328609  1
  Sn  Sn36  1  0.49911907  0.16718548  0.16743202  1
  Sn  Sn37  1  0.16658930  0.83320899  0.50031095  1
  Sn  Sn38  1  0.16744688  0.16685118  0.49921997  1
  Sn  Sn39  1  0.49970587  0.83280198  0.83314768  1
  Sn  Sn40  1  0.83308964  0.83250777  0.16693282  1
  Pb  Pb41  1  0.16910513  0.50010820  0.83394731  1
  Pb  Pb42  1  0.16696414  0.16672491  0.83372194  1
  Pb  Pb43  1  0.83398666  0.16686957  0.50265421  1
  Pb  Pb44  1  0.50166802  0.83339094  0.16553081  1
  Pb  Pb45  1  0.83034124  0.49785592  0.83586290  1
  Pb  Pb46  1  0.49831895  0.49792887  0.49940548  1
  Pb  Pb47  1  0.83072006  0.83534078  0.83545562  1
  Pb  Pb48  1  0.49827013  0.83603276  0.50234492  1
  Pb  Pb49  1  0.83648181  0.49974156  0.49728866  1
  Pb  Pb50  1  0.83373054  0.16708103  0.16507784  1
  Pb  Pb51  1  0.16917452  0.83308815  0.83054495  1
  Pb  Pb52  1  0.83603577  0.83332606  0.49757806  1
  Pb  Pb53  1  0.16500724  0.83349119  0.16795085  1
  I  I54  1  0.16976708  0.00318143  0.17010754  1
  I  I55  1  0.17108252  0.00165743  0.49614663  1
  I  I56  1  0.16866368  0.00020513  0.83441912  1
  I  I57  1  0.16552155  0.33338832  0.17395355  1
  I  I58  1  0.17099994  0.33260363  0.49515686  1
  I  I59  1  0.16770454  0.33325772  0.82876154  1
  I  I60  1  0.16991096  0.66346880  0.17120309  1
  I  I61  1  0.16784391  0.66572071  0.49383332  1
  I  I62  1  0.16901483  0.66651743  0.83371556  1
  I  I63  1  0.49686189  0.00347708  0.16501057  1
  I  I64  1  0.49371859  0.00440206  0.49893889  1
  I  I65  1  0.50356966  0.00176799  0.83338951  1
  I  I66  1  0.50076935  0.33297323  0.16181248  1
  I  I67  1  0.49404463  0.32977206  0.50453370  1
  I  I68  1  0.50333489  0.33242017  0.83519077  1
  I  I69  1  0.49709657  0.66337626  0.16125334  1
  I  I70  1  0.49733658  0.66656616  0.50066183  1
  I  I71  1  0.49630333  0.66574750  0.84068688  1
  I  I72  1  0.83338874  -0.00136149  0.16447919  1
  I  I73  1  0.83557399  0.00021149  0.49666903  1
  I  I74  1  0.82721816  0.00301458  0.83648207  1
  I  I75  1  0.83344970  0.33592161  0.16490298  1
  I  I76  1  0.83500674  0.33322012  0.49793970  1
  I  I77  1  0.82748540  0.33029123  0.83541896  1
  I  I78  1  0.83404191  0.66525026  0.16596152  1
  I  I79  1  0.83368049  0.66651391  0.50289643  1
  I  I80  1  0.83228275  0.66647614  0.83265796  1
  I  I81  1  0.16947742  0.17224439  0.00341306  1
  I  I82  1  0.17369753  0.16721062  0.33308672  1
  I  I83  1  0.17052053  0.16738658  0.66356074  1
  I  I84  1  0.16532440  0.49393934  0.00393012  1
  I  I85  1  0.16868929  0.49880834  0.33210584  1
  I  I86  1  0.17023486  0.49726370  0.66370997  1
  I  I87  1  0.16543823  0.83417186  0.00010871  1
  I  I88  1  0.16734508  0.83424143  0.33596877  1
  I  I89  1  0.16779195  0.83616558  0.66233305  1
  I  I90  1  0.50031251  0.16753198  0.00027349  1
  I  I91  1  0.49487851  0.17161547  0.33227686  1
  I  I92  1  0.49883221  0.16649400  0.66712813  1
  I  I93  1  0.49808163  0.49449083  0.00118552  1
  I  I94  1  0.50151463  0.49537524  0.32973621  1
  I  I95  1  0.49661515  0.49744731  0.66901052  1
  I  I96  1  0.50050846  0.83897820  -0.00254252  1
  I  I97  1  0.50078475  0.83346675  0.33356585  1
  I  I98  1  0.49872482  0.83343879  0.67044129  1
  I  I99  1  0.82713485  0.16691371  -0.00242445  1
  I  I100  1  0.83061622  0.16622007  0.33309401  1
  I  I101  1  0.82774585  0.16544789  0.67041226  1
  I  I102  1  0.83952778  0.50292433  0.00393354  1
  I  I103  1  0.82690209  0.50149317  0.32880846  1
  I  I104  1  0.83408624  0.49916116  0.66697127  1
  I  I105  1  0.83571371  0.82933999  0.00304140  1
  I  I106  1  0.83086722  0.83117051  0.32970197  1
  I  I107  1  0.83420953  0.83497734  0.66688972  1
  I  I108  1  0.00292516  0.16947667  0.17027172  1
  I  I109  1  0.00394925  0.16670606  0.49497052  1
  I  I110  1  -0.00221834  0.16588250  0.83466466  1
  I  I111  1  0.00104450  0.49843359  0.17275350  1
  I  I112  1  0.00498333  0.49517149  0.49454393  1
  I  I113  1  -0.00025524  0.49814532  0.83320444  1
  I  I114  1  -0.00282076  0.83059279  0.16724996  1
  I  I115  1  0.00421251  0.83792589  0.49920235  1
  I  I116  1  -0.00036767  0.83590716  0.83289393  1
  I  I117  1  0.33405196  0.17341303  0.16500759  1
  I  I118  1  0.33299445  0.16694554  0.50202592  1
  I  I119  1  0.33694648  0.16716410  0.83305751  1
  I  I120  1  0.33349584  0.49455553  0.16614006  1
  I  I121  1  0.33012880  0.50117834  0.49449335  1
  I  I122  1  0.33733635  0.49498489  0.83883428  1
  I  I123  1  0.33337461  0.83175035  0.16600190  1
  I  I124  1  0.33028305  0.83170871  0.49821042  1
  I  I125  1  0.33723712  0.83856336  0.83627237  1
  I  I126  1  0.66356152  0.16945180  0.16768055  1
  I  I127  1  0.66343827  0.16668674  0.49726876  1
  I  I128  1  0.66386679  0.16645094  0.83496616  1
  I  I129  1  0.66549594  0.49835927  0.16016940  1
  I  I130  1  0.66651072  0.49850050  0.49971012  1
  I  I131  1  0.66221080  0.50007375  0.83904329  1
  I  I132  1  0.66947739  0.83048216  0.16477707  1
  I  I133  1  0.66658090  0.83507581  0.50054071  1
  I  I134  1  0.66289062  0.83294381  0.83374816  1
