# generated using pymatgen
data_Cs27Sn14Pb13I81
_symmetry_space_group_name_H-M   'P 1'
_cell_length_a   18.96890556
_cell_length_b   18.97907520
_cell_length_c   18.97912942
_cell_angle_alpha   90.00135135
_cell_angle_beta   90.00124623
_cell_angle_gamma   89.99841638
_symmetry_Int_Tables_number   1
_chemical_formula_structural   Cs27Sn14Pb13I81
_chemical_formula_sum   'Cs27 Sn14 Pb13 I81'
_cell_volume   6832.71974613
_cell_formula_units_Z   1
loop_
 _symmetry_equiv_pos_site_id
 _symmetry_equiv_pos_as_xyz
  1  'x, y, z'
loop_
 _atom_site_type_symbol
 _atom_site_label
 _atom_site_symmetry_multiplicity
 _atom_site_fract_x
 _atom_site_fract_y
 _atom_site_fract_z
 _atom_site_occupancy
  Cs  Cs0  1  -0.00054173  -0.00116939  -0.00035756  1
  Cs  Cs1  1  -0.00204625  -0.00267268  0.33233942  1
  Cs  Cs2  1  0.00013818  0.00056443  0.66834062  1
  Cs  Cs3  1  0.00101667  0.33574138  0.00269688  1
  Cs  Cs4  1  0.00277301  0.33659044  0.33304580  1
  Cs  Cs5  1  0.00131501  0.33560473  0.66309866  1
  Cs  Cs6  1  0.00085260  0.66654042  0.00256344  1
  Cs  Cs7  1  0.00043756  0.66717105  0.33202174  1
  Cs  Cs8  1  -0.00322982  0.66438380  0.66455299  1
  Cs  Cs9  1  0.33138531  -0.00259011  -0.00432164  1
  Cs  Cs10  1  0.33504002  -0.00313040  0.33325049  1
  Cs  Cs11  1  0.33299429  0.00152203  0.67062628  1
  Cs  Cs12  1  0.33320625  0.33667040  0.00186022  1
  Cs  Cs13  1  0.33245288  0.33400968  0.33524878  1
  Cs  Cs14  1  0.33148073  0.32886111  0.66181019  1
  Cs  Cs15  1  0.33713500  0.66483212  -0.00237444  1
  Cs  Cs16  1  0.33375586  0.66870406  0.33241833  1
  Cs  Cs17  1  0.33779103  0.67093147  0.67039458  1
  Cs  Cs18  1  0.66990476  0.00485354  0.00217757  1
  Cs  Cs19  1  0.66667494  0.00142421  0.33454036  1
  Cs  Cs20  1  0.66795600  0.00197172  0.66454457  1
  Cs  Cs21  1  0.66273010  0.33195627  -0.00086375  1
  Cs  Cs22  1  0.66382689  0.32885714  0.33340993  1
  Cs  Cs23  1  0.66692219  0.33351695  0.66707343  1
  Cs  Cs24  1  0.66127599  0.66219982  -0.00290097  1
  Cs  Cs25  1  0.66540186  0.67022295  0.33432302  1
  Cs  Cs26  1  0.66655447  0.66340419  0.66907680  1
  Sn  Sn27  1  0.50021772  0.49954780  0.49980538  1
  Sn  Sn28  1  0.16584913  0.83345930  0.49979985  1
  Sn  Sn29  1  0.83312313  0.16645928  0.83256536  1
  Sn  Sn30  1  0.83327704  0.50073114  0.16684726  1
  Sn  Sn31  1  0.83419793  0.83404923  0.50021003  1
  Sn  Sn32  1  0.16599306  0.83338112  0.16722672  1
  Sn  Sn33  1  0.16597007  0.50041732  0.16589186  1
  Sn  Sn34  1  0.83333414  0.16632837  0.50061905  1
  Sn  Sn35  1  0.16619964  0.49999722  0.83329116  1
  Sn  Sn36  1  0.16669944  0.16623141  0.16679511  1
  Sn  Sn37  1  0.83341813  0.83362427  0.83348512  1
  Sn  Sn38  1  0.50068663  0.16734821  0.50082933  1
  Sn  Sn39  1  0.83359364  0.83212323  0.16638182  1
  Sn  Sn40  1  0.50049991  0.16666782  0.83272751  1
  Pb  Pb41  1  0.16437199  0.83131712  0.83348716  1
  Pb  Pb42  1  0.16625167  0.16423775  0.49802165  1
  Pb  Pb43  1  0.49696596  0.16648269  0.16672211  1
  Pb  Pb44  1  0.50035499  0.83342153  0.16626476  1
  Pb  Pb45  1  0.16591389  0.16850734  0.83535097  1
  Pb  Pb46  1  0.49749935  0.49727638  0.83085944  1
  Pb  Pb47  1  0.50352488  0.83621070  0.83335815  1
  Pb  Pb48  1  0.49997453  0.50000674  0.16879760  1
  Pb  Pb49  1  0.50045988  0.83418385  0.50009227  1
  Pb  Pb50  1  0.83471924  0.49936914  0.83553614  1
  Pb  Pb51  1  0.16863653  0.50289518  0.49962133  1
  Pb  Pb52  1  0.83501599  0.16669961  0.16686337  1
  Pb  Pb53  1  0.83162515  0.49991330  0.49757252  1
  I  I54  1  0.16259779  -0.00141125  0.17133543  1
  I  I55  1  0.16672167  -0.00353088  0.49434887  1
  I  I56  1  0.16922007  -0.00002759  0.83482468  1
  I  I57  1  0.16273583  0.33439892  0.16228480  1
  I  I58  1  0.16534534  0.33330937  0.49828058  1
  I  I59  1  0.16510321  0.33614711  0.84005171  1
  I  I60  1  0.16138788  0.66699950  0.16764489  1
  I  I61  1  0.16135068  0.67046189  0.49442366  1
  I  I62  1  0.16484645  0.66374527  0.83878442  1
  I  I63  1  0.49986043  0.00021356  0.16985244  1
  I  I64  1  0.50146425  0.00324040  0.50346623  1
  I  I65  1  0.49811260  0.00402747  0.82559859  1
  I  I66  1  0.50030043  0.33316082  0.16586014  1
  I  I67  1  0.50462022  0.33168651  0.50273492  1
  I  I68  1  0.50782914  0.32971329  0.83223282  1
  I  I69  1  0.49674342  0.66657724  0.16969465  1
  I  I70  1  0.49899469  0.66488296  0.49731175  1
  I  I71  1  0.50016807  0.66643693  0.83208099  1
  I  I72  1  0.83788747  -0.00278018  0.16657684  1
  I  I73  1  0.83100259  -0.00027698  0.49778129  1
  I  I74  1  0.83046538  0.00008240  0.83506524  1
  I  I75  1  0.83909649  0.33539660  0.16692950  1
  I  I76  1  0.83075058  0.33041601  0.50347767  1
  I  I77  1  0.83078597  0.33015154  0.82996915  1
  I  I78  1  0.84181812  0.66789105  0.16759623  1
  I  I79  1  0.83572837  0.66974031  0.50164327  1
  I  I80  1  0.83713631  0.66926597  0.83069425  1
  I  I81  1  0.16578790  0.16198794  0.00330170  1
  I  I82  1  0.16586887  0.17169131  0.33015788  1
  I  I83  1  0.16730369  0.16750584  0.66656277  1
  I  I84  1  0.16291734  0.50111916  0.00200036  1
  I  I85  1  0.16412631  0.49862728  0.33014669  1
  I  I86  1  0.16799620  0.50033983  0.66853282  1
  I  I87  1  0.16202797  0.83538186  0.00319838  1
  I  I88  1  0.15939186  0.83202889  0.33224149  1
  I  I89  1  0.16286528  0.83161495  0.66426861  1
  I  I90  1  0.50533674  0.16560688  -0.00289062  1
  I  I91  1  0.50430685  0.16967111  0.33660539  1
  I  I92  1  0.50363828  0.17086114  0.66582196  1
  I  I93  1  0.50089149  0.49855526  -0.00020288  1
  I  I94  1  0.49829415  0.49259686  0.33641247  1
  I  I95  1  0.49941842  0.49913848  0.66332990  1
  I  I96  1  0.49828653  0.83480849  -0.00034468  1
  I  I97  1  0.50326339  0.83570301  0.33350842  1
  I  I98  1  0.49680678  0.82972925  0.66656176  1
  I  I99  1  0.83043103  0.16347369  -0.00239795  1
  I  I100  1  0.82963554  0.16332550  0.33601696  1
  I  I101  1  0.82974484  0.15863729  0.66629385  1
  I  I102  1  0.83615212  0.50368411  0.00352298  1
  I  I103  1  0.84049848  0.50330123  0.32978873  1
  I  I104  1  0.83451227  0.50284021  0.66658798  1
  I  I105  1  0.83818539  0.83508092  0.00061569  1
  I  I106  1  0.83739557  0.83368067  0.33342976  1
  I  I107  1  0.83746943  0.83866324  0.66589252  1
  I  I108  1  0.00290151  0.16690321  0.16644892  1
  I  I109  1  -0.00308727  0.16393941  0.50379549  1
  I  I110  1  -0.00331580  0.16290954  0.82995518  1
  I  I111  1  0.00101118  0.50064851  0.16418982  1
  I  I112  1  0.00004119  0.49717462  0.50117995  1
  I  I113  1  0.00258370  0.49786086  0.83518800  1
  I  I114  1  -0.00019719  0.83267307  0.16817455  1
  I  I115  1  -0.00148677  0.83825187  0.49808938  1
  I  I116  1  -0.00366903  0.84088861  0.83359792  1
  I  I117  1  0.32889823  0.16729877  0.16702334  1
  I  I118  1  0.33577528  0.16912424  0.50253929  1
  I  I119  1  0.33548084  0.16952626  0.82954031  1
  I  I120  1  0.32980746  0.50060402  0.16386991  1
  I  I121  1  0.33616606  0.49374599  0.49840757  1
  I  I122  1  0.32983502  0.50021622  0.84159591  1
  I  I123  1  0.32946560  0.83282934  0.17295475  1
  I  I124  1  0.33070120  0.83212207  0.49302686  1
  I  I125  1  0.33315095  0.83363085  0.83331500  1
  I  I126  1  0.66688274  0.16688385  0.16665724  1
  I  I127  1  0.66750222  0.16458549  0.50226131  1
  I  I128  1  0.66777872  0.16275173  0.83020420  1
  I  I129  1  0.66965178  0.50545379  0.16807435  1
  I  I130  1  0.66398117  0.50018752  0.49852523  1
  I  I131  1  0.66671385  0.50230212  0.83478123  1
  I  I132  1  0.67105679  0.82916224  0.16869149  1
  I  I133  1  0.67032152  0.83452150  0.49830780  1
  I  I134  1  0.67184542  0.83237326  0.83247830  1
