# generated using pymatgen
data_Cs27Sn14Pb13I81
_symmetry_space_group_name_H-M   'P 1'
_cell_length_a   18.96915637
_cell_length_b   18.97966321
_cell_length_c   18.97564576
_cell_angle_alpha   89.99955019
_cell_angle_beta   89.99637928
_cell_angle_gamma   90.00066680
_symmetry_Int_Tables_number   1
_chemical_formula_structural   Cs27Sn14Pb13I81
_chemical_formula_sum   'Cs27 Sn14 Pb13 I81'
_cell_volume   6831.76755992
_cell_formula_units_Z   1
loop_
 _symmetry_equiv_pos_site_id
 _symmetry_equiv_pos_as_xyz
  1  'x, y, z'
loop_
 _atom_site_type_symbol
 _atom_site_label
 _atom_site_symmetry_multiplicity
 _atom_site_fract_x
 _atom_site_fract_y
 _atom_site_fract_z
 _atom_site_occupancy
  Cs  Cs0  1  0.00121451  0.00146571  -0.00295740  1
  Cs  Cs1  1  -0.00190723  0.00184949  0.33701805  1
  Cs  Cs2  1  0.00100393  -0.00006687  0.66693449  1
  Cs  Cs3  1  0.00053297  0.33373741  0.00068162  1
  Cs  Cs4  1  -0.00184156  0.33064060  0.33174605  1
  Cs  Cs5  1  -0.00035869  0.33015621  0.66621546  1
  Cs  Cs6  1  0.00090410  0.66338388  -0.00029854  1
  Cs  Cs7  1  -0.00463958  0.66629663  0.32951062  1
  Cs  Cs8  1  0.00267738  0.67000226  0.66916744  1
  Cs  Cs9  1  0.33427212  0.00016544  -0.00053939  1
  Cs  Cs10  1  0.33302628  0.00074785  0.33377644  1
  Cs  Cs11  1  0.33222692  -0.00085721  0.66648949  1
  Cs  Cs12  1  0.33251709  0.33064450  0.00370042  1
  Cs  Cs13  1  0.33403173  0.33261609  0.33169212  1
  Cs  Cs14  1  0.33483981  0.33482786  0.66535101  1
  Cs  Cs15  1  0.33130668  0.67170572  0.00106778  1
  Cs  Cs16  1  0.33266512  0.66609557  0.33531467  1
  Cs  Cs17  1  0.33280798  0.66695697  0.66447188  1
  Cs  Cs18  1  0.66429653  0.00011046  0.00091007  1
  Cs  Cs19  1  0.66814382  -0.00228285  0.33207963  1
  Cs  Cs20  1  0.66750238  0.00040345  0.66757542  1
  Cs  Cs21  1  0.66743991  0.33108789  -0.00242241  1
  Cs  Cs22  1  0.66216892  0.33367279  0.33610628  1
  Cs  Cs23  1  0.66360323  0.34548520  0.66637358  1
  Cs  Cs24  1  0.66855433  0.66903714  0.00054418  1
  Cs  Cs25  1  0.67467849  0.66837658  0.33365669  1
  Cs  Cs26  1  0.66620263  0.65296290  0.66534907  1
  Sn  Sn27  1  0.16665823  0.83436016  0.16696379  1
  Sn  Sn28  1  0.83343215  0.16646385  0.16608374  1
  Sn  Sn29  1  0.16636201  0.16562684  0.16616233  1
  Sn  Sn30  1  0.50010556  0.16721328  0.16752650  1
  Sn  Sn31  1  0.16632024  0.16688692  0.83398961  1
  Sn  Sn32  1  0.16700937  0.49965985  0.83258548  1
  Sn  Sn33  1  0.16711889  0.83256282  0.49962509  1
  Sn  Sn34  1  0.49990733  0.16556630  0.49971766  1
  Sn  Sn35  1  0.16648555  0.50064015  0.50021900  1
  Sn  Sn36  1  0.83391899  0.16573741  0.83374224  1
  Sn  Sn37  1  0.83368755  0.83407351  0.83294831  1
  Sn  Sn38  1  0.16623988  0.83353757  0.83335161  1
  Sn  Sn39  1  0.49993431  0.50010308  0.16635717  1
  Sn  Sn40  1  0.49980118  0.83407720  0.50025123  1
  Pb  Pb41  1  0.49824610  0.83366034  0.16873642  1
  Pb  Pb42  1  0.49684877  0.50019161  0.83657653  1
  Pb  Pb43  1  0.83724082  0.49998444  0.49982912  1
  Pb  Pb44  1  0.50028701  0.83318048  0.83052443  1
  Pb  Pb45  1  0.16782166  0.49985834  0.16678314  1
  Pb  Pb46  1  0.83597242  0.49960412  0.83350493  1
  Pb  Pb47  1  0.83353871  0.83340657  0.50295302  1
  Pb  Pb48  1  0.49792938  0.50047930  0.49777436  1
  Pb  Pb49  1  0.83022043  0.49704476  0.16641782  1
  Pb  Pb50  1  0.16809545  0.16649667  0.50017660  1
  Pb  Pb51  1  0.50024117  0.16661369  0.83327926  1
  Pb  Pb52  1  0.83626740  0.83582561  0.16416682  1
  Pb  Pb53  1  0.82994652  0.16668219  0.50094306  1
  I  I54  1  0.16952553  0.00105057  0.16364254  1
  I  I55  1  0.16920343  -0.00268699  0.50213056  1
  I  I56  1  0.16311021  0.00003586  0.83368930  1
  I  I57  1  0.16585776  0.33004826  0.16372019  1
  I  I58  1  0.16914323  0.33517220  0.50330333  1
  I  I59  1  0.16359516  0.33217764  0.83389248  1
  I  I60  1  0.17028106  0.66923729  0.16416370  1
  I  I61  1  0.17329256  0.66815833  0.50372804  1
  I  I62  1  0.16363952  0.66783152  0.83313360  1
  I  I63  1  0.50051068  0.00329491  0.16871052  1
  I  I64  1  0.49282769  0.00015870  0.49463898  1
  I  I65  1  0.49510857  0.00005070  0.83665642  1
  I  I66  1  0.49663159  0.33073978  0.17230526  1
  I  I67  1  0.49857054  0.33102151  0.49749545  1
  I  I68  1  0.49969965  0.33317132  0.82800045  1
  I  I69  1  0.49448587  0.66486079  0.16717818  1
  I  I70  1  0.49569502  0.66932112  0.49993958  1
  I  I71  1  0.50031039  0.66670327  0.83380614  1
  I  I72  1  0.82786921  0.00388798  0.16511505  1
  I  I73  1  0.83770157  0.00013345  0.49856125  1
  I  I74  1  0.84291028  0.00090282  0.83656129  1
  I  I75  1  0.84063865  0.32854445  0.15985105  1
  I  I76  1  0.83321990  0.33298932  0.50220202  1
  I  I77  1  0.83770988  0.32975867  0.83783964  1
  I  I78  1  0.83273752  0.66701981  0.16588860  1
  I  I79  1  0.82706372  0.66694189  0.50151224  1
  I  I80  1  0.83823869  0.66946018  0.83178220  1
  I  I81  1  0.16872935  0.16448042  0.00020019  1
  I  I82  1  0.16533157  0.16449480  0.33045576  1
  I  I83  1  0.16368965  0.16473393  0.66954566  1
  I  I84  1  0.16809585  0.50214186  -0.00256462  1
  I  I85  1  0.17002659  0.50326895  0.33552516  1
  I  I86  1  0.16752050  0.50291945  0.66723117  1
  I  I87  1  0.16341423  0.83325228  -0.00058202  1
  I  I88  1  0.17285993  0.83335217  0.33357610  1
  I  I89  1  0.16673002  0.83295602  0.66715447  1
  I  I90  1  0.49882337  0.17067571  0.00313630  1
  I  I91  1  0.49814585  0.16729105  0.33205788  1
  I  I92  1  0.49757067  0.16197501  0.66399009  1
  I  I93  1  0.49743065  0.49120142  0.00400973  1
  I  I94  1  0.49474979  0.49579981  0.33049435  1
  I  I95  1  0.50131103  0.49894446  0.66641806  1
  I  I96  1  0.49802457  0.83382465  0.00010188  1
  I  I97  1  0.49221232  0.83532951  0.33656391  1
  I  I98  1  0.49237706  0.84040722  0.66267582  1
  I  I99  1  0.83275629  0.16317890  -0.00009911  1
  I  I100  1  0.83739915  0.16767061  0.33037220  1
  I  I101  1  0.83987857  0.16204241  0.67039215  1
  I  I102  1  0.83579666  0.50224226  -0.00005243  1
  I  I103  1  0.83637843  0.49883954  0.33295146  1
  I  I104  1  0.82864290  0.49684444  0.66695444  1
  I  I105  1  0.83885160  0.83486536  -0.00372223  1
  I  I106  1  0.83454199  0.83428161  0.33325618  1
  I  I107  1  0.84102478  0.84185638  0.67070208  1
  I  I108  1  0.00114354  0.16238344  0.16196993  1
  I  I109  1  0.00010880  0.16723948  0.49705077  1
  I  I110  1  0.00155451  0.16639183  0.84068105  1
  I  I111  1  0.00016031  0.49967467  0.16705620  1
  I  I112  1  0.00542281  0.50589992  0.50319774  1
  I  I113  1  0.00438453  0.50030632  0.83115971  1
  I  I114  1  0.00475608  0.83664371  0.17211600  1
  I  I115  1  0.00377434  0.82940767  0.49889335  1
  I  I116  1  0.00241895  0.83444892  0.83131475  1
  I  I117  1  0.33266919  0.16723774  0.16615978  1
  I  I118  1  0.33587154  0.16581808  0.49557157  1
  I  I119  1  0.32993352  0.16521032  0.83663388  1
  I  I120  1  0.33528940  0.49224173  0.16666079  1
  I  I121  1  0.33009624  0.50169728  0.50418036  1
  I  I122  1  0.32855406  0.49983468  0.82887527  1
  I  I123  1  0.32965607  0.83864506  0.16126751  1
  I  I124  1  0.33149187  0.83380068  0.50216025  1
  I  I125  1  0.32949094  0.83463553  0.83511020  1
  I  I126  1  0.66629670  0.17203758  0.16603245  1
  I  I127  1  0.66201183  0.16026830  0.49495355  1
  I  I128  1  0.66980776  0.16032520  0.83718553  1
  I  I129  1  0.66226586  0.49522121  0.16842516  1
  I  I130  1  0.66624621  0.49988316  0.49956623  1
  I  I131  1  0.66670981  0.49976287  0.83316292  1
  I  I132  1  0.66686177  0.83325321  0.16671711  1
  I  I133  1  0.66382502  0.83927346  0.49961337  1
  I  I134  1  0.66980023  0.84084370  0.83338794  1
