# generated using pymatgen
data_Cs27Sn14Pb13I81
_symmetry_space_group_name_H-M   'P 1'
_cell_length_a   18.96943761
_cell_length_b   18.97728041
_cell_length_c   18.97922999
_cell_angle_alpha   89.99928136
_cell_angle_beta   90.00261520
_cell_angle_gamma   89.99760308
_symmetry_Int_Tables_number   1
_chemical_formula_structural   Cs27Sn14Pb13I81
_chemical_formula_sum   'Cs27 Sn14 Pb13 I81'
_cell_volume   6832.30142369
_cell_formula_units_Z   1
loop_
 _symmetry_equiv_pos_site_id
 _symmetry_equiv_pos_as_xyz
  1  'x, y, z'
loop_
 _atom_site_type_symbol
 _atom_site_label
 _atom_site_symmetry_multiplicity
 _atom_site_fract_x
 _atom_site_fract_y
 _atom_site_fract_z
 _atom_site_occupancy
  Cs  Cs0  1  0.00219117  -0.00250371  -0.00319650  1
  Cs  Cs1  1  -0.00104782  0.00470603  0.33203541  1
  Cs  Cs2  1  -0.00017705  -0.00156689  0.67051465  1
  Cs  Cs3  1  -0.00040891  0.33442103  0.00290118  1
  Cs  Cs4  1  0.00099238  0.33164010  0.33209289  1
  Cs  Cs5  1  -0.00025707  0.33404972  0.66473958  1
  Cs  Cs6  1  -0.00154071  0.66741924  0.00103982  1
  Cs  Cs7  1  0.00070758  0.66443694  0.33339742  1
  Cs  Cs8  1  -0.00073176  0.66680396  0.66535658  1
  Cs  Cs9  1  0.33183719  0.00383474  -0.00018519  1
  Cs  Cs10  1  0.34214057  -0.00095446  0.33321254  1
  Cs  Cs11  1  0.33170365  0.00064463  0.66629731  1
  Cs  Cs12  1  0.33429758  0.33426271  -0.00353345  1
  Cs  Cs13  1  0.32819099  0.33632274  0.33333232  1
  Cs  Cs14  1  0.33607553  0.33384227  0.67119297  1
  Cs  Cs15  1  0.33495461  0.66449944  0.00199232  1
  Cs  Cs16  1  0.33384548  0.66675896  0.33554400  1
  Cs  Cs17  1  0.33111142  0.66675999  0.66154561  1
  Cs  Cs18  1  0.66468719  -0.00395545  0.00250388  1
  Cs  Cs19  1  0.65802761  0.00596946  0.33538269  1
  Cs  Cs20  1  0.66930336  -0.00014941  0.66272940  1
  Cs  Cs21  1  0.66464153  0.33315277  0.00080310  1
  Cs  Cs22  1  0.66940790  0.32740918  0.33308175  1
  Cs  Cs23  1  0.66378568  0.33335443  0.66684705  1
  Cs  Cs24  1  0.66868340  0.66640348  -0.00254595  1
  Cs  Cs25  1  0.66561951  0.66675638  0.33360262  1
  Cs  Cs26  1  0.66897833  0.66530192  0.66989063  1
  Sn  Sn27  1  0.83367332  0.83340643  0.16740078  1
  Sn  Sn28  1  0.83360050  0.83287035  0.49937219  1
  Sn  Sn29  1  0.83420478  0.49953078  0.83272430  1
  Sn  Sn30  1  0.16623094  0.83331107  0.16694390  1
  Sn  Sn31  1  0.50128096  0.50005665  0.49888720  1
  Sn  Sn32  1  0.16728019  0.50035784  0.16579493  1
  Sn  Sn33  1  0.50012775  0.83319976  0.83325025  1
  Sn  Sn34  1  0.49971868  0.50011702  0.16769729  1
  Sn  Sn35  1  0.83320917  0.16693136  0.83367834  1
  Sn  Sn36  1  0.83251055  0.83343500  0.83328531  1
  Sn  Sn37  1  0.16563578  0.50050206  0.83399277  1
  Sn  Sn38  1  0.16668765  0.16641420  0.49973845  1
  Sn  Sn39  1  0.83244215  0.50047214  0.50039223  1
  Sn  Sn40  1  0.16653032  0.16650238  0.16742971  1
  Pb  Pb41  1  0.50002282  0.83130119  0.16511573  1
  Pb  Pb42  1  0.83488291  0.16686904  0.50174060  1
  Pb  Pb43  1  0.83529952  0.16349736  0.16431782  1
  Pb  Pb44  1  0.49716455  0.16964496  0.50014808  1
  Pb  Pb45  1  0.50247772  0.83114322  0.50234154  1
  Pb  Pb46  1  0.16610019  0.49885763  0.49990115  1
  Pb  Pb47  1  0.50025691  0.50157898  0.83322750  1
  Pb  Pb48  1  0.49714009  0.16982310  0.16649376  1
  Pb  Pb49  1  0.83336986  0.50143555  0.16695410  1
  Pb  Pb50  1  0.16650030  0.83103168  0.83509166  1
  Pb  Pb51  1  0.16426274  0.83582258  0.49712168  1
  Pb  Pb52  1  0.50299025  0.16340067  0.83328550  1
  Pb  Pb53  1  0.16482628  0.16907118  0.83362479  1
  I  I54  1  0.15936187  -0.00035097  0.16979917  1
  I  I55  1  0.16344382  0.00340792  0.49663854  1
  I  I56  1  0.16564837  -0.00012543  0.83460712  1
  I  I57  1  0.17121342  0.33422833  0.16666565  1
  I  I58  1  0.16389073  0.33136723  0.49423358  1
  I  I59  1  0.16198987  0.33710637  0.83834479  1
  I  I60  1  0.16595520  0.66599518  0.16100397  1
  I  I61  1  0.16813601  0.66669641  0.49979125  1
  I  I62  1  0.16108739  0.66299246  0.83814557  1
  I  I63  1  0.49955532  -0.00016585  0.16482121  1
  I  I64  1  0.50068000  -0.00016961  0.50109609  1
  I  I65  1  0.50475173  -0.00450688  0.83489228  1
  I  I66  1  0.49625247  0.33805732  0.16825715  1
  I  I67  1  0.50774078  0.33776391  0.49755545  1
  I  I68  1  0.50020015  0.33362822  0.83343965  1
  I  I69  1  0.49348846  0.66350921  0.16927134  1
  I  I70  1  0.49925934  0.66319841  0.49657956  1
  I  I71  1  0.50732639  0.66893237  0.83446172  1
  I  I72  1  0.83915362  -0.00476851  0.16586205  1
  I  I73  1  0.83716044  -0.00279184  0.50229324  1
  I  I74  1  0.82981773  -0.00148976  0.83340150  1
  I  I75  1  0.83404075  0.33332737  0.16604956  1
  I  I76  1  0.83125794  0.33651088  0.50516471  1
  I  I77  1  0.83927589  0.33492464  0.82837798  1
  I  I78  1  0.83874523  0.66945800  0.16171051  1
  I  I79  1  0.83111442  0.66622222  0.50546564  1
  I  I80  1  0.83312617  0.66668813  0.83293832  1
  I  I81  1  0.16476482  0.16548083  0.00292135  1
  I  I82  1  0.16382009  0.17073643  0.33198900  1
  I  I83  1  0.16431940  0.16982559  0.66480988  1
  I  I84  1  0.16660114  0.49807624  0.00103414  1
  I  I85  1  0.16733199  0.50114080  0.33043623  1
  I  I86  1  0.16559549  0.49787404  0.66888800  1
  I  I87  1  0.16053765  0.83669591  0.00322272  1
  I  I88  1  0.16147700  0.82638204  0.32899919  1
  I  I89  1  0.16638703  0.83339350  0.66660921  1
  I  I90  1  0.49761410  0.16998283  -0.00009152  1
  I  I91  1  0.50372481  0.16327181  0.33325665  1
  I  I92  1  0.49565033  0.17014240  0.66674643  1
  I  I93  1  0.49787796  0.50191061  0.00200632  1
  I  I94  1  0.49848933  0.50198030  0.33311089  1
  I  I95  1  0.50070155  0.50154979  0.66457186  1
  I  I96  1  0.50739513  0.82930112  -0.00251253  1
  I  I97  1  0.50076228  0.83328815  0.33342321  1
  I  I98  1  0.50592196  0.82990548  0.67007562  1
  I  I99  1  0.83644533  0.16914684  -0.00356764  1
  I  I100  1  0.83400446  0.16707772  0.33314018  1
  I  I101  1  0.83758483  0.16245823  0.66960692  1
  I  I102  1  0.83450751  0.50159126  -0.00268180  1
  I  I103  1  0.83322832  0.50539935  0.33586260  1
  I  I104  1  0.83410918  0.50484175  0.66749753  1
  I  I105  1  0.83398164  0.83251057  -0.00073092  1
  I  I106  1  0.84027193  0.82596138  0.33334470  1
  I  I107  1  0.82848124  0.83221653  0.66743664  1
  I  I108  1  0.00337679  0.17337894  0.16994533  1
  I  I109  1  0.00251368  0.17034260  0.49550001  1
  I  I110  1  -0.00295557  0.16118424  0.83342335  1
  I  I111  1  0.00274211  0.49883616  0.16543569  1
  I  I112  1  -0.00289707  0.50275892  0.50193694  1
  I  I113  1  -0.00139713  0.50235875  0.83353271  1
  I  I114  1  -0.00022212  0.83022404  0.16344458  1
  I  I115  1  -0.00393540  0.82556621  0.50664150  1
  I  I116  1  -0.00347404  0.83442162  0.83225519  1
  I  I117  1  0.32870141  0.16054918  0.16936754  1
  I  I118  1  0.32925320  0.16820140  0.49588294  1
  I  I119  1  0.33304663  0.16713560  0.83336376  1
  I  I120  1  0.33172431  0.50189544  0.16602420  1
  I  I121  1  0.33505432  0.49738403  0.49970346  1
  I  I122  1  0.33109099  0.50135382  0.83458917  1
  I  I123  1  0.33040030  0.83432185  0.16353851  1
  I  I124  1  0.33334677  0.83240930  0.50119925  1
  I  I125  1  0.33528158  0.82952981  0.83633166  1
  I  I126  1  0.66679995  0.16688773  0.16533489  1
  I  I127  1  0.66680540  0.16515469  0.50169750  1
  I  I128  1  0.67116317  0.17353885  0.83206259  1
  I  I129  1  0.66473343  0.50408021  0.16616244  1
  I  I130  1  0.66800071  0.50438879  0.50122266  1
  I  I131  1  0.66994054  0.49988435  0.83284774  1
  I  I132  1  0.66966186  0.82969444  0.16577430  1
  I  I133  1  0.67097506  0.83250297  0.49582901  1
  I  I134  1  0.66956294  0.83002444  0.83615441  1
