# generated using pymatgen
data_In2Te3
_symmetry_space_group_name_H-M   'P 1'
_cell_length_a   18.78624446
_cell_length_b   18.78230521
_cell_length_c   18.78344796
_cell_angle_alpha   89.93650271
_cell_angle_beta   89.94473630
_cell_angle_gamma   89.91786915
_symmetry_Int_Tables_number   1
_chemical_formula_structural   In2Te3
_chemical_formula_sum   'In72 Te108'
_cell_volume   6627.70645060
_cell_formula_units_Z   36
loop_
 _symmetry_equiv_pos_site_id
 _symmetry_equiv_pos_as_xyz
  1  'x, y, z'
loop_
 _atom_site_type_symbol
 _atom_site_label
 _atom_site_symmetry_multiplicity
 _atom_site_fract_x
 _atom_site_fract_y
 _atom_site_fract_z
 _atom_site_occupancy
  In  In0  1  -0.01983583  0.52286330  0.16762772  1
  In  In1  1  0.34288236  -0.01412661  0.30492263  1
  In  In2  1  -0.01704955  0.84563346  0.48227584  1
  In  In3  1  0.15781474  0.14780789  -0.00197693  1
  In  In4  1  0.66355733  0.65121798  0.68134647  1
  In  In5  1  0.68637421  0.33099137  0.65776678  1
  In  In6  1  0.50012307  0.01541810  0.50998274  1
  In  In7  1  0.16552409  0.68055705  0.85525489  1
  In  In8  1  0.67622023  0.68609462  0.32638071  1
  In  In9  1  0.66218332  0.29467920  0.33082502  1
  In  In10  1  -0.01163283  -0.00495372  -0.01348436  1
  In  In11  1  -0.01097034  0.49355436  0.51236269  1
  In  In12  1  0.34676527  0.34057111  0.01302676  1
  In  In13  1  0.53340517  0.15434199  0.29074232  1
  In  In14  1  0.15179959  0.00781195  0.50170911  1
  In  In15  1  -0.02198085  0.30737239  0.36791696  1
  In  In16  1  0.52262359  0.15966749  0.65553710  1
  In  In17  1  0.35224706  0.17615902  0.50218540  1
  In  In18  1  -0.04720511  0.29504169  0.70094353  1
  In  In19  1  0.81942613  0.00981533  0.14042732  1
  In  In20  1  0.52058065  0.84544429  0.32120693  1
  In  In21  1  0.37368887  0.13020915  0.15170059  1
  In  In22  1  0.33273311  0.84212956  0.51192969  1
  In  In23  1  0.14949337  0.16440846  0.69003448  1
  In  In24  1  -0.02558942  0.67778881  0.01678879  1
  In  In25  1  0.35978166  0.53265745  0.84371345  1
  In  In26  1  0.33918533  -0.01694114  0.67262834  1
  In  In27  1  -0.00334863  0.68545832  0.33591261  1
  In  In28  1  0.17978097  0.83662931  0.68359200  1
  In  In29  1  0.53533101  0.31269392  0.14091244  1
  In  In30  1  -0.02165049  0.49021199  0.83523257  1
  In  In31  1  0.33295203  0.16332567  0.85303479  1
  In  In32  1  0.66936360  0.83948461  0.49755218  1
  In  In33  1  0.37160554  0.68668604  0.00430055  1
  In  In34  1  0.18220547  0.84794647  0.00109372  1
  In  In35  1  0.18031806  0.14309690  0.33424081  1
  In  In36  1  0.82428174  0.83122340  0.66575002  1
  In  In37  1  0.36207653  0.69907405  0.69686699  1
  In  In38  1  0.47994531  0.51768251  0.30264378  1
  In  In39  1  0.83842210  0.67056580  0.84577046  1
  In  In40  1  0.17467999  0.81497059  0.28864289  1
  In  In41  1  0.79771617  0.32659701  0.16706568  1
  In  In42  1  0.53941173  0.33511310  0.49534176  1
  In  In43  1  0.82848555  0.84602468  0.32219271  1
  In  In44  1  0.15319301  0.36636470  0.51378730  1
  In  In45  1  -0.01458157  0.14881253  0.16592126  1
  In  In46  1  0.69072604  0.16386094  0.83971480  1
  In  In47  1  0.16438929  0.31049599  0.83061291  1
  In  In48  1  0.66082393  0.49453661  0.82947756  1
  In  In49  1  0.82447720  0.49104132  0.32624121  1
  In  In50  1  0.66842792  -0.00579601  -0.01162571  1
  In  In51  1  0.32235034  0.52103356  0.50759108  1
  In  In52  1  -0.02170608  0.16894654  0.50106922  1
  In  In53  1  0.84864277  0.30359457  0.50054560  1
  In  In54  1  0.15900718  0.50300402  0.66092838  1
  In  In55  1  0.81279699  -0.01313020  0.84046702  1
  In  In56  1  -0.01127235  0.02738167  0.68169904  1
  In  In57  1  0.63668365  0.69901669  -0.01276611  1
  In  In58  1  0.67642355  0.50382861  0.51936211  1
  In  In59  1  0.50386404  0.66281044  0.49795845  1
  In  In60  1  0.01547428  0.65929635  0.66389880  1
  In  In61  1  0.49283140  -0.03335323  0.85413557  1
  In  In62  1  0.18218430  0.53347883  0.33709280  1
  In  In63  1  0.34197260  0.33113980  0.34548545  1
  In  In64  1  -0.02143019  0.33897960  -0.01225169  1
  In  In65  1  0.65461193  0.51332465  0.15127809  1
  In  In66  1  0.16570614  0.33430712  0.16935142  1
  In  In67  1  0.34721487  0.52412221  0.14463989  1
  In  In68  1  -0.00306331  0.84651423  0.16282466  1
  In  In69  1  0.49991899  0.34593605  0.85751635  1
  In  In70  1  0.66640148  0.83724768  0.15011907  1
  In  In71  1  0.19078189  0.51089518  0.00202279  1
  Te  Te72  1  0.08186842  0.05558344  0.09298999  1
  Te  Te73  1  0.06025836  0.07846577  0.40433915  1
  Te  Te74  1  0.09158839  0.06548300  0.78130761  1
  Te  Te75  1  0.08466116  0.42167124  0.07420226  1
  Te  Te76  1  0.07919887  0.42871564  0.39148182  1
  Te  Te77  1  0.07395114  0.40516772  0.74647185  1
  Te  Te78  1  0.08822428  0.75395843  0.08290649  1
  Te  Te79  1  0.09623530  0.76603445  0.41715571  1
  Te  Te80  1  0.07301339  0.75909603  0.76305473  1
  Te  Te81  1  0.44758242  0.04126168  0.06005564  1
  Te  Te82  1  0.41530723  0.08991939  0.39264577  1
  Te  Te83  1  0.42648165  0.08274212  0.75109808  1
  Te  Te84  1  0.44748784  0.42882635  0.08182015  1
  Te  Te85  1  0.42904125  0.43067130  0.42757700  1
  Te  Te86  1  0.41258766  0.42021278  0.76478674  1
  Te  Te87  1  0.42239244  0.80064972  0.08568635  1
  Te  Te88  1  0.42767322  0.76733889  0.41683184  1
  Te  Te89  1  0.44979085  0.78565079  0.78044996  1
  Te  Te90  1  0.73511133  0.11104558  0.06432433  1
  Te  Te91  1  0.73445498  0.13928031  0.44398470  1
  Te  Te92  1  0.71800487  0.05210413  0.74323044  1
  Te  Te93  1  0.72047065  0.40741362  0.06769896  1
  Te  Te94  1  0.74726447  0.39725546  0.42007848  1
  Te  Te95  1  0.76209684  0.42000116  0.74767038  1
  Te  Te96  1  0.75253813  0.75427090  0.06301080  1
  Te  Te97  1  0.76993713  0.74741036  0.42679909  1
  Te  Te98  1  0.73776926  0.75565547  0.76615859  1
  Te  Te99  1  0.08059638  0.24238626  0.25666660  1
  Te  Te100  1  0.07288274  0.25647752  0.58814175  1
  Te  Te101  1  0.06253340  0.23361063  0.91318698  1
  Te  Te102  1  0.08576513  0.60411404  0.23879705  1
  Te  Te103  1  0.09858010  0.59249255  0.55270925  1
  Te  Te104  1  0.07433184  0.57491044  0.92068296  1
  Te  Te105  1  0.07965599  0.92226042  0.25915039  1
  Te  Te106  1  0.07674243  0.91404706  0.59481898  1
  Te  Te107  1  0.08568129  0.91273474  0.90949513  1
  Te  Te108  1  0.41972315  0.25692692  0.23554372  1
  Te  Te109  1  0.43393068  0.26808400  0.58789572  1
  Te  Te110  1  0.43232791  0.23579234  0.94308277  1
  Te  Te111  1  0.39384324  0.62756473  0.24687891  1
  Te  Te112  1  0.41992335  0.59139433  0.60390659  1
  Te  Te113  1  0.46408350  0.59213660  0.93074451  1
  Te  Te114  1  0.41675715  0.88960844  0.21683554  1
  Te  Te115  1  0.44334093  0.90206226  0.59723238  1
  Te  Te116  1  0.39264247  0.92723352  0.96486034  1
  Te  Te117  1  0.72853539  0.20931108  0.22820034  1
  Te  Te118  1  0.75568064  0.21711666  0.58675149  1
  Te  Te119  1  0.78353955  0.26849999  0.89066490  1
  Te  Te120  1  0.75669369  0.59189361  0.23447303  1
  Te  Te121  1  0.76616661  0.59590119  0.58750422  1
  Te  Te122  1  0.73288470  0.59447677  0.92414902  1
  Te  Te123  1  0.72366504  0.94090271  0.25044161  1
  Te  Te124  1  0.75498580  0.93003020  0.57854793  1
  Te  Te125  1  0.74333510  0.88325719  0.92344719  1
  Te  Te126  1  0.25103214  0.24185806  0.08174121  1
  Te  Te127  1  0.22919773  0.25337155  0.43084902  1
  Te  Te128  1  0.26883512  0.24596377  0.73958392  1
  Te  Te129  1  0.24721910  0.62287775  0.08349010  1
  Te  Te130  1  0.27177976  0.62171263  0.41232798  1
  Te  Te131  1  0.24305376  0.59052006  0.75405739  1
  Te  Te132  1  0.28539560  0.92148504  0.07778751  1
  Te  Te133  1  0.25032256  0.92689608  0.41509843  1
  Te  Te134  1  0.25839926  0.91855989  0.77705390  1
  Te  Te135  1  0.61217487  0.20891019  0.07318167  1
  Te  Te136  1  0.59457824  0.19891417  0.43931442  1
  Te  Te137  1  0.58818305  0.25619687  0.75668199  1
  Te  Te138  1  0.56120143  0.60454647  0.07906479  1
  Te  Te139  1  0.59386371  0.57833380  0.40318262  1
  Te  Te140  1  0.56054385  0.58569785  0.76643124  1
  Te  Te141  1  0.56670393  0.93146787  0.08376278  1
  Te  Te142  1  0.59474448  0.94347487  0.41225628  1
  Te  Te143  1  0.58166456  0.88113283  0.76931828  1
  Te  Te144  1  0.90322336  0.24595017  0.08302659  1
  Te  Te145  1  0.86566509  0.20054465  0.38074231  1
  Te  Te146  1  0.87821931  0.20104751  0.79001926  1
  Te  Te147  1  0.89125800  0.56290303  0.05883899  1
  Te  Te148  1  0.91130232  0.58112419  0.41340498  1
  Te  Te149  1  0.90642072  0.58203895  0.73777111  1
  Te  Te150  1  0.89416407  0.90169509  0.06438154  1
  Te  Te151  1  0.89101580  0.94096460  0.41715162  1
  Te  Te152  1  0.91831271  0.91346097  0.75469088  1
  Te  Te153  1  0.24643864  0.06973379  0.22004647  1
  Te  Te154  1  0.25350418  0.08583441  0.58512913  1
  Te  Te155  1  0.24780428  0.06166632  0.91730190  1
  Te  Te156  1  0.26068614  0.43029703  0.24129335  1
  Te  Te157  1  0.26769732  0.41122522  0.60225168  1
  Te  Te158  1  0.25665546  0.40915472  0.90698075  1
  Te  Te159  1  0.28629194  0.74330526  0.22970051  1
  Te  Te160  1  0.25510475  0.73902698  0.59359481  1
  Te  Te161  1  0.27856273  0.76269653  0.90722106  1
  Te  Te162  1  0.59766711  0.03784368  0.23102612  1
  Te  Te163  1  0.60772380  0.04337990  0.61328245  1
  Te  Te164  1  0.57628509  0.08603021  0.90666694  1
  Te  Te165  1  0.58621617  0.41069774  0.25855784  1
  Te  Te166  1  0.57678736  0.43163469  0.60734665  1
  Te  Te167  1  0.60926214  0.40372432  0.93945415  1
  Te  Te168  1  0.57541989  0.73701298  0.22720255  1
  Te  Te169  1  0.58620563  0.75094988  0.58979836  1
  Te  Te170  1  0.55769253  0.79291928  0.89734177  1
  Te  Te171  1  0.90989028  0.05408967  0.25041049  1
  Te  Te172  1  0.89027538  0.08980162  0.59117041  1
  Te  Te173  1  0.89474638  0.08969171  0.91572047  1
  Te  Te174  1  0.91720211  0.40010192  0.24355143  1
  Te  Te175  1  0.90417266  0.40599646  0.60083047  1
  Te  Te176  1  0.87397140  0.41386591  0.91175930  1
  Te  Te177  1  0.90241144  0.74663098  0.23259336  1
  Te  Te178  1  0.92003147  0.74560800  0.57973983  1
  Te  Te179  1  0.93176064  0.76696388  0.90783913  1
