# generated using pymatgen
data_In3Te4
_symmetry_space_group_name_H-M   'P 1'
_cell_length_a   6.44993325
_cell_length_b   6.44993325
_cell_length_c   6.44993321
_cell_angle_alpha   90.00000032
_cell_angle_beta   89.99999953
_cell_angle_gamma   89.99999999
_symmetry_Int_Tables_number   1
_chemical_formula_structural   In3Te4
_chemical_formula_sum   'In3 Te4'
_cell_volume   268.32779258
_cell_formula_units_Z   1
loop_
 _symmetry_equiv_pos_site_id
 _symmetry_equiv_pos_as_xyz
  1  'x, y, z'
loop_
 _atom_site_type_symbol
 _atom_site_label
 _atom_site_symmetry_multiplicity
 _atom_site_fract_x
 _atom_site_fract_y
 _atom_site_fract_z
 _atom_site_occupancy
  In  In0  1  0.00000003  0.00000002  0.00000000  1
  In  In1  1  0.49999996  0.49999998  0.00000001  1
  In  In2  1  0.00000004  0.49999998  0.50000002  1
  Te  Te3  1  0.27056016  0.22943983  0.27056017  1
  Te  Te4  1  0.27056015  0.77056017  0.72943981  1
  Te  Te5  1  0.72943981  0.77056020  0.27056020  1
  Te  Te6  1  0.72943984  0.22943983  0.72943980  1
