# generated using pymatgen
data_Cs27Sn13Pb14I81
_symmetry_space_group_name_H-M   'P 1'
_cell_length_a   18.97823826
_cell_length_b   18.97878925
_cell_length_c   18.97399844
_cell_angle_alpha   89.99906516
_cell_angle_beta   90.00083270
_cell_angle_gamma   89.99837160
_symmetry_Int_Tables_number   1
_chemical_formula_structural   Cs27Sn13Pb14I81
_chemical_formula_sum   'Cs27 Sn13 Pb14 I81'
_cell_volume   6834.13035171
_cell_formula_units_Z   1
loop_
 _symmetry_equiv_pos_site_id
 _symmetry_equiv_pos_as_xyz
  1  'x, y, z'
loop_
 _atom_site_type_symbol
 _atom_site_label
 _atom_site_symmetry_multiplicity
 _atom_site_fract_x
 _atom_site_fract_y
 _atom_site_fract_z
 _atom_site_occupancy
  Cs  Cs0  1  -0.00038854  0.00091337  -0.00043748  1
  Cs  Cs1  1  -0.00029739  0.00394009  0.33318382  1
  Cs  Cs2  1  -0.00027699  -0.00149673  0.66744788  1
  Cs  Cs3  1  0.00025046  0.33191016  0.00122446  1
  Cs  Cs4  1  -0.00017142  0.33076723  0.33339790  1
  Cs  Cs5  1  0.00045880  0.33450984  0.66539199  1
  Cs  Cs6  1  0.00077583  0.66730569  -0.00328855  1
  Cs  Cs7  1  0.00030350  0.66560678  0.33454287  1
  Cs  Cs8  1  -0.00024935  0.66673013  0.66873557  1
  Cs  Cs9  1  0.33141518  -0.00096079  -0.00271707  1
  Cs  Cs10  1  0.33381067  -0.00022008  0.33631314  1
  Cs  Cs11  1  0.33521480  0.00106074  0.66952755  1
  Cs  Cs12  1  0.33781138  0.33370866  -0.00010004  1
  Cs  Cs13  1  0.33129283  0.33186912  0.33658542  1
  Cs  Cs14  1  0.33983078  0.33786501  0.66195280  1
  Cs  Cs15  1  0.33046535  0.66796366  0.00177525  1
  Cs  Cs16  1  0.33614809  0.66756810  0.33244308  1
  Cs  Cs17  1  0.33270401  0.66242782  0.66539772  1
  Cs  Cs18  1  0.66820372  -0.00197459  0.00173165  1
  Cs  Cs19  1  0.66611322  -0.00421954  0.33139847  1
  Cs  Cs20  1  0.66517527  0.00287480  0.66637952  1
  Cs  Cs21  1  0.66240613  0.33369457  -0.00016480  1
  Cs  Cs22  1  0.66963263  0.33532942  0.33130273  1
  Cs  Cs23  1  0.66171661  0.33074897  0.66943849  1
  Cs  Cs24  1  0.67052660  0.66881781  -0.00000479  1
  Cs  Cs25  1  0.66409786  0.66723918  0.33259682  1
  Cs  Cs26  1  0.66888954  0.66421572  0.66708732  1
  Sn  Sn27  1  0.83352229  0.50007135  0.49949241  1
  Sn  Sn28  1  0.49993052  0.49935160  0.16672996  1
  Sn  Sn29  1  0.16625286  0.83307680  0.16693050  1
  Sn  Sn30  1  0.83351784  0.16657214  0.50073699  1
  Sn  Sn31  1  0.16747015  0.83400821  0.83300755  1
  Sn  Sn32  1  0.83417063  0.16677216  0.83284816  1
  Sn  Sn33  1  0.49937943  0.83299421  0.83321103  1
  Sn  Sn34  1  0.83367885  0.50013561  0.16699336  1
  Sn  Sn35  1  0.16636334  0.16680133  0.83302202  1
  Sn  Sn36  1  0.49974537  0.16668629  0.16704622  1
  Sn  Sn37  1  0.83405395  0.83335552  0.49992079  1
  Sn  Sn38  1  0.16605191  0.83346817  0.50007204  1
  Sn  Sn39  1  0.16640698  0.50038028  0.16658173  1
  Pb  Pb40  1  0.50262655  0.50004664  0.49745321  1
  Pb  Pb41  1  0.49975974  0.83326685  0.50258055  1
  Pb  Pb42  1  0.83381163  0.83524663  0.83120343  1
  Pb  Pb43  1  0.83341958  0.49709569  0.83314943  1
  Pb  Pb44  1  0.16495779  0.16463943  0.50271941  1
  Pb  Pb45  1  0.50260800  0.16654264  0.49730082  1
  Pb  Pb46  1  0.49979058  0.16509912  0.83496147  1
  Pb  Pb47  1  0.16852171  0.16670788  0.16482556  1
  Pb  Pb48  1  0.16671748  0.49977138  0.83518175  1
  Pb  Pb49  1  0.49997377  0.50294915  0.83572128  1
  Pb  Pb50  1  0.83171080  0.16859067  0.16658397  1
  Pb  Pb51  1  0.49778416  0.83308946  0.16494176  1
  Pb  Pb52  1  0.16462647  0.50211733  0.49763613  1
  Pb  Pb53  1  0.83596222  0.83109289  0.16892317  1
  I  I54  1  0.16876797  -0.00284666  0.16745729  1
  I  I55  1  0.16057238  -0.00383325  0.49444261  1
  I  I56  1  0.16609865  -0.00135764  0.83610075  1
  I  I57  1  0.16476703  0.33612345  0.16444893  1
  I  I58  1  0.16458277  0.33333211  0.49935931  1
  I  I59  1  0.16090517  0.33029212  0.83699370  1
  I  I60  1  0.16813296  0.66698314  0.16476342  1
  I  I61  1  0.16063718  0.67050817  0.50493239  1
  I  I62  1  0.17005335  0.67014451  0.83258153  1
  I  I63  1  0.49957580  0.00188001  0.16465312  1
  I  I64  1  0.50338860  -0.00018072  0.49572782  1
  I  I65  1  0.49789512  -0.00267619  0.83683795  1
  I  I66  1  0.49927223  0.33445364  0.16502440  1
  I  I67  1  0.50084579  0.33331950  0.50281277  1
  I  I68  1  0.50032465  0.33328898  0.83386525  1
  I  I69  1  0.50169406  0.66384226  0.16544789  1
  I  I70  1  0.50283843  0.66677313  0.49806881  1
  I  I71  1  0.49353433  0.67078729  0.83466307  1
  I  I72  1  0.83213161  -0.00002982  0.16770336  1
  I  I73  1  0.83732733  -0.00010824  0.50496356  1
  I  I74  1  0.83445439  0.00307555  0.82903688  1
  I  I75  1  0.83796417  0.33672024  0.17194380  1
  I  I76  1  0.83236940  0.33342079  0.49851865  1
  I  I77  1  0.83874819  0.32919745  0.82897882  1
  I  I78  1  0.82808776  0.66294328  0.17115149  1
  I  I79  1  0.83705098  0.66681334  0.49493304  1
  I  I80  1  0.83323070  0.66677528  0.83296363  1
  I  I81  1  0.16016606  0.16022295  -0.00296735  1
  I  I82  1  0.16605633  0.16539124  0.33336516  1
  I  I83  1  0.16481153  0.16005616  0.67075320  1
  I  I84  1  0.16362351  0.50613155  0.00389849  1
  I  I85  1  0.16865050  0.50494540  0.32923856  1
  I  I86  1  0.16387359  0.50147236  0.66638330  1
  I  I87  1  0.17161324  0.83271814  -0.00027504  1
  I  I88  1  0.16209806  0.82816477  0.33323183  1
  I  I89  1  0.16559866  0.83870017  0.66703326  1
  I  I90  1  0.50240019  0.17086490  0.00272506  1
  I  I91  1  0.50027780  0.16989638  0.32936408  1
  I  I92  1  0.49959320  0.16474850  0.66679604  1
  I  I93  1  0.50292949  0.49587322  0.00420831  1
  I  I94  1  0.49783349  0.49833768  0.32904085  1
  I  I95  1  0.50159166  0.50046337  0.66658658  1
  I  I96  1  0.49445984  0.83350952  -0.00275793  1
  I  I97  1  0.49956375  0.83319375  0.33314960  1
  I  I98  1  0.49469901  0.83610646  0.67029885  1
  I  I99  1  0.83566911  0.16744025  -0.00243446  1
  I  I100  1  0.83145794  0.16529752  0.33606851  1
  I  I101  1  0.83725879  0.16753124  0.66626353  1
  I  I102  1  0.83294229  0.49861019  0.00321476  1
  I  I103  1  0.83330106  0.49828508  0.33315133  1
  I  I104  1  0.83458939  0.50297927  0.66340127  1
  I  I105  1  0.83361379  0.83338984  -0.00001195  1
  I  I106  1  0.83757632  0.83852088  0.33707436  1
  I  I107  1  0.83857521  0.82839887  0.66315839  1
  I  I108  1  0.00000614  0.16756153  0.16728780  1
  I  I109  1  -0.00354848  0.16845220  0.49944705  1
  I  I110  1  0.00011480  0.16038028  0.83174194  1
  I  I111  1  -0.00005698  0.50468933  0.17032957  1
  I  I112  1  -0.00362401  0.49801819  0.49347407  1
  I  I113  1  -0.00003653  0.50410360  0.83709266  1
  I  I114  1  0.00405542  0.82912165  0.16115451  1
  I  I115  1  0.00006943  0.83288669  0.50158365  1
  I  I116  1  0.00312676  0.83532461  0.83516740  1
  I  I117  1  0.33610569  0.17180530  0.16334190  1
  I  I118  1  0.33318302  0.16464275  0.50037738  1
  I  I119  1  0.33064592  0.16202627  0.83765673  1
  I  I120  1  0.33303274  0.50125083  0.16364065  1
  I  I121  1  0.33314423  0.50178595  0.49899289  1
  I  I122  1  0.33326209  0.49597737  0.83548388  1
  I  I123  1  0.32964316  0.82812884  0.17024025  1
  I  I124  1  0.32984588  0.83343686  0.49749393  1
  I  I125  1  0.33111624  0.83963805  0.83305617  1
  I  I126  1  0.66399046  0.17176873  0.16484402  1
  I  I127  1  0.67133074  0.16438302  0.50682358  1
  I  I128  1  0.66923080  0.16547813  0.83014388  1
  I  I129  1  0.66692550  0.49492845  0.17078755  1
  I  I130  1  0.67116468  0.50347899  0.49425898  1
  I  I131  1  0.66683376  0.50108249  0.83596143  1
  I  I132  1  0.66677567  0.83264652  0.16577180  1
  I  I133  1  0.66995887  0.83324279  0.50131150  1
  I  I134  1  0.66495501  0.83474469  0.83328554  1
