# generated using pymatgen
data_Cs27Sn13Pb14I81
_symmetry_space_group_name_H-M   'P 1'
_cell_length_a   18.97321695
_cell_length_b   18.97893061
_cell_length_c   18.97796591
_cell_angle_alpha   89.99960485
_cell_angle_beta   90.00092874
_cell_angle_gamma   90.00025242
_symmetry_Int_Tables_number   1
_chemical_formula_structural   Cs27Sn13Pb14I81
_chemical_formula_sum   'Cs27 Sn13 Pb14 I81'
_cell_volume   6833.80170175
_cell_formula_units_Z   1
loop_
 _symmetry_equiv_pos_site_id
 _symmetry_equiv_pos_as_xyz
  1  'x, y, z'
loop_
 _atom_site_type_symbol
 _atom_site_label
 _atom_site_symmetry_multiplicity
 _atom_site_fract_x
 _atom_site_fract_y
 _atom_site_fract_z
 _atom_site_occupancy
  Cs  Cs0  1  -0.00073654  -0.00030907  0.00251938  1
  Cs  Cs1  1  -0.00023246  0.00005666  0.32910938  1
  Cs  Cs2  1  0.00232126  0.00682049  0.66821228  1
  Cs  Cs3  1  -0.00034595  0.33273634  -0.00436172  1
  Cs  Cs4  1  -0.00348554  0.33144866  0.33798338  1
  Cs  Cs5  1  -0.00055706  0.32523690  0.66614593  1
  Cs  Cs6  1  0.00457817  0.66737323  0.00245345  1
  Cs  Cs7  1  0.00068419  0.66811236  0.33253673  1
  Cs  Cs8  1  -0.00380388  0.66586953  0.66527866  1
  Cs  Cs9  1  0.33324816  -0.00165785  -0.00033300  1
  Cs  Cs10  1  0.33600171  0.00207181  0.33443865  1
  Cs  Cs11  1  0.33291565  -0.00076328  0.66714917  1
  Cs  Cs12  1  0.33267979  0.34057895  0.00272608  1
  Cs  Cs13  1  0.33484269  0.33244648  0.33178387  1
  Cs  Cs14  1  0.33048121  0.33213351  0.66691242  1
  Cs  Cs15  1  0.32603012  0.65958709  -0.00585574  1
  Cs  Cs16  1  0.33197176  0.66550549  0.33370540  1
  Cs  Cs17  1  0.33327813  0.66767570  0.66924930  1
  Cs  Cs18  1  0.66781394  0.00169987  0.00283969  1
  Cs  Cs19  1  0.66372894  -0.00117825  0.32983935  1
  Cs  Cs20  1  0.66415992  -0.00337417  0.66804629  1
  Cs  Cs21  1  0.66684829  0.33411902  0.00034325  1
  Cs  Cs22  1  0.66711674  0.33475323  0.33390991  1
  Cs  Cs23  1  0.66944317  0.33384966  0.66519535  1
  Cs  Cs24  1  0.66681533  0.66340004  -0.00406346  1
  Cs  Cs25  1  0.66738850  0.66726171  0.33533543  1
  Cs  Cs26  1  0.66815958  0.66701611  0.66712354  1
  Sn  Sn27  1  0.16743818  0.16667164  0.16669088  1
  Sn  Sn28  1  0.50016390  0.16665485  0.50029075  1
  Sn  Sn29  1  0.83341268  0.50072574  0.83417685  1
  Sn  Sn30  1  0.49909552  0.50040734  0.49999784  1
  Sn  Sn31  1  0.49994390  0.16676116  0.83364758  1
  Sn  Sn32  1  0.16686289  0.83285584  0.49996051  1
  Sn  Sn33  1  0.83326704  0.50029723  0.16589206  1
  Sn  Sn34  1  0.16736301  0.50052771  0.49999519  1
  Sn  Sn35  1  0.49975496  0.83296391  0.49936169  1
  Sn  Sn36  1  0.49961362  0.83270230  0.16653156  1
  Sn  Sn37  1  0.83348277  0.83363099  0.50064673  1
  Sn  Sn38  1  0.49894764  0.16610133  0.16629516  1
  Sn  Sn39  1  0.83333709  0.83294880  0.83289501  1
  Pb  Pb40  1  0.50114324  0.50044150  0.16843238  1
  Pb  Pb41  1  0.16412402  0.49780023  0.16920883  1
  Pb  Pb42  1  0.50141217  0.83456000  0.83369719  1
  Pb  Pb43  1  0.16369439  0.83340024  0.83078484  1
  Pb  Pb44  1  0.83120580  0.83145538  0.16648946  1
  Pb  Pb45  1  0.83051049  0.16293213  0.49980562  1
  Pb  Pb46  1  0.16975759  0.16664950  0.83642578  1
  Pb  Pb47  1  0.83279870  0.16890288  0.16667206  1
  Pb  Pb48  1  0.16886985  0.16637245  0.49838835  1
  Pb  Pb49  1  0.16367025  0.49997522  0.83023573  1
  Pb  Pb50  1  0.16965576  0.83478198  0.16881665  1
  Pb  Pb51  1  0.50168446  0.49781044  0.83039736  1
  Pb  Pb52  1  0.83357128  0.50163746  0.50035140  1
  Pb  Pb53  1  0.83132616  0.16620099  0.83332802  1
  I  I54  1  0.16805685  0.00280038  0.16984986  1
  I  I55  1  0.16706304  -0.00288743  0.49877865  1
  I  I56  1  0.16389520  0.00008072  0.82998285  1
  I  I57  1  0.17517704  0.33021670  0.16930580  1
  I  I58  1  0.17077877  0.33563555  0.49827163  1
  I  I59  1  0.16352955  0.33331008  0.82959313  1
  I  I60  1  0.16691123  0.66655741  0.16691823  1
  I  I61  1  0.17159212  0.66729001  0.49913566  1
  I  I62  1  0.17031048  0.66665545  0.83596167  1
  I  I63  1  0.49856345  0.00063729  0.17243592  1
  I  I64  1  0.50102256  -0.00049432  0.49902732  1
  I  I65  1  0.50314321  0.00268666  0.82901176  1
  I  I66  1  0.49841708  0.33039851  0.16858463  1
  I  I67  1  0.49600518  0.33319915  0.49947638  1
  I  I68  1  0.50290435  0.32981067  0.83413312  1
  I  I69  1  0.50442337  0.66933582  0.17425611  1
  I  I70  1  0.50069908  0.66781873  0.49490142  1
  I  I71  1  0.50111206  0.66646562  0.83288591  1
  I  I72  1  0.83405730  -0.00018643  0.16692974  1
  I  I73  1  0.83431452  -0.00517092  0.50548636  1
  I  I74  1  0.83111302  -0.00303662  0.82746454  1
  I  I75  1  0.83071385  0.33669407  0.16218750  1
  I  I76  1  0.83308869  0.33335067  0.50046683  1
  I  I77  1  0.83127908  0.33601372  0.83704897  1
  I  I78  1  0.83062894  0.66391100  0.16708575  1
  I  I79  1  0.82781601  0.66958199  0.50090507  1
  I  I80  1  0.83043350  0.66694770  0.83159403  1
  I  I81  1  0.17186347  0.16661868  0.00415157  1
  I  I82  1  0.17347048  0.16658954  0.33084450  1
  I  I83  1  0.16722753  0.16720895  0.66643783  1
  I  I84  1  0.16730953  0.49859405  0.00010547  1
  I  I85  1  0.16844226  0.50376699  0.33703477  1
  I  I86  1  0.17006564  0.50311849  0.66216606  1
  I  I87  1  0.16654836  0.83511790  0.00030146  1
  I  I88  1  0.16185921  0.82996269  0.33730177  1
  I  I89  1  0.17320993  0.83085606  0.66198454  1
  I  I90  1  0.49800730  0.16072772  0.00123228  1
  I  I91  1  0.49666099  0.16521253  0.33356926  1
  I  I92  1  0.50251834  0.16608424  0.66533568  1
  I  I93  1  0.50136119  0.49925087  -0.00011375  1
  I  I94  1  0.50056767  0.49648767  0.33686850  1
  I  I95  1  0.49975931  0.50151226  0.66203384  1
  I  I96  1  0.50441935  0.84047551  0.00275043  1
  I  I97  1  0.50261394  0.83838405  0.33528598  1
  I  I98  1  0.49952468  0.83474232  0.66314564  1
  I  I99  1  0.83024623  0.16298034  0.00005656  1
  I  I100  1  0.83124588  0.16895493  0.33336303  1
  I  I101  1  0.83204588  0.17193971  0.66644440  1
  I  I102  1  0.83076412  0.50487431  -0.00056135  1
  I  I103  1  0.83232907  0.50025262  0.33202374  1
  I  I104  1  0.83180691  0.50310304  0.66866225  1
  I  I105  1  0.82935225  0.83158415  -0.00247503  1
  I  I106  1  0.83327299  0.83129349  0.33620767  1
  I  I107  1  0.82984688  0.82671346  0.66557040  1
  I  I108  1  0.00248928  0.16808737  0.16855993  1
  I  I109  1  0.00020203  0.16810036  0.49813097  1
  I  I110  1  0.00004641  0.16714364  0.83434250  1
  I  I111  1  -0.00355080  0.49954926  0.16549999  1
  I  I112  1  0.00222587  0.50524991  0.49889677  1
  I  I113  1  -0.00434057  0.50367968  0.83573916  1
  I  I114  1  0.00000796  0.83527679  0.16827886  1
  I  I115  1  -0.00004505  0.82637315  0.50399448  1
  I  I116  1  -0.00462903  0.82981812  0.82871063  1
  I  I117  1  0.33567841  0.16322108  0.16864021  1
  I  I118  1  0.33737430  0.16256417  0.50123207  1
  I  I119  1  0.33779150  0.16506241  0.82827739  1
  I  I120  1  0.33330879  0.50078621  0.16705934  1
  I  I121  1  0.33444590  0.50410046  0.49851468  1
  I  I122  1  0.33336089  0.49873016  0.83419345  1
  I  I123  1  0.33781810  0.83586331  0.17358525  1
  I  I124  1  0.33462748  0.83336627  0.49484551  1
  I  I125  1  0.33341140  0.83549406  0.83225990  1
  I  I126  1  0.66282554  0.16354957  0.16770573  1
  I  I127  1  0.66186842  0.16911894  0.49678136  1
  I  I128  1  0.66322068  0.16637495  0.83461880  1
  I  I129  1  0.66903517  0.49812730  0.16664468  1
  I  I130  1  0.66410058  0.49989870  0.49964944  1
  I  I131  1  0.66963259  0.50328948  0.83384926  1
  I  I132  1  0.66328922  0.84076251  0.17428747  1
  I  I133  1  0.66557229  0.83339225  0.50022428  1
  I  I134  1  0.66939047  0.83035171  0.82643312  1
