# generated using pymatgen
data_Cs27Sn13Pb14I81
_symmetry_space_group_name_H-M   'P 1'
_cell_length_a   18.97840283
_cell_length_b   18.98242065
_cell_length_c   18.97313420
_cell_angle_alpha   89.99784492
_cell_angle_beta   89.99974789
_cell_angle_gamma   90.00123782
_symmetry_Int_Tables_number   1
_chemical_formula_structural   Cs27Sn13Pb14I81
_chemical_formula_sum   'Cs27 Sn13 Pb14 I81'
_cell_volume   6835.18591713
_cell_formula_units_Z   1
loop_
 _symmetry_equiv_pos_site_id
 _symmetry_equiv_pos_as_xyz
  1  'x, y, z'
loop_
 _atom_site_type_symbol
 _atom_site_label
 _atom_site_symmetry_multiplicity
 _atom_site_fract_x
 _atom_site_fract_y
 _atom_site_fract_z
 _atom_site_occupancy
  Cs  Cs0  1  0.00105591  -0.00001694  0.00073236  1
  Cs  Cs1  1  -0.00133354  -0.00080657  0.33386163  1
  Cs  Cs2  1  0.00560072  0.00507717  0.66754065  1
  Cs  Cs3  1  0.00263923  0.33266099  -0.00170400  1
  Cs  Cs4  1  0.00676417  0.33488815  0.33360149  1
  Cs  Cs5  1  -0.00154144  0.32604884  0.66897238  1
  Cs  Cs6  1  -0.00231197  0.66567383  0.00076613  1
  Cs  Cs7  1  -0.00110519  0.66593867  0.33467097  1
  Cs  Cs8  1  0.00171558  0.66715031  0.66443182  1
  Cs  Cs9  1  0.33103812  -0.00074698  -0.00500727  1
  Cs  Cs10  1  0.33552178  0.00049555  0.33413686  1
  Cs  Cs11  1  0.32690828  0.00519044  0.67524713  1
  Cs  Cs12  1  0.32956790  0.33292612  0.00006595  1
  Cs  Cs13  1  0.32842355  0.33498115  0.33359202  1
  Cs  Cs14  1  0.33462184  0.32481667  0.66685398  1
  Cs  Cs15  1  0.33472583  0.66696162  -0.00227970  1
  Cs  Cs16  1  0.33534624  0.66451060  0.33470915  1
  Cs  Cs17  1  0.33018714  0.66898706  0.66832590  1
  Cs  Cs18  1  0.66627557  -0.00300415  0.00432020  1
  Cs  Cs19  1  0.66667626  -0.00166605  0.33210051  1
  Cs  Cs20  1  0.66553444  0.00738703  0.66459440  1
  Cs  Cs21  1  0.66751122  0.33645420  -0.00260943  1
  Cs  Cs22  1  0.66547721  0.33481089  0.33363686  1
  Cs  Cs23  1  0.66723306  0.32788991  0.67144296  1
  Cs  Cs24  1  0.66686394  0.66590085  0.00015495  1
  Cs  Cs25  1  0.66661425  0.66737942  0.33280794  1
  Cs  Cs26  1  0.66681381  0.66444628  0.66431576  1
  Sn  Sn27  1  0.50103799  0.50074776  0.49945505  1
  Sn  Sn28  1  0.83335162  0.83306135  0.16693923  1
  Sn  Sn29  1  0.49976156  0.83314096  0.16727401  1
  Sn  Sn30  1  0.16702800  0.83272595  0.16720281  1
  Sn  Sn31  1  0.50092651  0.16694406  0.16693874  1
  Sn  Sn32  1  0.83268498  0.83319431  0.83242126  1
  Sn  Sn33  1  0.83234328  0.83277435  0.50028354  1
  Sn  Sn34  1  0.83276798  0.49971536  0.16747828  1
  Sn  Sn35  1  0.50061903  0.83285900  0.49966865  1
  Sn  Sn36  1  0.16652012  0.50053447  0.83304744  1
  Sn  Sn37  1  0.50079639  0.49988468  0.16730430  1
  Sn  Sn38  1  0.83250426  0.16721558  0.16713131  1
  Sn  Sn39  1  0.83238069  0.50044602  0.49927911  1
  Pb  Pb40  1  0.49828429  0.50026036  0.83265429  1
  Pb  Pb41  1  0.16705903  0.83329057  0.49792556  1
  Pb  Pb42  1  0.50044080  0.16657035  0.83683341  1
  Pb  Pb43  1  0.16399588  0.83172290  0.83569580  1
  Pb  Pb44  1  0.83302137  0.16349959  0.83649740  1
  Pb  Pb45  1  0.83453928  0.50172805  0.83283468  1
  Pb  Pb46  1  0.50010224  0.16650574  0.49756340  1
  Pb  Pb47  1  0.50243435  0.83314617  0.83239989  1
  Pb  Pb48  1  0.16682799  0.16383373  0.16693266  1
  Pb  Pb49  1  0.83331781  0.16681731  0.49720044  1
  Pb  Pb50  1  0.16682075  0.50010478  0.50246684  1
  Pb  Pb51  1  0.16676828  0.50216547  0.16557258  1
  Pb  Pb52  1  0.16640342  0.16944659  0.83393515  1
  Pb  Pb53  1  0.16673979  0.16648518  0.49944111  1
  I  I54  1  0.16512923  -0.00421392  0.16591577  1
  I  I55  1  0.16588484  -0.00062512  0.49933983  1
  I  I56  1  0.16622202  -0.00012718  0.83424845  1
  I  I57  1  0.16634943  0.33360302  0.16444209  1
  I  I58  1  0.16649483  0.33387579  0.49935554  1
  I  I59  1  0.16501029  0.33697825  0.83615944  1
  I  I60  1  0.16502130  0.66988597  0.16536830  1
  I  I61  1  0.16601611  0.66669749  0.50031408  1
  I  I62  1  0.16675753  0.66442503  0.83454479  1
  I  I63  1  0.50348360  -0.00149842  0.16986913  1
  I  I64  1  0.50575099  -0.00363780  0.49384908  1
  I  I65  1  0.49948533  -0.00028461  0.83348918  1
  I  I66  1  0.50694341  0.33445513  0.16959961  1
  I  I67  1  0.50346160  0.33687889  0.49586505  1
  I  I68  1  0.49931142  0.33350411  0.83321109  1
  I  I69  1  0.50250252  0.66702651  0.16937662  1
  I  I70  1  0.50437201  0.66692720  0.49065610  1
  I  I71  1  0.49914596  0.66675426  0.84018073  1
  I  I72  1  0.83127310  -0.00171433  0.16581725  1
  I  I73  1  0.82930701  -0.00369384  0.49815539  1
  I  I74  1  0.83379532  -0.00464653  0.83381974  1
  I  I75  1  0.82668468  0.33456986  0.17041465  1
  I  I76  1  0.82986075  0.33703617  0.49574722  1
  I  I77  1  0.83587049  0.33332978  0.83374201  1
  I  I78  1  0.83179531  0.66735147  0.16629058  1
  I  I79  1  0.83040437  0.66731483  0.49466230  1
  I  I80  1  0.83418909  0.66951321  0.84031730  1
  I  I81  1  0.16689975  0.16611902  0.00062352  1
  I  I82  1  0.16607161  0.16842546  0.33237145  1
  I  I83  1  0.16667683  0.16592967  0.66708363  1
  I  I84  1  0.16562135  0.50227145  -0.00188873  1
  I  I85  1  0.16625125  0.50039284  0.33338565  1
  I  I86  1  0.16552173  0.50272578  0.66974723  1
  I  I87  1  0.16711939  0.83273004  0.00380767  1
  I  I88  1  0.16164179  0.83197742  0.32964178  1
  I  I89  1  0.16641023  0.83264675  0.66679693  1
  I  I90  1  0.50416647  0.16580293  0.00552936  1
  I  I91  1  0.50507196  0.16493332  0.32921224  1
  I  I92  1  0.49804204  0.16691646  0.66635653  1
  I  I93  1  0.50365568  0.50101239  0.00378002  1
  I  I94  1  0.50338468  0.50160124  0.33191789  1
  I  I95  1  0.50374664  0.50690808  0.66261069  1
  I  I96  1  0.50112453  0.83305699  0.00381350  1
  I  I97  1  0.50432916  0.83273390  0.33160902  1
  I  I98  1  0.50513892  0.82607704  0.66266376  1
  I  I99  1  0.82955590  0.16731893  0.00495746  1
  I  I100  1  0.82889474  0.16078871  0.32901677  1
  I  I101  1  0.83527337  0.16702504  0.66655632  1
  I  I102  1  0.83050169  0.50168607  0.00350269  1
  I  I103  1  0.83045183  0.50520551  0.33205614  1
  I  I104  1  0.83056021  0.50644199  0.66311159  1
  I  I105  1  0.83382375  0.83343390  0.00252105  1
  I  I106  1  0.83305174  0.83304375  0.33200081  1
  I  I107  1  0.82878949  0.82582623  0.66513528  1
  I  I108  1  -0.00336042  0.16590366  0.16642213  1
  I  I109  1  -0.00060816  0.16670716  0.49702468  1
  I  I110  1  -0.00039408  0.16636013  0.83613062  1
  I  I111  1  -0.00338699  0.50106971  0.16907526  1
  I  I112  1  -0.00363376  0.50548596  0.49479404  1
  I  I113  1  0.00206107  0.50304576  0.83613075  1
  I  I114  1  -0.00216815  0.83335255  0.16600406  1
  I  I115  1  -0.00369405  0.82875702  0.49761879  1
  I  I116  1  -0.00387239  0.83156744  0.83497013  1
  I  I117  1  0.33687338  0.16719018  0.16740583  1
  I  I118  1  0.33395900  0.16749036  0.49648942  1
  I  I119  1  0.33326820  0.16587179  0.83515521  1
  I  I120  1  0.33678334  0.50019178  0.16930344  1
  I  I121  1  0.33710567  0.50499425  0.49441208  1
  I  I122  1  0.33066674  0.50184127  0.83635582  1
  I  I123  1  0.33499546  0.83297300  0.17095652  1
  I  I124  1  0.33719856  0.82783202  0.49281028  1
  I  I125  1  0.33322933  0.83285360  0.83478550  1
  I  I126  1  0.66694687  0.16142798  0.16682105  1
  I  I127  1  0.66674517  0.16630876  0.50200569  1
  I  I128  1  0.66703850  0.16867181  0.83109337  1
  I  I129  1  0.66703956  0.50388680  0.16862242  1
  I  I130  1  0.66702382  0.50565440  0.49470242  1
  I  I131  1  0.66679512  0.50092444  0.83504867  1
  I  I132  1  0.66718044  0.83388444  0.16645201  1
  I  I133  1  0.66735585  0.82895956  0.49383732  1
  I  I134  1  0.67025105  0.83092229  0.84124237  1
