# generated using pymatgen
data_Cs27Sn14Pb13I81
_symmetry_space_group_name_H-M   'P 1'
_cell_length_a   18.98398798
_cell_length_b   18.97671650
_cell_length_c   18.96710455
_cell_angle_alpha   90.00091454
_cell_angle_beta   89.99985309
_cell_angle_gamma   90.00039647
_symmetry_Int_Tables_number   1
_chemical_formula_structural   Cs27Sn14Pb13I81
_chemical_formula_sum   'Cs27 Sn14 Pb13 I81'
_cell_volume   6832.97068997
_cell_formula_units_Z   1
loop_
 _symmetry_equiv_pos_site_id
 _symmetry_equiv_pos_as_xyz
  1  'x, y, z'
loop_
 _atom_site_type_symbol
 _atom_site_label
 _atom_site_symmetry_multiplicity
 _atom_site_fract_x
 _atom_site_fract_y
 _atom_site_fract_z
 _atom_site_occupancy
  Cs  Cs0  1  0.00066723  -0.00117987  0.00224678  1
  Cs  Cs1  1  -0.00025034  -0.00151489  0.32427127  1
  Cs  Cs2  1  0.00249330  0.00195546  0.66839976  1
  Cs  Cs3  1  -0.00133588  0.33159477  0.00103040  1
  Cs  Cs4  1  0.00003282  0.33958368  0.32612693  1
  Cs  Cs5  1  0.00094555  0.33203586  0.66748081  1
  Cs  Cs6  1  0.00046588  0.67051238  0.00015831  1
  Cs  Cs7  1  -0.00694056  0.65991144  0.32711211  1
  Cs  Cs8  1  0.00082623  0.66629841  0.66767736  1
  Cs  Cs9  1  0.33444331  -0.00046197  0.00009569  1
  Cs  Cs10  1  0.33494477  0.00069219  0.33383019  1
  Cs  Cs11  1  0.33224688  0.00072093  0.66704501  1
  Cs  Cs12  1  0.33605406  0.33437430  0.00021702  1
  Cs  Cs13  1  0.33069320  0.33903209  0.33282428  1
  Cs  Cs14  1  0.33187675  0.33126149  0.66708333  1
  Cs  Cs15  1  0.33466264  0.66777455  0.00032567  1
  Cs  Cs16  1  0.33215335  0.65668694  0.33535099  1
  Cs  Cs17  1  0.33316972  0.66711740  0.66551159  1
  Cs  Cs18  1  0.66426366  0.00093909  -0.00084689  1
  Cs  Cs19  1  0.66556715  -0.00210014  0.33476822  1
  Cs  Cs20  1  0.66621457  0.00099119  0.66637924  1
  Cs  Cs21  1  0.66501556  0.33476452  -0.00001460  1
  Cs  Cs22  1  0.66928815  0.33717468  0.32956672  1
  Cs  Cs23  1  0.66721477  0.32969806  0.66880610  1
  Cs  Cs24  1  0.66377621  0.66412212  -0.00095619  1
  Cs  Cs25  1  0.67441166  0.66189316  0.34327084  1
  Cs  Cs26  1  0.66600900  0.66723854  0.66094487  1
  Sn  Sn27  1  0.83305087  0.83352274  0.83304648  1
  Sn  Sn28  1  0.49983339  0.16565813  0.83318347  1
  Sn  Sn29  1  0.83356841  0.16631247  0.83284799  1
  Sn  Sn30  1  0.16594460  0.49991444  0.83310069  1
  Sn  Sn31  1  0.16589920  0.16547355  0.50033339  1
  Sn  Sn32  1  0.49989556  0.16643543  0.49972912  1
  Sn  Sn33  1  0.49976682  0.16568092  0.16678028  1
  Sn  Sn34  1  0.16661484  0.16660974  0.83315001  1
  Sn  Sn35  1  0.83423462  0.16617130  0.50044415  1
  Sn  Sn36  1  0.50003235  0.83429771  0.83381473  1
  Sn  Sn37  1  0.49997141  0.83355538  0.16691130  1
  Sn  Sn38  1  0.16681670  0.83352783  0.83263437  1
  Sn  Sn39  1  0.16627357  0.83418412  0.50012102  1
  Sn  Sn40  1  0.83417036  0.49998554  0.83292882  1
  Pb  Pb41  1  0.50001134  0.50032362  0.83298894  1
  Pb  Pb42  1  0.16675609  0.50018557  0.16307742  1
  Pb  Pb43  1  0.50001388  0.49659841  0.50045595  1
  Pb  Pb44  1  0.83369283  0.49688824  0.50304113  1
  Pb  Pb45  1  0.50019125  0.50087221  0.16660346  1
  Pb  Pb46  1  0.49791767  0.83493839  0.50007040  1
  Pb  Pb47  1  0.83654521  0.83592576  0.50222287  1
  Pb  Pb48  1  0.16639063  0.49977929  0.50234342  1
  Pb  Pb49  1  0.16910760  0.16654980  0.16683724  1
  Pb  Pb50  1  0.16914225  0.83335676  0.16720435  1
  Pb  Pb51  1  0.83001478  0.83351572  0.16425549  1
  Pb  Pb52  1  0.83072532  0.16640121  0.16644015  1
  Pb  Pb53  1  0.83308830  0.50009858  0.16328687  1
  I  I54  1  0.16501571  0.00006696  0.16132836  1
  I  I55  1  0.16825523  0.00147876  0.51030445  1
  I  I56  1  0.16576909  0.00040934  0.82996360  1
  I  I57  1  0.17021013  0.33310460  0.16674068  1
  I  I58  1  0.16854600  0.32941206  0.50519098  1
  I  I59  1  0.16499805  0.33181357  0.82988281  1
  I  I60  1  0.17088079  0.66688924  0.16639054  1
  I  I61  1  0.16973561  0.66970597  0.50639736  1
  I  I62  1  0.16448598  0.66779290  0.83021376  1
  I  I63  1  0.49956329  0.00097280  0.16316185  1
  I  I64  1  0.50177650  0.00377483  0.50169510  1
  I  I65  1  0.50001456  0.00119643  0.83379343  1
  I  I66  1  0.49992078  0.32997050  0.16474817  1
  I  I67  1  0.49639218  0.32735817  0.50256353  1
  I  I68  1  0.49992039  0.32963353  0.83339796  1
  I  I69  1  0.49799804  0.67036273  0.15631311  1
  I  I70  1  0.49774162  0.66702104  0.50010010  1
  I  I71  1  0.49942392  0.67026304  0.83927970  1
  I  I72  1  0.83556380  0.00009177  0.16328884  1
  I  I73  1  0.82944341  0.00405519  0.50753722  1
  I  I74  1  0.83423199  0.00074165  0.83008527  1
  I  I75  1  0.83032446  0.33295682  0.16459030  1
  I  I76  1  0.83415668  0.32844018  0.50704850  1
  I  I77  1  0.83541169  0.33189796  0.82969459  1
  I  I78  1  0.83101310  0.66685639  0.16546065  1
  I  I79  1  0.83344778  0.66689409  0.50112966  1
  I  I80  1  0.83658589  0.66729850  0.83597731  1
  I  I81  1  0.16584713  0.16610236  -0.00402767  1
  I  I82  1  0.16700660  0.16112561  0.33698778  1
  I  I83  1  0.17079161  0.16655091  0.66837953  1
  I  I84  1  0.16332146  0.49920928  -0.00550099  1
  I  I85  1  0.16831549  0.49941204  0.33356857  1
  I  I86  1  0.16318122  0.49904494  0.67078637  1
  I  I87  1  0.16460973  0.83403682  -0.00406406  1
  I  I88  1  0.16975438  0.84196000  0.33669823  1
  I  I89  1  0.16935129  0.83466677  0.66926029  1
  I  I90  1  0.50005300  0.16354994  -0.00179269  1
  I  I91  1  0.49970312  0.16179399  0.33374767  1
  I  I92  1  0.50018726  0.16366546  0.66792834  1
  I  I93  1  0.49983612  0.49432143  -0.00051943  1
  I  I94  1  0.49911223  0.50020747  0.33336207  1
  I  I95  1  0.49988288  0.50082008  0.66728667  1
  I  I96  1  0.49842578  0.84160251  -0.00246640  1
  I  I97  1  0.49659977  0.84093398  0.33106658  1
  I  I98  1  0.50150060  0.83712271  0.67022123  1
  I  I99  1  0.83396165  0.16724513  -0.00425489  1
  I  I100  1  0.83338408  0.16610532  0.33653924  1
  I  I101  1  0.82877790  0.16706239  0.66867507  1
  I  I102  1  0.83695805  0.49581094  -0.00519910  1
  I  I103  1  0.83224644  0.49858270  0.33365206  1
  I  I104  1  0.83728452  0.50156287  0.67116589  1
  I  I105  1  0.83955703  0.83686804  -0.00516427  1
  I  I106  1  0.83355343  0.83527908  0.33372071  1
  I  I107  1  0.82706881  0.83154396  0.67119868  1
  I  I108  1  -0.00004578  0.16818487  0.16575481  1
  I  I109  1  0.00064873  0.16302140  0.51173474  1
  I  I110  1  0.00017375  0.16545893  0.82696548  1
  I  I111  1  -0.00006805  0.49906331  0.16870277  1
  I  I112  1  0.00006584  0.49780744  0.49959453  1
  I  I113  1  0.00024495  0.49889439  0.83247517  1
  I  I114  1  -0.00003755  0.83250702  0.16516137  1
  I  I115  1  0.00432313  0.83971076  0.50841623  1
  I  I116  1  0.00051183  0.83520509  0.82870138  1
  I  I117  1  0.33718977  0.16236901  0.16396406  1
  I  I118  1  0.33305417  0.16291697  0.50433164  1
  I  I119  1  0.33349155  0.16515450  0.83148755  1
  I  I120  1  0.33356446  0.49884337  0.16435016  1
  I  I121  1  0.33301216  0.49804593  0.50243315  1
  I  I122  1  0.33038835  0.49886393  0.83306286  1
  I  I123  1  0.33688340  0.83988126  0.15766629  1
  I  I124  1  0.33020329  0.84039539  0.50783261  1
  I  I125  1  0.33315951  0.83593892  0.83391664  1
  I  I126  1  0.66259995  0.16286420  0.16457304  1
  I  I127  1  0.66640452  0.16756784  0.50503125  1
  I  I128  1  0.66630704  0.16513108  0.83116711  1
  I  I129  1  0.66653513  0.49776950  0.16252414  1
  I  I130  1  0.66695722  0.50011932  0.50272241  1
  I  I131  1  0.66958417  0.49823227  0.83411731  1
  I  I132  1  0.66206107  0.84025646  0.15992335  1
  I  I133  1  0.66678048  0.83455925  0.50075011  1
  I  I134  1  0.66632917  0.83671255  0.83854719  1
