# generated using pymatgen
data_Cs27Sn13Pb14I81
_symmetry_space_group_name_H-M   'P 1'
_cell_length_a   18.97341830
_cell_length_b   18.98309514
_cell_length_c   18.97390334
_cell_angle_alpha   89.99929913
_cell_angle_beta   89.99973718
_cell_angle_gamma   90.00009343
_symmetry_Int_Tables_number   1
_chemical_formula_structural   Cs27Sn13Pb14I81
_chemical_formula_sum   'Cs27 Sn13 Pb14 I81'
_cell_volume   6833.91054245
_cell_formula_units_Z   1
loop_
 _symmetry_equiv_pos_site_id
 _symmetry_equiv_pos_as_xyz
  1  'x, y, z'
loop_
 _atom_site_type_symbol
 _atom_site_label
 _atom_site_symmetry_multiplicity
 _atom_site_fract_x
 _atom_site_fract_y
 _atom_site_fract_z
 _atom_site_occupancy
  Cs  Cs0  1  -0.00093862  0.00144729  0.00087414  1
  Cs  Cs1  1  0.00251144  0.00047978  0.33152604  1
  Cs  Cs2  1  0.00159700  -0.00311830  0.66772178  1
  Cs  Cs3  1  0.00000768  0.33366310  0.00018091  1
  Cs  Cs4  1  0.00080854  0.33447801  0.33533166  1
  Cs  Cs5  1  -0.00154627  0.33670366  0.66499250  1
  Cs  Cs6  1  -0.00068189  0.66432635  -0.00074529  1
  Cs  Cs7  1  0.00355038  0.66581829  0.33644857  1
  Cs  Cs8  1  -0.00115702  0.66785036  0.66434996  1
  Cs  Cs9  1  0.33306539  -0.00082667  -0.00407934  1
  Cs  Cs10  1  0.33150353  0.00024008  0.33391104  1
  Cs  Cs11  1  0.33272493  0.00242423  0.66952025  1
  Cs  Cs12  1  0.33204176  0.33456621  -0.00178618  1
  Cs  Cs13  1  0.33338453  0.33283607  0.33126695  1
  Cs  Cs14  1  0.33605934  0.33037086  0.67602925  1
  Cs  Cs15  1  0.33502005  0.66624914  -0.00732710  1
  Cs  Cs16  1  0.33343967  0.66665521  0.33335925  1
  Cs  Cs17  1  0.33359595  0.66617833  0.67107220  1
  Cs  Cs18  1  0.66861768  -0.00459642  0.00470874  1
  Cs  Cs19  1  0.66717513  0.00183884  0.33087323  1
  Cs  Cs20  1  0.66567331  0.00310066  0.66478399  1
  Cs  Cs21  1  0.66769503  0.33599287  0.00075406  1
  Cs  Cs22  1  0.66559868  0.33201798  0.33422786  1
  Cs  Cs23  1  0.66581255  0.33023454  0.66428695  1
  Cs  Cs24  1  0.66561642  0.66680020  0.00108817  1
  Cs  Cs25  1  0.66399344  0.66719500  0.33216842  1
  Cs  Cs26  1  0.66874175  0.66587838  0.66657108  1
  Sn  Sn27  1  0.83283992  0.50015061  0.16676320  1
  Sn  Sn28  1  0.16687242  0.83371017  0.16693144  1
  Sn  Sn29  1  0.83321102  0.16655564  0.83332911  1
  Sn  Sn30  1  0.16762766  0.16585000  0.16742785  1
  Sn  Sn31  1  0.50054878  0.49938163  0.16751232  1
  Sn  Sn32  1  0.49932025  0.16709092  0.16671602  1
  Sn  Sn33  1  0.83307125  0.83354620  0.50009117  1
  Sn  Sn34  1  0.16720869  0.83412082  0.49922366  1
  Sn  Sn35  1  0.83295754  0.49986008  0.83386417  1
  Sn  Sn36  1  0.49981072  0.83278985  0.49975579  1
  Sn  Sn37  1  0.83325187  0.83360652  0.83282470  1
  Sn  Sn38  1  0.49954074  0.50038881  0.49943756  1
  Sn  Sn39  1  0.16675912  0.16634812  0.49954000  1
  Pb  Pb40  1  0.16378617  0.50000197  0.83311904  1
  Pb  Pb41  1  0.16454101  0.16661677  0.83360243  1
  Pb  Pb42  1  0.16996543  0.49990769  0.50012707  1
  Pb  Pb43  1  0.50276129  0.16643611  0.83692750  1
  Pb  Pb44  1  0.49749830  0.83303201  0.16841632  1
  Pb  Pb45  1  0.50287767  0.83355612  0.83023883  1
  Pb  Pb46  1  0.83378020  0.16880317  0.16532600  1
  Pb  Pb47  1  0.16452329  0.83329803  0.83307660  1
  Pb  Pb48  1  0.83125545  0.50187380  0.49968538  1
  Pb  Pb49  1  0.50244490  0.49996271  0.83344200  1
  Pb  Pb50  1  0.16734515  0.49999931  0.16672811  1
  Pb  Pb51  1  0.49777524  0.16657751  0.49819895  1
  Pb  Pb52  1  0.83578621  0.16419850  0.50171889  1
  Pb  Pb53  1  0.83556864  0.83102052  0.16714453  1
  I  I54  1  0.17020052  0.00053586  0.17128059  1
  I  I55  1  0.16733220  -0.00128302  0.49550407  1
  I  I56  1  0.16238485  -0.00006387  0.83385061  1
  I  I57  1  0.16676137  0.33026568  0.17083972  1
  I  I58  1  0.16620487  0.33035220  0.49455477  1
  I  I59  1  0.16358016  0.33303791  0.83279267  1
  I  I60  1  0.16449547  0.66940376  0.17212818  1
  I  I61  1  0.16385606  0.67019582  0.49569125  1
  I  I62  1  0.16433321  0.66695743  0.83420136  1
  I  I63  1  0.49857201  0.00231721  0.16797457  1
  I  I64  1  0.50211781  -0.00290905  0.49899539  1
  I  I65  1  0.50333286  0.00000579  0.83328046  1
  I  I66  1  0.49921646  0.33403165  0.17250492  1
  I  I67  1  0.50010230  0.33570156  0.49722838  1
  I  I68  1  0.50305510  0.33329014  0.82776906  1
  I  I69  1  0.50346604  0.66393002  0.16910132  1
  I  I70  1  0.49952646  0.66719490  0.49383170  1
  I  I71  1  0.50198267  0.66671494  0.83785342  1
  I  I72  1  0.83094120  -0.00013683  0.16481148  1
  I  I73  1  0.82874040  -0.00414656  0.50471402  1
  I  I74  1  0.83449847  -0.00071455  0.82842370  1
  I  I75  1  0.83377209  0.33670194  0.16112206  1
  I  I76  1  0.83381396  0.33332863  0.50177879  1
  I  I77  1  0.83403252  0.33398090  0.83944006  1
  I  I78  1  0.82866801  0.66336029  0.16145345  1
  I  I79  1  0.83825125  0.67008693  0.50498682  1
  I  I80  1  0.83366426  0.66673528  0.83279097  1
  I  I81  1  0.16899340  0.16276801  0.00355126  1
  I  I82  1  0.16885071  0.16168778  0.33257506  1
  I  I83  1  0.16515798  0.16122930  0.66376469  1
  I  I84  1  0.16994971  0.50057857  0.00037803  1
  I  I85  1  0.16026161  0.50045748  0.33333630  1
  I  I86  1  0.16643353  0.50018379  0.66624228  1
  I  I87  1  0.16463180  0.83737259  0.00289731  1
  I  I88  1  0.16348070  0.83728251  0.33449826  1
  I  I89  1  0.16764202  0.83744418  0.66297831  1
  I  I90  1  0.49298266  0.17328748  0.00484785  1
  I  I91  1  0.49984589  0.16842009  0.33021425  1
  I  I92  1  0.49892297  0.16758034  0.66654636  1
  I  I93  1  0.50205972  0.49588282  0.00331607  1
  I  I94  1  0.50659707  0.50042815  0.33239755  1
  I  I95  1  0.50041268  0.50519967  0.66375097  1
  I  I96  1  0.49980085  0.83282303  0.00024316  1
  I  I97  1  0.50523417  0.83173981  0.33666160  1
  I  I98  1  0.49469027  0.82730484  0.66173480  1
  I  I99  1  0.83478975  0.16212206  -0.00278385  1
  I  I100  1  0.83218664  0.16676707  0.33326492  1
  I  I101  1  0.83490112  0.17188437  0.66983745  1
  I  I102  1  0.82830343  0.50220260  0.00001533  1
  I  I103  1  0.83136340  0.50153649  0.33079057  1
  I  I104  1  0.83271147  0.49927840  0.66914695  1
  I  I105  1  0.83588523  0.83423140  -0.00230717  1
  I  I106  1  0.83251319  0.83107118  0.33624329  1
  I  I107  1  0.83556358  0.83078160  0.66629662  1
  I  I108  1  0.00294438  0.16380891  0.16847006  1
  I  I109  1  0.00370758  0.16189349  0.49356143  1
  I  I110  1  -0.00348871  0.16663022  0.83557400  1
  I  I111  1  -0.00247554  0.50046727  0.16104064  1
  I  I112  1  -0.00006158  0.50107708  0.50040295  1
  I  I113  1  -0.00497769  0.50033926  0.83946438  1
  I  I114  1  0.00326194  0.83817033  0.17156251  1
  I  I115  1  0.00030225  0.83708762  0.50108273  1
  I  I116  1  -0.00375613  0.83234991  0.82772199  1
  I  I117  1  0.33280953  0.16901068  0.17132457  1
  I  I118  1  0.32991340  0.16087861  0.49800364  1
  I  I119  1  0.33333801  0.16692256  0.83140239  1
  I  I120  1  0.33656663  0.49870055  0.17252672  1
  I  I121  1  0.33767699  0.50608253  0.49130611  1
  I  I122  1  0.33389742  0.50010207  0.83402101  1
  I  I123  1  0.32968619  0.83303329  0.17343354  1
  I  I124  1  0.33281086  0.83283504  0.49318015  1
  I  I125  1  0.33336261  0.83292895  0.83328377  1
  I  I126  1  0.66439190  0.16933773  0.16487166  1
  I  I127  1  0.66655355  0.16543872  0.49986046  1
  I  I128  1  0.67084154  0.16699663  0.83290493  1
  I  I129  1  0.66612010  0.49543463  0.16619141  1
  I  I130  1  0.66345440  0.50536880  0.49854238  1
  I  I131  1  0.67061879  0.50113535  0.83518054  1
  I  I132  1  0.66662983  0.83553468  0.16725814  1
  I  I133  1  0.66667614  0.82792009  0.50528884  1
  I  I134  1  0.67128819  0.83260686  0.82991926  1
