# generated using pymatgen
data_Cs27Sn14Pb13I81
_symmetry_space_group_name_H-M   'P 1'
_cell_length_a   18.95774164
_cell_length_b   18.96745875
_cell_length_c   18.96172782
_cell_angle_alpha   90.00136665
_cell_angle_beta   89.99977954
_cell_angle_gamma   89.99890324
_symmetry_Int_Tables_number   1
_chemical_formula_structural   Cs27Sn14Pb13I81
_chemical_formula_sum   'Cs27 Sn14 Pb13 I81'
_cell_volume   6818.26154701
_cell_formula_units_Z   1
loop_
 _symmetry_equiv_pos_site_id
 _symmetry_equiv_pos_as_xyz
  1  'x, y, z'
loop_
 _atom_site_type_symbol
 _atom_site_label
 _atom_site_symmetry_multiplicity
 _atom_site_fract_x
 _atom_site_fract_y
 _atom_site_fract_z
 _atom_site_occupancy
  Cs  Cs0  1  -0.00384974  0.00222533  -0.00040618  1
  Cs  Cs1  1  0.00204750  0.00125991  0.33444668  1
  Cs  Cs2  1  0.00254192  -0.00243936  0.66691032  1
  Cs  Cs3  1  -0.00771387  0.33249594  0.00144342  1
  Cs  Cs4  1  0.00052793  0.33283913  0.33226230  1
  Cs  Cs5  1  0.00080143  0.33548099  0.66716146  1
  Cs  Cs6  1  -0.00182993  0.66368171  -0.00239012  1
  Cs  Cs7  1  -0.00181484  0.66407111  0.33478554  1
  Cs  Cs8  1  -0.00267141  0.66702906  0.66674902  1
  Cs  Cs9  1  0.33273076  -0.00073201  -0.00199147  1
  Cs  Cs10  1  0.33282158  -0.00018189  0.33488968  1
  Cs  Cs11  1  0.33296335  -0.00046408  0.66634683  1
  Cs  Cs12  1  0.33317167  0.33469474  -0.00184161  1
  Cs  Cs13  1  0.33284890  0.33322344  0.33468991  1
  Cs  Cs14  1  0.33435620  0.33376978  0.66662748  1
  Cs  Cs15  1  0.33342262  0.66646851  0.00001476  1
  Cs  Cs16  1  0.33331715  0.66674188  0.33181650  1
  Cs  Cs17  1  0.33338566  0.66697098  0.66681565  1
  Cs  Cs18  1  0.67529457  0.00129916  0.00272276  1
  Cs  Cs19  1  0.66661531  0.00014486  0.33162500  1
  Cs  Cs20  1  0.66399803  -0.00155289  0.66723010  1
  Cs  Cs21  1  0.67612711  0.33061595  0.00024802  1
  Cs  Cs22  1  0.66665959  0.33183703  0.33370200  1
  Cs  Cs23  1  0.66347502  0.33599441  0.66708537  1
  Cs  Cs24  1  0.66947257  0.66834135  0.00604338  1
  Cs  Cs25  1  0.67029859  0.66827486  0.32749618  1
  Cs  Cs26  1  0.66888336  0.66533414  0.66635115  1
  Sn  Sn27  1  0.16775075  0.50020144  0.50082821  1
  Sn  Sn28  1  0.83328799  0.16646121  0.50052077  1
  Sn  Sn29  1  0.16762957  0.83242456  0.83341964  1
  Sn  Sn30  1  0.49854665  0.16675583  0.16698600  1
  Sn  Sn31  1  0.49906594  0.50063122  0.50025935  1
  Sn  Sn32  1  0.49983544  0.16654674  0.49930303  1
  Sn  Sn33  1  0.16779770  0.50074786  0.83245749  1
  Sn  Sn34  1  0.16760811  0.83293094  0.49995241  1
  Sn  Sn35  1  0.16721501  0.83398000  0.16660419  1
  Sn  Sn36  1  0.49936093  0.83245076  0.83287638  1
  Sn  Sn37  1  0.16681065  0.16680766  0.49954076  1
  Sn  Sn38  1  0.49912110  0.50109063  0.83295756  1
  Sn  Sn39  1  0.16820942  0.16598332  0.16716237  1
  Sn  Sn40  1  0.49926097  0.83282297  0.50042310  1
  Pb  Pb41  1  0.83324345  0.50003134  0.16706977  1
  Pb  Pb42  1  0.16674605  0.49973747  0.16646453  1
  Pb  Pb43  1  0.49818644  0.83543715  0.16639537  1
  Pb  Pb44  1  0.49990584  0.49734974  0.16637143  1
  Pb  Pb45  1  0.83331386  0.16651855  0.82981771  1
  Pb  Pb46  1  0.83294023  0.83316978  0.83293152  1
  Pb  Pb47  1  0.50003960  0.16650238  0.83355602  1
  Pb  Pb48  1  0.83728775  0.83353319  0.16702503  1
  Pb  Pb49  1  0.83303159  0.83538080  0.50004046  1
  Pb  Pb50  1  0.83303002  0.49791528  0.49999935  1
  Pb  Pb51  1  0.16657165  0.16691547  0.83345665  1
  Pb  Pb52  1  0.83385272  0.16650015  0.16925798  1
  Pb  Pb53  1  0.83286784  0.50033853  0.83284953  1
  I  I54  1  0.17041078  0.00043519  0.17065799  1
  I  I55  1  0.16825576  -0.00013197  0.49978261  1
  I  I56  1  0.17098729  -0.00324170  0.83036128  1
  I  I57  1  0.16957680  0.33002564  0.17119199  1
  I  I58  1  0.16860785  0.33304929  0.49987946  1
  I  I59  1  0.17128917  0.33654439  0.82911705  1
  I  I60  1  0.16677571  0.66960630  0.16965498  1
  I  I61  1  0.17242219  0.66713751  0.49962763  1
  I  I62  1  0.16995779  0.66717989  0.83060968  1
  I  I63  1  0.49726642  0.00342795  0.17195980  1
  I  I64  1  0.49752204  -0.00002046  0.50069408  1
  I  I65  1  0.49423053  -0.00321755  0.82857667  1
  I  I66  1  0.49331133  0.32920441  0.17207586  1
  I  I67  1  0.49761455  0.33315434  0.50044200  1
  I  I68  1  0.49483950  0.33636711  0.82892990  1
  I  I69  1  0.49909720  0.66690238  0.16962628  1
  I  I70  1  0.49226485  0.66687229  0.50498703  1
  I  I71  1  0.49484792  0.66691395  0.82459461  1
  I  I72  1  0.83104051  0.00031671  0.16661353  1
  I  I73  1  0.83415015  0.00351199  0.49887587  1
  I  I74  1  0.83366117  -0.00021154  0.83402345  1
  I  I75  1  0.83565261  0.33261874  0.16642403  1
  I  I76  1  0.83402634  0.32975515  0.49891784  1
  I  I77  1  0.83398352  0.33349786  0.83443324  1
  I  I78  1  0.83344498  0.66702821  0.16738172  1
  I  I79  1  0.83431091  0.66667543  0.50047753  1
  I  I80  1  0.83490178  0.66672926  0.83184289  1
  I  I81  1  0.17154017  0.16338504  0.00312692  1
  I  I82  1  0.16683646  0.16396667  0.33504281  1
  I  I83  1  0.16812483  0.16453382  0.66300752  1
  I  I84  1  0.17110133  0.50319739  -0.00338333  1
  I  I85  1  0.17054837  0.50132257  0.33694505  1
  I  I86  1  0.16976017  0.50131836  0.66552627  1
  I  I87  1  0.17114157  0.83376314  -0.00080011  1
  I  I88  1  0.17019856  0.83484683  0.33480446  1
  I  I89  1  0.16955817  0.83440398  0.66573540  1
  I  I90  1  0.49393315  0.16654825  0.00292118  1
  I  I91  1  0.49942616  0.16664856  0.33566142  1
  I  I92  1  0.49843391  0.16669726  0.66295686  1
  I  I93  1  0.49429401  0.50375321  -0.00362052  1
  I  I94  1  0.49503577  0.50125199  0.33704626  1
  I  I95  1  0.49617075  0.49745993  0.66537120  1
  I  I96  1  0.49464549  0.82993622  -0.00297872  1
  I  I97  1  0.49600178  0.83201438  0.33664177  1
  I  I98  1  0.49291703  0.83590601  0.66542046  1
  I  I99  1  0.83311115  0.16739784  0.00032854  1
  I  I100  1  0.83360933  0.16685753  0.33697320  1
  I  I101  1  0.83388379  0.16662730  0.66183368  1
  I  I102  1  0.83451303  0.49778176  -0.00039308  1
  I  I103  1  0.83452367  0.49947802  0.33411806  1
  I  I104  1  0.83439162  0.49717351  0.66640416  1
  I  I105  1  0.83190739  0.83482134  -0.00005710  1
  I  I106  1  0.83202511  0.83358896  0.33372953  1
  I  I107  1  0.83836272  0.83627314  0.66642716  1
  I  I108  1  0.00368684  0.16319816  0.17054684  1
  I  I109  1  0.00206759  0.16650819  0.49655002  1
  I  I110  1  0.00053860  0.16675229  0.83375683  1
  I  I111  1  0.00085998  0.49764136  0.16690187  1
  I  I112  1  0.00391244  0.50017805  0.50311280  1
  I  I113  1  0.00371816  0.50380405  0.82908440  1
  I  I114  1  0.00589819  0.84063937  0.16753304  1
  I  I115  1  0.00406072  0.83376500  0.50042138  1
  I  I116  1  0.00416858  0.83025990  0.83214956  1
  I  I117  1  0.33238776  0.16366431  0.17577197  1
  I  I118  1  0.33311310  0.16661327  0.49580512  1
  I  I119  1  0.33324496  0.16686036  0.83064644  1
  I  I120  1  0.33316293  0.50008256  0.16680896  1
  I  I121  1  0.33289658  0.49567763  0.50368677  1
  I  I122  1  0.33298619  0.50365899  0.82847913  1
  I  I123  1  0.32979363  0.83588907  0.16765331  1
  I  I124  1  0.33258603  0.83754725  0.50083839  1
  I  I125  1  0.33251400  0.82976004  0.83151058  1
  I  I126  1  0.66378955  0.16771202  0.17053401  1
  I  I127  1  0.66486317  0.16700648  0.49679694  1
  I  I128  1  0.66616934  0.16683364  0.83413972  1
  I  I129  1  0.66597177  0.49750811  0.16700497  1
  I  I130  1  0.66264408  0.49880775  0.50442922  1
  I  I131  1  0.66259822  0.50252132  0.82751489  1
  I  I132  1  0.66634500  0.83506255  0.16637113  1
  I  I133  1  0.66264661  0.83397554  0.50517088  1
  I  I134  1  0.66253253  0.83039998  0.82687204  1
