# generated using pymatgen
data_Cs27Sn13Pb14I81
_symmetry_space_group_name_H-M   'P 1'
_cell_length_a   18.98245412
_cell_length_b   18.96982469
_cell_length_c   18.97869900
_cell_angle_alpha   90.00218007
_cell_angle_beta   90.00098341
_cell_angle_gamma   89.99909960
_symmetry_Int_Tables_number   1
_chemical_formula_structural   Cs27Sn13Pb14I81
_chemical_formula_sum   'Cs27 Sn13 Pb14 I81'
_cell_volume   6834.11234366
_cell_formula_units_Z   1
loop_
 _symmetry_equiv_pos_site_id
 _symmetry_equiv_pos_as_xyz
  1  'x, y, z'
loop_
 _atom_site_type_symbol
 _atom_site_label
 _atom_site_symmetry_multiplicity
 _atom_site_fract_x
 _atom_site_fract_y
 _atom_site_fract_z
 _atom_site_occupancy
  Cs  Cs0  1  0.00055362  -0.00041037  0.00003955  1
  Cs  Cs1  1  -0.00144837  -0.00250801  0.33291871  1
  Cs  Cs2  1  -0.00668176  0.00313807  0.66678708  1
  Cs  Cs3  1  0.00342788  0.33353488  0.00120780  1
  Cs  Cs4  1  0.00113065  0.33308976  0.33073348  1
  Cs  Cs5  1  0.00054766  0.33191159  0.66786913  1
  Cs  Cs6  1  -0.00077651  0.66695573  0.00558064  1
  Cs  Cs7  1  0.00668849  0.67239029  0.32414235  1
  Cs  Cs8  1  0.00290889  0.66507274  0.66753778  1
  Cs  Cs9  1  0.33607809  0.00173421  -0.00060899  1
  Cs  Cs10  1  0.33259288  0.00174088  0.33399641  1
  Cs  Cs11  1  0.33318181  -0.00188283  0.66646230  1
  Cs  Cs12  1  0.33391793  0.33001786  -0.00193415  1
  Cs  Cs13  1  0.33379661  0.33117366  0.33469815  1
  Cs  Cs14  1  0.33050847  0.33410632  0.66546358  1
  Cs  Cs15  1  0.33463504  0.66755432  -0.00149488  1
  Cs  Cs16  1  0.32912378  0.66916706  0.33596085  1
  Cs  Cs17  1  0.33372183  0.66657607  0.66576742  1
  Cs  Cs18  1  0.66288293  0.00164831  -0.00110882  1
  Cs  Cs19  1  0.66960123  -0.00091893  0.33711855  1
  Cs  Cs20  1  0.67223584  -0.00016339  0.66484232  1
  Cs  Cs21  1  0.66410853  0.33324637  0.00157012  1
  Cs  Cs22  1  0.66547331  0.33417354  0.33386364  1
  Cs  Cs23  1  0.66811809  0.33561667  0.66486575  1
  Cs  Cs24  1  0.66695036  0.66630127  -0.00122495  1
  Cs  Cs25  1  0.66724016  0.66608613  0.33245652  1
  Cs  Cs26  1  0.66463146  0.66534414  0.66892305  1
  Sn  Sn27  1  0.49962391  0.16716535  0.50040760  1
  Sn  Sn28  1  0.50059515  0.49932290  0.50000763  1
  Sn  Sn29  1  0.50059745  0.50049298  0.83336772  1
  Sn  Sn30  1  0.49982414  0.50086343  0.16679245  1
  Sn  Sn31  1  0.83269525  0.50074591  0.83268060  1
  Sn  Sn32  1  0.50014812  0.83252760  0.16641453  1
  Sn  Sn33  1  0.83316117  0.83229227  0.83341101  1
  Sn  Sn34  1  0.16577139  0.16661262  0.16723898  1
  Sn  Sn35  1  0.16663485  0.83324725  0.83315716  1
  Sn  Sn36  1  0.83327972  0.50052114  0.49990605  1
  Sn  Sn37  1  0.50026074  0.83263531  0.83394736  1
  Sn  Sn38  1  0.83386744  0.16679199  0.16648632  1
  Sn  Sn39  1  0.16711010  0.16669655  0.49955841  1
  Pb  Pb40  1  0.16998245  0.49779814  0.16661775  1
  Pb  Pb41  1  0.83343543  0.16895919  0.49811156  1
  Pb  Pb42  1  0.16633395  0.83615884  0.50230478  1
  Pb  Pb43  1  0.16930377  0.83570305  0.16463392  1
  Pb  Pb44  1  0.16628142  0.49830982  0.49990440  1
  Pb  Pb45  1  0.83152799  0.49867082  0.16642185  1
  Pb  Pb46  1  0.50013131  0.83268357  0.50031347  1
  Pb  Pb47  1  0.16655581  0.50214461  0.83343797  1
  Pb  Pb48  1  0.49990615  0.16641893  0.16867817  1
  Pb  Pb49  1  0.16673450  0.16440047  0.83306469  1
  Pb  Pb50  1  0.83078369  0.83534532  0.16432362  1
  Pb  Pb51  1  0.83310517  0.16771797  0.83563270  1
  Pb  Pb52  1  0.83344110  0.82957953  0.50203705  1
  Pb  Pb53  1  0.50020499  0.16690388  0.83015784  1
  I  I54  1  0.16563417  0.00357742  0.17028013  1
  I  I55  1  0.17420973  0.00430992  0.49611491  1
  I  I56  1  0.16822453  -0.00370222  0.83354554  1
  I  I57  1  0.16499480  0.32959808  0.16925286  1
  I  I58  1  0.16957052  0.33006277  0.49732990  1
  I  I59  1  0.16710130  0.33324896  0.83353870  1
  I  I60  1  0.16539112  0.66702267  0.16600984  1
  I  I61  1  0.16822022  0.66672608  0.50146523  1
  I  I62  1  0.16832414  0.67015128  0.83331414  1
  I  I63  1  0.49954254  -0.00227677  0.16152543  1
  I  I64  1  0.49526909  0.00248598  0.49893940  1
  I  I65  1  0.50007752  -0.00331447  0.83793619  1
  I  I66  1  0.50032819  0.33597493  0.16402279  1
  I  I67  1  0.49980481  0.33453948  0.49934583  1
  I  I68  1  0.50496829  0.33699285  0.83673899  1
  I  I69  1  0.50150633  0.66603037  0.16664148  1
  I  I70  1  0.50445828  0.66305842  0.50062883  1
  I  I71  1  0.50038145  0.66637960  0.83236565  1
  I  I72  1  0.83448105  0.00318433  0.16612268  1
  I  I73  1  0.83257391  0.00017621  0.50124251  1
  I  I74  1  0.83227115  -0.00289622  0.83535681  1
  I  I75  1  0.83417297  0.33071533  0.16492301  1
  I  I76  1  0.83022235  0.33665921  0.50723810  1
  I  I77  1  0.82725968  0.33713855  0.83034104  1
  I  I78  1  0.83370606  0.66663745  0.16854087  1
  I  I79  1  0.82339702  0.66171437  0.50138839  1
  I  I80  1  0.83101396  0.66629969  0.82948967  1
  I  I81  1  0.16340463  0.16568611  0.00275911  1
  I  I82  1  0.16829392  0.16750650  0.33344679  1
  I  I83  1  0.17177473  0.16596589  0.66372595  1
  I  I84  1  0.16646583  0.49609184  -0.00000941  1
  I  I85  1  0.16643680  0.50178996  0.33326837  1
  I  I86  1  0.17080875  0.49754881  0.66674778  1
  I  I87  1  0.16553095  0.83562731  -0.00332755  1
  I  I88  1  0.16874793  0.83243657  0.33299021  1
  I  I89  1  0.17129366  0.83432352  0.67062507  1
  I  I90  1  0.49880046  0.16881048  0.00008835  1
  I  I91  1  0.49887999  0.17100567  0.33628404  1
  I  I92  1  0.49444269  0.17029705  0.66234253  1
  I  I93  1  0.50382224  0.50428775  -0.00074564  1
  I  I94  1  0.50426896  0.49843790  0.33384331  1
  I  I95  1  0.50379472  0.50005239  0.66707567  1
  I  I96  1  0.49994025  0.82699453  -0.00121368  1
  I  I97  1  0.49931982  0.83118049  0.33074551  1
  I  I98  1  0.49974672  0.83082710  0.67022905  1
  I  I99  1  0.83857568  0.16799097  0.00331902  1
  I  I100  1  0.83313147  0.16881481  0.33048278  1
  I  I101  1  0.83370433  0.16447085  0.66658875  1
  I  I102  1  0.82863111  0.50262119  -0.00316142  1
  I  I103  1  0.82663117  0.49456628  0.33570135  1
  I  I104  1  0.82462609  0.50231265  0.66743762  1
  I  I105  1  0.83493497  0.82675440  -0.00396633  1
  I  I106  1  0.83148701  0.83394678  0.33294691  1
  I  I107  1  0.82900242  0.83519349  0.67086858  1
  I  I108  1  0.00062591  0.16713023  0.17189979  1
  I  I109  1  0.00244303  0.16740928  0.49823068  1
  I  I110  1  -0.00010767  0.16615601  0.82954324  1
  I  I111  1  -0.00007523  0.49918775  0.16652806  1
  I  I112  1  -0.00326240  0.49735791  0.50787914  1
  I  I113  1  -0.00350391  0.50273351  0.82782764  1
  I  I114  1  0.00002293  0.83354066  0.16466530  1
  I  I115  1  -0.00017776  0.83419470  0.50254943  1
  I  I116  1  -0.00086767  0.83082526  0.83121542  1
  I  I117  1  0.33146700  0.16650108  0.16936461  1
  I  I118  1  0.33399121  0.17202798  0.49453295  1
  I  I119  1  0.33360232  0.16625459  0.83754104  1
  I  I120  1  0.33852459  0.50149252  0.16604472  1
  I  I121  1  0.33684869  0.49755958  0.50125667  1
  I  I122  1  0.33699511  0.50340097  0.83259306  1
  I  I123  1  0.33716083  0.83157756  0.16041598  1
  I  I124  1  0.33355591  0.83022750  0.50305045  1
  I  I125  1  0.33498582  0.83080487  0.83694810  1
  I  I126  1  0.66807825  0.16713492  0.16689629  1
  I  I127  1  0.66424616  0.16891568  0.49831201  1
  I  I128  1  0.66653844  0.16131362  0.83501051  1
  I  I129  1  0.66310679  0.49968304  0.16633119  1
  I  I130  1  0.66492824  0.49358331  0.50156594  1
  I  I131  1  0.66558695  0.50733214  0.83224980  1
  I  I132  1  0.66287616  0.83247868  0.16106177  1
  I  I133  1  0.66650460  0.84075591  0.50109357  1
  I  I134  1  0.66585714  0.82897940  0.83721204  1
