# generated using pymatgen
data_Cs27Sn14Pb13I81
_symmetry_space_group_name_H-M   'P 1'
_cell_length_a   19.27488196
_cell_length_b   19.27848364
_cell_length_c   19.23747204
_cell_angle_alpha   89.96331265
_cell_angle_beta   89.98704170
_cell_angle_gamma   89.98124142
_symmetry_Int_Tables_number   1
_chemical_formula_structural   Cs27Sn14Pb13I81
_chemical_formula_sum   'Cs27 Sn14 Pb13 I81'
_cell_volume   7148.45975729
_cell_formula_units_Z   1
loop_
 _symmetry_equiv_pos_site_id
 _symmetry_equiv_pos_as_xyz
  1  'x, y, z'
loop_
 _atom_site_type_symbol
 _atom_site_label
 _atom_site_symmetry_multiplicity
 _atom_site_fract_x
 _atom_site_fract_y
 _atom_site_fract_z
 _atom_site_occupancy
  Cs  Cs0  1  -0.00507044  0.01704960  -0.02337213  1
  Cs  Cs1  1  0.00400361  -0.02373555  0.33019958  1
  Cs  Cs2  1  -0.02574082  0.00637505  0.66415874  1
  Cs  Cs3  1  0.00532670  0.32238276  0.01169232  1
  Cs  Cs4  1  -0.01156552  0.33046211  0.34716710  1
  Cs  Cs5  1  0.02650645  0.32965959  0.65583923  1
  Cs  Cs6  1  -0.02434833  0.65198257  -0.00647551  1
  Cs  Cs7  1  -0.00242784  0.69775146  0.33593649  1
  Cs  Cs8  1  0.01658800  0.67325144  0.66715653  1
  Cs  Cs9  1  0.33173468  -0.00541999  -0.03472906  1
  Cs  Cs10  1  0.32138843  0.00005425  0.32705000  1
  Cs  Cs11  1  0.36282031  0.01222851  0.67249511  1
  Cs  Cs12  1  0.33777167  0.35747743  0.02042106  1
  Cs  Cs13  1  0.32759233  0.32806217  0.30414451  1
  Cs  Cs14  1  0.30597986  0.32906224  0.64752886  1
  Cs  Cs15  1  0.33690696  0.64867119  -0.00130504  1
  Cs  Cs16  1  0.35188625  0.68463894  0.32091730  1
  Cs  Cs17  1  0.33104138  0.69207856  0.69006459  1
  Cs  Cs18  1  0.68900801  0.02036091  0.01130556  1
  Cs  Cs19  1  0.69520285  0.00462833  0.31940960  1
  Cs  Cs20  1  0.64089411  0.00353179  0.66494627  1
  Cs  Cs21  1  0.66138899  0.35994395  -0.00049358  1
  Cs  Cs22  1  0.67087138  0.35247167  0.34686050  1
  Cs  Cs23  1  0.65849451  0.33971179  0.67925430  1
  Cs  Cs24  1  0.68757336  0.64954620  0.01274782  1
  Cs  Cs25  1  0.66136435  0.66938586  0.34943674  1
  Cs  Cs26  1  0.66895043  0.66378552  0.63504800  1
  Sn  Sn27  1  0.83374601  0.83574963  0.50798007  1
  Sn  Sn28  1  0.16714336  0.16618910  0.16670683  1
  Sn  Sn29  1  0.16399607  0.50296779  0.17081129  1
  Sn  Sn30  1  0.16826695  0.83041399  0.49913016  1
  Sn  Sn31  1  0.49861502  0.16205705  0.16855122  1
  Sn  Sn32  1  0.17181244  0.83360881  0.16509003  1
  Sn  Sn33  1  0.82827984  0.16513592  0.49935070  1
  Sn  Sn34  1  0.83037163  0.83045962  0.83188747  1
  Sn  Sn35  1  0.50018217  0.50231243  0.17018974  1
  Sn  Sn36  1  0.83503324  0.17025218  0.17030931  1
  Sn  Sn37  1  0.49902119  0.84003081  0.16401357  1
  Sn  Sn38  1  0.83255509  0.49986269  0.83019099  1
  Sn  Sn39  1  0.83978089  0.49633549  0.16948856  1
  Sn  Sn40  1  0.50218620  0.50126117  0.83338075  1
  Pb  Pb41  1  0.50344873  0.16871773  0.83996686  1
  Pb  Pb42  1  0.49803773  0.49689282  0.50521135  1
  Pb  Pb43  1  0.16669709  0.49983807  0.83524555  1
  Pb  Pb44  1  0.16236788  0.83220939  0.83803747  1
  Pb  Pb45  1  0.16451251  0.16076389  0.49485857  1
  Pb  Pb46  1  0.50208788  0.16812378  0.49662861  1
  Pb  Pb47  1  0.49853761  0.83302596  0.49742073  1
  Pb  Pb48  1  0.83200867  0.83222572  0.16338953  1
  Pb  Pb49  1  0.16748940  0.50050949  0.49413156  1
  Pb  Pb50  1  0.83423586  0.49780261  0.50438829  1
  Pb  Pb51  1  0.16675172  0.16656062  0.83480172  1
  Pb  Pb52  1  0.83090425  0.17026136  0.83075734  1
  Pb  Pb53  1  0.50621253  0.83133094  0.83858787  1
  I  I54  1  0.16520285  0.00311130  0.18882997  1
  I  I55  1  0.16534992  -0.00306322  0.47205100  1
  I  I56  1  0.15028669  -0.00078702  0.84242151  1
  I  I57  1  0.17429646  0.33647827  0.14172309  1
  I  I58  1  0.16869588  0.33049375  0.50560129  1
  I  I59  1  0.15878635  0.33352403  0.82451264  1
  I  I60  1  0.17472937  0.66430582  0.18843083  1
  I  I61  1  0.13307291  0.66335701  0.49233226  1
  I  I62  1  0.18678287  0.66658993  0.83272913  1
  I  I63  1  0.48967556  0.00036829  0.19267963  1
  I  I64  1  0.48619127  -0.00176253  0.51111713  1
  I  I65  1  0.49614897  -0.00207868  0.82733298  1
  I  I66  1  0.49935695  0.33453186  0.15208310  1
  I  I67  1  0.52903217  0.33314686  0.50701775  1
  I  I68  1  0.52987730  0.33375827  0.84179145  1
  I  I69  1  0.48672207  0.66872045  0.15781672  1
  I  I70  1  0.51006487  0.66514296  0.49637405  1
  I  I71  1  0.48140670  0.66811426  0.84487789  1
  I  I72  1  0.82985731  0.00129180  0.16680477  1
  I  I73  1  0.85285384  0.00003067  0.49045379  1
  I  I74  1  0.85292009  -0.00419453  0.83140149  1
  I  I75  1  0.83369160  0.33328092  0.16252440  1
  I  I76  1  0.81633557  0.32968465  0.49052582  1
  I  I77  1  0.80384676  0.33545554  0.83856482  1
  I  I78  1  0.83285478  0.66411373  0.15691741  1
  I  I79  1  0.84032832  0.66740561  0.49625454  1
  I  I80  1  0.82226978  0.66624001  0.84956149  1
  I  I81  1  0.14390697  0.15918820  0.00486835  1
  I  I82  1  0.18324726  0.18190066  0.32816520  1
  I  I83  1  0.15435750  0.16577645  0.66508952  1
  I  I84  1  0.17593854  0.51186828  0.00222503  1
  I  I85  1  0.16450771  0.46679606  0.32893952  1
  I  I86  1  0.16190235  0.49789242  0.66658267  1
  I  I87  1  0.19487793  0.83430260  0.00736943  1
  I  I88  1  0.15660031  0.82887353  0.33272078  1
  I  I89  1  0.15946389  0.81976183  0.66340948  1
  I  I90  1  0.51248495  0.13990566  0.00525733  1
  I  I91  1  0.47665527  0.17958841  0.33089955  1
  I  I92  1  0.51196790  0.16826299  0.66934111  1
  I  I93  1  0.49643284  0.49927533  0.00305474  1
  I  I94  1  0.50765726  0.49992190  0.33156664  1
  I  I95  1  0.53301064  0.50726270  0.67080967  1
  I  I96  1  0.47492864  0.84367480  0.00340498  1
  I  I97  1  0.51831363  0.81416801  0.33268989  1
  I  I98  1  0.48372025  0.82687767  0.66569781  1
  I  I99  1  0.84133356  0.15905721  0.00259624  1
  I  I100  1  0.83105337  0.16773238  0.33173463  1
  I  I101  1  0.83938957  0.15612871  0.66228019  1
  I  I102  1  0.83564263  0.49797114  -0.00002352  1
  I  I103  1  0.83509067  0.49212528  0.32997949  1
  I  I104  1  0.79783820  0.50117509  0.66947596  1
  I  I105  1  0.82331052  0.83916758  -0.00482550  1
  I  I106  1  0.82814701  0.83208019  0.33372521  1
  I  I107  1  0.86900816  0.82812534  0.66700067  1
  I  I108  1  -0.00014574  0.18632146  0.17896973  1
  I  I109  1  -0.00309862  0.18507774  0.49281407  1
  I  I110  1  -0.00352311  0.17982273  0.83983959  1
  I  I111  1  0.00176432  0.49253103  0.14622479  1
  I  I112  1  -0.00242183  0.47449643  0.51084434  1
  I  I113  1  -0.00517178  0.51359835  0.83584141  1
  I  I114  1  0.00011314  0.83199078  0.17303908  1
  I  I115  1  -0.00039110  0.84129346  0.48905117  1
  I  I116  1  -0.00050179  0.80430948  0.85123531  1
  I  I117  1  0.33373624  0.18343968  0.14949554  1
  I  I118  1  0.33353356  0.16921430  0.52218842  1
  I  I119  1  0.33350793  0.15558048  0.82444702  1
  I  I120  1  0.33481919  0.50356564  0.16748427  1
  I  I121  1  0.33371307  0.49250729  0.52097255  1
  I  I122  1  0.33934982  0.48994005  0.84600293  1
  I  I123  1  0.33207565  0.84061528  0.19327234  1
  I  I124  1  0.32871919  0.81533116  0.48606747  1
  I  I125  1  0.32918168  0.85495270  0.81719979  1
  I  I126  1  0.66508055  0.15727675  0.17901782  1
  I  I127  1  0.66736946  0.13171216  0.48775060  1
  I  I128  1  0.66904404  0.13666458  0.83286477  1
  I  I129  1  0.66729191  0.49662407  0.15702053  1
  I  I130  1  0.66914492  0.51239365  0.48066237  1
  I  I131  1  0.66484757  0.51367888  0.85944505  1
  I  I132  1  0.66260557  0.84297884  0.16234938  1
  I  I133  1  0.67051661  0.83728463  0.52160330  1
  I  I134  1  0.66899121  0.84038055  0.79961938  1
