# generated using pymatgen
data_Cs27Sn13Pb14I81
_symmetry_space_group_name_H-M   'P 1'
_cell_length_a   19.05541104
_cell_length_b   19.06798759
_cell_length_c   19.06436591
_cell_angle_alpha   89.99904100
_cell_angle_beta   89.99861477
_cell_angle_gamma   89.99792657
_symmetry_Int_Tables_number   1
_chemical_formula_structural   Cs27Sn13Pb14I81
_chemical_formula_sum   'Cs27 Sn13 Pb14 I81'
_cell_volume   6927.00572125
_cell_formula_units_Z   1
loop_
 _symmetry_equiv_pos_site_id
 _symmetry_equiv_pos_as_xyz
  1  'x, y, z'
loop_
 _atom_site_type_symbol
 _atom_site_label
 _atom_site_symmetry_multiplicity
 _atom_site_fract_x
 _atom_site_fract_y
 _atom_site_fract_z
 _atom_site_occupancy
  Cs  Cs0  1  -0.00217092  -0.00353675  -0.00348249  1
  Cs  Cs1  1  0.00277183  0.00254605  0.33530623  1
  Cs  Cs2  1  -0.00110844  -0.00119552  0.66768902  1
  Cs  Cs3  1  -0.00037288  0.33370639  0.00361946  1
  Cs  Cs4  1  0.00095395  0.33068434  0.33315283  1
  Cs  Cs5  1  -0.00050192  0.33012407  0.66559246  1
  Cs  Cs6  1  0.00106805  0.67120272  0.00550949  1
  Cs  Cs7  1  0.00302120  0.66858213  0.33160811  1
  Cs  Cs8  1  -0.00411119  0.67205035  0.66444453  1
  Cs  Cs9  1  0.34625135  -0.00111279  0.00272765  1
  Cs  Cs10  1  0.33877004  0.00032375  0.32802057  1
  Cs  Cs11  1  0.33917962  0.00503356  0.66918870  1
  Cs  Cs12  1  0.32975101  0.33516910  -0.02314993  1
  Cs  Cs13  1  0.33476457  0.33331095  0.33737290  1
  Cs  Cs14  1  0.33325515  0.33192130  0.67513724  1
  Cs  Cs15  1  0.33460537  0.66618755  0.00427621  1
  Cs  Cs16  1  0.33024762  0.66408313  0.32625258  1
  Cs  Cs17  1  0.33452115  0.66294289  0.67067331  1
  Cs  Cs18  1  0.66160217  0.00143834  0.00656129  1
  Cs  Cs19  1  0.65142624  -0.00051526  0.33285861  1
  Cs  Cs20  1  0.66275301  -0.00494638  0.66202180  1
  Cs  Cs21  1  0.67045307  0.33032530  0.01064798  1
  Cs  Cs22  1  0.66470325  0.33425517  0.32798750  1
  Cs  Cs23  1  0.67138843  0.33680212  0.66568656  1
  Cs  Cs24  1  0.66821650  0.66787995  -0.00584020  1
  Cs  Cs25  1  0.66366075  0.66314799  0.33842201  1
  Cs  Cs26  1  0.66894294  0.66834713  0.66706281  1
  Sn  Sn27  1  0.83425461  0.83389340  0.83441132  1
  Sn  Sn28  1  0.49975042  0.49975866  0.49961156  1
  Sn  Sn29  1  0.83378321  0.16706844  0.50021196  1
  Sn  Sn30  1  0.16589458  0.16655231  0.49938968  1
  Sn  Sn31  1  0.16616990  0.83360262  0.83243418  1
  Sn  Sn32  1  0.49945978  0.49942151  0.16683915  1
  Sn  Sn33  1  0.16678733  0.83377273  0.50108421  1
  Sn  Sn34  1  0.83425223  0.49878295  0.50033311  1
  Sn  Sn35  1  0.16655389  0.16686821  0.16674373  1
  Sn  Sn36  1  0.83354299  0.16642031  0.83221631  1
  Sn  Sn37  1  0.16605092  0.49985271  0.50029844  1
  Sn  Sn38  1  0.83428024  0.49970714  0.83271752  1
  Sn  Sn39  1  0.83353316  0.83362987  0.16694611  1
  Pb  Pb40  1  0.50020785  0.16944652  0.50026702  1
  Pb  Pb41  1  0.16859468  0.49720702  0.16864396  1
  Pb  Pb42  1  0.49998394  0.83306901  0.83295779  1
  Pb  Pb43  1  0.16311242  0.50274653  0.83064489  1
  Pb  Pb44  1  0.49577807  0.83021400  0.50024403  1
  Pb  Pb45  1  0.50301494  0.83036464  0.16682655  1
  Pb  Pb46  1  0.83500315  0.16433891  0.16787581  1
  Pb  Pb47  1  0.83236093  0.50198393  0.16749738  1
  Pb  Pb48  1  0.83457087  0.83403385  0.49967616  1
  Pb  Pb49  1  0.16513611  0.83567925  0.16658143  1
  Pb  Pb50  1  0.50320077  0.49995832  0.83295942  1
  Pb  Pb51  1  0.16426589  0.16386666  0.83279683  1
  Pb  Pb52  1  0.49622885  0.17018764  0.16657133  1
  Pb  Pb53  1  0.50448715  0.16698100  0.83295892  1
  I  I54  1  0.16400074  0.00259838  0.17691715  1
  I  I55  1  0.15541659  0.00052689  0.50015658  1
  I  I56  1  0.15602572  -0.00321475  0.82499532  1
  I  I57  1  0.16307925  0.32993584  0.17500920  1
  I  I58  1  0.16540690  0.33350070  0.49167124  1
  I  I59  1  0.16849056  0.33323384  0.83548325  1
  I  I60  1  0.16825537  0.66669616  0.16697085  1
  I  I61  1  0.16580148  0.66616068  0.50694642  1
  I  I62  1  0.15900656  0.67006883  0.82702780  1
  I  I63  1  0.50031029  0.00027351  0.16478671  1
  I  I64  1  0.50313942  0.00004234  0.50045036  1
  I  I65  1  0.50060354  -0.00013160  0.83493969  1
  I  I66  1  0.50701750  0.33691004  0.17553085  1
  I  I67  1  0.49527849  0.33686231  0.49493631  1
  I  I68  1  0.49592139  0.33371716  0.83340739  1
  I  I69  1  0.49732137  0.66335769  0.17429206  1
  I  I70  1  0.50552837  0.66272065  0.49599136  1
  I  I71  1  0.50356147  0.66638162  0.83257837  1
  I  I72  1  0.83620830  -0.00283654  0.15943869  1
  I  I73  1  0.84169872  0.00297473  0.50405310  1
  I  I74  1  0.84120191  -0.00029817  0.83300466  1
  I  I75  1  0.83136407  0.33320425  0.16136380  1
  I  I76  1  0.83833166  0.33395451  0.51023662  1
  I  I77  1  0.83087793  0.33344272  0.82512612  1
  I  I78  1  0.83420167  0.66927845  0.16018470  1
  I  I79  1  0.83275356  0.66409961  0.50323061  1
  I  I80  1  0.83611905  0.66683300  0.83251259  1
  I  I81  1  0.16466472  0.16496551  0.00184198  1
  I  I82  1  0.15743652  0.16496695  0.33597869  1
  I  I83  1  0.16524821  0.17085624  0.66320661  1
  I  I84  1  0.16929966  0.49917415  -0.00041013  1
  I  I85  1  0.15862745  0.50819099  0.33763362  1
  I  I86  1  0.17564171  0.49141564  0.66248965  1
  I  I87  1  0.16169410  0.83532508  -0.00295938  1
  I  I88  1  0.16352551  0.82883909  0.33637667  1
  I  I89  1  0.15595309  0.83372369  0.66615577  1
  I  I90  1  0.49837533  0.17013437  0.00021396  1
  I  I91  1  0.50873064  0.16314416  0.33351116  1
  I  I92  1  0.49042080  0.16940440  0.66636315  1
  I  I93  1  0.50309498  0.50077097  0.00233355  1
  I  I94  1  0.50431751  0.50052978  0.33515490  1
  I  I95  1  0.49609875  0.49997536  0.66344963  1
  I  I96  1  0.49196273  0.82884547  0.00007247  1
  I  I97  1  0.50315005  0.83702632  0.33349189  1
  I  I98  1  0.50867078  0.83024264  0.66645902  1
  I  I99  1  0.83511113  0.17140234  -0.00241692  1
  I  I100  1  0.83664905  0.17301458  0.33693446  1
  I  I101  1  0.84185526  0.16659908  0.66576059  1
  I  I102  1  0.82837920  0.49659128  -0.00276732  1
  I  I103  1  0.83560813  0.49632667  0.33715726  1
  I  I104  1  0.83035226  0.50279983  0.66546603  1
  I  I105  1  0.84208091  0.83131865  -0.00206240  1
  I  I106  1  0.83671521  0.83082300  0.33153846  1
  I  I107  1  0.83544102  0.83218078  0.66912291  1
  I  I108  1  0.00214971  0.16841565  0.17060052  1
  I  I109  1  -0.00000758  0.17416645  0.50015298  1
  I  I110  1  -0.00312821  0.17024924  0.83110737  1
  I  I111  1  0.00006787  0.50068230  0.16587150  1
  I  I112  1  -0.00001627  0.49930058  0.50743962  1
  I  I113  1  -0.00425189  0.49642258  0.82682705  1
  I  I114  1  -0.00220471  0.82969948  0.16349093  1
  I  I115  1  0.00220259  0.82618208  0.50059856  1
  I  I116  1  -0.00151229  0.83257175  0.83274223  1
  I  I117  1  0.32916448  0.16154958  0.17960700  1
  I  I118  1  0.33019490  0.16535696  0.49343059  1
  I  I119  1  0.33318623  0.16476114  0.83433438  1
  I  I120  1  0.33635911  0.50191839  0.17665908  1
  I  I121  1  0.33273636  0.50239201  0.49080751  1
  I  I122  1  0.33329497  0.50235734  0.83409810  1
  I  I123  1  0.33350949  0.83459216  0.16595146  1
  I  I124  1  0.32810354  0.83705672  0.50793695  1
  I  I125  1  0.32996242  0.83348434  0.82568031  1
  I  I126  1  0.66621730  0.16450712  0.16454064  1
  I  I127  1  0.66999291  0.17108269  0.50711332  1
  I  I128  1  0.67256038  0.16289269  0.82464521  1
  I  I129  1  0.66495952  0.50099597  0.17560948  1
  I  I130  1  0.66792657  0.49393727  0.50035284  1
  I  I131  1  0.67087510  0.50488642  0.82432263  1
  I  I132  1  0.67052394  0.83689218  0.15639758  1
  I  I133  1  0.66620134  0.83438902  0.49995316  1
  I  I134  1  0.67060486  0.83221230  0.83930487  1
