# generated using pymatgen
data_Cs27Sn13Pb14I81
_symmetry_space_group_name_H-M   'P 1'
_cell_length_a   18.97466493
_cell_length_b   18.97886522
_cell_length_c   18.97728982
_cell_angle_alpha   90.00185689
_cell_angle_beta   90.00129208
_cell_angle_gamma   90.00160399
_symmetry_Int_Tables_number   1
_chemical_formula_structural   Cs27Sn13Pb14I81
_chemical_formula_sum   'Cs27 Sn13 Pb14 I81'
_cell_volume   6834.05621426
_cell_formula_units_Z   1
loop_
 _symmetry_equiv_pos_site_id
 _symmetry_equiv_pos_as_xyz
  1  'x, y, z'
loop_
 _atom_site_type_symbol
 _atom_site_label
 _atom_site_symmetry_multiplicity
 _atom_site_fract_x
 _atom_site_fract_y
 _atom_site_fract_z
 _atom_site_occupancy
  Cs  Cs0  1  0.00081180  -0.00008269  -0.00103132  1
  Cs  Cs1  1  -0.00272629  -0.00115714  0.33666932  1
  Cs  Cs2  1  -0.00062771  -0.00028573  0.66895792  1
  Cs  Cs3  1  -0.00044187  0.33357728  -0.00025424  1
  Cs  Cs4  1  -0.00107131  0.33108500  0.33089486  1
  Cs  Cs5  1  0.00245067  0.33429743  0.66981004  1
  Cs  Cs6  1  -0.00191254  0.66652340  -0.00167700  1
  Cs  Cs7  1  0.00224347  0.67072351  0.33849701  1
  Cs  Cs8  1  -0.00080254  0.66669064  0.66679367  1
  Cs  Cs9  1  0.33474929  -0.00082839  0.00048847  1
  Cs  Cs10  1  0.33165127  -0.00739809  0.32797381  1
  Cs  Cs11  1  0.34139543  0.00383077  0.67057554  1
  Cs  Cs12  1  0.33261937  0.33317360  0.00059492  1
  Cs  Cs13  1  0.33293709  0.33574991  0.33097220  1
  Cs  Cs14  1  0.33380869  0.33417830  0.66499588  1
  Cs  Cs15  1  0.33399701  0.66649966  0.00162344  1
  Cs  Cs16  1  0.33289920  0.67017210  0.33706326  1
  Cs  Cs17  1  0.33409141  0.66338694  0.66029396  1
  Cs  Cs18  1  0.66433455  -0.00238126  -0.00125988  1
  Cs  Cs19  1  0.67131605  0.00026535  0.34227025  1
  Cs  Cs20  1  0.66093451  0.00108434  0.66179253  1
  Cs  Cs21  1  0.66754981  0.33665333  0.00272196  1
  Cs  Cs22  1  0.66850802  0.33050204  0.33225324  1
  Cs  Cs23  1  0.66286054  0.33283269  0.66424010  1
  Cs  Cs24  1  0.66788433  0.66505596  -0.00000682  1
  Cs  Cs25  1  0.66539553  0.66909308  0.33713706  1
  Cs  Cs26  1  0.66671541  0.66682793  0.66365305  1
  Sn  Sn27  1  0.16724054  0.16716628  0.16666906  1
  Sn  Sn28  1  0.49911739  0.49932299  0.16576928  1
  Sn  Sn29  1  0.83337109  0.16597415  0.83373300  1
  Sn  Sn30  1  0.16611151  0.16649854  0.83342480  1
  Sn  Sn31  1  0.49956445  0.16708810  0.16636886  1
  Sn  Sn32  1  0.83381656  0.83455062  0.83428823  1
  Sn  Sn33  1  0.16709236  0.49980762  0.16598073  1
  Sn  Sn34  1  0.83384523  0.49929928  0.49983483  1
  Sn  Sn35  1  0.49900022  0.49994381  0.83419079  1
  Sn  Sn36  1  0.16692916  0.16656755  0.49986595  1
  Sn  Sn37  1  0.16761568  0.50025782  0.83415496  1
  Sn  Sn38  1  0.16644760  0.83328849  0.83352419  1
  Sn  Sn39  1  0.83343513  0.83345770  0.16581483  1
  Pb  Pb40  1  0.50263041  0.83318686  0.16653235  1
  Pb  Pb41  1  0.50193707  0.49968526  0.49904751  1
  Pb  Pb42  1  0.49996229  0.83038270  0.83341754  1
  Pb  Pb43  1  0.83341573  0.49999962  0.83211227  1
  Pb  Pb44  1  0.16671567  0.83668765  0.50376383  1
  Pb  Pb45  1  0.83355587  0.16468048  0.16464042  1
  Pb  Pb46  1  0.49983545  0.16892281  0.83536245  1
  Pb  Pb47  1  0.83356463  0.83170838  0.50131941  1
  Pb  Pb48  1  0.49674952  0.16698269  0.49629168  1
  Pb  Pb49  1  0.83545588  0.16865571  0.50312666  1
  Pb  Pb50  1  0.83379113  0.50199597  0.16871643  1
  Pb  Pb51  1  0.16518683  0.49822752  0.49968432  1
  Pb  Pb52  1  0.49957188  0.83357460  0.50006141  1
  Pb  Pb53  1  0.16489595  0.83322990  0.16470065  1
  I  I54  1  0.17008368  0.00322530  0.16558316  1
  I  I55  1  0.16434938  0.00452906  0.49671288  1
  I  I56  1  0.16050172  0.00101062  0.83339392  1
  I  I57  1  0.16920464  0.33306492  0.16223200  1
  I  I58  1  0.16467739  0.33052212  0.50503115  1
  I  I59  1  0.16539197  0.33298617  0.83381314  1
  I  I60  1  0.16914545  0.66358823  0.16182179  1
  I  I61  1  0.16518705  0.66664646  0.49982789  1
  I  I62  1  0.16509874  0.66573321  0.83886597  1
  I  I63  1  0.49416752  0.00298189  0.16592328  1
  I  I64  1  0.50177484  0.00073532  0.50016124  1
  I  I65  1  0.49806756  0.00027198  0.83458739  1
  I  I66  1  0.49639376  0.33411882  0.16246203  1
  I  I67  1  0.50185843  0.33332377  0.50327144  1
  I  I68  1  0.49705996  0.33680380  0.83514884  1
  I  I69  1  0.49674942  0.66309563  0.16269002  1
  I  I70  1  0.50074908  0.66607424  0.49906114  1
  I  I71  1  0.49740306  0.66232522  0.83991270  1
  I  I72  1  0.83431714  -0.00294889  0.16415067  1
  I  I73  1  0.83406209  0.00025302  0.49810685  1
  I  I74  1  0.84287753  -0.00000368  0.83744900  1
  I  I75  1  0.83319833  0.33326279  0.16624785  1
  I  I76  1  0.83375771  0.33597037  0.50078037  1
  I  I77  1  0.83800742  0.33112486  0.83163982  1
  I  I78  1  0.83372446  0.66947011  0.15945704  1
  I  I79  1  0.83424372  0.66402571  0.50193753  1
  I  I80  1  0.83670769  0.66906425  0.83503798  1
  I  I81  1  0.16630630  0.16782473  -0.00045342  1
  I  I82  1  0.17066648  0.17332052  0.33178168  1
  I  I83  1  0.16040942  0.16715474  0.66856843  1
  I  I84  1  0.16905958  0.49540144  -0.00067708  1
  I  I85  1  0.16885624  0.49525972  0.32995540  1
  I  I86  1  0.16864898  0.49911882  0.67004225  1
  I  I87  1  0.16392632  0.83689515  -0.00350595  1
  I  I88  1  0.16464042  0.83289189  0.33322705  1
  I  I89  1  0.15869299  0.83033226  0.67200995  1
  I  I90  1  0.49421763  0.16892684  0.00310453  1
  I  I91  1  0.49717682  0.17430770  0.32834379  1
  I  I92  1  0.50010148  0.16772781  0.66685386  1
  I  I93  1  0.49700638  0.49655326  0.00048587  1
  I  I94  1  0.49664712  0.49660532  0.32939379  1
  I  I95  1  0.49653558  0.50096998  0.66945787  1
  I  I96  1  0.49958255  0.83466460  -0.00007161  1
  I  I97  1  0.50219113  0.83095550  0.33272733  1
  I  I98  1  0.50237653  0.83177211  0.66735210  1
  I  I99  1  0.84017363  0.16705063  -0.00329586  1
  I  I100  1  0.83399248  0.16529685  0.33323294  1
  I  I101  1  0.83898361  0.16167501  0.67114936  1
  I  I102  1  0.83293385  0.49942802  -0.00004241  1
  I  I103  1  0.83390413  0.50157685  0.33590345  1
  I  I104  1  0.83438909  0.50109963  0.66480579  1
  I  I105  1  0.83732155  0.83508774  -0.00162752  1
  I  I106  1  0.83243553  0.83137836  0.33118318  1
  I  I107  1  0.83832602  0.83511635  0.67057017  1
  I  I108  1  0.00351820  0.17085401  0.16689567  1
  I  I109  1  0.00325909  0.16821466  0.49527759  1
  I  I110  1  0.00192645  0.16846394  0.83536764  1
  I  I111  1  0.00337392  0.49554307  0.16210944  1
  I  I112  1  -0.00225912  0.49972814  0.50134269  1
  I  I113  1  0.00322280  0.49908057  0.83616794  1
  I  I114  1  -0.00275007  0.83273325  0.16350078  1
  I  I115  1  0.00015166  0.83198290  0.49727943  1
  I  I116  1  0.00031626  0.83215814  0.83733247  1
  I  I117  1  0.33160738  0.17061188  0.16447701  1
  I  I118  1  0.32900290  0.16910557  0.50862105  1
  I  I119  1  0.32972675  0.16400930  0.83150489  1
  I  I120  1  0.33245644  0.49569871  0.16225536  1
  I  I121  1  0.33312795  0.49916162  0.50112121  1
  I  I122  1  0.33163410  0.49942735  0.83649201  1
  I  I123  1  0.33311868  0.83376176  0.16554807  1
  I  I124  1  0.33257793  0.83081948  0.49967118  1
  I  I125  1  0.32995662  0.83749384  0.83364855  1
  I  I126  1  0.66432871  0.17136614  0.16314478  1
  I  I127  1  0.66665179  0.16712010  0.50029281  1
  I  I128  1  0.66903163  0.16395304  0.83552506  1
  I  I129  1  0.66386189  0.49672446  0.16289234  1
  I  I130  1  0.66959024  0.50087459  0.50195220  1
  I  I131  1  0.66442734  0.49955937  0.83631608  1
  I  I132  1  0.67033533  0.83207745  0.15920321  1
  I  I133  1  0.66717095  0.83245840  0.50100482  1
  I  I134  1  0.66994612  0.83615810  0.83683397  1
