# generated using pymatgen
data_Cs27Sn13Pb14I81
_symmetry_space_group_name_H-M   'P 1'
_cell_length_a   18.97846970
_cell_length_b   18.98137647
_cell_length_c   18.97145492
_cell_angle_alpha   90.00049111
_cell_angle_beta   90.00063094
_cell_angle_gamma   89.99975406
_symmetry_Int_Tables_number   1
_chemical_formula_structural   Cs27Sn13Pb14I81
_chemical_formula_sum   'Cs27 Sn13 Pb14 I81'
_cell_volume   6834.22907803
_cell_formula_units_Z   1
loop_
 _symmetry_equiv_pos_site_id
 _symmetry_equiv_pos_as_xyz
  1  'x, y, z'
loop_
 _atom_site_type_symbol
 _atom_site_label
 _atom_site_symmetry_multiplicity
 _atom_site_fract_x
 _atom_site_fract_y
 _atom_site_fract_z
 _atom_site_occupancy
  Cs  Cs0  1  0.00544432  -0.00114915  -0.00190103  1
  Cs  Cs1  1  -0.00155283  0.00097653  0.33707241  1
  Cs  Cs2  1  0.00286602  0.00033379  0.66509699  1
  Cs  Cs3  1  -0.00229528  0.33283619  0.00012152  1
  Cs  Cs4  1  -0.00071387  0.33351690  0.33477896  1
  Cs  Cs5  1  -0.00057946  0.33347618  0.66591430  1
  Cs  Cs6  1  -0.00067728  0.66765723  -0.00136015  1
  Cs  Cs7  1  -0.00110477  0.66505431  0.33337821  1
  Cs  Cs8  1  -0.00023358  0.66666030  0.66795710  1
  Cs  Cs9  1  0.32626939  0.00404735  0.00738418  1
  Cs  Cs10  1  0.33446488  -0.00110215  0.32808560  1
  Cs  Cs11  1  0.32794514  0.00150102  0.66792478  1
  Cs  Cs12  1  0.33524308  0.32612055  0.00777262  1
  Cs  Cs13  1  0.33295870  0.33984174  0.32965339  1
  Cs  Cs14  1  0.33433687  0.33493540  0.66444299  1
  Cs  Cs15  1  0.33220299  0.66991976  0.00253282  1
  Cs  Cs16  1  0.33993934  0.66110427  0.32718770  1
  Cs  Cs17  1  0.33505828  0.66432647  0.66686162  1
  Cs  Cs18  1  0.66576284  0.00184079  -0.00128240  1
  Cs  Cs19  1  0.66647257  -0.00290722  0.33533626  1
  Cs  Cs20  1  0.66638394  -0.00042629  0.66582902  1
  Cs  Cs21  1  0.66754582  0.33213782  -0.00198699  1
  Cs  Cs22  1  0.66850628  0.33284323  0.33274461  1
  Cs  Cs23  1  0.66707676  0.33221390  0.66819953  1
  Cs  Cs24  1  0.66827875  0.66570803  -0.00277808  1
  Cs  Cs25  1  0.66321242  0.67090165  0.33449835  1
  Cs  Cs26  1  0.66566000  0.66825678  0.66831684  1
  Sn  Sn27  1  0.83308989  0.16730438  0.49951748  1
  Sn  Sn28  1  0.83342288  0.16617763  0.16730625  1
  Sn  Sn29  1  0.50012952  0.83348346  0.83331961  1
  Sn  Sn30  1  0.49986793  0.16665249  0.50005273  1
  Sn  Sn31  1  0.83327709  0.50077362  0.83313577  1
  Sn  Sn32  1  0.83321154  0.50037741  0.16667852  1
  Sn  Sn33  1  0.83273379  0.83292425  0.83388128  1
  Sn  Sn34  1  0.16715441  0.83282429  0.49948624  1
  Sn  Sn35  1  0.16704033  0.16614699  0.49991887  1
  Sn  Sn36  1  0.16699983  0.49955292  0.83368855  1
  Sn  Sn37  1  0.83342094  0.83357297  0.16569804  1
  Sn  Sn38  1  0.83311664  0.49966952  0.50023951  1
  Sn  Sn39  1  0.49974775  0.50042025  0.83345352  1
  Pb  Pb40  1  0.16685790  0.83162395  0.83191157  1
  Pb  Pb41  1  0.50271373  0.16663700  0.16953608  1
  Pb  Pb42  1  0.16675823  0.16956150  0.83133706  1
  Pb  Pb43  1  0.83348668  0.16612068  0.83317096  1
  Pb  Pb44  1  0.50243773  0.83347251  0.16364451  1
  Pb  Pb45  1  0.50268368  0.49834975  0.50188434  1
  Pb  Pb46  1  0.16411619  0.83304694  0.16971416  1
  Pb  Pb47  1  0.16500554  0.50011055  0.50124261  1
  Pb  Pb48  1  0.16437111  0.50006397  0.16373691  1
  Pb  Pb49  1  0.16387213  0.16680849  0.16977176  1
  Pb  Pb50  1  0.49691831  0.83530401  0.50223256  1
  Pb  Pb51  1  0.49986215  0.16623593  0.83180168  1
  Pb  Pb52  1  0.83427384  0.83329954  0.50046500  1
  Pb  Pb53  1  0.50278495  0.50006941  0.16358726  1
  I  I54  1  0.16327824  -0.00000032  0.16344235  1
  I  I55  1  0.16185986  0.00116019  0.50237597  1
  I  I56  1  0.16543463  -0.00009921  0.83241996  1
  I  I57  1  0.16360860  0.33337489  0.16767693  1
  I  I58  1  0.16569954  0.33055385  0.50285035  1
  I  I59  1  0.16276473  0.33767739  0.83011836  1
  I  I60  1  0.16279467  0.66657552  0.17019729  1
  I  I61  1  0.16117191  0.66868560  0.50363637  1
  I  I62  1  0.16359371  0.66372642  0.82879163  1
  I  I63  1  0.50394423  0.00006706  0.16426884  1
  I  I64  1  0.50764404  0.00326064  0.50285271  1
  I  I65  1  0.50833324  -0.00322138  0.83028308  1
  I  I66  1  0.50301709  0.33337386  0.16379626  1
  I  I67  1  0.49713647  0.33027035  0.50337330  1
  I  I68  1  0.50348148  0.33652256  0.83089696  1
  I  I69  1  0.50243886  0.66670189  0.17100658  1
  I  I70  1  0.50035919  0.66663422  0.49995818  1
  I  I71  1  0.50343682  0.66600439  0.83135181  1
  I  I72  1  0.83281619  0.00004614  0.16819637  1
  I  I73  1  0.83270290  0.00283274  0.49730284  1
  I  I74  1  0.82850242  -0.00331432  0.83529616  1
  I  I75  1  0.83355039  0.33376663  0.16731937  1
  I  I76  1  0.83551496  0.33294962  0.49837727  1
  I  I77  1  0.83251856  0.33657428  0.83461708  1
  I  I78  1  0.83425874  0.66624991  0.16534240  1
  I  I79  1  0.83665192  0.66412220  0.49920702  1
  I  I80  1  0.83313122  0.66550457  0.83514000  1
  I  I81  1  0.16538005  0.16704472  0.00038308  1
  I  I82  1  0.16675678  0.16381210  0.33796600  1
  I  I83  1  0.16130981  0.16308221  0.66281690  1
  I  I84  1  0.16318494  0.50250513  -0.00452049  1
  I  I85  1  0.16364103  0.49910142  0.33334666  1
  I  I86  1  0.16186956  0.49966388  0.66937270  1
  I  I87  1  0.16731533  0.83197872  -0.00003853  1
  I  I88  1  0.16268268  0.83867879  0.33753134  1
  I  I89  1  0.16216584  0.83778216  0.66418208  1
  I  I90  1  0.50251537  0.16768622  0.00021262  1
  I  I91  1  0.49897207  0.16636312  0.33772277  1
  I  I92  1  0.50499380  0.16764233  0.66349317  1
  I  I93  1  0.50316238  0.50319582  -0.00471698  1
  I  I94  1  0.50099250  0.49854904  0.33329817  1
  I  I95  1  0.50397190  0.50271588  0.67011274  1
  I  I96  1  0.50237558  0.82826835  -0.00457135  1
  I  I97  1  0.50120024  0.83504709  0.33339647  1
  I  I98  1  0.50896071  0.82891058  0.67006816  1
  I  I99  1  0.83248348  0.16994544  0.00274937  1
  I  I100  1  0.83389197  0.17010141  0.33441533  1
  I  I101  1  0.83377132  0.17026035  0.66321576  1
  I  I102  1  0.83335392  0.50007368  -0.00083333  1
  I  I103  1  0.83510156  0.49845656  0.33350591  1
  I  I104  1  0.83380202  0.49938740  0.66757574  1
  I  I105  1  0.83014707  0.82956364  -0.00073366  1
  I  I106  1  0.83669033  0.83113909  0.33115945  1
  I  I107  1  0.83159520  0.82947974  0.66945528  1
  I  I108  1  -0.00460511  0.16785555  0.17184377  1
  I  I109  1  -0.00117844  0.16690505  0.49651767  1
  I  I110  1  -0.00030653  0.16696353  0.83053531  1
  I  I111  1  -0.00481322  0.49943664  0.16498426  1
  I  I112  1  -0.00380135  0.49501455  0.50264625  1
  I  I113  1  -0.00215917  0.50343876  0.83278210  1
  I  I114  1  -0.00470584  0.83301219  0.15939001  1
  I  I115  1  0.00166171  0.83886378  0.50241253  1
  I  I116  1  -0.00311056  0.82883215  0.83559941  1
  I  I117  1  0.33327658  0.16639257  0.16670838  1
  I  I118  1  0.33283918  0.16121687  0.50573596  1
  I  I119  1  0.33333351  0.16687674  0.82934245  1
  I  I120  1  0.33355495  0.49943995  0.16648572  1
  I  I121  1  0.33346985  0.49801016  0.50403227  1
  I  I122  1  0.33387038  0.50445441  0.82855480  1
  I  I123  1  0.33334651  0.83425298  0.16573870  1
  I  I124  1  0.32940798  0.83902176  0.50466366  1
  I  I125  1  0.33594090  0.82777270  0.82781645  1
  I  I126  1  0.67129955  0.16777503  0.17187280  1
  I  I127  1  0.66828078  0.17171641  0.49705660  1
  I  I128  1  0.66702081  0.17050205  0.83011965  1
  I  I129  1  0.67164484  0.49926451  0.16531440  1
  I  I130  1  0.67132460  0.49524123  0.50204353  1
  I  I131  1  0.66834221  0.50384168  0.83315992  1
  I  I132  1  0.67131811  0.83264525  0.16762132  1
  I  I133  1  0.66672553  0.83427858  0.49887658  1
  I  I134  1  0.66826420  0.82533064  0.83529071  1
