# generated using pymatgen
data_Cs27Sn14Pb13I81
_symmetry_space_group_name_H-M   'P 1'
_cell_length_a   18.97901109
_cell_length_b   18.97293766
_cell_length_c   18.97455128
_cell_angle_alpha   90.00166937
_cell_angle_beta   90.00012817
_cell_angle_gamma   90.00121480
_symmetry_Int_Tables_number   1
_chemical_formula_structural   Cs27Sn14Pb13I81
_chemical_formula_sum   'Cs27 Sn14 Pb13 I81'
_cell_volume   6832.50051662
_cell_formula_units_Z   1
loop_
 _symmetry_equiv_pos_site_id
 _symmetry_equiv_pos_as_xyz
  1  'x, y, z'
loop_
 _atom_site_type_symbol
 _atom_site_label
 _atom_site_symmetry_multiplicity
 _atom_site_fract_x
 _atom_site_fract_y
 _atom_site_fract_z
 _atom_site_occupancy
  Cs  Cs0  1  0.00231953  0.00235091  0.00103916  1
  Cs  Cs1  1  0.00516034  -0.00371549  0.33577377  1
  Cs  Cs2  1  -0.00179986  0.00135565  0.66488940  1
  Cs  Cs3  1  -0.00247354  0.33424452  0.00036771  1
  Cs  Cs4  1  -0.00325368  0.33256090  0.33198777  1
  Cs  Cs5  1  0.00081355  0.33235048  0.66741994  1
  Cs  Cs6  1  -0.00052950  0.66477921  -0.00112794  1
  Cs  Cs7  1  -0.00036458  0.67124062  0.33620388  1
  Cs  Cs8  1  -0.00120852  0.66686728  0.66605711  1
  Cs  Cs9  1  0.33379166  0.00070590  0.00240832  1
  Cs  Cs10  1  0.33250015  0.00066599  0.32712135  1
  Cs  Cs11  1  0.33720032  0.00281282  0.67089256  1
  Cs  Cs12  1  0.33100030  0.33779540  0.00111632  1
  Cs  Cs13  1  0.33750754  0.33272565  0.33750363  1
  Cs  Cs14  1  0.33147739  0.33523333  0.66184253  1
  Cs  Cs15  1  0.33489037  0.66665363  -0.00117253  1
  Cs  Cs16  1  0.33297475  0.66641110  0.33427658  1
  Cs  Cs17  1  0.33296372  0.66320516  0.66802936  1
  Cs  Cs18  1  0.66468666  0.00349176  -0.00320078  1
  Cs  Cs19  1  0.66378389  -0.00406055  0.33468403  1
  Cs  Cs20  1  0.66504480  0.00099508  0.66938914  1
  Cs  Cs21  1  0.67180382  0.33023918  0.00262467  1
  Cs  Cs22  1  0.66617760  0.33097282  0.33305244  1
  Cs  Cs23  1  0.66706104  0.33041859  0.66428003  1
  Cs  Cs24  1  0.66561410  0.66647837  0.00154984  1
  Cs  Cs25  1  0.66736704  0.66852857  0.33046892  1
  Cs  Cs26  1  0.66821812  0.66782100  0.66722606  1
  Sn  Sn27  1  0.50047161  0.49990486  0.83389460  1
  Sn  Sn28  1  0.50083000  0.83236864  0.16723642  1
  Sn  Sn29  1  0.16592620  0.16668896  0.50057941  1
  Sn  Sn30  1  0.49957563  0.83283656  0.49951178  1
  Sn  Sn31  1  0.16579407  0.83326315  0.83327652  1
  Sn  Sn32  1  0.49928338  0.50064944  0.16587786  1
  Sn  Sn33  1  0.16651334  0.16693344  0.83268220  1
  Sn  Sn34  1  0.16655056  0.50016145  0.83381121  1
  Sn  Sn35  1  0.83292437  0.83339976  0.16528638  1
  Sn  Sn36  1  0.83415348  0.83275967  0.83448654  1
  Sn  Sn37  1  0.16726681  0.50027344  0.16655103  1
  Sn  Sn38  1  0.83328587  0.49939768  0.50063164  1
  Sn  Sn39  1  0.83310278  0.50053859  0.83246142  1
  Sn  Sn40  1  0.83412019  0.16724581  0.49994569  1
  Pb  Pb41  1  0.16690068  0.83101911  0.16439445  1
  Pb  Pb42  1  0.83321566  0.50150050  0.16650141  1
  Pb  Pb43  1  0.83353205  0.16277121  0.16973855  1
  Pb  Pb44  1  0.50012080  0.16709756  0.16637129  1
  Pb  Pb45  1  0.49705171  0.17071462  0.83350393  1
  Pb  Pb46  1  0.16661654  0.16974522  0.16663780  1
  Pb  Pb47  1  0.16941956  0.83568007  0.50296205  1
  Pb  Pb48  1  0.50025127  0.83165149  0.83406816  1
  Pb  Pb49  1  0.50245411  0.50169125  0.49969097  1
  Pb  Pb50  1  0.49992001  0.16405701  0.50002127  1
  Pb  Pb51  1  0.16452405  0.49856406  0.49986687  1
  Pb  Pb52  1  0.83210635  0.83350689  0.50060180  1
  Pb  Pb53  1  0.83518877  0.16660715  0.83193440  1
  I  I54  1  0.16696794  -0.00022157  0.16565145  1
  I  I55  1  0.15903598  0.00348544  0.50474705  1
  I  I56  1  0.16145137  -0.00035966  0.82817485  1
  I  I57  1  0.17198961  0.33775479  0.16030634  1
  I  I58  1  0.16578594  0.33064668  0.50620123  1
  I  I59  1  0.16727491  0.33457659  0.83310827  1
  I  I60  1  0.16779752  0.66318579  0.16050121  1
  I  I61  1  0.16542907  0.66672336  0.50072655  1
  I  I62  1  0.16607771  0.66561430  0.83811838  1
  I  I63  1  0.50370417  -0.00361870  0.17145672  1
  I  I64  1  0.50245313  -0.00380090  0.49477313  1
  I  I65  1  0.49985379  -0.00003761  0.83277960  1
  I  I66  1  0.49532113  0.33738262  0.16249134  1
  I  I67  1  0.49915703  0.33348947  0.50003189  1
  I  I68  1  0.50205676  0.33891588  0.83851528  1
  I  I69  1  0.50028265  0.66646623  0.16635940  1
  I  I70  1  0.50260544  0.66931603  0.49889695  1
  I  I71  1  0.49554602  0.66356102  0.83407589  1
  I  I72  1  0.82712767  -0.00519369  0.16063949  1
  I  I73  1  0.83621175  0.00221247  0.49953755  1
  I  I74  1  0.83720680  -0.00300683  0.83508058  1
  I  I75  1  0.83291572  0.33348138  0.16495746  1
  I  I76  1  0.83619823  0.33407160  0.50628483  1
  I  I77  1  0.83389307  0.33654298  0.83127048  1
  I  I78  1  0.83181646  0.66930970  0.16762975  1
  I  I79  1  0.83143328  0.66456124  0.50189819  1
  I  I80  1  0.83815340  0.66587050  0.83061899  1
  I  I81  1  0.16732798  0.16504953  -0.00333987  1
  I  I82  1  0.16272480  0.16771480  0.33623757  1
  I  I83  1  0.16276636  0.16894569  0.66767415  1
  I  I84  1  0.16571611  0.49817179  -0.00202941  1
  I  I85  1  0.17053816  0.49853119  0.33082737  1
  I  I86  1  0.16927685  0.50139085  0.67009204  1
  I  I87  1  0.16740665  0.83723125  -0.00384971  1
  I  I88  1  0.16407929  0.83334401  0.33326652  1
  I  I89  1  0.16163198  0.82695167  0.67096897  1
  I  I90  1  0.49870275  0.16024237  -0.00031582  1
  I  I91  1  0.49765158  0.17090890  0.33346715  1
  I  I92  1  0.50152113  0.16436606  0.66679986  1
  I  I93  1  0.49948593  0.50684698  -0.00015612  1
  I  I94  1  0.49603745  0.50250783  0.33036184  1
  I  I95  1  0.49665315  0.50242153  0.66946615  1
  I  I96  1  0.50096409  0.82989999  0.00265117  1
  I  I97  1  0.50672580  0.82825675  0.33181856  1
  I  I98  1  0.50061510  0.83246560  0.66544545  1
  I  I99  1  0.83468675  0.16930668  -0.00007714  1
  I  I100  1  0.83958703  0.17383838  0.33766714  1
  I  I101  1  0.83553625  0.16594057  0.66399672  1
  I  I102  1  0.83412623  0.50291521  -0.00309007  1
  I  I103  1  0.83350811  0.49800747  0.33549318  1
  I  I104  1  0.83394772  0.50280392  0.66844278  1
  I  I105  1  0.83141976  0.82598597  -0.00119607  1
  I  I106  1  0.82987226  0.83254170  0.33140573  1
  I  I107  1  0.83553586  0.83160284  0.66961311  1
  I  I108  1  0.00006957  0.16776151  0.16513860  1
  I  I109  1  -0.00003800  0.17005103  0.50495433  1
  I  I110  1  0.00329975  0.17094472  0.83119192  1
  I  I111  1  0.00207229  0.50049334  0.16255613  1
  I  I112  1  -0.00340204  0.50020630  0.50392406  1
  I  I113  1  0.00033444  0.50057130  0.83368304  1
  I  I114  1  -0.00230531  0.83128350  0.16499713  1
  I  I115  1  0.00009255  0.83231646  0.49711888  1
  I  I116  1  -0.00060518  0.82798011  0.83780457  1
  I  I117  1  0.33311709  0.16153722  0.16868419  1
  I  I118  1  0.33036211  0.16620078  0.50503523  1
  I  I119  1  0.32869199  0.16402622  0.82675930  1
  I  I120  1  0.33383596  0.50536494  0.15797153  1
  I  I121  1  0.33336351  0.49901934  0.50233050  1
  I  I122  1  0.33253898  0.50069494  0.83806274  1
  I  I123  1  0.33606605  0.83119456  0.16953059  1
  I  I124  1  0.33680056  0.83314345  0.49435670  1
  I  I125  1  0.33088325  0.83237732  0.83216970  1
  I  I126  1  0.66698137  0.17216455  0.16859983  1
  I  I127  1  0.66954915  0.17003666  0.49978433  1
  I  I128  1  0.66680580  0.16543973  0.83089779  1
  I  I129  1  0.66409905  0.50333501  0.16368970  1
  I  I130  1  0.67032531  0.49482067  0.50459810  1
  I  I131  1  0.66751380  0.50697803  0.83292271  1
  I  I132  1  0.66617727  0.82649039  0.16595729  1
  I  I133  1  0.66440693  0.83421712  0.50049680  1
  I  I134  1  0.66934525  0.82807674  0.83308130  1
