# generated using pymatgen
data_Cs27Sn13Pb14I81
_symmetry_space_group_name_H-M   'P 1'
_cell_length_a   18.97876690
_cell_length_b   18.97601401
_cell_length_c   18.97627421
_cell_angle_alpha   89.99963486
_cell_angle_beta   89.99997538
_cell_angle_gamma   90.00123285
_symmetry_Int_Tables_number   1
_chemical_formula_structural   Cs27Sn13Pb14I81
_chemical_formula_sum   'Cs27 Sn13 Pb14 I81'
_cell_volume   6834.14094774
_cell_formula_units_Z   1
loop_
 _symmetry_equiv_pos_site_id
 _symmetry_equiv_pos_as_xyz
  1  'x, y, z'
loop_
 _atom_site_type_symbol
 _atom_site_label
 _atom_site_symmetry_multiplicity
 _atom_site_fract_x
 _atom_site_fract_y
 _atom_site_fract_z
 _atom_site_occupancy
  Cs  Cs0  1  -0.00054396  0.00155925  0.00013988  1
  Cs  Cs1  1  0.00139460  0.00446871  0.33176110  1
  Cs  Cs2  1  0.00354398  -0.00416586  0.66907571  1
  Cs  Cs3  1  -0.00193778  0.33117326  0.00178089  1
  Cs  Cs4  1  -0.00719122  0.32781308  0.33882676  1
  Cs  Cs5  1  -0.00105832  0.34401155  0.66123375  1
  Cs  Cs6  1  0.00066596  0.66580687  -0.00658628  1
  Cs  Cs7  1  0.00152852  0.66687160  0.33606956  1
  Cs  Cs8  1  0.00710781  0.65958064  0.67151208  1
  Cs  Cs9  1  0.33453279  0.00143715  0.00010181  1
  Cs  Cs10  1  0.33170684  0.00037032  0.33380268  1
  Cs  Cs11  1  0.33421364  0.00048386  0.66502745  1
  Cs  Cs12  1  0.33447451  0.33212703  -0.00053789  1
  Cs  Cs13  1  0.33147419  0.33074481  0.33376233  1
  Cs  Cs14  1  0.33407765  0.33312943  0.66634967  1
  Cs  Cs15  1  0.33435441  0.66565050  0.00302523  1
  Cs  Cs16  1  0.33411793  0.66732477  0.33096154  1
  Cs  Cs17  1  0.33012194  0.66611398  0.66582160  1
  Cs  Cs18  1  0.66529189  -0.00104618  -0.00209959  1
  Cs  Cs19  1  0.66696079  -0.00279211  0.33545004  1
  Cs  Cs20  1  0.66492912  0.00072082  0.66710086  1
  Cs  Cs21  1  0.66644732  0.33523793  0.00142819  1
  Cs  Cs22  1  0.67512299  0.33495961  0.33479064  1
  Cs  Cs23  1  0.66612847  0.33146184  0.66452692  1
  Cs  Cs24  1  0.66676941  0.66591333  0.00156086  1
  Cs  Cs25  1  0.66542920  0.66796608  0.33219327  1
  Cs  Cs26  1  0.66668382  0.66780668  0.66621348  1
  Sn  Sn27  1  0.49990778  0.50078235  0.50030653  1
  Sn  Sn28  1  0.16630945  0.49996545  0.16695763  1
  Sn  Sn29  1  0.49997640  0.50011451  0.83256598  1
  Sn  Sn30  1  0.16659386  0.16693775  0.83296027  1
  Sn  Sn31  1  0.83346836  0.83326647  0.16717385  1
  Sn  Sn32  1  0.50009217  0.83425233  0.16675123  1
  Sn  Sn33  1  0.83331704  0.16678105  0.83293949  1
  Sn  Sn34  1  0.50003462  0.16681496  0.83421325  1
  Sn  Sn35  1  0.49986379  0.83291890  0.83327410  1
  Sn  Sn36  1  0.50032088  0.16613992  0.16643525  1
  Sn  Sn37  1  0.50051058  0.83242783  0.49995189  1
  Sn  Sn38  1  0.83302460  0.83323554  0.49996321  1
  Sn  Sn39  1  0.16644110  0.83245684  0.16633786  1
  Pb  Pb40  1  0.83078103  0.50325728  0.50002662  1
  Pb  Pb41  1  0.16932060  0.83487947  0.83579005  1
  Pb  Pb42  1  0.83663555  0.50283425  0.16664568  1
  Pb  Pb43  1  0.50003889  0.16656387  0.49968642  1
  Pb  Pb44  1  0.83067561  0.49744532  0.83347310  1
  Pb  Pb45  1  0.16916063  0.49757975  0.83548968  1
  Pb  Pb46  1  0.83328166  0.16350920  0.50300392  1
  Pb  Pb47  1  0.16650920  0.16665874  0.50318557  1
  Pb  Pb48  1  0.16938058  0.50009467  0.49712001  1
  Pb  Pb49  1  0.83164911  0.83454839  0.83304697  1
  Pb  Pb50  1  0.16842115  0.16665323  0.16539213  1
  Pb  Pb51  1  0.49912784  0.49969912  0.16714215  1
  Pb  Pb52  1  0.83056290  0.16422786  0.16497388  1
  Pb  Pb53  1  0.16668091  0.83336581  0.49773080  1
  I  I54  1  0.16681225  -0.00300223  0.16530844  1
  I  I55  1  0.17037488  -0.00034353  0.49769882  1
  I  I56  1  0.17017177  0.00287341  0.83628715  1
  I  I57  1  0.17305374  0.33531329  0.16334639  1
  I  I58  1  0.16990188  0.33355817  0.49680302  1
  I  I59  1  0.17100144  0.32980484  0.83729487  1
  I  I60  1  0.17150973  0.66839453  0.16642911  1
  I  I61  1  0.16567629  0.66684696  0.50280523  1
  I  I62  1  0.16807670  0.66657137  0.83291505  1
  I  I63  1  0.49797759  -0.00171683  0.16287501  1
  I  I64  1  0.50341903  -0.00347851  0.50195402  1
  I  I65  1  0.50025202  0.00010436  0.83471806  1
  I  I66  1  0.49591310  0.33088024  0.16172822  1
  I  I67  1  0.49760513  0.33595380  0.50388733  1
  I  I68  1  0.49943633  0.33231613  0.83416063  1
  I  I69  1  0.50101076  0.66996277  0.16408776  1
  I  I70  1  0.50338148  0.66823923  0.50262623  1
  I  I71  1  0.50034399  0.66751669  0.83413732  1
  I  I72  1  0.83678769  -0.00398208  0.16972944  1
  I  I73  1  0.82374334  -0.00417523  0.49526827  1
  I  I74  1  0.82904611  0.00260895  0.83415279  1
  I  I75  1  0.83265298  0.33298819  0.16523247  1
  I  I76  1  0.83232367  0.33338326  0.50051529  1
  I  I77  1  0.83025849  0.32921286  0.83525976  1
  I  I78  1  0.82499004  0.67136530  0.16861689  1
  I  I79  1  0.82901177  0.67114445  0.49571232  1
  I  I80  1  0.83106317  0.66682561  0.83379960  1
  I  I81  1  0.16797005  0.16548657  -0.00275845  1
  I  I82  1  0.17020577  0.16623799  0.33291113  1
  I  I83  1  0.17318653  0.16484898  0.67161710  1
  I  I84  1  0.17107743  0.50545692  0.00291475  1
  I  I85  1  0.17152936  0.50559731  0.32949268  1
  I  I86  1  0.16612217  0.49836790  0.66683812  1
  I  I87  1  0.16717763  0.83052537  0.00392860  1
  I  I88  1  0.17295368  0.83097345  0.32937321  1
  I  I89  1  0.16695545  0.83572036  0.66699076  1
  I  I90  1  0.49957659  0.16309255  -0.00132838  1
  I  I91  1  0.49795773  0.16246575  0.33030244  1
  I  I92  1  0.49976806  0.16401928  0.67019858  1
  I  I93  1  0.49806685  0.50126891  -0.00248009  1
  I  I94  1  0.49753138  0.50474201  0.33568779  1
  I  I95  1  0.49993697  0.50254705  0.66751170  1
  I  I96  1  0.49982293  0.83466546  0.00039369  1
  I  I97  1  0.50027499  0.83302145  0.33251841  1
  I  I98  1  0.50514689  0.83406758  0.66680693  1
  I  I99  1  0.83314748  0.16321345  -0.00301209  1
  I  I100  1  0.83144568  0.16799259  0.33332340  1
  I  I101  1  0.82713097  0.16387634  0.67090264  1
  I  I102  1  0.82968812  0.50276702  0.00003730  1
  I  I103  1  0.83001354  0.49686825  0.33330885  1
  I  I104  1  0.83535679  0.50188272  0.66675826  1
  I  I105  1  0.83150229  0.83546219  0.00277513  1
  I  I106  1  0.82641246  0.83306663  0.33257808  1
  I  I107  1  0.82518793  0.83704927  0.66414268  1
  I  I108  1  -0.00011839  0.16515014  0.16310017  1
  I  I109  1  -0.00028151  0.16410598  0.49925525  1
  I  I110  1  0.00005508  0.16312633  0.83489662  1
  I  I111  1  0.00442813  0.50480968  0.16445188  1
  I  I112  1  0.00000239  0.50086623  0.49987058  1
  I  I113  1  0.00030936  0.49888217  0.83423033  1
  I  I114  1  -0.00009627  0.82912733  0.17151342  1
  I  I115  1  -0.00308582  0.83673398  0.49482816  1
  I  I116  1  0.00014745  0.83694587  0.83366985  1
  I  I117  1  0.33671254  0.16076561  0.16000896  1
  I  I118  1  0.33392615  0.16411948  0.50154257  1
  I  I119  1  0.33541208  0.16633163  0.83797539  1
  I  I120  1  0.33168300  0.50635220  0.16587867  1
  I  I121  1  0.33753349  0.50695459  0.50447707  1
  I  I122  1  0.33758043  0.49856182  0.83083700  1
  I  I123  1  0.33496224  0.83331901  0.16577124  1
  I  I124  1  0.33708004  0.83053837  0.49994725  1
  I  I125  1  0.33810635  0.83584413  0.83289651  1
  I  I126  1  0.66229339  0.16232654  0.16026029  1
  I  I127  1  0.66632304  0.16848090  0.50227379  1
  I  I128  1  0.66459240  0.16559126  0.83694507  1
  I  I129  1  0.66653306  0.49986267  0.16633450  1
  I  I130  1  0.66247380  0.50116495  0.50269856  1
  I  I131  1  0.66183863  0.49881859  0.83203635  1
  I  I132  1  0.66502401  0.83830272  0.16699321  1
  I  I133  1  0.66458708  0.83037105  0.49495097  1
  I  I134  1  0.66260398  0.83595766  0.83744359  1
