# generated using pymatgen
data_Cs27Sn14Pb13I81
_symmetry_space_group_name_H-M   'P 1'
_cell_length_a   18.98521365
_cell_length_b   18.98521359
_cell_length_c   18.96073386
_cell_angle_alpha   90.00000002
_cell_angle_beta   90.00000002
_cell_angle_gamma   89.99999994
_symmetry_Int_Tables_number   1
_chemical_formula_structural   Cs27Sn14Pb13I81
_chemical_formula_sum   'Cs27 Sn14 Pb13 I81'
_cell_volume   6834.17537005
_cell_formula_units_Z   1
loop_
 _symmetry_equiv_pos_site_id
 _symmetry_equiv_pos_as_xyz
  1  'x, y, z'
loop_
 _atom_site_type_symbol
 _atom_site_label
 _atom_site_symmetry_multiplicity
 _atom_site_fract_x
 _atom_site_fract_y
 _atom_site_fract_z
 _atom_site_occupancy
  Cs  Cs0  1  -0.00067091  -0.00000006  0.00351666  1
  Cs  Cs1  1  -0.00448714  -0.00000000  0.32397530  1
  Cs  Cs2  1  0.00252844  -0.00000016  0.66764020  1
  Cs  Cs3  1  -0.00099693  0.33640702  -0.00062565  1
  Cs  Cs4  1  -0.00088053  0.33245267  0.33333336  1
  Cs  Cs5  1  0.00307369  0.33233649  0.66729221  1
  Cs  Cs6  1  -0.00099699  0.66359296  -0.00062570  1
  Cs  Cs7  1  -0.00088064  0.66754725  0.33333329  1
  Cs  Cs8  1  0.00307364  0.66766361  0.66729226  1
  Cs  Cs9  1  0.33400423  0.00000004  0.00351657  1
  Cs  Cs10  1  0.33782055  -0.00000002  0.32397531  1
  Cs  Cs11  1  0.33080506  0.00000001  0.66764019  1
  Cs  Cs12  1  0.33433023  0.33640711  -0.00062556  1
  Cs  Cs13  1  0.33421399  0.33245271  0.33333328  1
  Cs  Cs14  1  0.33025961  0.33233638  0.66729227  1
  Cs  Cs15  1  0.33433035  0.66359299  -0.00062558  1
  Cs  Cs16  1  0.33421400  0.66754727  0.33333334  1
  Cs  Cs17  1  0.33025970  0.66766357  0.66729225  1
  Cs  Cs18  1  0.66666679  0.00000007  -0.00053969  1
  Cs  Cs19  1  0.66666669  -0.00000010  0.33333346  1
  Cs  Cs20  1  0.66666669  0.00000016  0.66720645  1
  Cs  Cs21  1  0.66666680  0.33586166  -0.00097351  1
  Cs  Cs22  1  0.66666662  0.32884600  0.34269139  1
  Cs  Cs23  1  0.66666666  0.33266243  0.66315005  1
  Cs  Cs24  1  0.66666662  0.66413839  -0.00097351  1
  Cs  Cs25  1  0.66666655  0.67115389  0.34269146  1
  Cs  Cs26  1  0.66666666  0.66733768  0.66315020  1
  Sn  Sn27  1  0.50106710  0.49999997  0.16653906  1
  Sn  Sn28  1  0.83226625  0.50000003  0.16653909  1
  Sn  Sn29  1  0.16666667  0.83440041  0.50012759  1
  Sn  Sn30  1  0.83211843  0.50000001  0.83340807  1
  Sn  Sn31  1  0.16666666  0.50000000  0.49861052  1
  Sn  Sn32  1  0.49975952  0.16690716  0.83333334  1
  Sn  Sn33  1  0.16666668  0.16545179  0.83325859  1
  Sn  Sn34  1  0.16666665  0.50000000  0.16805614  1
  Sn  Sn35  1  0.50121489  0.50000001  0.83340807  1
  Sn  Sn36  1  0.49975952  0.83309290  0.83333332  1
  Sn  Sn37  1  0.83357380  0.83309286  0.83333332  1
  Sn  Sn38  1  0.83357385  0.16690713  0.83333332  1
  Sn  Sn39  1  0.16666668  0.16559957  0.50012760  1
  Sn  Sn40  1  0.16666668  0.83454819  0.83325858  1
  Pb  Pb41  1  0.83593575  0.16635684  0.50223552  1
  Pb  Pb42  1  0.16666666  0.50000004  0.83333335  1
  Pb  Pb43  1  0.50030982  0.83073103  0.16443112  1
  Pb  Pb44  1  0.16666664  0.16912596  0.16621155  1
  Pb  Pb45  1  0.49739762  0.83364317  0.50223554  1
  Pb  Pb46  1  0.83302349  0.16926906  0.16443117  1
  Pb  Pb47  1  0.83593574  0.83364315  0.50223547  1
  Pb  Pb48  1  0.49754073  0.50000000  0.50045509  1
  Pb  Pb49  1  0.50030982  0.16926902  0.16443110  1
  Pb  Pb50  1  0.83579259  0.50000003  0.50045508  1
  Pb  Pb51  1  0.83302351  0.83073096  0.16443114  1
  Pb  Pb52  1  0.49739762  0.16635681  0.50223553  1
  Pb  Pb53  1  0.16666665  0.83087403  0.16621156  1
  I  I54  1  0.16666669  -0.00000002  0.16821110  1
  I  I55  1  0.16666659  0.00000002  0.51160776  1
  I  I56  1  0.16666668  0.00000002  0.82546246  1
  I  I57  1  0.16666662  0.33750457  0.16802794  1
  I  I58  1  0.16666668  0.33317298  0.50251077  1
  I  I59  1  0.16666678  0.33126126  0.83107329  1
  I  I60  1  0.16666673  0.66249543  0.16802796  1
  I  I61  1  0.16666673  0.66682697  0.50251085  1
  I  I62  1  0.16666648  0.66873873  0.83107316  1
  I  I63  1  0.49731785  -0.00000004  0.16504996  1
  I  I64  1  0.49786066  -0.00000003  0.50280043  1
  I  I65  1  0.50153341  -0.00000002  0.83063870  1
  I  I66  1  0.49776947  0.33779894  0.15835114  1
  I  I67  1  0.49602977  0.33342360  0.50347550  1
  I  I68  1  0.50074722  0.33381936  0.83741056  1
  I  I69  1  0.49776942  0.66220101  0.15835119  1
  I  I70  1  0.49602964  0.66657643  0.50347530  1
  I  I71  1  0.50074725  0.66618064  0.83741056  1
  I  I72  1  0.83601541  0.00000002  0.16505029  1
  I  I73  1  0.83547263  0.00000000  0.50280033  1
  I  I74  1  0.83179983  0.00000000  0.83063857  1
  I  I75  1  0.83556392  0.33779896  0.15835090  1
  I  I76  1  0.83730353  0.33342359  0.50347545  1
  I  I77  1  0.83258603  0.33381935  0.83741086  1
  I  I78  1  0.83556399  0.66220102  0.15835100  1
  I  I79  1  0.83730359  0.66657638  0.50347568  1
  I  I80  1  0.83258635  0.66618064  0.83741058  1
  I  I81  1  0.16666678  0.16349126  -0.00394545  1
  I  I82  1  0.16666652  0.16585362  0.33631363  1
  I  I83  1  0.16666671  0.16983357  0.66841309  1
  I  I84  1  0.16666670  0.50000002  0.00180609  1
  I  I85  1  0.16666669  0.50000004  0.33333335  1
  I  I86  1  0.16666665  0.49999992  0.66486057  1
  I  I87  1  0.16666671  0.83650869  -0.00394544  1
  I  I88  1  0.16666661  0.83414637  0.33631360  1
  I  I89  1  0.16666661  0.83016649  0.66841308  1
  I  I90  1  0.49587916  0.16469071  -0.00506928  1
  I  I91  1  0.49688013  0.16978684  0.33333332  1
  I  I92  1  0.50197591  0.17078718  0.67173597  1
  I  I93  1  0.49683305  0.50000006  -0.00174645  1
  I  I94  1  0.50081296  0.49999998  0.33035306  1
  I  I95  1  0.50317532  0.50000004  0.67061213  1
  I  I96  1  0.49587930  0.83530911  -0.00506929  1
  I  I97  1  0.49688030  0.83021329  0.33333332  1
  I  I98  1  0.50197561  0.82921269  0.67173596  1
  I  I99  1  0.83745390  0.16469045  -0.00506924  1
  I  I100  1  0.83645330  0.16978698  0.33333335  1
  I  I101  1  0.83135732  0.17078743  0.67173598  1
  I  I102  1  0.83650021  0.50000009  -0.00174646  1
  I  I103  1  0.83252040  0.50000007  0.33035303  1
  I  I104  1  0.83015808  0.49999983  0.67061214  1
  I  I105  1  0.83745392  0.83530938  -0.00506926  1
  I  I106  1  0.83645312  0.83021304  0.33333332  1
  I  I107  1  0.83135775  0.82921275  0.67173597  1
  I  I108  1  0.00009028  0.17063680  0.16319121  1
  I  I109  1  0.00446561  0.16889721  0.50831553  1
  I  I110  1  0.00048603  0.16591937  0.82925607  1
  I  I111  1  -0.00016032  0.50000000  0.16415590  1
  I  I112  1  0.00417124  0.50000000  0.49863873  1
  I  I113  1  -0.00207205  0.49999982  0.83559350  1
  I  I114  1  0.00009026  0.82936322  0.16319126  1
  I  I115  1  0.00446560  0.83110283  0.50831537  1
  I  I116  1  0.00048602  0.83408088  0.82925621  1
  I  I117  1  0.33324309  0.17063688  0.16319150  1
  I  I118  1  0.32886769  0.16889713  0.50831541  1
  I  I119  1  0.33284735  0.16591922  0.82925597  1
  I  I120  1  0.33349367  0.49999996  0.16415585  1
  I  I121  1  0.32916213  0.50000003  0.49863879  1
  I  I122  1  0.33540539  0.50000007  0.83559345  1
  I  I123  1  0.33324309  0.82936316  0.16319142  1
  I  I124  1  0.32886770  0.83110296  0.50831538  1
  I  I125  1  0.33284729  0.83408058  0.82925611  1
  I  I126  1  0.66666669  0.16880641  0.16386588  1
  I  I127  1  0.66666665  0.16934900  0.50161671  1
  I  I128  1  0.66666666  0.16513353  0.83602801  1
  I  I129  1  0.66666665  0.50000004  0.15505894  1
  I  I130  1  0.66666665  0.50000011  0.49845553  1
  I  I131  1  0.66666667  0.50000007  0.84120414  1
  I  I132  1  0.66666664  0.83119365  0.16386584  1
  I  I133  1  0.66666663  0.83065098  0.50161701  1
  I  I134  1  0.66666667  0.83486622  0.83602774  1
