# generated using pymatgen
data_Cs27Sn13Pb14I81
_symmetry_space_group_name_H-M   'P 1'
_cell_length_a   18.97605032
_cell_length_b   18.98113523
_cell_length_c   18.97246291
_cell_angle_alpha   89.99853369
_cell_angle_beta   89.99963238
_cell_angle_gamma   90.00126738
_symmetry_Int_Tables_number   1
_chemical_formula_structural   Cs27Sn13Pb14I81
_chemical_formula_sum   'Cs27 Sn13 Pb14 I81'
_cell_volume   6833.63406052
_cell_formula_units_Z   1
loop_
 _symmetry_equiv_pos_site_id
 _symmetry_equiv_pos_as_xyz
  1  'x, y, z'
loop_
 _atom_site_type_symbol
 _atom_site_label
 _atom_site_symmetry_multiplicity
 _atom_site_fract_x
 _atom_site_fract_y
 _atom_site_fract_z
 _atom_site_occupancy
  Cs  Cs0  1  0.00249431  -0.00066484  0.00163321  1
  Cs  Cs1  1  0.00066019  0.00149075  0.33733914  1
  Cs  Cs2  1  0.00059213  0.00028854  0.65965613  1
  Cs  Cs3  1  0.00188657  0.33418766  -0.00103734  1
  Cs  Cs4  1  -0.00187527  0.33246751  0.33426437  1
  Cs  Cs5  1  -0.00327125  0.33574577  0.66613323  1
  Cs  Cs6  1  0.00130573  0.66676505  0.00081833  1
  Cs  Cs7  1  0.00093766  0.66588656  0.33047170  1
  Cs  Cs8  1  -0.01018792  0.66408682  0.66812021  1
  Cs  Cs9  1  0.33124800  0.00036520  -0.00046637  1
  Cs  Cs10  1  0.33164904  -0.00405363  0.33693407  1
  Cs  Cs11  1  0.33322111  0.00084484  0.66500424  1
  Cs  Cs12  1  0.33292417  0.33321205  -0.00184945  1
  Cs  Cs13  1  0.33461129  0.33608498  0.33513883  1
  Cs  Cs14  1  0.33458597  0.33361379  0.66764066  1
  Cs  Cs15  1  0.33141260  0.66730804  0.00175008  1
  Cs  Cs16  1  0.33471124  0.66525354  0.33344521  1
  Cs  Cs17  1  0.33445912  0.66453698  0.66473238  1
  Cs  Cs18  1  0.66544612  0.00140190  -0.00050197  1
  Cs  Cs19  1  0.66754119  0.00194785  0.33124695  1
  Cs  Cs20  1  0.66579036  -0.00749105  0.66951306  1
  Cs  Cs21  1  0.66329312  0.32881654  0.00177986  1
  Cs  Cs22  1  0.66735139  0.33128781  0.33246398  1
  Cs  Cs23  1  0.66261549  0.33450901  0.66602214  1
  Cs  Cs24  1  0.66667021  0.67179070  0.00070403  1
  Cs  Cs25  1  0.66553815  0.66726705  0.33278602  1
  Cs  Cs26  1  0.67369371  0.67287423  0.66751815  1
  Sn  Sn27  1  0.16682936  0.50001365  0.49966705  1
  Sn  Sn28  1  0.16594075  0.83344875  0.16606441  1
  Sn  Sn29  1  0.50002484  0.49998708  0.83278225  1
  Sn  Sn30  1  0.83390726  0.50029472  0.16625844  1
  Sn  Sn31  1  0.16677994  0.83381380  0.83322139  1
  Sn  Sn32  1  0.49942738  0.49925663  0.50122539  1
  Sn  Sn33  1  0.49978168  0.16722438  0.50076655  1
  Sn  Sn34  1  0.83439877  0.83289841  0.16647157  1
  Sn  Sn35  1  0.49995680  0.16741973  0.83240994  1
  Sn  Sn36  1  0.16697987  0.16679711  0.16658185  1
  Sn  Sn37  1  0.16607659  0.49967673  0.16743975  1
  Sn  Sn38  1  0.83372066  0.16685173  0.83316406  1
  Sn  Sn39  1  0.16616807  0.16592889  0.83357415  1
  Pb  Pb40  1  0.16824603  0.16891866  0.50053302  1
  Pb  Pb41  1  0.50004473  0.49998441  0.16659846  1
  Pb  Pb42  1  0.49708123  0.16650987  0.16668636  1
  Pb  Pb43  1  0.49956189  0.83350497  0.16663102  1
  Pb  Pb44  1  0.83258634  0.49988009  0.49759903  1
  Pb  Pb45  1  0.83634545  0.83583667  0.83559020  1
  Pb  Pb46  1  0.83012733  0.49809969  0.83618607  1
  Pb  Pb47  1  0.16783881  0.50000387  0.83328981  1
  Pb  Pb48  1  0.83010870  0.16681293  0.50299979  1
  Pb  Pb49  1  0.16650167  0.83015548  0.50028478  1
  Pb  Pb50  1  0.83586179  0.16660873  0.16498399  1
  Pb  Pb51  1  0.83358527  0.83345646  0.49668310  1
  Pb  Pb52  1  0.49749011  0.83351071  0.83337307  1
  Pb  Pb53  1  0.49996132  0.83297397  0.50016614  1
  I  I54  1  0.16398278  -0.00006156  0.16076135  1
  I  I55  1  0.16891797  0.00017308  0.49717868  1
  I  I56  1  0.16916627  0.00140932  0.84234486  1
  I  I57  1  0.16377732  0.33371587  0.16544878  1
  I  I58  1  0.16934667  0.33669868  0.49530250  1
  I  I59  1  0.16673786  0.33039276  0.83743102  1
  I  I60  1  0.16330460  0.66646114  0.16594348  1
  I  I61  1  0.17419186  0.66230210  0.49530070  1
  I  I62  1  0.17006314  0.66871353  0.83778533  1
  I  I63  1  0.50099338  0.00026518  0.16670663  1
  I  I64  1  0.49923132  0.00333026  0.50475552  1
  I  I65  1  0.50136277  0.00367763  0.82966751  1
  I  I66  1  0.50013973  0.33331178  0.16577918  1
  I  I67  1  0.49538374  0.33405548  0.50462289  1
  I  I68  1  0.49709066  0.33222519  0.83024551  1
  I  I69  1  0.49587784  0.66639109  0.16650472  1
  I  I70  1  0.49525030  0.66270452  0.50248962  1
  I  I71  1  0.49707947  0.66374430  0.83006992  1
  I  I72  1  0.83739121  -0.00251387  0.16483574  1
  I  I73  1  0.83219032  0.00033987  0.49731121  1
  I  I74  1  0.82691929  0.00360830  0.83654208  1
  I  I75  1  0.83761682  0.33574576  0.16570926  1
  I  I76  1  0.83595127  0.33336573  0.49618868  1
  I  I77  1  0.83921809  0.33026184  0.83657180  1
  I  I78  1  0.84161331  0.66635201  0.16628917  1
  I  I79  1  0.83131239  0.66639164  0.50353669  1
  I  I80  1  0.83293695  0.66679313  0.83240509  1
  I  I81  1  0.16892675  0.16808773  -0.00049732  1
  I  I82  1  0.16813103  0.16435839  0.33066080  1
  I  I83  1  0.16620849  0.16301472  0.67008149  1
  I  I84  1  0.16512153  0.49994196  0.00275886  1
  I  I85  1  0.16937939  0.50005584  0.33194458  1
  I  I86  1  0.17117515  0.49905691  0.66446823  1
  I  I87  1  0.16417261  0.83239783  0.00112962  1
  I  I88  1  0.16305205  0.83639149  0.32979571  1
  I  I89  1  0.16974434  0.83916165  0.66967268  1
  I  I90  1  0.50090276  0.17109949  -0.00353890  1
  I  I91  1  0.49817023  0.17203187  0.33620834  1
  I  I92  1  0.49717097  0.17205719  0.66810816  1
  I  I93  1  0.49895243  0.49433257  -0.00271886  1
  I  I94  1  0.49817543  0.49547785  0.33619655  1
  I  I95  1  0.49206366  0.49406008  0.66642998  1
  I  I96  1  0.50099109  0.83255714  -0.00018447  1
  I  I97  1  0.49800842  0.83341129  0.33336150  1
  I  I98  1  0.49745576  0.83319469  0.66697643  1
  I  I99  1  0.82799308  0.16739989  -0.00292344  1
  I  I100  1  0.83262506  0.16612145  0.33309073  1
  I  I101  1  0.84062853  0.16776522  0.67112291  1
  I  I102  1  0.84040915  0.50310877  0.00382667  1
  I  I103  1  0.83369731  0.50289091  0.32940000  1
  I  I104  1  0.83646318  0.49866300  0.66696072  1
  I  I105  1  0.83593143  0.82862030  0.00344016  1
  I  I106  1  0.84049593  0.83021081  0.32835553  1
  I  I107  1  0.83396643  0.83382803  0.66719015  1
  I  I108  1  0.00406518  0.16753158  0.16101463  1
  I  I109  1  0.00017450  0.16777478  0.50053050  1
  I  I110  1  0.00146986  0.16274502  0.84020881  1
  I  I111  1  0.00194764  0.50058976  0.17128624  1
  I  I112  1  0.00268709  0.50048704  0.49735231  1
  I  I113  1  -0.00005009  0.49889058  0.83086531  1
  I  I114  1  0.00171650  0.83138280  0.16183503  1
  I  I115  1  0.00046957  0.83262898  0.50302281  1
  I  I116  1  0.00425610  0.83684701  0.83632022  1
  I  I117  1  0.32880930  0.16756159  0.16045596  1
  I  I118  1  0.33616365  0.16955619  0.50502829  1
  I  I119  1  0.33302970  0.16687738  0.83428534  1
  I  I120  1  0.33007029  0.50061111  0.16744590  1
  I  I121  1  0.33351556  0.49676205  0.49712213  1
  I  I122  1  0.33575155  0.49432742  0.83443641  1
  I  I123  1  0.32907753  0.83237822  0.16317064  1
  I  I124  1  0.33301272  0.83427430  0.49650490  1
  I  I125  1  0.32956056  0.83858449  0.84127194  1
  I  I126  1  0.66674591  0.16679358  0.16561504  1
  I  I127  1  0.66193263  0.17442411  0.50245981  1
  I  I128  1  0.66555568  0.17246079  0.83018664  1
  I  I129  1  0.66942876  0.50498577  0.16582836  1
  I  I130  1  0.66304519  0.49534098  0.50203790  1
  I  I131  1  0.66227208  0.49432523  0.82889657  1
  I  I132  1  0.66997874  0.82735192  0.16757891  1
  I  I133  1  0.66665126  0.83159738  0.49858520  1
  I  I134  1  0.66696597  0.83406640  0.83511696  1
