# generated using pymatgen
data_Cs27Sn14Pb13I81
_symmetry_space_group_name_H-M   'P 1'
_cell_length_a   18.95789206
_cell_length_b   18.95881313
_cell_length_c   18.96586201
_cell_angle_alpha   90.00111950
_cell_angle_beta   89.99917743
_cell_angle_gamma   89.99995755
_symmetry_Int_Tables_number   1
_chemical_formula_structural   Cs27Sn14Pb13I81
_chemical_formula_sum   'Cs27 Sn14 Pb13 I81'
_cell_volume   6816.69367872
_cell_formula_units_Z   1
loop_
 _symmetry_equiv_pos_site_id
 _symmetry_equiv_pos_as_xyz
  1  'x, y, z'
loop_
 _atom_site_type_symbol
 _atom_site_label
 _atom_site_symmetry_multiplicity
 _atom_site_fract_x
 _atom_site_fract_y
 _atom_site_fract_z
 _atom_site_occupancy
  Cs  Cs0  1  -0.00244101  -0.00214508  -0.00399709  1
  Cs  Cs1  1  0.00036921  -0.00134224  0.33320042  1
  Cs  Cs2  1  0.00020357  0.01007778  0.67168075  1
  Cs  Cs3  1  0.00185935  0.33449553  -0.00005188  1
  Cs  Cs4  1  0.00158836  0.33285135  0.33514440  1
  Cs  Cs5  1  0.00468402  0.32395852  0.66559617  1
  Cs  Cs6  1  -0.00019753  0.66821638  -0.00030589  1
  Cs  Cs7  1  -0.00031039  0.66753122  0.33244025  1
  Cs  Cs8  1  0.00246134  0.66592271  0.66503528  1
  Cs  Cs9  1  0.33295815  0.00048917  0.00254231  1
  Cs  Cs10  1  0.33379508  -0.00170944  0.33099713  1
  Cs  Cs11  1  0.33444228  -0.00437022  0.66950598  1
  Cs  Cs12  1  0.33608614  0.33414243  0.00110900  1
  Cs  Cs13  1  0.33319957  0.33306592  0.33247692  1
  Cs  Cs14  1  0.33067118  0.33298588  0.66633306  1
  Cs  Cs15  1  0.33038229  0.66617867  -0.00084606  1
  Cs  Cs16  1  0.33190916  0.66808176  0.33343305  1
  Cs  Cs17  1  0.33452430  0.67011053  0.66851061  1
  Cs  Cs18  1  0.67035101  -0.00122144  0.00063542  1
  Cs  Cs19  1  0.66613584  0.00036740  0.33236600  1
  Cs  Cs20  1  0.66621119  -0.00046730  0.66833488  1
  Cs  Cs21  1  0.66386874  0.33452188  0.00055387  1
  Cs  Cs22  1  0.66610892  0.33355987  0.33268092  1
  Cs  Cs23  1  0.66730653  0.33497875  0.66684438  1
  Cs  Cs24  1  0.66917987  0.66481878  0.00020601  1
  Cs  Cs25  1  0.66815557  0.66623329  0.33464231  1
  Cs  Cs26  1  0.66366510  0.66464453  0.66419615  1
  Sn  Sn27  1  0.50036406  0.49909631  0.49987575  1
  Sn  Sn28  1  0.16522660  0.83342853  0.49954311  1
  Sn  Sn29  1  0.50027239  0.16733358  0.83213622  1
  Sn  Sn30  1  0.16724481  0.83417543  0.16735230  1
  Sn  Sn31  1  0.50059858  0.50128111  0.16691626  1
  Sn  Sn32  1  0.83273426  0.49906029  0.16675993  1
  Sn  Sn33  1  0.49961647  0.83194521  0.16668112  1
  Sn  Sn34  1  0.83303742  0.49991936  0.83283166  1
  Sn  Sn35  1  0.16526074  0.16597504  0.16697087  1
  Sn  Sn36  1  0.83448684  0.16762917  0.16696083  1
  Sn  Sn37  1  0.83310292  0.50040877  0.50034479  1
  Sn  Sn38  1  0.83446711  0.83315496  0.50011909  1
  Sn  Sn39  1  0.50057750  0.49921596  0.83314273  1
  Sn  Sn40  1  0.50019620  0.16738802  0.50112641  1
  Pb  Pb41  1  0.50023770  0.83280010  0.83653974  1
  Pb  Pb42  1  0.16667842  0.50189309  0.50002342  1
  Pb  Pb43  1  0.83148068  0.16709322  0.49831871  1
  Pb  Pb44  1  0.16636652  0.50031519  0.16677132  1
  Pb  Pb45  1  0.83357276  0.83289534  0.16801303  1
  Pb  Pb46  1  0.16957068  0.16402674  0.49794394  1
  Pb  Pb47  1  0.50018428  0.83299482  0.49824388  1
  Pb  Pb48  1  0.16669525  0.49982761  0.83304272  1
  Pb  Pb49  1  0.83321831  0.83060596  0.82953255  1
  Pb  Pb50  1  0.50016356  0.16698898  0.16659274  1
  Pb  Pb51  1  0.83100681  0.16921811  0.83597381  1
  Pb  Pb52  1  0.16959129  0.16678235  0.83632243  1
  Pb  Pb53  1  0.16638247  0.83343645  0.83340571  1
  I  I54  1  0.16923046  -0.00074272  0.17112503  1
  I  I55  1  0.16237834  -0.00391671  0.49613472  1
  I  I56  1  0.16906371  0.00021251  0.83208504  1
  I  I57  1  0.16687196  0.33094023  0.16568708  1
  I  I58  1  0.16514549  0.33291972  0.49858746  1
  I  I59  1  0.16548526  0.33319516  0.83523197  1
  I  I60  1  0.16864323  0.66960309  0.17049079  1
  I  I61  1  0.16749019  0.66995214  0.49214830  1
  I  I62  1  0.16956062  0.66662173  0.83638957  1
  I  I63  1  0.49920657  -0.00167961  0.16800726  1
  I  I64  1  0.49994711  0.00206794  0.50107202  1
  I  I65  1  0.49823985  0.00271638  0.83003966  1
  I  I66  1  0.50090011  0.33620379  0.16672828  1
  I  I67  1  0.50542323  0.33500799  0.49731054  1
  I  I68  1  0.50360715  0.33484947  0.83593902  1
  I  I69  1  0.50017644  0.66515510  0.16758471  1
  I  I70  1  0.50113164  0.66355790  0.50147058  1
  I  I71  1  0.50358086  0.66279861  0.83057645  1
  I  I72  1  0.83205252  0.00189979  0.16950393  1
  I  I73  1  0.83422874  -0.00216579  0.49503796  1
  I  I74  1  0.83192710  0.00038048  0.83460016  1
  I  I75  1  0.83169077  0.33491434  0.16883828  1
  I  I76  1  0.82945242  0.33677289  0.50017478  1
  I  I77  1  0.83029700  0.33752897  0.82914541  1
  I  I78  1  0.83163409  0.66346716  0.16554352  1
  I  I79  1  0.83066322  0.66507154  0.49689471  1
  I  I80  1  0.82571344  0.66213513  0.84068398  1
  I  I81  1  0.16523275  0.16049916  0.00443707  1
  I  I82  1  0.16640556  0.16540627  0.32987467  1
  I  I83  1  0.16584563  0.16535733  0.66650847  1
  I  I84  1  0.16746780  0.50202197  0.00029364  1
  I  I85  1  0.16806111  0.49850419  0.33318214  1
  I  I86  1  0.16751742  0.50345381  0.66641121  1
  I  I87  1  0.17167034  0.83631692  0.00374636  1
  I  I88  1  0.16766460  0.83616418  0.33232645  1
  I  I89  1  0.16446771  0.83035091  0.66330760  1
  I  I90  1  0.49950740  0.17043214  -0.00172642  1
  I  I91  1  0.50021149  0.16960837  0.33504873  1
  I  I92  1  0.50081119  0.17389539  0.66626416  1
  I  I93  1  0.50505853  0.49919848  0.00050933  1
  I  I94  1  0.50546208  0.49960831  0.33321662  1
  I  I95  1  0.50613830  0.49573440  0.66620299  1
  I  I96  1  0.49448590  0.83080374  0.00476566  1
  I  I97  1  0.49874556  0.83055161  0.33025577  1
  I  I98  1  0.49885829  0.83191087  0.66649932  1
  I  I99  1  0.83382563  0.17021102  0.00410534  1
  I  I100  1  0.83280849  0.17191503  0.33019449  1
  I  I101  1  0.83369605  0.16623093  0.66670403  1
  I  I102  1  0.82675274  0.49536877  0.00090606  1
  I  I103  1  0.82696567  0.50053454  0.33324401  1
  I  I104  1  0.82533513  0.50693654  0.66589435  1
  I  I105  1  0.83329508  0.83296452  0.00008920  1
  I  I106  1  0.83336831  0.82727510  0.33579130  1
  I  I107  1  0.83701789  0.82867485  0.66145258  1
  I  I108  1  -0.00041318  0.16712198  0.16818330  1
  I  I109  1  0.00004857  0.16885538  0.49948394  1
  I  I110  1  -0.00022722  0.16805068  0.83285053  1
  I  I111  1  -0.00351142  0.49936805  0.16689920  1
  I  I112  1  -0.00356000  0.50333861  0.49811676  1
  I  I113  1  -0.00370686  0.50250016  0.83551141  1
  I  I114  1  0.00243188  0.83405577  0.16981844  1
  I  I115  1  -0.00034359  0.82595477  0.49198296  1
  I  I116  1  -0.00031780  0.83015310  0.83900301  1
  I  I117  1  0.33171512  0.16491922  0.16675197  1
  I  I118  1  0.33755917  0.17219317  0.50002598  1
  I  I119  1  0.33765005  0.17380641  0.83207668  1
  I  I120  1  0.33667521  0.50015749  0.16658258  1
  I  I121  1  0.33705735  0.49777312  0.49900169  1
  I  I122  1  0.33749968  0.49690284  0.83452234  1
  I  I123  1  0.33321462  0.83408842  0.17232608  1
  I  I124  1  0.33144951  0.83379942  0.49597079  1
  I  I125  1  0.33362643  0.83067957  0.82962006  1
  I  I126  1  0.66858778  0.16780337  0.16709780  1
  I  I127  1  0.66332427  0.16614553  0.49921971  1
  I  I128  1  0.66295525  0.16883075  0.83271750  1
  I  I129  1  0.66626199  0.49986000  0.16692304  1
  I  I130  1  0.66644421  0.50266844  0.49902171  1
  I  I131  1  0.66573835  0.49659247  0.83435155  1
  I  I132  1  0.66449437  0.83283460  0.16853228  1
  I  I133  1  0.66886137  0.83096089  0.49736481  1
  I  I134  1  0.66656426  0.83632284  0.83475805  1
