# generated using pymatgen
data_Cs27Sn14Pb13I81
_symmetry_space_group_name_H-M   'P 1'
_cell_length_a   18.97404679
_cell_length_b   18.96913890
_cell_length_c   18.98355977
_cell_angle_alpha   90.00032951
_cell_angle_beta   90.00028461
_cell_angle_gamma   90.00071262
_symmetry_Int_Tables_number   1
_chemical_formula_structural   Cs27Sn14Pb13I81
_chemical_formula_sum   'Cs27 Sn14 Pb13 I81'
_cell_volume   6832.58806068
_cell_formula_units_Z   1
loop_
 _symmetry_equiv_pos_site_id
 _symmetry_equiv_pos_as_xyz
  1  'x, y, z'
loop_
 _atom_site_type_symbol
 _atom_site_label
 _atom_site_symmetry_multiplicity
 _atom_site_fract_x
 _atom_site_fract_y
 _atom_site_fract_z
 _atom_site_occupancy
  Cs  Cs0  1  -0.00164875  0.00132180  -0.00274383  1
  Cs  Cs1  1  -0.00135151  -0.00482293  0.33505147  1
  Cs  Cs2  1  -0.00022133  -0.00259463  0.66885726  1
  Cs  Cs3  1  -0.00004131  0.33214645  -0.00132423  1
  Cs  Cs4  1  0.00119730  0.33515582  0.33246481  1
  Cs  Cs5  1  0.00355640  0.33588811  0.66852275  1
  Cs  Cs6  1  -0.00059357  0.66725726  -0.00019061  1
  Cs  Cs7  1  0.00006985  0.66795370  0.33220096  1
  Cs  Cs8  1  -0.00038454  0.66465846  0.66731288  1
  Cs  Cs9  1  0.33371354  0.00231878  -0.00010542  1
  Cs  Cs10  1  0.33435547  -0.00448392  0.33343244  1
  Cs  Cs11  1  0.33393203  0.00055603  0.66642734  1
  Cs  Cs12  1  0.33364770  0.33200543  0.00119954  1
  Cs  Cs13  1  0.33274901  0.33320296  0.33278590  1
  Cs  Cs14  1  0.33077087  0.33292810  0.66721489  1
  Cs  Cs15  1  0.34214091  0.66807586  0.00624570  1
  Cs  Cs16  1  0.33278299  0.67348145  0.32326341  1
  Cs  Cs17  1  0.33513484  0.66698211  0.66895150  1
  Cs  Cs18  1  0.66843118  0.00108355  0.00022312  1
  Cs  Cs19  1  0.66672470  0.00199796  0.34463824  1
  Cs  Cs20  1  0.66450052  0.00120198  0.65627828  1
  Cs  Cs21  1  0.66697514  0.33184941  0.00072887  1
  Cs  Cs22  1  0.66728735  0.33180500  0.33626716  1
  Cs  Cs23  1  0.66639502  0.33411255  0.66400635  1
  Cs  Cs24  1  0.66371098  0.66702086  -0.00052894  1
  Cs  Cs25  1  0.66892282  0.66706622  0.33141167  1
  Cs  Cs26  1  0.66576605  0.66574115  0.66932012  1
  Sn  Sn27  1  0.83389767  0.50061841  0.83371972  1
  Sn  Sn28  1  0.49954702  0.16673944  0.16616972  1
  Sn  Sn29  1  0.83361208  0.49998475  0.50031483  1
  Sn  Sn30  1  0.83379027  0.83256228  0.83406862  1
  Sn  Sn31  1  0.16740960  0.16666606  0.83327486  1
  Sn  Sn32  1  0.49882793  0.50035844  0.49982357  1
  Sn  Sn33  1  0.16706862  0.16664684  0.16678757  1
  Sn  Sn34  1  0.49959598  0.16692008  0.83377798  1
  Sn  Sn35  1  0.83329697  0.83296610  0.16565494  1
  Sn  Sn36  1  0.83362506  0.50047481  0.16603566  1
  Sn  Sn37  1  0.16734210  0.49974760  0.50018157  1
  Sn  Sn38  1  0.16640741  0.16701535  0.50004304  1
  Sn  Sn39  1  0.16664863  0.50075503  0.83344801  1
  Sn  Sn40  1  0.16651582  0.83259320  0.83370219  1
  Pb  Pb41  1  0.83351981  0.83046583  0.50085498  1
  Pb  Pb42  1  0.49957724  0.82971661  0.50007114  1
  Pb  Pb43  1  0.16504427  0.49853736  0.16619727  1
  Pb  Pb44  1  0.50342783  0.83665294  0.16654411  1
  Pb  Pb45  1  0.83678166  0.16934688  0.50023792  1
  Pb  Pb46  1  0.50062121  0.83615969  0.83330101  1
  Pb  Pb47  1  0.16674257  0.83234707  0.50247796  1
  Pb  Pb48  1  0.50278048  0.49773425  0.16900290  1
  Pb  Pb49  1  0.83322976  0.16656354  0.83306740  1
  Pb  Pb50  1  0.49722499  0.16847877  0.49998435  1
  Pb  Pb51  1  0.16455909  0.83619458  0.16375692  1
  Pb  Pb52  1  0.83331700  0.16616670  0.16677463  1
  Pb  Pb53  1  0.49982612  0.49788844  0.83210474  1
  I  I54  1  0.16805710  0.00444020  0.16750438  1
  I  I55  1  0.16782032  0.00289031  0.50085435  1
  I  I56  1  0.16552153  0.00082829  0.83375271  1
  I  I57  1  0.16683083  0.33028361  0.16231656  1
  I  I58  1  0.16550560  0.33408924  0.50525336  1
  I  I59  1  0.16566744  0.33343764  0.83195372  1
  I  I60  1  0.16689325  0.66686602  0.16806064  1
  I  I61  1  0.16451963  0.66247637  0.50529059  1
  I  I62  1  0.15961767  0.66549864  0.82601527  1
  I  I63  1  0.49619187  0.00444787  0.16218646  1
  I  I64  1  0.50017050  0.00046738  0.49995699  1
  I  I65  1  0.49529597  0.00424075  0.83682958  1
  I  I66  1  0.49780941  0.33000936  0.16260502  1
  I  I67  1  0.50381003  0.33626163  0.50044526  1
  I  I68  1  0.49566167  0.33000184  0.83618967  1
  I  I69  1  0.49878426  0.66661781  0.16867514  1
  I  I70  1  0.49887819  0.66152133  0.50244584  1
  I  I71  1  0.49751044  0.66647418  0.83086854  1
  I  I72  1  0.83467296  -0.00277105  0.15885366  1
  I  I73  1  0.83300949  -0.00014571  0.49897785  1
  I  I74  1  0.83784966  -0.00291580  0.84088882  1
  I  I75  1  0.83377217  0.33617132  0.16631050  1
  I  I76  1  0.83067798  0.33786427  0.50010146  1
  I  I77  1  0.83675683  0.33667919  0.83363787  1
  I  I78  1  0.83440800  0.66553152  0.16699228  1
  I  I79  1  0.83715318  0.66209236  0.49994261  1
  I  I80  1  0.84121041  0.66543481  0.83291615  1
  I  I81  1  0.17026623  0.16714096  -0.00112271  1
  I  I82  1  0.16910506  0.17375753  0.33350166  1
  I  I83  1  0.16982951  0.16829623  0.66775160  1
  I  I84  1  0.16065152  0.49760987  -0.00337537  1
  I  I85  1  0.16448176  0.49314238  0.33606838  1
  I  I86  1  0.16132251  0.49438881  0.66722795  1
  I  I87  1  0.16362778  0.83268941  -0.00432127  1
  I  I88  1  0.16531184  0.83420692  0.33295552  1
  I  I89  1  0.15947279  0.83816702  0.67074217  1
  I  I90  1  0.49154617  0.16797887  -0.00044406  1
  I  I91  1  0.49713719  0.16871627  0.33103705  1
  I  I92  1  0.49648644  0.16764138  0.66903482  1
  I  I93  1  0.50045714  0.49981286  0.00018152  1
  I  I94  1  0.49935368  0.49606630  0.33687898  1
  I  I95  1  0.50458842  0.49611342  0.66416377  1
  I  I96  1  0.49839247  0.83024092  -0.00009402  1
  I  I97  1  0.50166547  0.83634852  0.33307291  1
  I  I98  1  0.50297502  0.83758409  0.66698414  1
  I  I99  1  0.83703587  0.17204782  -0.00011606  1
  I  I100  1  0.83262593  0.16677504  0.33334808  1
  I  I101  1  0.83081649  0.16527253  0.66681325  1
  I  I102  1  0.83863496  0.50290682  -0.00106227  1
  I  I103  1  0.83346006  0.50224085  0.33355995  1
  I  I104  1  0.83456549  0.50277202  0.66725751  1
  I  I105  1  0.83768938  0.82501525  -0.00106988  1
  I  I106  1  0.83257544  0.83011146  0.33090170  1
  I  I107  1  0.83798656  0.83027720  0.67025440  1
  I  I108  1  0.00294037  0.16787867  0.16478391  1
  I  I109  1  0.00480492  0.17213327  0.50099960  1
  I  I110  1  0.00346775  0.16737938  0.83427388  1
  I  I111  1  -0.00320930  0.50009140  0.17053409  1
  I  I112  1  0.00031398  0.49524773  0.50160680  1
  I  I113  1  0.00032380  0.49777104  0.82908441  1
  I  I114  1  -0.00326448  0.83097090  0.16538023  1
  I  I115  1  0.00004431  0.83409604  0.49743991  1
  I  I116  1  0.00005375  0.83525178  0.83636464  1
  I  I117  1  0.33217910  0.16856862  0.16488785  1
  I  I118  1  0.32949162  0.17408949  0.50145873  1
  I  I119  1  0.33115224  0.16723140  0.83363018  1
  I  I120  1  0.33336769  0.50013805  0.16705518  1
  I  I121  1  0.33172158  0.49339229  0.50731900  1
  I  I122  1  0.32990787  0.50080147  0.82736532  1
  I  I123  1  0.33331272  0.83190209  0.16597801  1
  I  I124  1  0.33287496  0.83192227  0.50218683  1
  I  I125  1  0.33015227  0.83128224  0.83108687  1
  I  I126  1  0.66412841  0.16797235  0.16032080  1
  I  I127  1  0.66643622  0.16784125  0.49949193  1
  I  I128  1  0.66405475  0.16803828  0.83970287  1
  I  I129  1  0.67101998  0.50100869  0.16545552  1
  I  I130  1  0.66765284  0.50043096  0.50015085  1
  I  I131  1  0.66976199  0.50281996  0.83193761  1
  I  I132  1  0.67118186  0.82914226  0.15891556  1
  I  I133  1  0.66694143  0.83414037  0.50199221  1
  I  I134  1  0.67030897  0.82813309  0.83735297  1
