# generated using pymatgen
data_Cs27Sn13Pb14I81
_symmetry_space_group_name_H-M   'P 1'
_cell_length_a   18.98700281
_cell_length_b   18.97436966
_cell_length_c   18.96957464
_cell_angle_alpha   90.00176886
_cell_angle_beta   89.99962121
_cell_angle_gamma   90.00023287
_symmetry_Int_Tables_number   1
_chemical_formula_structural   Cs27Sn13Pb14I81
_chemical_formula_sum   'Cs27 Sn13 Pb14 I81'
_cell_volume   6834.10055341
_cell_formula_units_Z   1
loop_
 _symmetry_equiv_pos_site_id
 _symmetry_equiv_pos_as_xyz
  1  'x, y, z'
loop_
 _atom_site_type_symbol
 _atom_site_label
 _atom_site_symmetry_multiplicity
 _atom_site_fract_x
 _atom_site_fract_y
 _atom_site_fract_z
 _atom_site_occupancy
  Cs  Cs0  1  0.00006739  -0.00122085  -0.00007772  1
  Cs  Cs1  1  0.00267170  -0.00055362  0.33724931  1
  Cs  Cs2  1  -0.00136267  0.00230857  0.66331015  1
  Cs  Cs3  1  0.00076477  0.33410251  -0.00015345  1
  Cs  Cs4  1  -0.00081714  0.33300887  0.33513644  1
  Cs  Cs5  1  -0.00045080  0.33251652  0.66531102  1
  Cs  Cs6  1  0.00049149  0.66788707  -0.00088417  1
  Cs  Cs7  1  0.00207787  0.66814440  0.33102792  1
  Cs  Cs8  1  -0.00228588  0.66543405  0.66883304  1
  Cs  Cs9  1  0.33261952  0.00066428  0.00158306  1
  Cs  Cs10  1  0.33185245  0.00065749  0.33215233  1
  Cs  Cs11  1  0.33485637  -0.00403378  0.66707372  1
  Cs  Cs12  1  0.33261349  0.33737893  -0.00290654  1
  Cs  Cs13  1  0.33707833  0.33106545  0.33557863  1
  Cs  Cs14  1  0.33252698  0.33588915  0.66571507  1
  Cs  Cs15  1  0.32971309  0.65933946  -0.00222757  1
  Cs  Cs16  1  0.32976700  0.66944955  0.33255015  1
  Cs  Cs17  1  0.33759824  0.66590667  0.66869955  1
  Cs  Cs18  1  0.66723979  0.00147225  -0.00027901  1
  Cs  Cs19  1  0.66642014  -0.00062261  0.33146311  1
  Cs  Cs20  1  0.66767452  -0.00191157  0.66869201  1
  Cs  Cs21  1  0.66481014  0.33184142  0.00118579  1
  Cs  Cs22  1  0.66333080  0.33526881  0.33143191  1
  Cs  Cs23  1  0.66813807  0.33095495  0.66743098  1
  Cs  Cs24  1  0.66802218  0.66668810  0.00109142  1
  Cs  Cs25  1  0.66746125  0.66563204  0.33373730  1
  Cs  Cs26  1  0.66745171  0.67005220  0.66544580  1
  Sn  Sn27  1  0.83416392  0.83295951  0.83406548  1
  Sn  Sn28  1  0.83306392  0.50034288  0.83288643  1
  Sn  Sn29  1  0.16669996  0.16580796  0.83369825  1
  Sn  Sn30  1  0.16665957  0.16675947  0.16600554  1
  Sn  Sn31  1  0.83325867  0.50001286  0.50067391  1
  Sn  Sn32  1  0.50022744  0.49945758  0.49980659  1
  Sn  Sn33  1  0.16595321  0.83422504  0.83334645  1
  Sn  Sn34  1  0.49992785  0.16594982  0.16712477  1
  Sn  Sn35  1  0.83346404  0.16582576  0.16678616  1
  Sn  Sn36  1  0.50027376  0.16676487  0.49985612  1
  Sn  Sn37  1  0.50041490  0.83369515  0.16622234  1
  Sn  Sn38  1  0.83270720  0.83442572  0.16602008  1
  Sn  Sn39  1  0.16663114  0.50025745  0.49976175  1
  Pb  Pb40  1  0.50029402  0.83337193  0.83639618  1
  Pb  Pb41  1  0.83089711  0.16874749  0.49735608  1
  Pb  Pb42  1  0.16650528  0.83522319  0.16479891  1
  Pb  Pb43  1  0.16461565  0.49990276  0.83143523  1
  Pb  Pb44  1  0.49984638  0.50019948  0.16849264  1
  Pb  Pb45  1  0.50005693  0.83365461  0.49738099  1
  Pb  Pb46  1  0.50326275  0.49998394  0.83059279  1
  Pb  Pb47  1  0.16665241  0.83092219  0.50328584  1
  Pb  Pb48  1  0.16667039  0.49703275  0.16902683  1
  Pb  Pb49  1  0.83342401  0.83140227  0.49969674  1
  Pb  Pb50  1  0.83521609  0.16638493  0.83528933  1
  Pb  Pb51  1  0.16873113  0.16801287  0.50020114  1
  Pb  Pb52  1  0.83339982  0.50037224  0.16649123  1
  Pb  Pb53  1  0.49739767  0.16657537  0.83360339  1
  I  I54  1  0.16722440  0.00349555  0.16603416  1
  I  I55  1  0.16874968  0.00021611  0.49865387  1
  I  I56  1  0.16133660  0.00003208  0.83746081  1
  I  I57  1  0.16664408  0.32853002  0.15980439  1
  I  I58  1  0.16466431  0.33612802  0.50149291  1
  I  I59  1  0.16599391  0.33082495  0.83667088  1
  I  I60  1  0.16679304  0.66689307  0.16640675  1
  I  I61  1  0.16896221  0.66259293  0.50046749  1
  I  I62  1  0.16414883  0.66909856  0.83178706  1
  I  I63  1  0.50102653  0.00138304  0.17256856  1
  I  I64  1  0.49861802  0.00308398  0.49704572  1
  I  I65  1  0.50394133  0.00001439  0.82732282  1
  I  I66  1  0.50131597  0.32988886  0.16938178  1
  I  I67  1  0.50028306  0.33337210  0.49333702  1
  I  I68  1  0.49973885  0.33326265  0.83798394  1
  I  I69  1  0.50647767  0.66974080  0.16766158  1
  I  I70  1  0.50041171  0.66352731  0.49943530  1
  I  I71  1  0.49478090  0.66672209  0.83377805  1
  I  I72  1  0.83148420  -0.00023251  0.16057815  1
  I  I73  1  0.83152028  0.00022611  0.50265864  1
  I  I74  1  0.83529550  -0.00291251  0.83670902  1
  I  I75  1  0.83230022  0.33038698  0.16732882  1
  I  I76  1  0.83539658  0.33695233  0.50482806  1
  I  I77  1  0.83501650  0.33558450  0.83012752  1
  I  I78  1  0.82828354  0.66987697  0.16615687  1
  I  I79  1  0.83046738  0.66285370  0.49938979  1
  I  I80  1  0.83911673  0.66752607  0.83509114  1
  I  I81  1  0.16823288  0.16340161  0.00070754  1
  I  I82  1  0.16558518  0.16897719  0.33042616  1
  I  I83  1  0.16739081  0.16491579  0.66929959  1
  I  I84  1  0.16497444  0.50091578  -0.00034765  1
  I  I85  1  0.16365912  0.49880062  0.33724479  1
  I  I86  1  0.16872908  0.49753262  0.66353940  1
  I  I87  1  0.16483362  0.83412577  -0.00308730  1
  I  I88  1  0.16627905  0.83304654  0.33309902  1
  I  I89  1  0.16007145  0.84060125  0.67128149  1
  I  I90  1  0.50224525  0.16207074  0.00368346  1
  I  I91  1  0.49829621  0.16799327  0.33207874  1
  I  I92  1  0.49792711  0.17275317  0.66378324  1
  I  I93  1  0.50113204  0.49902058  -0.00003159  1
  I  I94  1  0.50365884  0.49776809  0.33689387  1
  I  I95  1  0.49682394  0.49379291  0.66227217  1
  I  I96  1  0.50239185  0.84158873  0.00425425  1
  I  I97  1  0.50625339  0.83465276  0.32934696  1
  I  I98  1  0.50006218  0.83326896  0.66678397  1
  I  I99  1  0.82831116  0.16813936  0.00357802  1
  I  I100  1  0.83829823  0.16220402  0.32906376  1
  I  I101  1  0.83353237  0.16519473  0.66663920  1
  I  I102  1  0.83517091  0.50136445  -0.00261718  1
  I  I103  1  0.83248587  0.49887452  0.33620468  1
  I  I104  1  0.83328889  0.50534077  0.66661037  1
  I  I105  1  0.83324345  0.83062093  0.00008280  1
  I  I106  1  0.82895216  0.83558499  0.32983369  1
  I  I107  1  0.83730374  0.83034532  0.66986520  1
  I  I108  1  -0.00011009  0.16419906  0.16179635  1
  I  I109  1  -0.00002654  0.16949175  0.49831445  1
  I  I110  1  0.00305885  0.16649404  0.83856485  1
  I  I111  1  -0.00014839  0.49922970  0.17066434  1
  I  I112  1  -0.00063835  0.50020123  0.50412109  1
  I  I113  1  -0.00309243  0.50102876  0.82740354  1
  I  I114  1  -0.00297345  0.83631944  0.16454556  1
  I  I115  1  -0.00003960  0.83159354  0.49459005  1
  I  I116  1  -0.00112891  0.83196818  0.83988669  1
  I  I117  1  0.33394501  0.16271972  0.16795674  1
  I  I118  1  0.33647048  0.17380251  0.49363552  1
  I  I119  1  0.32938669  0.16180198  0.83835422  1
  I  I120  1  0.33328658  0.50141513  0.16793314  1
  I  I121  1  0.33386779  0.49479823  0.49841381  1
  I  I122  1  0.33312775  0.50085292  0.83200713  1
  I  I123  1  0.33564840  0.83796865  0.16756849  1
  I  I124  1  0.33338862  0.83009255  0.49988380  1
  I  I125  1  0.33050690  0.83769625  0.83320019  1
  I  I126  1  0.66642988  0.16344128  0.17128362  1
  I  I127  1  0.66306464  0.17253549  0.49488637  1
  I  I128  1  0.66686113  0.16714518  0.83380326  1
  I  I129  1  0.66680066  0.49580885  0.16866345  1
  I  I130  1  0.66668819  0.49611881  0.50311897  1
  I  I131  1  0.67124436  0.50562053  0.82911888  1
  I  I132  1  0.66765341  0.84079491  0.16215030  1
  I  I133  1  0.66675097  0.83066809  0.50411862  1
  I  I134  1  0.67010622  0.82863922  0.83489536  1
