# generated using pymatgen
data_Cs27Sn14Pb13I81
_symmetry_space_group_name_H-M   'P 1'
_cell_length_a   18.96795046
_cell_length_b   18.97813089
_cell_length_c   18.98072754
_cell_angle_alpha   89.99935640
_cell_angle_beta   90.00017514
_cell_angle_gamma   90.00030819
_symmetry_Int_Tables_number   1
_chemical_formula_structural   Cs27Sn14Pb13I81
_chemical_formula_sum   'Cs27 Sn14 Pb13 I81'
_cell_volume   6832.61105795
_cell_formula_units_Z   1
loop_
 _symmetry_equiv_pos_site_id
 _symmetry_equiv_pos_as_xyz
  1  'x, y, z'
loop_
 _atom_site_type_symbol
 _atom_site_label
 _atom_site_symmetry_multiplicity
 _atom_site_fract_x
 _atom_site_fract_y
 _atom_site_fract_z
 _atom_site_occupancy
  Cs  Cs0  1  -0.00303303  0.00124108  -0.00115478  1
  Cs  Cs1  1  0.00456461  -0.00359817  0.33430686  1
  Cs  Cs2  1  -0.00065508  -0.00146989  0.66687447  1
  Cs  Cs3  1  0.00065514  0.33480328  -0.00020780  1
  Cs  Cs4  1  -0.00456448  0.33693143  0.33235976  1
  Cs  Cs5  1  0.00303288  0.33209220  0.66782132  1
  Cs  Cs6  1  0.00144209  0.66145639  0.00048151  1
  Cs  Cs7  1  0.00000015  0.66666661  0.33333330  1
  Cs  Cs8  1  -0.00144217  0.67187672  0.66618491  1
  Cs  Cs9  1  0.33345963  0.00283080  0.00142527  1
  Cs  Cs10  1  0.33002920  -0.00071998  0.32996465  1
  Cs  Cs11  1  0.33292832  0.00123100  0.66785115  1
  Cs  Cs12  1  0.33033641  0.33139088  0.00046763  1
  Cs  Cs13  1  0.33340145  0.32934561  0.33520656  1
  Cs  Cs14  1  0.33211751  0.33442139  0.66718517  1
  Cs  Cs15  1  0.33459945  0.66598123  -0.00239046  1
  Cs  Cs16  1  0.33603040  0.67010869  0.33601276  1
  Cs  Cs17  1  0.33406765  0.66435640  0.66641010  1
  Cs  Cs18  1  0.66788262  -0.00108800  -0.00051840  1
  Cs  Cs19  1  0.66659833  0.00398762  0.33146007  1
  Cs  Cs20  1  0.66966369  0.00194241  0.66619894  1
  Cs  Cs21  1  0.66707154  0.33210227  -0.00118449  1
  Cs  Cs22  1  0.66997073  0.33405329  0.33670213  1
  Cs  Cs23  1  0.66654042  0.33050247  0.66524131  1
  Cs  Cs24  1  0.66593238  0.66897687  0.00025659  1
  Cs  Cs25  1  0.66396972  0.66322463  0.33065407  1
  Cs  Cs26  1  0.66540063  0.66735209  0.66905716  1
  Sn  Sn27  1  0.16665903  0.16744223  0.50067575  1
  Sn  Sn28  1  0.50080323  0.50034969  0.83355123  1
  Sn  Sn29  1  0.49969067  0.50020389  0.16640438  1
  Sn  Sn30  1  0.83285207  0.83381403  0.16664705  1
  Sn  Sn31  1  0.16714794  0.49951929  0.50001966  1
  Sn  Sn32  1  0.16588415  0.16573252  0.83277290  1
  Sn  Sn33  1  0.50070844  0.83281442  0.16648417  1
  Sn  Sn34  1  0.49929157  0.50051888  0.50018249  1
  Sn  Sn35  1  0.83411582  0.16760083  0.83389379  1
  Sn  Sn36  1  0.50030936  0.83312944  0.50026230  1
  Sn  Sn37  1  0.16757374  0.83404823  0.83375461  1
  Sn  Sn38  1  0.83334098  0.16589113  0.16599090  1
  Sn  Sn39  1  0.83242622  0.49928505  0.83291211  1
  Sn  Sn40  1  0.49919678  0.83298366  0.83311543  1
  Pb  Pb41  1  0.16379832  0.16680327  0.16646019  1
  Pb  Pb42  1  0.49765527  0.16669248  0.49999721  1
  Pb  Pb43  1  0.16695903  0.49998899  0.83181538  1
  Pb  Pb44  1  0.16994404  0.50017161  0.17000250  1
  Pb  Pb45  1  0.16712674  0.83315789  0.16378893  1
  Pb  Pb46  1  0.83005595  0.83316175  0.49666415  1
  Pb  Pb47  1  0.49999999  0.16666662  0.83333333  1
  Pb  Pb48  1  0.83620171  0.16653006  0.50020638  1
  Pb  Pb49  1  0.16880846  0.83313882  0.50223562  1
  Pb  Pb50  1  0.50234476  0.16664084  0.16666943  1
  Pb  Pb51  1  0.83287324  0.50017548  0.50287772  1
  Pb  Pb52  1  0.83119155  0.50019451  0.16443109  1
  Pb  Pb53  1  0.83304099  0.83334434  0.83485132  1
  I  I54  1  0.17176767  -0.00001480  0.17130100  1
  I  I55  1  0.16720788  0.00231144  0.50268288  1
  I  I56  1  0.16656040  0.00069542  0.82757918  1
  I  I57  1  0.16736649  0.33341897  0.16162604  1
  I  I58  1  0.17324462  0.33345751  0.50679542  1
  I  I59  1  0.16562842  0.33093135  0.83089747  1
  I  I60  1  0.15951493  0.66672042  0.16532864  1
  I  I61  1  0.17003497  0.66414879  0.50177792  1
  I  I62  1  0.16794067  0.66880857  0.83242677  1
  I  I63  1  0.50176091  -0.00347622  0.16625369  1
  I  I64  1  0.49937984  -0.00324580  0.50027568  1
  I  I65  1  0.49911310  -0.00325194  0.83377032  1
  I  I66  1  0.50062024  0.33657912  0.16639116  1
  I  I67  1  0.49823917  0.33680955  0.50041298  1
  I  I68  1  0.50088706  0.33658522  0.83289626  1
  I  I69  1  0.50612411  0.66740228  0.16651985  1
  I  I70  1  0.49387583  0.66593114  0.50014672  1
  I  I71  1  0.49999980  0.66666667  0.83333344  1
  I  I72  1  0.82675524  -0.00012417  0.15987123  1
  I  I73  1  0.83263372  -0.00008560  0.50504123  1
  I  I74  1  0.83437115  0.00240198  0.83576880  1
  I  I75  1  0.83279210  0.33102191  0.16398338  1
  I  I76  1  0.82823244  0.33334814  0.49536617  1
  I  I77  1  0.83344005  0.33263792  0.83908755  1
  I  I78  1  0.82996526  0.66918461  0.16488893  1
  I  I79  1  0.84048465  0.66661293  0.50133711  1
  I  I80  1  0.83205942  0.66452483  0.83424029  1
  I  I81  1  0.16547149  0.16263493  -0.00336848  1
  I  I82  1  0.16770696  0.17077172  0.33618830  1
  I  I83  1  0.16148656  0.16670709  0.66794267  1
  I  I84  1  0.16720341  0.49941207  -0.00025269  1
  I  I85  1  0.17074922  0.49386353  0.33814297  1
  I  I86  1  0.17331409  0.49840912  0.66417407  1
  I  I87  1  0.17252080  0.83927635  -0.00426165  1
  I  I88  1  0.16711750  0.83444120  0.33347085  1
  I  I89  1  0.17132799  0.83442527  0.67018441  1
  I  I90  1  0.49515648  0.16751791  -0.00016564  1
  I  I91  1  0.50000007  0.16666665  0.33333333  1
  I  I92  1  0.50484344  0.16581563  0.66683231  1
  I  I93  1  0.50550561  0.50654153  -0.00078998  1
  I  I94  1  0.49544172  0.50666357  0.33362395  1
  I  I95  1  0.49969583  0.50606811  0.66696309  1
  I  I96  1  0.50030400  0.82726533  -0.00029644  1
  I  I97  1  0.50455837  0.82666984  0.33304273  1
  I  I98  1  0.49449441  0.82679163  0.66745659  1
  I  I99  1  0.83851370  0.16662589  -0.00127602  1
  I  I100  1  0.83229299  0.16256178  0.33047831  1
  I  I101  1  0.83452821  0.17069866  0.67003511  1
  I  I102  1  0.82867174  0.49890816  -0.00351775  1
  I  I103  1  0.83288264  0.49889149  0.33319586  1
  I  I104  1  0.82747922  0.49405747  0.67092831  1
  I  I105  1  0.82668600  0.83492447  0.00249261  1
  I  I106  1  0.82925041  0.83947029  0.32852368  1
  I  I107  1  0.83279674  0.83392057  0.66691937  1
  I  I108  1  -0.00411350  0.16031454  0.16451768  1
  I  I109  1  0.00411347  0.17301874  0.50214919  1
  I  I110  1  0.00000003  0.16666636  0.83333315  1
  I  I111  1  -0.00028456  0.50034772  0.16621513  1
  I  I112  1  0.00277684  0.49448622  0.50248831  1
  I  I113  1  -0.00205308  0.49942806  0.83235407  1
  I  I114  1  -0.00277685  0.83884740  0.16417863  1
  I  I115  1  0.00028455  0.83298541  0.50045130  1
  I  I116  1  0.00205311  0.83390553  0.83431270  1
  I  I117  1  0.33317567  0.16634666  0.16614185  1
  I  I118  1  0.32987347  0.16854107  0.50750133  1
  I  I119  1  0.33052452  0.16587007  0.82873964  1
  I  I120  1  0.33829359  0.50687507  0.15960769  1
  I  I121  1  0.33489582  0.49985426  0.50283856  1
  I  I122  1  0.33648362  0.50138854  0.83449563  1
  I  I123  1  0.33717630  0.82856917  0.16867158  1
  I  I124  1  0.33705937  0.83181259  0.49536363  1
  I  I125  1  0.33489620  0.83280343  0.83502790  1
  I  I126  1  0.67012650  0.16479231  0.15916518  1
  I  I127  1  0.66682430  0.16698665  0.50052479  1
  I  I128  1  0.66947553  0.16746361  0.83792716  1
  I  I129  1  0.66294062  0.50152096  0.17130315  1
  I  I130  1  0.66282372  0.50476402  0.49799512  1
  I  I131  1  0.66510379  0.50053005  0.83163865  1
  I  I132  1  0.66510423  0.83347895  0.16382799  1
  I  I133  1  0.66170644  0.82645846  0.50705920  1
  I  I134  1  0.66351635  0.83194439  0.83217106  1
