# generated using pymatgen
data_Cs27Sn14Pb13I81
_symmetry_space_group_name_H-M   'P 1'
_cell_length_a   18.98193749
_cell_length_b   18.99734100
_cell_length_c   18.99218431
_cell_angle_alpha   90.00120569
_cell_angle_beta   90.00035169
_cell_angle_gamma   89.99877963
_symmetry_Int_Tables_number   1
_chemical_formula_structural   Cs27Sn14Pb13I81
_chemical_formula_sum   'Cs27 Sn14 Pb13 I81'
_cell_volume   6848.70205868
_cell_formula_units_Z   1
loop_
 _symmetry_equiv_pos_site_id
 _symmetry_equiv_pos_as_xyz
  1  'x, y, z'
loop_
 _atom_site_type_symbol
 _atom_site_label
 _atom_site_symmetry_multiplicity
 _atom_site_fract_x
 _atom_site_fract_y
 _atom_site_fract_z
 _atom_site_occupancy
  Cs  Cs0  1  0.00451022  -0.00525233  -0.00022768  1
  Cs  Cs1  1  -0.01331660  -0.00694183  0.33863400  1
  Cs  Cs2  1  0.00775490  0.00342801  0.66349447  1
  Cs  Cs3  1  -0.00263798  0.33625644  0.00077923  1
  Cs  Cs4  1  -0.00058855  0.32918221  0.33695547  1
  Cs  Cs5  1  0.00472628  0.33194014  0.66232772  1
  Cs  Cs6  1  -0.00229738  0.66762888  0.00261771  1
  Cs  Cs7  1  0.00140626  0.67706783  0.33311721  1
  Cs  Cs8  1  0.00476005  0.66400417  0.66506958  1
  Cs  Cs9  1  0.33243852  0.00142725  -0.00028623  1
  Cs  Cs10  1  0.33537264  -0.00319375  0.32951697  1
  Cs  Cs11  1  0.32751666  -0.00037175  0.66815695  1
  Cs  Cs12  1  0.33523112  0.33288150  0.00211828  1
  Cs  Cs13  1  0.33488166  0.33556783  0.32955441  1
  Cs  Cs14  1  0.33229957  0.33421211  0.66643172  1
  Cs  Cs15  1  0.33451223  0.66542383  0.00108394  1
  Cs  Cs16  1  0.33249214  0.66500930  0.33451184  1
  Cs  Cs17  1  0.33279895  0.66535498  0.66330912  1
  Cs  Cs18  1  0.66435908  0.00134070  -0.00277255  1
  Cs  Cs19  1  0.67317935  -0.00023723  0.33787892  1
  Cs  Cs20  1  0.66574709  -0.00136499  0.66821929  1
  Cs  Cs21  1  0.66703226  0.33383415  -0.00119834  1
  Cs  Cs22  1  0.66643594  0.33212028  0.33296743  1
  Cs  Cs23  1  0.66595984  0.33495781  0.66855983  1
  Cs  Cs24  1  0.66733108  0.66475169  -0.00326584  1
  Cs  Cs25  1  0.66691812  0.66868598  0.33641088  1
  Cs  Cs26  1  0.66648767  0.66670768  0.66852544  1
  Sn  Sn27  1  0.50041265  0.16667041  0.83295095  1
  Sn  Sn28  1  0.83278492  0.83467554  0.83296883  1
  Sn  Sn29  1  0.16718806  0.49877748  0.16573655  1
  Sn  Sn30  1  0.50033449  0.83332508  0.83421221  1
  Sn  Sn31  1  0.83248402  0.49995129  0.49984689  1
  Sn  Sn32  1  0.83311553  0.16565234  0.83369101  1
  Sn  Sn33  1  0.50124225  0.49882018  0.49997003  1
  Sn  Sn34  1  0.50034062  0.83324777  0.16573002  1
  Sn  Sn35  1  0.49964017  0.16737804  0.50014400  1
  Sn  Sn36  1  0.16770148  0.49965886  0.83483113  1
  Sn  Sn37  1  0.49920385  0.49996026  0.83331392  1
  Sn  Sn38  1  0.49980768  0.16647421  0.16691318  1
  Sn  Sn39  1  0.50010927  0.50022655  0.16662571  1
  Sn  Sn40  1  0.16682035  0.16723847  0.16694908  1
  Pb  Pb41  1  0.83071336  0.16856923  0.50305327  1
  Pb  Pb42  1  0.16911598  0.83346391  0.16655752  1
  Pb  Pb43  1  0.16695759  0.83384563  0.49979545  1
  Pb  Pb44  1  0.16698256  0.16902500  0.83549603  1
  Pb  Pb45  1  0.16727185  0.83052699  0.83347161  1
  Pb  Pb46  1  0.82994947  0.83333683  0.16376053  1
  Pb  Pb47  1  0.16727562  0.49984456  0.49876577  1
  Pb  Pb48  1  0.16977415  0.16680130  0.49608801  1
  Pb  Pb49  1  0.83279033  0.83082083  0.50386041  1
  Pb  Pb50  1  0.49980590  0.83353587  0.50048008  1
  Pb  Pb51  1  0.83320190  0.16676784  0.16418498  1
  Pb  Pb52  1  0.83355095  0.49988802  0.16926836  1
  Pb  Pb53  1  0.83362107  0.49978839  0.83180186  1
  I  I54  1  0.17422895  0.00300691  0.16532931  1
  I  I55  1  0.16930728  0.00080202  0.50097720  1
  I  I56  1  0.16865638  0.00016183  0.83430028  1
  I  I57  1  0.17756012  0.33432731  0.16213003  1
  I  I58  1  0.16328378  0.33347894  0.50391843  1
  I  I59  1  0.17127541  0.33679630  0.83429930  1
  I  I60  1  0.17130657  0.66328767  0.16332434  1
  I  I61  1  0.16865984  0.66590571  0.49921449  1
  I  I62  1  0.17056387  0.66247691  0.83881579  1
  I  I63  1  0.49517090  0.00092430  0.16308088  1
  I  I64  1  0.49894042  0.00328304  0.49938844  1
  I  I65  1  0.50558157  0.00047360  0.83623061  1
  I  I66  1  0.49625977  0.33352765  0.16472296  1
  I  I67  1  0.50376559  0.33434899  0.50065036  1
  I  I68  1  0.50074129  0.33341104  0.83508325  1
  I  I69  1  0.49668694  0.66559828  0.16383646  1
  I  I70  1  0.50275687  0.66328547  0.50015697  1
  I  I71  1  0.50076452  0.66601237  0.83608428  1
  I  I72  1  0.83456566  0.00003475  0.17029664  1
  I  I73  1  0.83262342  0.00004673  0.49763297  1
  I  I74  1  0.82163531  0.00028480  0.83441030  1
  I  I75  1  0.82810212  0.33340585  0.16263201  1
  I  I76  1  0.83041333  0.33622862  0.50313552  1
  I  I77  1  0.82800779  0.33115853  0.83264756  1
  I  I78  1  0.83353860  0.66654730  0.16411488  1
  I  I79  1  0.82484659  0.66314757  0.50174965  1
  I  I80  1  0.82847941  0.66853517  0.83183846  1
  I  I81  1  0.17477590  0.16876685  0.00302304  1
  I  I82  1  0.17399145  0.17683847  0.32834730  1
  I  I83  1  0.16651336  0.16788173  0.66666562  1
  I  I84  1  0.17572518  0.49703151  0.00038741  1
  I  I85  1  0.17214446  0.49608891  0.32973116  1
  I  I86  1  0.17008416  0.50169151  0.66889810  1
  I  I87  1  0.16363707  0.83430033  -0.00007315  1
  I  I88  1  0.17008328  0.82868882  0.33266857  1
  I  I89  1  0.16983923  0.83028715  0.66731343  1
  I  I90  1  0.50021520  0.16870269  -0.00018947  1
  I  I91  1  0.49427024  0.17074123  0.33256404  1
  I  I92  1  0.50603301  0.17027593  0.66763261  1
  I  I93  1  0.49565396  0.49859130  -0.00023185  1
  I  I94  1  0.49974765  0.49759450  0.33267083  1
  I  I95  1  0.50016191  0.49795827  0.66748976  1
  I  I96  1  0.50351284  0.83252185  -0.00080373  1
  I  I97  1  0.49660903  0.83242813  0.33033952  1
  I  I98  1  0.50454463  0.83212828  0.67032173  1
  I  I99  1  0.82462767  0.16573199  -0.00358758  1
  I  I100  1  0.83313309  0.16821413  0.33357194  1
  I  I101  1  0.82645197  0.16389023  0.67076320  1
  I  I102  1  0.83155404  0.50062954  -0.00019299  1
  I  I103  1  0.82626287  0.49826133  0.33681766  1
  I  I104  1  0.82674790  0.50035818  0.66437550  1
  I  I105  1  0.83120361  0.83464036  -0.00400523  1
  I  I106  1  0.83419591  0.83225769  0.33365722  1
  I  I107  1  0.82225216  0.83606888  0.67121906  1
  I  I108  1  0.00304872  0.17523603  0.16284267  1
  I  I109  1  -0.00012043  0.16875710  0.50096644  1
  I  I110  1  -0.00233769  0.16404214  0.83556135  1
  I  I111  1  0.00350455  0.49441399  0.16134331  1
  I  I112  1  -0.00214808  0.50115597  0.50366192  1
  I  I113  1  0.00260689  0.50012718  0.83598395  1
  I  I114  1  -0.00004788  0.83201355  0.16634560  1
  I  I115  1  -0.00063597  0.82984754  0.50088420  1
  I  I116  1  -0.00273138  0.83661065  0.83151583  1
  I  I117  1  0.33603728  0.16817406  0.16407449  1
  I  I118  1  0.33810945  0.17489794  0.50748516  1
  I  I119  1  0.33724074  0.16383846  0.83121150  1
  I  I120  1  0.33559417  0.49966938  0.16754112  1
  I  I121  1  0.33706377  0.49674336  0.50081453  1
  I  I122  1  0.33591434  0.50008735  0.83141099  1
  I  I123  1  0.33753081  0.83344883  0.15901985  1
  I  I124  1  0.33425656  0.82938662  0.50305779  1
  I  I125  1  0.33722295  0.83659578  0.83740464  1
  I  I126  1  0.66246328  0.16833380  0.16820155  1
  I  I127  1  0.66249902  0.16896339  0.49365671  1
  I  I128  1  0.66380128  0.16892243  0.83557105  1
  I  I129  1  0.66267562  0.49847673  0.16252769  1
  I  I130  1  0.66376878  0.49669573  0.50134991  1
  I  I131  1  0.66316227  0.49995687  0.83593163  1
  I  I132  1  0.66166956  0.83267888  0.16563300  1
  I  I133  1  0.66617239  0.83408566  0.49614287  1
  I  I134  1  0.66447770  0.83108142  0.83752801  1
