# generated using pymatgen
data_Cs27Sn13Pb14I81
_symmetry_space_group_name_H-M   'P 1'
_cell_length_a   18.98007386
_cell_length_b   18.98056617
_cell_length_c   18.97109906
_cell_angle_alpha   89.99969065
_cell_angle_beta   89.99866487
_cell_angle_gamma   90.00220680
_symmetry_Int_Tables_number   1
_chemical_formula_structural   Cs27Sn13Pb14I81
_chemical_formula_sum   'Cs27 Sn13 Pb14 I81'
_cell_volume   6834.38676122
_cell_formula_units_Z   1
loop_
 _symmetry_equiv_pos_site_id
 _symmetry_equiv_pos_as_xyz
  1  'x, y, z'
loop_
 _atom_site_type_symbol
 _atom_site_label
 _atom_site_symmetry_multiplicity
 _atom_site_fract_x
 _atom_site_fract_y
 _atom_site_fract_z
 _atom_site_occupancy
  Cs  Cs0  1  0.00226294  0.00039332  -0.00178860  1
  Cs  Cs1  1  -0.00409973  0.00040610  0.33468896  1
  Cs  Cs2  1  0.00328921  0.00111462  0.66694656  1
  Cs  Cs3  1  -0.00026719  0.33461735  -0.00034636  1
  Cs  Cs4  1  0.00100827  0.33468570  0.33327869  1
  Cs  Cs5  1  -0.00414900  0.32931800  0.66749275  1
  Cs  Cs6  1  -0.00164706  0.66524981  0.00260728  1
  Cs  Cs7  1  0.00221985  0.66400710  0.33365087  1
  Cs  Cs8  1  0.00476859  0.66985899  0.66324562  1
  Cs  Cs9  1  0.33177963  0.00008211  0.00047896  1
  Cs  Cs10  1  0.33775157  0.00510567  0.33085287  1
  Cs  Cs11  1  0.33025627  -0.00225385  0.66759898  1
  Cs  Cs12  1  0.33305539  0.33251349  0.00157794  1
  Cs  Cs13  1  0.33056692  0.33141947  0.33458063  1
  Cs  Cs14  1  0.33589293  0.33824399  0.66474809  1
  Cs  Cs15  1  0.33677097  0.66770968  -0.00218144  1
  Cs  Cs16  1  0.33113156  0.66339295  0.33862359  1
  Cs  Cs17  1  0.33068561  0.66466734  0.66390256  1
  Cs  Cs18  1  0.66616568  -0.00253835  0.00147565  1
  Cs  Cs19  1  0.66835551  0.00065577  0.33410676  1
  Cs  Cs20  1  0.66648218  -0.00129999  0.66549424  1
  Cs  Cs21  1  0.66796997  0.33712495  -0.00336640  1
  Cs  Cs22  1  0.66678898  0.32956843  0.33602309  1
  Cs  Cs23  1  0.66815611  0.33321766  0.66780027  1
  Cs  Cs24  1  0.66526075  0.66692290  0.00010843  1
  Cs  Cs25  1  0.66738187  0.66965165  0.33251653  1
  Cs  Cs26  1  0.66565679  0.66809622  0.66659108  1
  Sn  Sn27  1  0.83299526  0.49964895  0.49990354  1
  Sn  Sn28  1  0.16623534  0.16657842  0.49992611  1
  Sn  Sn29  1  0.50006839  0.16639735  0.83350249  1
  Sn  Sn30  1  0.83319341  0.16648519  0.16652961  1
  Sn  Sn31  1  0.83359685  0.83412563  0.16570265  1
  Sn  Sn32  1  0.16692713  0.83333563  0.16684239  1
  Sn  Sn33  1  0.49967324  0.83238321  0.16610893  1
  Sn  Sn34  1  0.50067076  0.83348102  0.83391800  1
  Sn  Sn35  1  0.83303946  0.83327711  0.83403449  1
  Sn  Sn36  1  0.16680621  0.49987927  0.83392214  1
  Sn  Sn37  1  0.50018507  0.50039375  0.16651968  1
  Sn  Sn38  1  0.83411784  0.16749555  0.49937237  1
  Sn  Sn39  1  0.49916518  0.50019536  0.83416073  1
  Pb  Pb40  1  0.16931889  0.50189846  0.16485265  1
  Pb  Pb41  1  0.50045522  0.16661210  0.50252659  1
  Pb  Pb42  1  0.50206606  0.50005327  0.49982417  1
  Pb  Pb43  1  0.83174502  0.16432668  0.83341464  1
  Pb  Pb44  1  0.16409605  0.16480307  0.16819330  1
  Pb  Pb45  1  0.50218447  0.16675067  0.16463600  1
  Pb  Pb46  1  0.16693072  0.83162781  0.83512447  1
  Pb  Pb47  1  0.16915707  0.16893272  0.83163396  1
  Pb  Pb48  1  0.49974831  0.83329104  0.49978260  1
  Pb  Pb49  1  0.83299931  0.50272731  0.83150753  1
  Pb  Pb50  1  0.83332000  0.83378295  0.49990216  1
  Pb  Pb51  1  0.16680872  0.83583907  0.49685089  1
  Pb  Pb52  1  0.83123246  0.50026181  0.16834929  1
  Pb  Pb53  1  0.16421945  0.49786765  0.50214198  1
  I  I54  1  0.17213782  -0.00336265  0.16554310  1
  I  I55  1  0.15856921  0.00344142  0.50215230  1
  I  I56  1  0.16765393  -0.00008328  0.83238577  1
  I  I57  1  0.16696141  0.33337123  0.16683279  1
  I  I58  1  0.16453195  0.33022395  0.49969965  1
  I  I59  1  0.17187325  0.33673942  0.83316039  1
  I  I60  1  0.16057962  0.67000378  0.16616790  1
  I  I61  1  0.16511458  0.66644709  0.50029429  1
  I  I62  1  0.17219918  0.66396115  0.83298874  1
  I  I63  1  0.49881260  -0.00318160  0.16264505  1
  I  I64  1  0.50255962  0.00014397  0.50012422  1
  I  I65  1  0.50539367  -0.00141482  0.83637890  1
  I  I66  1  0.50269965  0.33580305  0.16154070  1
  I  I67  1  0.49967317  0.33328948  0.50037177  1
  I  I68  1  0.49615285  0.33444805  0.83642117  1
  I  I69  1  0.50291740  0.66792681  0.15833594  1
  I  I70  1  0.50265653  0.66654926  0.50360730  1
  I  I71  1  0.50100574  0.66700818  0.83804372  1
  I  I72  1  0.83059057  -0.00118977  0.16953418  1
  I  I73  1  0.83634978  0.00295647  0.49846569  1
  I  I74  1  0.82774265  -0.00358515  0.83329470  1
  I  I75  1  0.83074524  0.33097055  0.16979029  1
  I  I76  1  0.83604633  0.33199587  0.49546603  1
  I  I77  1  0.83160219  0.33339612  0.83451847  1
  I  I78  1  0.83378911  0.66996605  0.16454409  1
  I  I79  1  0.83133792  0.66468679  0.50074109  1
  I  I80  1  0.82772776  0.67042163  0.83820752  1
  I  I81  1  0.16582719  0.16672019  0.00000450  1
  I  I82  1  0.16575763  0.16652647  0.33628017  1
  I  I83  1  0.15854916  0.16611040  0.66380222  1
  I  I84  1  0.16738025  0.49956054  -0.00314135  1
  I  I85  1  0.16784610  0.50072119  0.33330943  1
  I  I86  1  0.17473183  0.50207369  0.66990585  1
  I  I87  1  0.16629753  0.83385453  0.00305869  1
  I  I88  1  0.16558198  0.83202607  0.32875169  1
  I  I89  1  0.16607406  0.83285053  0.66684350  1
  I  I90  1  0.50192368  0.16646711  -0.00329639  1
  I  I91  1  0.49910373  0.16646770  0.33310055  1
  I  I92  1  0.50245491  0.16682294  0.67064993  1
  I  I93  1  0.49810685  0.50156683  -0.00107569  1
  I  I94  1  0.50273149  0.50623065  0.33019029  1
  I  I95  1  0.49741632  0.50096995  0.67018899  1
  I  I96  1  0.50190095  0.83231449  -0.00009181  1
  I  I97  1  0.50202194  0.82906197  0.32905863  1
  I  I98  1  0.50595476  0.83278877  0.67065825  1
  I  I99  1  0.83047286  0.16328339  0.00250542  1
  I  I100  1  0.83510052  0.16391179  0.33331818  1
  I  I101  1  0.83504113  0.16896521  0.66409236  1
  I  I102  1  0.83471151  0.49730804  -0.00008077  1
  I  I103  1  0.83158726  0.50018121  0.33610733  1
  I  I104  1  0.83131642  0.49430827  0.66391315  1
  I  I105  1  0.83154336  0.83804948  0.00122533  1
  I  I106  1  0.83133874  0.83470810  0.32991695  1
  I  I107  1  0.82710171  0.83251746  0.66949766  1
  I  I108  1  -0.00409860  0.16144843  0.16746492  1
  I  I109  1  -0.00164029  0.17042616  0.49669022  1
  I  I110  1  -0.00014681  0.16689237  0.83429913  1
  I  I111  1  -0.00012733  0.50136330  0.16589849  1
  I  I112  1  -0.00345989  0.49902353  0.50085811  1
  I  I113  1  0.00185460  0.50204357  0.83057882  1
  I  I114  1  -0.00143356  0.83848685  0.16279722  1
  I  I115  1  -0.00020102  0.83092936  0.50120932  1
  I  I116  1  -0.00247024  0.83161240  0.83730926  1
  I  I117  1  0.33355806  0.16548172  0.16853880  1
  I  I118  1  0.33094624  0.16543013  0.50169107  1
  I  I119  1  0.33718251  0.16093308  0.83247139  1
  I  I120  1  0.33747538  0.50479743  0.16505825  1
  I  I121  1  0.33322756  0.49822727  0.49887762  1
  I  I122  1  0.33541779  0.50200214  0.83604629  1
  I  I123  1  0.33481796  0.82938743  0.16203229  1
  I  I124  1  0.33316630  0.83514779  0.50120872  1
  I  I125  1  0.33673828  0.83518702  0.83769744  1
  I  I126  1  0.66994644  0.16052721  0.17326529  1
  I  I127  1  0.67001522  0.16952614  0.49709441  1
  I  I128  1  0.66379605  0.17116060  0.83171288  1
  I  I129  1  0.66341362  0.50557622  0.15968487  1
  I  I130  1  0.66971737  0.49313803  0.50218654  1
  I  I131  1  0.66343207  0.49906041  0.83551527  1
  I  I132  1  0.66663116  0.83323755  0.16253131  1
  I  I133  1  0.66685776  0.83559170  0.49721366  1
  I  I134  1  0.66563533  0.83168000  0.84022863  1
