# generated using pymatgen
data_Cs27Sn14Pb13I81
_symmetry_space_group_name_H-M   'P 1'
_cell_length_a   18.96802669
_cell_length_b   18.96819726
_cell_length_c   18.99115936
_cell_angle_alpha   90.00102326
_cell_angle_beta   90.00052181
_cell_angle_gamma   89.99919562
_symmetry_Int_Tables_number   1
_chemical_formula_structural   Cs27Sn14Pb13I81
_chemical_formula_sum   'Cs27 Sn14 Pb13 I81'
_cell_volume   6832.81539656
_cell_formula_units_Z   1
loop_
 _symmetry_equiv_pos_site_id
 _symmetry_equiv_pos_as_xyz
  1  'x, y, z'
loop_
 _atom_site_type_symbol
 _atom_site_label
 _atom_site_symmetry_multiplicity
 _atom_site_fract_x
 _atom_site_fract_y
 _atom_site_fract_z
 _atom_site_occupancy
  Cs  Cs0  1  -0.00075166  0.00174916  -0.00020373  1
  Cs  Cs1  1  -0.00177131  0.00221775  0.33528632  1
  Cs  Cs2  1  -0.00144558  0.00179794  0.66505943  1
  Cs  Cs3  1  -0.00135862  0.33143263  -0.00181154  1
  Cs  Cs4  1  0.00036865  0.33076857  0.33409906  1
  Cs  Cs5  1  -0.00089433  0.33165001  0.66686372  1
  Cs  Cs6  1  0.00817801  0.67067820  -0.00207021  1
  Cs  Cs7  1  0.00135966  0.66931553  0.33303175  1
  Cs  Cs8  1  -0.00013954  0.66696169  0.66732191  1
  Cs  Cs9  1  0.33937834  -0.00665194  -0.00286166  1
  Cs  Cs10  1  0.34186196  0.00020446  0.33508486  1
  Cs  Cs11  1  0.33906002  -0.00248971  0.66761534  1
  Cs  Cs12  1  0.33572329  0.33195886  0.00293382  1
  Cs  Cs13  1  0.33276554  0.33507921  0.33217029  1
  Cs  Cs14  1  0.33330369  0.33322815  0.66558456  1
  Cs  Cs15  1  0.32360224  0.67417273  -0.00174940  1
  Cs  Cs16  1  0.33037965  0.66359895  0.33179786  1
  Cs  Cs17  1  0.33090878  0.66914989  0.66902987  1
  Cs  Cs18  1  0.66250390  -0.00250580  0.00148166  1
  Cs  Cs19  1  0.66357770  -0.00334193  0.33305329  1
  Cs  Cs20  1  0.66516724  -0.00091772  0.66562251  1
  Cs  Cs21  1  0.66670726  0.33557145  0.00063383  1
  Cs  Cs22  1  0.66689192  0.33499198  0.33249314  1
  Cs  Cs23  1  0.66772662  0.33525492  0.66749636  1
  Cs  Cs24  1  0.66807906  0.66255922  0.00280642  1
  Cs  Cs25  1  0.66721269  0.66529791  0.33348845  1
  Cs  Cs26  1  0.66760122  0.66471019  0.66581079  1
  Sn  Sn27  1  0.83344798  0.16656954  0.49985105  1
  Sn  Sn28  1  0.83396527  0.83356327  0.50079353  1
  Sn  Sn29  1  0.16578765  0.83475640  0.49977756  1
  Sn  Sn30  1  0.83355549  0.49945135  0.16734493  1
  Sn  Sn31  1  0.50038438  0.49998884  0.16639886  1
  Sn  Sn32  1  0.16623422  0.16546635  0.50000821  1
  Sn  Sn33  1  0.83373687  0.16735391  0.16685775  1
  Sn  Sn34  1  0.16641553  0.16674940  0.83322791  1
  Sn  Sn35  1  0.50059661  0.49974189  0.50012912  1
  Sn  Sn36  1  0.83352465  0.16568668  0.83332066  1
  Sn  Sn37  1  0.16622807  0.16640039  0.16673365  1
  Sn  Sn38  1  0.83314280  0.83403001  0.83285230  1
  Sn  Sn39  1  0.49963267  0.50003695  0.83361985  1
  Sn  Sn40  1  0.83297516  0.49988894  0.49914188  1
  Pb  Pb41  1  0.50056531  0.16832193  0.83324681  1
  Pb  Pb42  1  0.83260612  0.50000834  0.83367381  1
  Pb  Pb43  1  0.83349832  0.83344543  0.16682641  1
  Pb  Pb44  1  0.50027562  0.16897697  0.50004267  1
  Pb  Pb45  1  0.50051594  0.16832230  0.16672741  1
  Pb  Pb46  1  0.16934685  0.49728483  0.83334382  1
  Pb  Pb47  1  0.16574104  0.49968159  0.50008334  1
  Pb  Pb48  1  0.49999257  0.82956979  0.16675022  1
  Pb  Pb49  1  0.16554113  0.49790970  0.16660773  1
  Pb  Pb50  1  0.16628594  0.83734344  0.16969614  1
  Pb  Pb51  1  0.50021670  0.83033691  0.49996524  1
  Pb  Pb52  1  0.16416261  0.83646706  0.83080705  1
  Pb  Pb53  1  0.50326379  0.83039317  0.83316737  1
  I  I54  1  0.15711763  0.00527734  0.16417762  1
  I  I55  1  0.15703699  0.00142157  0.49962456  1
  I  I56  1  0.16512126  0.00451254  0.83622367  1
  I  I57  1  0.16547862  0.32955306  0.17087437  1
  I  I58  1  0.16390687  0.32973120  0.49991302  1
  I  I59  1  0.15848946  0.32892955  0.82925649  1
  I  I60  1  0.16813788  0.66698246  0.16774431  1
  I  I61  1  0.16367027  0.66918625  0.50066305  1
  I  I62  1  0.16645756  0.66727993  0.83218295  1
  I  I63  1  0.50027430  0.00005243  0.16628613  1
  I  I64  1  0.50196578  -0.00012731  0.50046857  1
  I  I65  1  0.49794930  -0.00019068  0.83330896  1
  I  I66  1  0.50184371  0.33671709  0.16759936  1
  I  I67  1  0.50415657  0.33715630  0.49948064  1
  I  I68  1  0.50295764  0.33647999  0.83284148  1
  I  I69  1  0.50908013  0.66113984  0.16856607  1
  I  I70  1  0.50512261  0.66222363  0.49927601  1
  I  I71  1  0.50297105  0.66229851  0.83206550  1
  I  I72  1  0.83893260  0.00357905  0.16882314  1
  I  I73  1  0.83858489  0.00081485  0.50058886  1
  I  I74  1  0.83753631  0.00143425  0.82983409  1
  I  I75  1  0.83274638  0.33278426  0.16959307  1
  I  I76  1  0.83327970  0.33275586  0.50010311  1
  I  I77  1  0.83558978  0.33032897  0.83084311  1
  I  I78  1  0.82621188  0.66346643  0.17033291  1
  I  I79  1  0.83275633  0.66640637  0.50069037  1
  I  I80  1  0.82940592  0.66880148  0.82883136  1
  I  I81  1  0.15899633  0.17133418  0.00003124  1
  I  I82  1  0.15972648  0.16465848  0.33402672  1
  I  I83  1  0.15992208  0.16482974  0.66596398  1
  I  I84  1  0.16620092  0.49827962  0.00005762  1
  I  I85  1  0.17221560  0.49823595  0.33353416  1
  I  I86  1  0.16729366  0.49704976  0.66644442  1
  I  I87  1  0.16626964  0.83253862  -0.00021280  1
  I  I88  1  0.15871981  0.83639958  0.33757601  1
  I  I89  1  0.16459299  0.83761964  0.66308750  1
  I  I90  1  0.50008003  0.17164142  0.00001727  1
  I  I91  1  0.49890616  0.16964054  0.33344619  1
  I  I92  1  0.49983876  0.17219895  0.66655428  1
  I  I93  1  0.50690061  0.49721406  0.00088183  1
  I  I94  1  0.50519729  0.49914194  0.33346970  1
  I  I95  1  0.50541429  0.49868294  0.66579260  1
  I  I96  1  0.50140592  0.83198705  -0.00027694  1
  I  I97  1  0.50217700  0.83278291  0.33371146  1
  I  I98  1  0.49820755  0.82983982  0.66650310  1
  I  I99  1  0.83913513  0.16816764  0.00009388  1
  I  I100  1  0.83897666  0.16859792  0.33392395  1
  I  I101  1  0.83840871  0.16763066  0.66599434  1
  I  I102  1  0.82756822  0.49563501  0.00259988  1
  I  I103  1  0.82534426  0.49655683  0.33415038  1
  I  I104  1  0.82918380  0.49756402  0.66385815  1
  I  I105  1  0.83157573  0.83616702  -0.00270956  1
  I  I106  1  0.83649452  0.83474994  0.33683381  1
  I  I107  1  0.83653871  0.83544391  0.66524943  1
  I  I108  1  -0.00145479  0.17335143  0.16719151  1
  I  I109  1  -0.00124729  0.16887202  0.49994315  1
  I  I110  1  -0.00135739  0.16463864  0.83297000  1
  I  I111  1  -0.00377992  0.49749203  0.17323643  1
  I  I112  1  -0.00386287  0.49937210  0.49522700  1
  I  I113  1  -0.00011804  0.50180878  0.83298626  1
  I  I114  1  -0.00022774  0.82504815  0.16431421  1
  I  I115  1  -0.00171006  0.83175939  0.50342599  1
  I  I116  1  -0.00375025  0.83191825  0.83161103  1
  I  I117  1  0.33033735  0.16910426  0.16775741  1
  I  I118  1  0.32995043  0.16382707  0.50020694  1
  I  I119  1  0.33032620  0.17089664  0.83236369  1
  I  I120  1  0.33601877  0.49750029  0.16894551  1
  I  I121  1  0.33592446  0.49912622  0.49909153  1
  I  I122  1  0.33765484  0.49747867  0.83181761  1
  I  I123  1  0.33295355  0.83328911  0.16820620  1
  I  I124  1  0.33041487  0.83797823  0.49925157  1
  I  I125  1  0.33313079  0.83321904  0.83217401  1
  I  I126  1  0.67053244  0.16906724  0.16689368  1
  I  I127  1  0.67062956  0.16459320  0.50016887  1
  I  I128  1  0.67063520  0.16473955  0.83259182  1
  I  I129  1  0.66776791  0.49370965  0.16768770  1
  I  I130  1  0.66832061  0.49937735  0.49951028  1
  I  I131  1  0.66458628  0.49755215  0.83263260  1
  I  I132  1  0.66714287  0.83896592  0.16876115  1
  I  I133  1  0.67039457  0.83614686  0.50326287  1
  I  I134  1  0.67107973  0.84139677  0.82591165  1
