# generated using pymatgen
data_Cs27Sn14Pb13I81
_symmetry_space_group_name_H-M   'P 1'
_cell_length_a   18.96027082
_cell_length_b   18.96095784
_cell_length_c   18.96078910
_cell_angle_alpha   89.99976759
_cell_angle_beta   89.99622168
_cell_angle_gamma   89.99864699
_symmetry_Int_Tables_number   1
_chemical_formula_structural   Cs27Sn14Pb13I81
_chemical_formula_sum   'Cs27 Sn14 Pb13 I81'
_cell_volume   6816.49649291
_cell_formula_units_Z   1
loop_
 _symmetry_equiv_pos_site_id
 _symmetry_equiv_pos_as_xyz
  1  'x, y, z'
loop_
 _atom_site_type_symbol
 _atom_site_label
 _atom_site_symmetry_multiplicity
 _atom_site_fract_x
 _atom_site_fract_y
 _atom_site_fract_z
 _atom_site_occupancy
  Cs  Cs0  1  -0.00049248  -0.00151577  0.00048337  1
  Cs  Cs1  1  -0.00200576  0.00243855  0.33234724  1
  Cs  Cs2  1  0.00055482  0.00236427  0.66710626  1
  Cs  Cs3  1  0.00105219  0.33383454  0.00275975  1
  Cs  Cs4  1  -0.00069236  0.33326841  0.33358714  1
  Cs  Cs5  1  0.00250191  0.33153579  0.66448725  1
  Cs  Cs6  1  -0.00014886  0.66781840  -0.00024697  1
  Cs  Cs7  1  0.00115330  0.66527387  0.33299781  1
  Cs  Cs8  1  -0.00099453  0.66652794  0.66722941  1
  Cs  Cs9  1  0.33452155  0.00056891  0.00020960  1
  Cs  Cs10  1  0.33557908  -0.00826912  0.33198730  1
  Cs  Cs11  1  0.33303088  0.00101214  0.66786881  1
  Cs  Cs12  1  0.33946267  0.33143278  -0.00207521  1
  Cs  Cs13  1  0.33174191  0.33598248  0.33476357  1
  Cs  Cs14  1  0.33211316  0.32991535  0.66766834  1
  Cs  Cs15  1  0.33208713  0.66711577  0.00351763  1
  Cs  Cs16  1  0.33345429  0.66855829  0.33334891  1
  Cs  Cs17  1  0.33173096  0.66808821  0.66423025  1
  Cs  Cs18  1  0.66864112  0.00590013  -0.00009098  1
  Cs  Cs19  1  0.66627960  0.00203689  0.33190109  1
  Cs  Cs20  1  0.66726412  -0.00360503  0.66598445  1
  Cs  Cs21  1  0.65726069  0.33144563  -0.00128029  1
  Cs  Cs22  1  0.66880623  0.33103628  0.33174173  1
  Cs  Cs23  1  0.66453905  0.33457051  0.66752049  1
  Cs  Cs24  1  0.66971332  0.66184454  -0.00517234  1
  Cs  Cs25  1  0.66586190  0.66686481  0.33598307  1
  Cs  Cs26  1  0.66902736  0.66785072  0.66734877  1
  Sn  Sn27  1  0.83382396  0.50083990  0.16722018  1
  Sn  Sn28  1  0.16688016  0.16748842  0.16693799  1
  Sn  Sn29  1  0.16664087  0.50052433  0.83331511  1
  Sn  Sn30  1  0.16650850  0.50063288  0.50014194  1
  Sn  Sn31  1  0.83337862  0.50063666  0.49931890  1
  Sn  Sn32  1  0.16610853  0.49882386  0.16661766  1
  Sn  Sn33  1  0.83372062  0.16737162  0.83308524  1
  Sn  Sn34  1  0.49981809  0.16720813  0.49968464  1
  Sn  Sn35  1  0.49912202  0.83281710  0.83360341  1
  Sn  Sn36  1  0.83335060  0.83235350  0.16752712  1
  Sn  Sn37  1  0.16542438  0.83270160  0.50082911  1
  Sn  Sn38  1  0.16763132  0.83257186  0.83261304  1
  Sn  Sn39  1  0.49996119  0.49900993  0.49992821  1
  Sn  Sn40  1  0.83446522  0.83272143  0.49897077  1
  Pb  Pb41  1  0.16551757  0.16651053  0.83531597  1
  Pb  Pb42  1  0.83534930  0.49772057  0.83336053  1
  Pb  Pb43  1  0.49692923  0.16666266  0.16930377  1
  Pb  Pb44  1  0.16516914  0.83263845  0.16681410  1
  Pb  Pb45  1  0.50019790  0.50027466  0.16893507  1
  Pb  Pb46  1  0.49699344  0.50207885  0.83071805  1
  Pb  Pb47  1  0.50014733  0.83279505  0.50110150  1
  Pb  Pb48  1  0.83166974  0.16688355  0.50145731  1
  Pb  Pb49  1  0.50386532  0.83286478  0.16350464  1
  Pb  Pb50  1  0.83407770  0.83449165  0.83313313  1
  Pb  Pb51  1  0.83466182  0.16760481  0.16487606  1
  Pb  Pb52  1  0.50204402  0.16449374  0.83120260  1
  Pb  Pb53  1  0.16844529  0.16613434  0.49798840  1
  I  I54  1  0.16440509  0.00129459  0.16665310  1
  I  I55  1  0.16414328  -0.00332442  0.50311023  1
  I  I56  1  0.16806220  -0.00311828  0.83000730  1
  I  I57  1  0.16021537  0.33587171  0.16773595  1
  I  I58  1  0.16432308  0.33669295  0.50200569  1
  I  I59  1  0.16316064  0.33628528  0.83000164  1
  I  I60  1  0.16438349  0.66351346  0.16684095  1
  I  I61  1  0.16813923  0.66571114  0.49898621  1
  I  I62  1  0.16875299  0.66674152  0.83354352  1
  I  I63  1  0.49912820  -0.00021043  0.17006865  1
  I  I64  1  0.49994120  0.00145265  0.50238363  1
  I  I65  1  0.49403300  -0.00324496  0.82959175  1
  I  I66  1  0.50421514  0.33351899  0.16432671  1
  I  I67  1  0.49979490  0.33495673  0.50045624  1
  I  I68  1  0.50006821  0.33360387  0.83355704  1
  I  I69  1  0.49424292  0.66658059  0.16981322  1
  I  I70  1  0.49958612  0.66384980  0.50128698  1
  I  I71  1  0.50092615  0.66980307  0.83038115  1
  I  I72  1  0.83560523  -0.00232976  0.16916280  1
  I  I73  1  0.83583583  -0.00307740  0.49817535  1
  I  I74  1  0.83479356  0.00186684  0.83313656  1
  I  I75  1  0.83726542  0.33686448  0.17131500  1
  I  I76  1  0.83636887  0.33687458  0.49720375  1
  I  I77  1  0.83594623  0.33069886  0.83249546  1
  I  I78  1  0.83969107  0.66577248  0.16970651  1
  I  I79  1  0.83237028  0.66614051  0.49749559  1
  I  I80  1  0.83161600  0.66643503  0.83364142  1
  I  I81  1  0.16417625  0.17018269  0.00307989  1
  I  I82  1  0.16517994  0.17131107  0.33035248  1
  I  I83  1  0.16668026  0.16848821  0.66650893  1
  I  I84  1  0.16061897  0.50098783  0.00049781  1
  I  I85  1  0.16620054  0.49982994  0.33420849  1
  I  I86  1  0.16624943  0.50477380  0.66550790  1
  I  I87  1  0.16795719  0.83065728  -0.00238016  1
  I  I88  1  0.16528097  0.83084003  0.33620279  1
  I  I89  1  0.16471275  0.82648587  0.66590596  1
  I  I90  1  0.50106404  0.16523504  -0.00012688  1
  I  I91  1  0.50230678  0.16948105  0.33715913  1
  I  I92  1  0.49888731  0.17103719  0.66355035  1
  I  I93  1  0.50071168  0.50089303  -0.00034700  1
  I  I94  1  0.49566028  0.49837982  0.33744871  1
  I  I95  1  0.50160650  0.49729190  0.66245101  1
  I  I96  1  0.49281293  0.83428116  -0.00416133  1
  I  I97  1  0.49746224  0.83405560  0.33353256  1
  I  I98  1  0.50037744  0.83321377  0.66880773  1
  I  I99  1  0.83508178  0.16394293  -0.00255527  1
  I  I100  1  0.83266834  0.16557086  0.33334696  1
  I  I101  1  0.83421140  0.16505699  0.66895065  1
  I  I102  1  0.83943138  0.50421842  0.00286543  1
  I  I103  1  0.83792984  0.50305786  0.33421832  1
  I  I104  1  0.83399332  0.50360416  0.66329959  1
  I  I105  1  0.83403729  0.83062521  0.00225327  1
  I  I106  1  0.83897918  0.83048526  0.33462846  1
  I  I107  1  0.83370741  0.83012272  0.66375558  1
  I  I108  1  0.00258508  0.16842002  0.16733356  1
  I  I109  1  0.00010745  0.16787920  0.50044111  1
  I  I110  1  -0.00202957  0.16360520  0.83204173  1
  I  I111  1  0.00058853  0.50010572  0.17135813  1
  I  I112  1  0.00051178  0.50465516  0.49938630  1
  I  I113  1  0.00362752  0.50617008  0.82965623  1
  I  I114  1  -0.00276765  0.83217615  0.16571565  1
  I  I115  1  0.00034153  0.82655707  0.50240654  1
  I  I116  1  0.00295273  0.83076461  0.83213801  1
  I  I117  1  0.32898002  0.17277725  0.16498936  1
  I  I118  1  0.33607052  0.17099698  0.50030925  1
  I  I119  1  0.33329186  0.16746596  0.83386961  1
  I  I120  1  0.32975132  0.49634388  0.16733911  1
  I  I121  1  0.33173288  0.50038149  0.50008367  1
  I  I122  1  0.32865094  0.50027355  0.83417581  1
  I  I123  1  0.33314031  0.83397070  0.16906316  1
  I  I124  1  0.33049876  0.83065064  0.50200965  1
  I  I125  1  0.33131175  0.83067442  0.82664773  1
  I  I126  1  0.66669508  0.16609319  0.16529549  1
  I  I127  1  0.66391818  0.16984623  0.50170423  1
  I  I128  1  0.66964503  0.16475082  0.83419962  1
  I  I129  1  0.67026178  0.50432795  0.17098819  1
  I  I130  1  0.66792728  0.50062582  0.49579521  1
  I  I131  1  0.66661361  0.50055846  0.83320370  1
  I  I132  1  0.67186482  0.82875504  0.17280595  1
  I  I133  1  0.66945123  0.83054538  0.49917997  1
  I  I134  1  0.66533299  0.83654526  0.83210831  1
