# generated using pymatgen
data_Cs27Sn13Pb14I81
_symmetry_space_group_name_H-M   'P 1'
_cell_length_a   18.99328304
_cell_length_b   18.99812171
_cell_length_c   18.98270080
_cell_angle_alpha   89.99906108
_cell_angle_beta   90.00095948
_cell_angle_gamma   90.00087124
_symmetry_Int_Tables_number   1
_chemical_formula_structural   Cs27Sn13Pb14I81
_chemical_formula_sum   'Cs27 Sn13 Pb14 I81'
_cell_volume   6849.65516572
_cell_formula_units_Z   1
loop_
 _symmetry_equiv_pos_site_id
 _symmetry_equiv_pos_as_xyz
  1  'x, y, z'
loop_
 _atom_site_type_symbol
 _atom_site_label
 _atom_site_symmetry_multiplicity
 _atom_site_fract_x
 _atom_site_fract_y
 _atom_site_fract_z
 _atom_site_occupancy
  Cs  Cs0  1  0.00089651  -0.00065971  0.00916021  1
  Cs  Cs1  1  -0.00220997  0.00202504  0.32900624  1
  Cs  Cs2  1  0.00301038  0.00271406  0.66448481  1
  Cs  Cs3  1  -0.00224210  0.33310994  0.00304830  1
  Cs  Cs4  1  -0.00079742  0.33000547  0.32530634  1
  Cs  Cs5  1  0.00080341  0.33163058  0.66694623  1
  Cs  Cs6  1  -0.01035848  0.66859153  0.00433517  1
  Cs  Cs7  1  0.00313224  0.66737044  0.32966660  1
  Cs  Cs8  1  0.00012357  0.66590840  0.66658912  1
  Cs  Cs9  1  0.33526345  0.00104737  -0.00004902  1
  Cs  Cs10  1  0.33550905  -0.00089871  0.33371579  1
  Cs  Cs11  1  0.33289152  0.00017938  0.66758130  1
  Cs  Cs12  1  0.33338536  0.33257077  -0.00181001  1
  Cs  Cs13  1  0.33477690  0.34184253  0.33214835  1
  Cs  Cs14  1  0.33182057  0.33419188  0.66800265  1
  Cs  Cs15  1  0.33225583  0.66533588  0.00066500  1
  Cs  Cs16  1  0.33500607  0.66040293  0.33324739  1
  Cs  Cs17  1  0.33118839  0.66607453  0.66485307  1
  Cs  Cs18  1  0.66132747  -0.00494915  -0.00292547  1
  Cs  Cs19  1  0.66536149  0.00162817  0.33604398  1
  Cs  Cs20  1  0.66431001  -0.00015868  0.66580915  1
  Cs  Cs21  1  0.66739203  0.33878070  -0.00089105  1
  Cs  Cs22  1  0.66619217  0.33241631  0.33129129  1
  Cs  Cs23  1  0.66910214  0.33142082  0.66670797  1
  Cs  Cs24  1  0.67747821  0.66538188  -0.00220224  1
  Cs  Cs25  1  0.66202577  0.66503031  0.33464055  1
  Cs  Cs26  1  0.67080286  0.66777466  0.66721751  1
  Sn  Sn27  1  0.16656245  0.83347446  0.83307569  1
  Sn  Sn28  1  0.83379885  0.83254973  0.50028627  1
  Sn  Sn29  1  0.16549881  0.16627778  0.83281958  1
  Sn  Sn30  1  0.16693132  0.50031006  0.83314027  1
  Sn  Sn31  1  0.49866849  0.16639242  0.49945829  1
  Sn  Sn32  1  0.49967738  0.83375411  0.16721224  1
  Sn  Sn33  1  0.49962536  0.50047745  0.83272034  1
  Sn  Sn34  1  0.83441595  0.16584515  0.83320468  1
  Sn  Sn35  1  0.49957365  0.16606819  0.16757617  1
  Sn  Sn36  1  0.83377193  0.50039275  0.49995352  1
  Sn  Sn37  1  0.49952347  0.83390491  0.49962860  1
  Sn  Sn38  1  0.16667304  0.83416692  0.50059177  1
  Sn  Sn39  1  0.16773240  0.16616544  0.50022942  1
  Pb  Pb40  1  0.49944680  0.16800996  0.83287711  1
  Pb  Pb41  1  0.82979340  0.16624209  0.16331613  1
  Pb  Pb42  1  0.83317467  0.49997215  0.17032931  1
  Pb  Pb43  1  0.83432139  0.49824622  0.83165465  1
  Pb  Pb44  1  0.49998658  0.50050337  0.16381557  1
  Pb  Pb45  1  0.83011889  0.83361608  0.17007373  1
  Pb  Pb46  1  0.50154738  0.49987953  0.50213479  1
  Pb  Pb47  1  0.49801656  0.83097897  0.83285156  1
  Pb  Pb48  1  0.83649054  0.83607661  0.83099062  1
  Pb  Pb49  1  0.83360540  0.16622205  0.50091627  1
  Pb  Pb50  1  0.16930140  0.16660932  0.16717548  1
  Pb  Pb51  1  0.16451913  0.49958048  0.50147978  1
  Pb  Pb52  1  0.16660337  0.50014263  0.16308130  1
  Pb  Pb53  1  0.16912590  0.83338859  0.16742002  1
  I  I54  1  0.16571543  0.00003955  0.16058006  1
  I  I55  1  0.16650343  -0.00027200  0.50918646  1
  I  I56  1  0.16310074  0.00039564  0.82757956  1
  I  I57  1  0.16996566  0.33313824  0.16844433  1
  I  I58  1  0.17039773  0.33010075  0.50544094  1
  I  I59  1  0.16772752  0.33243808  0.82837946  1
  I  I60  1  0.17103873  0.66690057  0.16830577  1
  I  I61  1  0.16945449  0.66979709  0.50445676  1
  I  I62  1  0.17417007  0.66710691  0.82752929  1
  I  I63  1  0.49951904  0.00005593  0.17034325  1
  I  I64  1  0.50187136  -0.00029043  0.49742250  1
  I  I65  1  0.50037865  -0.00021006  0.83398122  1
  I  I66  1  0.49957379  0.33050170  0.17081082  1
  I  I67  1  0.49726009  0.33021907  0.49775665  1
  I  I68  1  0.49499122  0.33548774  0.83267635  1
  I  I69  1  0.49827290  0.66981865  0.17279512  1
  I  I70  1  0.49732546  0.66986366  0.49673321  1
  I  I71  1  0.49408695  0.66360390  0.83228934  1
  I  I72  1  0.83601222  -0.00003741  0.16859865  1
  I  I73  1  0.83234519  -0.00274539  0.50231590  1
  I  I74  1  0.83557409  0.00350667  0.82959501  1
  I  I75  1  0.83062638  0.33296264  0.16921003  1
  I  I76  1  0.83205047  0.33473661  0.50420151  1
  I  I77  1  0.83727002  0.33069170  0.82885066  1
  I  I78  1  0.83049188  0.66694548  0.16146977  1
  I  I79  1  0.83192356  0.66803301  0.50262938  1
  I  I80  1  0.83304814  0.66701779  0.83412711  1
  I  I81  1  0.16433930  0.16698571  -0.00344078  1
  I  I82  1  0.16718535  0.16039544  0.33708290  1
  I  I83  1  0.16936317  0.16573176  0.66669628  1
  I  I84  1  0.17210114  0.49833715  -0.00568323  1
  I  I85  1  0.16513238  0.49994442  0.33370807  1
  I  I86  1  0.17027541  0.49938198  0.66965078  1
  I  I87  1  0.16994716  0.83414724  -0.00305704  1
  I  I88  1  0.16357564  0.83926496  0.33748912  1
  I  I89  1  0.16969898  0.83421763  0.66575070  1
  I  I90  1  0.50059050  0.16331607  0.00189541  1
  I  I91  1  0.49579458  0.16274828  0.33511788  1
  I  I92  1  0.49947967  0.16282340  0.66374817  1
  I  I93  1  0.49514493  0.49759895  -0.00385339  1
  I  I94  1  0.50252600  0.49943382  0.33354590  1
  I  I95  1  0.49579805  0.49866417  0.66952036  1
  I  I96  1  0.49664538  0.83824603  0.00206724  1
  I  I97  1  0.49897050  0.83745862  0.33527881  1
  I  I98  1  0.50158272  0.83760228  0.66311134  1
  I  I99  1  0.84045832  0.16910478  -0.00446125  1
  I  I100  1  0.83583446  0.16773781  0.33331466  1
  I  I101  1  0.83241473  0.16747820  0.66877444  1
  I  I102  1  0.83250222  0.49835263  -0.00027029  1
  I  I103  1  0.83157835  0.50302526  0.33826787  1
  I  I104  1  0.83221828  0.50410557  0.66417717  1
  I  I105  1  0.83273854  0.83362389  -0.00011727  1
  I  I106  1  0.83999611  0.83104771  0.33830813  1
  I  I107  1  0.82671834  0.83009654  0.66305212  1
  I  I108  1  -0.00001787  0.16824129  0.16901113  1
  I  I109  1  0.00295579  0.16390715  0.50517317  1
  I  I110  1  0.00215517  0.16947381  0.82494939  1
  I  I111  1  -0.00022330  0.49966882  0.16450207  1
  I  I112  1  -0.00287262  0.50401790  0.50479430  1
  I  I113  1  0.00322720  0.50078538  0.83024379  1
  I  I114  1  -0.00009618  0.83169777  0.16605353  1
  I  I115  1  0.00105137  0.83317147  0.50757800  1
  I  I116  1  0.00452141  0.82761768  0.82719579  1
  I  I117  1  0.33692480  0.16168763  0.16476573  1
  I  I118  1  0.33326332  0.15884621  0.50343356  1
  I  I119  1  0.33023958  0.16569955  0.83219416  1
  I  I120  1  0.33369305  0.50009380  0.17008997  1
  I  I121  1  0.33311797  0.50177869  0.49990096  1
  I  I122  1  0.33218199  0.49659811  0.83153643  1
  I  I123  1  0.33685065  0.83804622  0.17174559  1
  I  I124  1  0.33328546  0.83885174  0.50087548  1
  I  I125  1  0.33006117  0.83866819  0.82767488  1
  I  I126  1  0.66217778  0.16300584  0.17338254  1
  I  I127  1  0.66404503  0.16386153  0.49911040  1
  I  I128  1  0.66801704  0.17056039  0.83229953  1
  I  I129  1  0.66631561  0.49944524  0.16163299  1
  I  I130  1  0.66912629  0.50386495  0.50460576  1
  I  I131  1  0.66499748  0.49684744  0.83244690  1
  I  I132  1  0.66225275  0.83814511  0.17043261  1
  I  I133  1  0.66572899  0.83370905  0.49530929  1
  I  I134  1  0.66676269  0.83301793  0.83307646  1
