# generated using pymatgen
data_Cs27Sn13Pb14I81
_symmetry_space_group_name_H-M   'P 1'
_cell_length_a   18.98108907
_cell_length_b   18.97443177
_cell_length_c   18.97835106
_cell_angle_alpha   89.99993170
_cell_angle_beta   90.00080371
_cell_angle_gamma   90.00112343
_symmetry_Int_Tables_number   1
_chemical_formula_structural   Cs27Sn13Pb14I81
_chemical_formula_sum   'Cs27 Sn13 Pb14 I81'
_cell_volume   6835.15522662
_cell_formula_units_Z   1
loop_
 _symmetry_equiv_pos_site_id
 _symmetry_equiv_pos_as_xyz
  1  'x, y, z'
loop_
 _atom_site_type_symbol
 _atom_site_label
 _atom_site_symmetry_multiplicity
 _atom_site_fract_x
 _atom_site_fract_y
 _atom_site_fract_z
 _atom_site_occupancy
  Cs  Cs0  1  0.00537276  -0.00080369  0.00044532  1
  Cs  Cs1  1  0.00052643  -0.00102489  0.33618604  1
  Cs  Cs2  1  -0.00544141  0.00193897  0.66317721  1
  Cs  Cs3  1  -0.00081728  0.33435550  -0.00142582  1
  Cs  Cs4  1  -0.00432139  0.33290428  0.33321312  1
  Cs  Cs5  1  -0.00040552  0.33375439  0.66820167  1
  Cs  Cs6  1  0.00257028  0.66641217  -0.00540813  1
  Cs  Cs7  1  -0.00014326  0.66743262  0.33350392  1
  Cs  Cs8  1  -0.00766221  0.66583702  0.67113619  1
  Cs  Cs9  1  0.33164535  -0.00223299  0.00052479  1
  Cs  Cs10  1  0.33301671  -0.00020740  0.33477183  1
  Cs  Cs11  1  0.33445232  0.00074122  0.66500226  1
  Cs  Cs12  1  0.33342995  0.33360098  -0.00000255  1
  Cs  Cs13  1  0.33406192  0.33492387  0.33418199  1
  Cs  Cs14  1  0.33300055  0.33399981  0.66554797  1
  Cs  Cs15  1  0.33244594  0.66809265  0.00128628  1
  Cs  Cs16  1  0.33384820  0.66588288  0.33300080  1
  Cs  Cs17  1  0.33485195  0.66424160  0.66455029  1
  Cs  Cs18  1  0.66581230  0.00093581  -0.00003905  1
  Cs  Cs19  1  0.66767401  0.00380535  0.33183983  1
  Cs  Cs20  1  0.66977251  -0.00353145  0.66789575  1
  Cs  Cs21  1  0.66751048  0.33147346  0.00253731  1
  Cs  Cs22  1  0.67202054  0.32805919  0.32938343  1
  Cs  Cs23  1  0.66535061  0.33355113  0.66688857  1
  Cs  Cs24  1  0.66590370  0.66752433  0.00093508  1
  Cs  Cs25  1  0.66594726  0.66618685  0.33322044  1
  Cs  Cs26  1  0.66976312  0.67053982  0.66538186  1
  Sn  Sn27  1  0.16743753  0.83196788  0.50032328  1
  Sn  Sn28  1  0.16709472  0.50110056  0.49929585  1
  Sn  Sn29  1  0.16696963  0.16672141  0.83394594  1
  Sn  Sn30  1  0.49900164  0.83262897  0.49880811  1
  Sn  Sn31  1  0.49962531  0.50049506  0.49943799  1
  Sn  Sn32  1  0.49934685  0.50041911  0.16700678  1
  Sn  Sn33  1  0.83256601  0.83295059  0.16652524  1
  Sn  Sn34  1  0.16726002  0.16781376  0.16637383  1
  Sn  Sn35  1  0.50074863  0.83277018  0.16766167  1
  Sn  Sn36  1  0.16737438  0.49921345  0.16734685  1
  Sn  Sn37  1  0.49973947  0.49945320  0.83349119  1
  Sn  Sn38  1  0.83327726  0.16678949  0.83370056  1
  Sn  Sn39  1  0.49974531  0.16726499  0.83339799  1
  Pb  Pb40  1  0.83335444  0.83541186  0.83621960  1
  Pb  Pb41  1  0.16685152  0.83574818  0.82960024  1
  Pb  Pb42  1  0.83363299  0.50198079  0.16655589  1
  Pb  Pb43  1  0.16733951  0.83270832  0.16826886  1
  Pb  Pb44  1  0.83642933  0.16437462  0.16469053  1
  Pb  Pb45  1  0.49971203  0.83289635  0.83319402  1
  Pb  Pb46  1  0.83313513  0.16680532  0.50227765  1
  Pb  Pb47  1  0.50014510  0.16678481  0.50224325  1
  Pb  Pb48  1  0.16859957  0.49844459  0.83306723  1
  Pb  Pb49  1  0.83276655  0.83308903  0.49780556  1
  Pb  Pb50  1  0.82999489  0.49790942  0.83361217  1
  Pb  Pb51  1  0.83306517  0.50005563  0.49980779  1
  Pb  Pb52  1  0.16683469  0.16743030  0.49980976  1
  Pb  Pb53  1  0.49810602  0.16659770  0.16479904  1
  I  I54  1  0.16642611  0.00184746  0.16330089  1
  I  I55  1  0.17072621  -0.00252659  0.49990409  1
  I  I56  1  0.17009527  0.00437125  0.83987687  1
  I  I57  1  0.17265417  0.33444687  0.16804755  1
  I  I58  1  0.17266135  0.33677625  0.49954058  1
  I  I59  1  0.16560565  0.33008417  0.83278247  1
  I  I60  1  0.16819857  0.66365533  0.16905303  1
  I  I61  1  0.17220693  0.66576866  0.49287458  1
  I  I62  1  0.16861966  0.66639632  0.83708352  1
  I  I63  1  0.50178689  -0.00278003  0.16932623  1
  I  I64  1  0.49567128  -0.00338720  0.49678978  1
  I  I65  1  0.50015355  0.00290933  0.83358012  1
  I  I66  1  0.49707191  0.33647996  0.16871841  1
  I  I67  1  0.49440976  0.33707997  0.49887312  1
  I  I68  1  0.49962841  0.33367768  0.83297352  1
  I  I69  1  0.49803991  0.66584101  0.16453541  1
  I  I70  1  0.49542856  0.66616107  0.50139141  1
  I  I71  1  0.49859499  0.66341413  0.83370110  1
  I  I72  1  0.82710147  -0.00322561  0.16612536  1
  I  I73  1  0.83433330  -0.00034759  0.50030388  1
  I  I74  1  0.83014158  0.00368647  0.83296405  1
  I  I75  1  0.83106198  0.33311827  0.16572021  1
  I  I76  1  0.83354162  0.33350658  0.49922624  1
  I  I77  1  0.83637287  0.32975921  0.83462947  1
  I  I78  1  0.83268422  0.66982739  0.16748550  1
  I  I79  1  0.83434374  0.66675080  0.50167456  1
  I  I80  1  0.83254204  0.66662293  0.83274684  1
  I  I81  1  0.16694088  0.17143744  0.00005247  1
  I  I82  1  0.16766923  0.16690231  0.33058248  1
  I  I83  1  0.16670460  0.16600950  0.66960041  1
  I  I84  1  0.17085493  0.49758830  0.00282400  1
  I  I85  1  0.17478726  0.49798100  0.33290577  1
  I  I86  1  0.17177079  0.50148237  0.66376998  1
  I  I87  1  0.16651016  0.83233590  0.00016606  1
  I  I88  1  0.16806871  0.83525855  0.33608761  1
  I  I89  1  0.17416453  0.82874833  0.66167556  1
  I  I90  1  0.50115039  0.17045469  -0.00336262  1
  I  I91  1  0.49780564  0.16814641  0.33309127  1
  I  I92  1  0.49679815  0.17043574  0.67069941  1
  I  I93  1  0.49641843  0.49990295  0.00097891  1
  I  I94  1  0.49448131  0.50631522  0.33307407  1
  I  I95  1  0.49558332  0.49884624  0.66600450  1
  I  I96  1  0.50369769  0.83076333  0.00300561  1
  I  I97  1  0.49966482  0.82593065  0.33311782  1
  I  I98  1  0.49551487  0.83129969  0.66354588  1
  I  I99  1  0.83030498  0.16587284  -0.00317877  1
  I  I100  1  0.83466901  0.16581664  0.33265221  1
  I  I101  1  0.83628801  0.16581569  0.67094063  1
  I  I102  1  0.83373754  0.50111429  0.00012617  1
  I  I103  1  0.82984006  0.49885165  0.33307957  1
  I  I104  1  0.83449685  0.49906305  0.66678406  1
  I  I105  1  0.82659505  0.83316578  0.00391699  1
  I  I106  1  0.83188178  0.83447215  0.33019679  1
  I  I107  1  0.83311046  0.83560539  0.66660161  1
  I  I108  1  0.00426009  0.17065902  0.16148378  1
  I  I109  1  0.00047633  0.16531228  0.50210977  1
  I  I110  1  0.00081381  0.16478918  0.83755604  1
  I  I111  1  0.00371044  0.49703019  0.17143037  1
  I  I112  1  0.00383136  0.50306279  0.49512746  1
  I  I113  1  0.00021261  0.49831292  0.83324873  1
  I  I114  1  -0.00129656  0.83563836  0.16798081  1
  I  I115  1  0.00289382  0.83101513  0.49829648  1
  I  I116  1  0.00018307  0.83490576  0.83440823  1
  I  I117  1  0.33029255  0.16566555  0.16031149  1
  I  I118  1  0.33335117  0.16482103  0.50394189  1
  I  I119  1  0.33342226  0.17059591  0.83655477  1
  I  I120  1  0.33416826  0.50166791  0.16678997  1
  I  I121  1  0.33396928  0.50388242  0.49959127  1
  I  I122  1  0.33678813  0.49353705  0.83315302  1
  I  I123  1  0.33625789  0.83248551  0.16814597  1
  I  I124  1  0.33436847  0.83038010  0.49422551  1
  I  I125  1  0.33348151  0.83791201  0.83862814  1
  I  I126  1  0.66655755  0.16842302  0.16477359  1
  I  I127  1  0.66627567  0.16652041  0.50154398  1
  I  I128  1  0.66583006  0.17089855  0.83213193  1
  I  I129  1  0.66293159  0.50198645  0.16711779  1
  I  I130  1  0.66231911  0.50463460  0.50078986  1
  I  I131  1  0.66144689  0.49476799  0.83324929  1
  I  I132  1  0.66426401  0.82853092  0.17125693  1
  I  I133  1  0.66297440  0.82862401  0.49959570  1
  I  I134  1  0.66626528  0.83619177  0.82918675  1
