# generated using pymatgen
data_Cs27Sn13Pb14I81
_symmetry_space_group_name_H-M   'P 1'
_cell_length_a   18.96790006
_cell_length_b   18.97698228
_cell_length_c   18.98605882
_cell_angle_alpha   90.00122678
_cell_angle_beta   90.00015621
_cell_angle_gamma   90.00186282
_symmetry_Int_Tables_number   1
_chemical_formula_structural   Cs27Sn13Pb14I81
_chemical_formula_sum   'Cs27 Sn13 Pb14 I81'
_cell_volume   6834.09837905
_cell_formula_units_Z   1
loop_
 _symmetry_equiv_pos_site_id
 _symmetry_equiv_pos_as_xyz
  1  'x, y, z'
loop_
 _atom_site_type_symbol
 _atom_site_label
 _atom_site_symmetry_multiplicity
 _atom_site_fract_x
 _atom_site_fract_y
 _atom_site_fract_z
 _atom_site_occupancy
  Cs  Cs0  1  0.00293763  0.00289970  -0.00265617  1
  Cs  Cs1  1  0.00003732  -0.00011352  0.33374026  1
  Cs  Cs2  1  0.00564882  0.00045593  0.66917531  1
  Cs  Cs3  1  -0.00042617  0.33152918  -0.00122902  1
  Cs  Cs4  1  -0.00166575  0.33691877  0.33221751  1
  Cs  Cs5  1  -0.00282347  0.33438987  0.67117612  1
  Cs  Cs6  1  0.00155621  0.66689586  0.00248638  1
  Cs  Cs7  1  -0.00076372  0.66471428  0.33413694  1
  Cs  Cs8  1  0.00055613  0.66546818  0.66437082  1
  Cs  Cs9  1  0.32726346  0.00042551  0.00492196  1
  Cs  Cs10  1  0.32818317  0.00906395  0.32852060  1
  Cs  Cs11  1  0.33094244  0.00192996  0.66524604  1
  Cs  Cs12  1  0.33586438  0.33673768  0.00283704  1
  Cs  Cs13  1  0.33560445  0.32740061  0.33456506  1
  Cs  Cs14  1  0.33431235  0.33228200  0.66386642  1
  Cs  Cs15  1  0.33579379  0.66553753  0.00226213  1
  Cs  Cs16  1  0.33308092  0.66748660  0.33312276  1
  Cs  Cs17  1  0.33346325  0.66683752  0.66614824  1
  Cs  Cs18  1  0.66796811  -0.00248165  -0.00221397  1
  Cs  Cs19  1  0.66700798  0.00058096  0.33416740  1
  Cs  Cs20  1  0.66574520  -0.00157054  0.66695425  1
  Cs  Cs21  1  0.66439992  0.33516262  -0.00451422  1
  Cs  Cs22  1  0.66687944  0.32972125  0.33387681  1
  Cs  Cs23  1  0.66785658  0.33429401  0.66946053  1
  Cs  Cs24  1  0.66274156  0.66841994  -0.00149236  1
  Cs  Cs25  1  0.66783152  0.66851569  0.33498813  1
  Cs  Cs26  1  0.66638089  0.66752341  0.66587222  1
  Sn  Sn27  1  0.83318226  0.83346805  0.16666785  1
  Sn  Sn28  1  0.49951623  0.50065823  0.49979258  1
  Sn  Sn29  1  0.50021727  0.83455983  0.83249404  1
  Sn  Sn30  1  0.49984391  0.16525057  0.83340003  1
  Sn  Sn31  1  0.16673460  0.50033711  0.83329664  1
  Sn  Sn32  1  0.83304468  0.16658650  0.16704139  1
  Sn  Sn33  1  0.83324388  0.50004850  0.16653013  1
  Sn  Sn34  1  0.83334181  0.16557297  0.49993344  1
  Sn  Sn35  1  0.16767780  0.50019115  0.49992799  1
  Sn  Sn36  1  0.50006325  0.83320348  0.50023401  1
  Sn  Sn37  1  0.83286041  0.83438142  0.50036331  1
  Sn  Sn38  1  0.16617577  0.50019948  0.16685022  1
  Sn  Sn39  1  0.83318551  0.83305584  0.83295787  1
  Pb  Pb40  1  0.49805722  0.50087079  0.83108863  1
  Pb  Pb41  1  0.83305937  0.50014557  0.49855291  1
  Pb  Pb42  1  0.16386916  0.16947019  0.16668442  1
  Pb  Pb43  1  0.50163105  0.83355584  0.16722308  1
  Pb  Pb44  1  0.16336387  0.16960694  0.50014290  1
  Pb  Pb45  1  0.16751988  0.83145877  0.83322927  1
  Pb  Pb46  1  0.16709043  0.83185321  0.49988418  1
  Pb  Pb47  1  0.16985420  0.16925043  0.83333935  1
  Pb  Pb48  1  0.83199484  0.16432893  0.83326757  1
  Pb  Pb49  1  0.50270681  0.16647260  0.16389169  1
  Pb  Pb50  1  0.50022102  0.50005861  0.16968535  1
  Pb  Pb51  1  0.83493577  0.50275183  0.83606076  1
  Pb  Pb52  1  0.16405316  0.83130273  0.16688359  1
  Pb  Pb53  1  0.50205314  0.16581557  0.50145657  1
  I  I54  1  0.16639578  0.00029208  0.16624520  1
  I  I55  1  0.16849176  0.00021257  0.50044307  1
  I  I56  1  0.16420362  -0.00006997  0.83350203  1
  I  I57  1  0.16018221  0.33775827  0.16672135  1
  I  I58  1  0.17194239  0.33806534  0.49917831  1
  I  I59  1  0.16636237  0.33746106  0.83316542  1
  I  I60  1  0.16024027  0.66270764  0.16684908  1
  I  I61  1  0.16451080  0.66311793  0.49968886  1
  I  I62  1  0.16706066  0.66324233  0.83353208  1
  I  I63  1  0.50207281  -0.00005213  0.17102128  1
  I  I64  1  0.50546943  -0.00335006  0.50333417  1
  I  I65  1  0.50657985  -0.00175211  0.82713397  1
  I  I66  1  0.50310421  0.33346268  0.16568993  1
  I  I67  1  0.49747274  0.33553257  0.50124189  1
  I  I68  1  0.49899405  0.33177211  0.83229763  1
  I  I69  1  0.50284210  0.66666132  0.16211512  1
  I  I70  1  0.50288310  0.66749307  0.50539796  1
  I  I71  1  0.50358923  0.66977039  0.83127463  1
  I  I72  1  0.83019943  -0.00057616  0.16805115  1
  I  I73  1  0.82700818  -0.00150004  0.49471504  1
  I  I74  1  0.83178574  -0.00379825  0.83742345  1
  I  I75  1  0.83801458  0.33346393  0.17264677  1
  I  I76  1  0.83373834  0.33149132  0.49460442  1
  I  I77  1  0.83223344  0.33339256  0.83313301  1
  I  I78  1  0.83793813  0.66697125  0.16742180  1
  I  I79  1  0.83273837  0.66944840  0.49918951  1
  I  I80  1  0.82721205  0.67079643  0.83142700  1
  I  I81  1  0.16421862  0.16920149  -0.00000089  1
  I  I82  1  0.16966604  0.16886182  0.33342120  1
  I  I83  1  0.16282468  0.17053067  0.66670066  1
  I  I84  1  0.16070821  0.50049080  0.00059022  1
  I  I85  1  0.16428771  0.50132948  0.33325862  1
  I  I86  1  0.17122572  0.50103001  0.66598750  1
  I  I87  1  0.16631468  0.82914130  -0.00003578  1
  I  I88  1  0.16622040  0.82878867  0.33344756  1
  I  I89  1  0.16035569  0.82837064  0.66658640  1
  I  I90  1  0.50240099  0.16214952  -0.00392702  1
  I  I91  1  0.49975415  0.16766100  0.33347480  1
  I  I92  1  0.50381480  0.16649177  0.66918046  1
  I  I93  1  0.49903596  0.50007486  -0.00009864  1
  I  I94  1  0.49618123  0.50588180  0.33754898  1
  I  I95  1  0.49594032  0.50138716  0.66331417  1
  I  I96  1  0.50510482  0.83546973  -0.00310249  1
  I  I97  1  0.50575829  0.82657970  0.33702140  1
  I  I98  1  0.50925616  0.83148015  0.66638046  1
  I  I99  1  0.83213740  0.16694650  0.00269719  1
  I  I100  1  0.83276974  0.16298914  0.33310999  1
  I  I101  1  0.83158125  0.16375723  0.66415803  1
  I  I102  1  0.83842543  0.49870507  0.00417114  1
  I  I103  1  0.83844946  0.50402017  0.33057447  1
  I  I104  1  0.83511057  0.49923800  0.66669206  1
  I  I105  1  0.82952249  0.83170337  0.00002878  1
  I  I106  1  0.83004715  0.83282019  0.33372582  1
  I  I107  1  0.82899877  0.83682342  0.66593561  1
  I  I108  1  -0.00456195  0.16397447  0.16918313  1
  I  I109  1  -0.00476202  0.16140951  0.49664102  1
  I  I110  1  -0.00014504  0.16658184  0.83359733  1
  I  I111  1  -0.00058021  0.50092491  0.16942056  1
  I  I112  1  0.00214644  0.49994615  0.50043794  1
  I  I113  1  0.00291100  0.50133020  0.82784377  1
  I  I114  1  -0.00510228  0.83462884  0.16691191  1
  I  I115  1  -0.00366610  0.83473199  0.49984885  1
  I  I116  1  -0.00311313  0.83120528  0.83328119  1
  I  I117  1  0.33326710  0.16856389  0.16613817  1
  I  I118  1  0.33347110  0.16557030  0.50139332  1
  I  I119  1  0.33760135  0.15931110  0.83092151  1
  I  I120  1  0.33032431  0.50068762  0.16408243  1
  I  I121  1  0.33338797  0.50617900  0.49910851  1
  I  I122  1  0.33013425  0.50164322  0.83838693  1
  I  I123  1  0.33330678  0.83021443  0.16546996  1
  I  I124  1  0.33692220  0.82850017  0.50737141  1
  I  I125  1  0.33709350  0.83510393  0.82676422  1
  I  I126  1  0.67122721  0.16992975  0.17141178  1
  I  I127  1  0.67006654  0.16841104  0.49592305  1
  I  I128  1  0.66417924  0.16689174  0.83337657  1
  I  I129  1  0.67006453  0.50053498  0.16863882  1
  I  I130  1  0.66447823  0.50157328  0.49885392  1
  I  I131  1  0.66653838  0.49832658  0.83339719  1
  I  I132  1  0.67091838  0.82939641  0.16659904  1
  I  I133  1  0.66757295  0.82966796  0.50062930  1
  I  I134  1  0.66706923  0.83534278  0.83319645  1
