# generated using pymatgen
data_Cs27Sn13Pb14I81
_symmetry_space_group_name_H-M   'P 1'
_cell_length_a   18.97840682
_cell_length_b   18.97840680
_cell_length_c   18.97544155
_cell_angle_alpha   90.00075665
_cell_angle_beta   89.99924340
_cell_angle_gamma   89.99918852
_symmetry_Int_Tables_number   1
_chemical_formula_structural   Cs27Sn13Pb14I81
_chemical_formula_sum   'Cs27 Sn13 Pb14 I81'
_cell_volume   6834.57311635
_cell_formula_units_Z   1
loop_
 _symmetry_equiv_pos_site_id
 _symmetry_equiv_pos_as_xyz
  1  'x, y, z'
loop_
 _atom_site_type_symbol
 _atom_site_label
 _atom_site_symmetry_multiplicity
 _atom_site_fract_x
 _atom_site_fract_y
 _atom_site_fract_z
 _atom_site_occupancy
  Cs  Cs0  1  0.00127467  -0.00017570  0.00058493  1
  Cs  Cs1  1  -0.00728251  0.00060346  0.33217464  1
  Cs  Cs2  1  0.00368718  0.00108410  0.66579690  1
  Cs  Cs3  1  -0.00198985  0.33532318  0.00016211  1
  Cs  Cs4  1  -0.00047555  0.33380892  0.34014321  1
  Cs  Cs5  1  0.00000673  0.33332663  0.65875925  1
  Cs  Cs6  1  0.00097321  0.66529477  -0.00097308  1
  Cs  Cs7  1  0.00171214  0.66511822  0.33541361  1
  Cs  Cs8  1  -0.00268638  0.66546300  0.66823621  1
  Cs  Cs9  1  0.33271408  0.00061921  -0.00130133  1
  Cs  Cs10  1  0.33457080  -0.00123743  0.33145379  1
  Cs  Cs11  1  0.33233412  0.00099917  0.66822853  1
  Cs  Cs12  1  0.33350909  0.33205861  0.00058496  1
  Cs  Cs13  1  0.33272998  0.34061609  0.33217475  1
  Cs  Cs14  1  0.33224929  0.32964600  0.66579681  1
  Cs  Cs15  1  0.33233412  0.66627981  0.00081787  1
  Cs  Cs16  1  0.33785662  0.65931065  0.33300989  1
  Cs  Cs17  1  0.33374445  0.66901652  0.66773598  1
  Cs  Cs18  1  0.66705348  0.00099924  0.00081795  1
  Cs  Cs19  1  0.67402271  -0.00452336  0.33300979  1
  Cs  Cs20  1  0.66431697  -0.00041109  0.66773597  1
  Cs  Cs21  1  0.66803845  0.33236013  -0.00097298  1
  Cs  Cs22  1  0.66821527  0.33162132  0.33541379  1
  Cs  Cs23  1  0.66787025  0.33601963  0.66823613  1
  Cs  Cs24  1  0.66755960  0.66577369  -0.00015056  1
  Cs  Cs25  1  0.65970202  0.67363157  0.33854545  1
  Cs  Cs26  1  0.66926130  0.66407202  0.66388066  1
  Sn  Sn27  1  0.16657963  0.83261431  0.83353436  1
  Sn  Sn28  1  0.16690796  0.83391310  0.16699261  1
  Sn  Sn29  1  0.83292474  0.50040864  0.16692229  1
  Sn  Sn30  1  0.83311781  0.16601989  0.83347767  1
  Sn  Sn31  1  0.49889001  0.49986968  0.83372241  1
  Sn  Sn32  1  0.49942025  0.16642542  0.16699263  1
  Sn  Sn33  1  0.16731351  0.50021555  0.83347763  1
  Sn  Sn34  1  0.16708562  0.16624774  0.16657400  1
  Sn  Sn35  1  0.50071905  0.16675367  0.83353436  1
  Sn  Sn36  1  0.49988700  0.16632500  0.49962749  1
  Sn  Sn37  1  0.83346368  0.83444328  0.83372242  1
  Sn  Sn38  1  0.16700831  0.83344634  0.49962748  1
  Sn  Sn39  1  0.50025036  0.83308296  0.83366128  1
  Pb  Pb40  1  0.16892530  0.16440802  0.49648720  1
  Pb  Pb41  1  0.83561364  0.83112231  0.16455248  1
  Pb  Pb42  1  0.83075187  0.16644261  0.50312250  1
  Pb  Pb43  1  0.83340042  0.49993293  0.83395547  1
  Pb  Pb44  1  0.83572338  0.83345500  0.50279174  1
  Pb  Pb45  1  0.16651125  0.16682206  0.83453235  1
  Pb  Pb46  1  0.16536107  0.49991801  0.16480163  1
  Pb  Pb47  1  0.16689070  0.50258145  0.50312257  1
  Pb  Pb48  1  0.83305751  0.50027584  0.49621921  1
  Pb  Pb49  1  0.49987832  0.49761003  0.50279178  1
  Pb  Pb50  1  0.49807625  0.83525702  0.16464934  1
  Pb  Pb51  1  0.49790318  0.83543015  0.50226512  1
  Pb  Pb52  1  0.83341529  0.16797226  0.16480164  1
  Pb  Pb53  1  0.50221104  0.49771968  0.16455248  1
  I  I54  1  0.17044773  -0.00046796  0.16189796  1
  I  I55  1  0.16825699  -0.00320473  0.50875745  1
  I  I56  1  0.16857583  -0.00303567  0.83243671  1
  I  I57  1  0.17000353  0.33066028  0.16229307  1
  I  I58  1  0.16684579  0.33314813  0.50082141  1
  I  I59  1  0.16976749  0.33546657  0.83734812  1
  I  I60  1  0.16360310  0.66963071  0.16548503  1
  I  I61  1  0.16743281  0.67072749  0.49618159  1
  I  I62  1  0.16911222  0.66842750  0.83556118  1
  I  I63  1  0.49860468  0.00368500  0.16225446  1
  I  I64  1  0.49811432  0.00329172  0.50431266  1
  I  I65  1  0.49990530  0.00041115  0.83326028  1
  I  I66  1  0.49332879  0.32931381  0.16261485  1
  I  I67  1  0.49889818  0.32938648  0.50281067  1
  I  I68  1  0.50047543  0.33220693  0.83381595  1
  I  I69  1  0.49919138  0.66667887  0.16420370  1
  I  I70  1  0.49926372  0.66690458  0.50140904  1
  I  I71  1  0.49859130  0.66731435  0.83395111  1
  I  I72  1  0.83255378  -0.00012012  0.16630928  1
  I  I73  1  0.83361352  0.00001133  0.49742920  1
  I  I74  1  0.83033380  -0.00033251  0.83472100  1
  I  I75  1  0.83487485  0.33525930  0.16006372  1
  I  I76  1  0.83462105  0.33308676  0.50387001  1
  I  I77  1  0.82908145  0.33098273  0.83626688  1
  I  I78  1  0.83633068  0.66393535  0.16027704  1
  I  I79  1  0.83352121  0.66698277  0.50420059  1
  I  I80  1  0.83247533  0.66938710  0.83529759  1
  I  I81  1  0.17186829  0.16146501  0.00219439  1
  I  I82  1  0.17097701  0.16235602  0.32850887  1
  I  I83  1  0.16707716  0.16625619  0.66672538  1
  I  I84  1  0.16966056  0.50582406  -0.00330032  1
  I  I85  1  0.16429632  0.50058339  0.33324523  1
  I  I86  1  0.16897737  0.50381691  0.67156305  1
  I  I87  1  0.16687658  0.83361858  -0.00145880  1
  I  I88  1  0.16617635  0.84018376  0.33247699  1
  I  I89  1  0.16701016  0.82897535  0.66877355  1
  I  I90  1  0.49971476  0.16645665  -0.00145881  1
  I  I91  1  0.49314949  0.16715700  0.33247698  1
  I  I92  1  0.50435807  0.16632336  0.66877356  1
  I  I93  1  0.49662062  0.49804694  -0.00410632  1
  I  I94  1  0.50121646  0.49833393  0.33317823  1
  I  I95  1  0.49761330  0.49859958  0.67171939  1
  I  I96  1  0.49727471  0.83605881  -0.00434261  1
  I  I97  1  0.49814525  0.83518829  0.33325627  1
  I  I98  1  0.49715559  0.83617740  0.67131941  1
  I  I99  1  0.82750932  0.16367251  -0.00330031  1
  I  I100  1  0.83275006  0.16903713  0.33324524  1
  I  I101  1  0.82951649  0.16435607  0.67156307  1
  I  I102  1  0.83413050  0.49920305  0.00105749  1
  I  I103  1  0.83659429  0.49673884  0.32867929  1
  I  I104  1  0.83363584  0.49969738  0.66689116  1
  I  I105  1  0.83528633  0.83671279  -0.00410636  1
  I  I106  1  0.83499911  0.83211676  0.33317825  1
  I  I107  1  0.83473396  0.83572004  0.67171933  1
  I  I108  1  0.00267309  0.16332993  0.16229300  1
  I  I109  1  0.00018521  0.16648718  0.50082149  1
  I  I110  1  -0.00213326  0.16356602  0.83734812  1
  I  I111  1  -0.00192596  0.49845832  0.16006391  1
  I  I112  1  0.00024656  0.49871281  0.50387011  1
  I  I113  1  0.00235061  0.50425153  0.83626664  1
  I  I114  1  0.00401956  0.84000445  0.16261509  1
  I  I115  1  0.00394689  0.83443489  0.50281052  1
  I  I116  1  0.00112641  0.83285822  0.83381598  1
  I  I117  1  0.33380126  0.16288533  0.16189799  1
  I  I118  1  0.33653807  0.16507620  0.50875745  1
  I  I119  1  0.33636904  0.16475784  0.83243667  1
  I  I120  1  0.33345348  0.50077945  0.16630909  1
  I  I121  1  0.33332204  0.49971940  0.49742912  1
  I  I122  1  0.33366587  0.50299976  0.83472119  1
  I  I123  1  0.32964832  0.83472896  0.16225446  1
  I  I124  1  0.33004160  0.83521923  0.50431245  1
  I  I125  1  0.33292215  0.83342756  0.83326052  1
  I  I126  1  0.66370257  0.16973030  0.16548499  1
  I  I127  1  0.66260589  0.16590094  0.49618158  1
  I  I128  1  0.66490580  0.16422059  0.83556114  1
  I  I129  1  0.66939802  0.49700292  0.16027692  1
  I  I130  1  0.66635063  0.49981161  0.50420046  1
  I  I131  1  0.66394622  0.50085826  0.83529763  1
  I  I132  1  0.66665452  0.83414159  0.16420370  1
  I  I133  1  0.66642883  0.83406945  0.50140932  1
  I  I134  1  0.66601899  0.83474222  0.83395086  1
