# generated using pymatgen
data_Cs27Sn14Pb13I81
_symmetry_space_group_name_H-M   'P 1'
_cell_length_a   18.96767454
_cell_length_b   18.97924657
_cell_length_c   18.98019225
_cell_angle_alpha   89.99979453
_cell_angle_beta   90.00112565
_cell_angle_gamma   90.00118663
_symmetry_Int_Tables_number   1
_chemical_formula_structural   Cs27Sn14Pb13I81
_chemical_formula_sum   'Cs27 Sn14 Pb13 I81'
_cell_volume   6832.72063285
_cell_formula_units_Z   1
loop_
 _symmetry_equiv_pos_site_id
 _symmetry_equiv_pos_as_xyz
  1  'x, y, z'
loop_
 _atom_site_type_symbol
 _atom_site_label
 _atom_site_symmetry_multiplicity
 _atom_site_fract_x
 _atom_site_fract_y
 _atom_site_fract_z
 _atom_site_occupancy
  Cs  Cs0  1  -0.00097676  -0.00143487  -0.00020537  1
  Cs  Cs1  1  0.00554159  0.00074406  0.33587837  1
  Cs  Cs2  1  -0.00006891  -0.00067361  0.66377724  1
  Cs  Cs3  1  -0.00044269  0.33571563  -0.00086251  1
  Cs  Cs4  1  -0.00210724  0.32863454  0.33267178  1
  Cs  Cs5  1  0.00544014  0.32950141  0.66764781  1
  Cs  Cs6  1  -0.00197775  0.66517828  -0.00148126  1
  Cs  Cs7  1  -0.00103313  0.66864816  0.33122361  1
  Cs  Cs8  1  0.00025232  0.66834386  0.66986799  1
  Cs  Cs9  1  0.34154655  0.00701941  0.00575814  1
  Cs  Cs10  1  0.32639880  -0.00088041  0.32538661  1
  Cs  Cs11  1  0.33607874  0.00217170  0.66987820  1
  Cs  Cs12  1  0.33120233  0.32679739  -0.00173521  1
  Cs  Cs13  1  0.33382222  0.33484731  0.33500079  1
  Cs  Cs14  1  0.32437683  0.33572939  0.66728193  1
  Cs  Cs15  1  0.33562841  0.66857849  0.00106666  1
  Cs  Cs16  1  0.32976179  0.66745283  0.33661979  1
  Cs  Cs17  1  0.33057895  0.66354371  0.66255238  1
  Cs  Cs18  1  0.66208052  -0.00023151  -0.00131748  1
  Cs  Cs19  1  0.66672935  0.00141724  0.33681408  1
  Cs  Cs20  1  0.66616717  -0.00022350  0.66584777  1
  Cs  Cs21  1  0.66779523  0.33515121  0.00107501  1
  Cs  Cs22  1  0.66672916  0.33463680  0.33475468  1
  Cs  Cs23  1  0.66713880  0.33361505  0.66375680  1
  Cs  Cs24  1  0.66806654  0.66615120  -0.00053101  1
  Cs  Cs25  1  0.66693320  0.66478220  0.33420338  1
  Cs  Cs26  1  0.66646393  0.66774314  0.66641461  1
  Sn  Sn27  1  0.16673149  0.83366721  0.83394796  1
  Sn  Sn28  1  0.83382066  0.83363527  0.83337381  1
  Sn  Sn29  1  0.83294843  0.16662015  0.83404447  1
  Sn  Sn30  1  0.50001370  0.16560831  0.49999333  1
  Sn  Sn31  1  0.83336403  0.50067755  0.50036468  1
  Sn  Sn32  1  0.50066291  0.50002679  0.83387967  1
  Sn  Sn33  1  0.83292232  0.83382180  0.16672549  1
  Sn  Sn34  1  0.83288552  0.16634964  0.16574766  1
  Sn  Sn35  1  0.50053703  0.83455047  0.49982328  1
  Sn  Sn36  1  0.83258505  0.49962604  0.83278136  1
  Sn  Sn37  1  0.16664804  0.50013943  0.16648757  1
  Sn  Sn38  1  0.83265567  0.83242516  0.49993103  1
  Sn  Sn39  1  0.49988491  0.50020444  0.16565797  1
  Sn  Sn40  1  0.83319422  0.50011568  0.16681802  1
  Pb  Pb41  1  0.50225773  0.83113922  0.16904834  1
  Pb  Pb42  1  0.50248577  0.16964180  0.83139102  1
  Pb  Pb43  1  0.50031951  0.83130154  0.83160305  1
  Pb  Pb44  1  0.16644350  0.83337054  0.50215170  1
  Pb  Pb45  1  0.50161919  0.50034097  0.50025422  1
  Pb  Pb46  1  0.16450567  0.83149357  0.16395664  1
  Pb  Pb47  1  0.83262840  0.16632125  0.50013243  1
  Pb  Pb48  1  0.16268910  0.50020817  0.49732144  1
  Pb  Pb49  1  0.17055369  0.16637940  0.49999721  1
  Pb  Pb50  1  0.50252422  0.16912681  0.16859588  1
  Pb  Pb51  1  0.16390231  0.16910843  0.16642325  1
  Pb  Pb52  1  0.16404055  0.16340049  0.83363763  1
  Pb  Pb53  1  0.16654806  0.50170502  0.83545208  1
  I  I54  1  0.16467608  -0.00012648  0.16693328  1
  I  I55  1  0.15953220  -0.00030522  0.49979571  1
  I  I56  1  0.15881463  -0.00427400  0.83163256  1
  I  I57  1  0.16337087  0.33734726  0.16535318  1
  I  I58  1  0.16630919  0.33363174  0.50122671  1
  I  I59  1  0.16627775  0.33338427  0.83359528  1
  I  I60  1  0.16280543  0.66348154  0.16643748  1
  I  I61  1  0.17223241  0.66661807  0.50008745  1
  I  I62  1  0.15814261  0.66912568  0.83376670  1
  I  I63  1  0.50181165  -0.00003748  0.16618189  1
  I  I64  1  0.50969266  -0.00109320  0.50195487  1
  I  I65  1  0.50076231  0.00001744  0.83246521  1
  I  I66  1  0.50438675  0.33735595  0.16608009  1
  I  I67  1  0.50440871  0.33203698  0.49876085  1
  I  I68  1  0.50674161  0.33757772  0.83536380  1
  I  I69  1  0.50457928  0.66288507  0.16519869  1
  I  I70  1  0.50385485  0.66881859  0.50019390  1
  I  I71  1  0.50751360  0.66342585  0.83496612  1
  I  I72  1  0.83308854  -0.00056996  0.16417293  1
  I  I73  1  0.83099521  -0.00308181  0.50038934  1
  I  I74  1  0.83835333  -0.00081352  0.83520112  1
  I  I75  1  0.83332544  0.33491621  0.16495482  1
  I  I76  1  0.83031409  0.33588728  0.49865531  1
  I  I77  1  0.82810907  0.33451554  0.83614396  1
  I  I78  1  0.83336883  0.66573968  0.16543213  1
  I  I79  1  0.82744147  0.66705883  0.49944772  1
  I  I80  1  0.83351926  0.66637637  0.83495234  1
  I  I81  1  0.16928003  0.16689069  -0.00001257  1
  I  I82  1  0.16215075  0.16667498  0.33305497  1
  I  I83  1  0.16284703  0.16858466  0.66700342  1
  I  I84  1  0.15950810  0.50176340  0.00305717  1
  I  I85  1  0.16774700  0.50125932  0.32934712  1
  I  I86  1  0.16774443  0.50081418  0.66688557  1
  I  I87  1  0.15786781  0.83029541  -0.00341595  1
  I  I88  1  0.16573956  0.83207888  0.33302069  1
  I  I89  1  0.15827573  0.83072669  0.66970421  1
  I  I90  1  0.49905895  0.16596773  -0.00000613  1
  I  I91  1  0.50559853  0.16588189  0.33617855  1
  I  I92  1  0.50566882  0.16440605  0.66382928  1
  I  I93  1  0.50736336  0.50117154  0.00026775  1
  I  I94  1  0.50299499  0.49962327  0.33090371  1
  I  I95  1  0.50704234  0.50080665  0.66899736  1
  I  I96  1  0.50068678  0.83296729  0.00005770  1
  I  I97  1  0.50749822  0.83355279  0.33693719  1
  I  I98  1  0.50754594  0.83361098  0.66377765  1
  I  I99  1  0.83335532  0.16820480  0.00001776  1
  I  I100  1  0.83119742  0.16930446  0.33083290  1
  I  I101  1  0.83111353  0.16742201  0.66930112  1
  I  I102  1  0.83299061  0.50189144  0.00033803  1
  I  I103  1  0.83254228  0.50218142  0.33224614  1
  I  I104  1  0.82689451  0.50286077  0.66754572  1
  I  I105  1  0.83836134  0.82984827  -0.00027229  1
  I  I106  1  0.82812728  0.82872254  0.33335310  1
  I  I107  1  0.83335025  0.83007426  0.66694839  1
  I  I108  1  -0.00486452  0.16947439  0.16466045  1
  I  I109  1  -0.00020416  0.16760856  0.49967560  1
  I  I110  1  -0.00482371  0.17380472  0.83580823  1
  I  I111  1  -0.00264950  0.50036497  0.16672585  1
  I  I112  1  -0.00568170  0.50612667  0.50158343  1
  I  I113  1  -0.00390902  0.49895855  0.83422644  1
  I  I114  1  -0.00474712  0.83048687  0.17140053  1
  I  I115  1  -0.00393739  0.82852530  0.49811896  1
  I  I116  1  -0.00359880  0.83029976  0.83161472  1
  I  I117  1  0.33361894  0.16834272  0.16893653  1
  I  I118  1  0.33851570  0.16217065  0.50030762  1
  I  I119  1  0.33365875  0.16717646  0.83061404  1
  I  I120  1  0.33410660  0.50082058  0.16212169  1
  I  I121  1  0.33331591  0.49981591  0.50002448  1
  I  I122  1  0.33605075  0.50291286  0.83658050  1
  I  I123  1  0.33346421  0.83029764  0.16724788  1
  I  I124  1  0.33637911  0.83605507  0.50254689  1
  I  I125  1  0.33141076  0.82799229  0.82940118  1
  I  I126  1  0.67086192  0.16965966  0.16321008  1
  I  I127  1  0.66516483  0.16606707  0.49979633  1
  I  I128  1  0.67084214  0.16177407  0.83705460  1
  I  I129  1  0.66872125  0.49998725  0.16629712  1
  I  I130  1  0.67004014  0.50137849  0.49585962  1
  I  I131  1  0.66917477  0.50249843  0.83793439  1
  I  I132  1  0.67117951  0.82987781  0.16108233  1
  I  I133  1  0.66883584  0.83234350  0.50231174  1
  I  I134  1  0.67059836  0.83373077  0.83473085  1
