# generated using pymatgen
data_Cs27Sn13Pb14I81
_symmetry_space_group_name_H-M   'P 1'
_cell_length_a   18.97725572
_cell_length_b   18.97069390
_cell_length_c   18.98340048
_cell_angle_alpha   89.99875180
_cell_angle_beta   90.00026290
_cell_angle_gamma   89.99836781
_symmetry_Int_Tables_number   1
_chemical_formula_structural   Cs27Sn13Pb14I81
_chemical_formula_sum   'Cs27 Sn13 Pb14 I81'
_cell_volume   6834.24644852
_cell_formula_units_Z   1
loop_
 _symmetry_equiv_pos_site_id
 _symmetry_equiv_pos_as_xyz
  1  'x, y, z'
loop_
 _atom_site_type_symbol
 _atom_site_label
 _atom_site_symmetry_multiplicity
 _atom_site_fract_x
 _atom_site_fract_y
 _atom_site_fract_z
 _atom_site_occupancy
  Cs  Cs0  1  0.00101534  0.00102093  0.00174118  1
  Cs  Cs1  1  0.00641837  -0.00397595  0.33345142  1
  Cs  Cs2  1  -0.00075268  0.00124116  0.66477704  1
  Cs  Cs3  1  -0.00113644  0.33403490  0.00015929  1
  Cs  Cs4  1  -0.00017053  0.33131158  0.33173871  1
  Cs  Cs5  1  -0.00073542  0.33292032  0.66777529  1
  Cs  Cs6  1  0.00097628  0.66531350  -0.00197022  1
  Cs  Cs7  1  -0.00266916  0.67455972  0.33297550  1
  Cs  Cs8  1  0.00506671  0.66750400  0.66880182  1
  Cs  Cs9  1  0.33419859  -0.00777735  -0.00197351  1
  Cs  Cs10  1  0.32325617  -0.00214088  0.33148873  1
  Cs  Cs11  1  0.33436235  -0.00637344  0.67101109  1
  Cs  Cs12  1  0.33647499  0.33357736  0.00196543  1
  Cs  Cs13  1  0.33287985  0.33294352  0.33424265  1
  Cs  Cs14  1  0.33177375  0.33563892  0.66326839  1
  Cs  Cs15  1  0.33112869  0.67068057  -0.00194985  1
  Cs  Cs16  1  0.33772786  0.66983656  0.34210823  1
  Cs  Cs17  1  0.32607974  0.67051500  0.66026433  1
  Cs  Cs18  1  0.66401769  0.00083059  -0.00146143  1
  Cs  Cs19  1  0.66811356  -0.00276039  0.33346552  1
  Cs  Cs20  1  0.66531910  0.00211996  0.66835130  1
  Cs  Cs21  1  0.66719812  0.33366931  0.00048026  1
  Cs  Cs22  1  0.66646224  0.33344104  0.33245517  1
  Cs  Cs23  1  0.66745018  0.33165724  0.66680457  1
  Cs  Cs24  1  0.66806571  0.66280302  0.00265183  1
  Cs  Cs25  1  0.66534389  0.67143107  0.33495974  1
  Cs  Cs26  1  0.66652361  0.66583324  0.66257409  1
  Sn  Sn27  1  0.50061629  0.16685547  0.49870828  1
  Sn  Sn28  1  0.83256723  0.16758718  0.49938769  1
  Sn  Sn29  1  0.49990731  0.49937447  0.16605215  1
  Sn  Sn30  1  0.83342508  0.49912790  0.49977847  1
  Sn  Sn31  1  0.50067293  0.16704420  0.16772374  1
  Sn  Sn32  1  0.16643457  0.16737634  0.83367489  1
  Sn  Sn33  1  0.83268144  0.83324712  0.83362265  1
  Sn  Sn34  1  0.83413175  0.16664545  0.83362012  1
  Sn  Sn35  1  0.50027974  0.49984490  0.83339120  1
  Sn  Sn36  1  0.16697509  0.49990905  0.16697252  1
  Sn  Sn37  1  0.83328304  0.49917939  0.16725325  1
  Sn  Sn38  1  0.83244766  0.50008581  0.83298596  1
  Sn  Sn39  1  0.83263134  0.16716067  0.16698116  1
  Pb  Pb40  1  0.83317227  0.83385426  0.50262297  1
  Pb  Pb41  1  0.50033819  0.83344140  0.16662955  1
  Pb  Pb42  1  0.83314351  0.83370271  0.16434125  1
  Pb  Pb43  1  0.16326895  0.49958350  0.49681515  1
  Pb  Pb44  1  0.16665701  0.16688239  0.50236972  1
  Pb  Pb45  1  0.50267575  0.82918369  0.83334726  1
  Pb  Pb46  1  0.50052449  0.83741475  0.49994466  1
  Pb  Pb47  1  0.50013387  0.16840996  0.83360692  1
  Pb  Pb48  1  0.16660753  0.82954052  0.16634591  1
  Pb  Pb49  1  0.16633230  0.83345858  0.50017342  1
  Pb  Pb50  1  0.16391243  0.83616609  0.83358351  1
  Pb  Pb51  1  0.50200516  0.49829766  0.49978709  1
  Pb  Pb52  1  0.16685703  0.49828845  0.83487571  1
  Pb  Pb53  1  0.16705899  0.16813719  0.16463231  1
  I  I54  1  0.16614766  0.00019011  0.16585147  1
  I  I55  1  0.16429827  0.00068223  0.49945469  1
  I  I56  1  0.16230409  0.00427591  0.83415413  1
  I  I57  1  0.16482138  0.33608019  0.16481335  1
  I  I58  1  0.16778531  0.33326872  0.50139634  1
  I  I59  1  0.15844135  0.33063953  0.83378779  1
  I  I60  1  0.16361462  0.66132911  0.16336696  1
  I  I61  1  0.16532788  0.66608628  0.50068736  1
  I  I62  1  0.16573068  0.66650255  0.83514451  1
  I  I63  1  0.50636078  0.00405413  0.16940986  1
  I  I64  1  0.50862243  0.00571190  0.49642504  1
  I  I65  1  0.50007739  0.00015620  0.83326841  1
  I  I66  1  0.50213539  0.33377546  0.16590651  1
  I  I67  1  0.50339660  0.33025033  0.49911177  1
  I  I68  1  0.50678759  0.33630681  0.83565804  1
  I  I69  1  0.50208564  0.66240488  0.16160469  1
  I  I70  1  0.50147641  0.66639916  0.49969259  1
  I  I71  1  0.50555868  0.66106891  0.84094711  1
  I  I72  1  0.82885599  0.00397314  0.16601728  1
  I  I73  1  0.82976667  0.00402095  0.50088388  1
  I  I74  1  0.83812845  0.00174812  0.83305848  1
  I  I75  1  0.83287210  0.33372847  0.16267894  1
  I  I76  1  0.83021635  0.33260216  0.50411726  1
  I  I77  1  0.83369079  0.33341509  0.83363625  1
  I  I78  1  0.83284266  0.66273980  0.16661922  1
  I  I79  1  0.83357505  0.66336627  0.49890461  1
  I  I80  1  0.82860806  0.66480186  0.83433883  1
  I  I81  1  0.15990682  0.16893646  -0.00289733  1
  I  I82  1  0.16417958  0.16719830  0.33302709  1
  I  I83  1  0.16072238  0.16839637  0.67017037  1
  I  I84  1  0.16137753  0.49724983  0.00269455  1
  I  I85  1  0.16810400  0.49670347  0.32886585  1
  I  I86  1  0.16696105  0.49948293  0.66662401  1
  I  I87  1  0.16604057  0.83447003  -0.00024829  1
  I  I88  1  0.16488594  0.83508035  0.33306949  1
  I  I89  1  0.16589511  0.83256729  0.66728752  1
  I  I90  1  0.50400933  0.17008405  0.00276512  1
  I  I91  1  0.50893463  0.17367341  0.33215774  1
  I  I92  1  0.50447195  0.16888008  0.66489183  1
  I  I93  1  0.50587787  0.49371943  0.00103655  1
  I  I94  1  0.50082593  0.49765605  0.33003348  1
  I  I95  1  0.50664352  0.49693150  0.66902779  1
  I  I96  1  0.50047040  0.83878536  -0.00018745  1
  I  I97  1  0.50149953  0.82740704  0.33328678  1
  I  I98  1  0.50138089  0.83418791  0.66684662  1
  I  I99  1  0.83349040  0.16946428  -0.00002595  1
  I  I100  1  0.82829460  0.17508710  0.33282589  1
  I  I101  1  0.83326336  0.16941888  0.66710126  1
  I  I102  1  0.83286332  0.49776351  0.00010751  1
  I  I103  1  0.83387883  0.49239514  0.33231901  1
  I  I104  1  0.82829794  0.49670204  0.66776120  1
  I  I105  1  0.83352079  0.83310049  -0.00347136  1
  I  I106  1  0.83384470  0.83248657  0.33334496  1
  I  I107  1  0.83326585  0.83343895  0.67048654  1
  I  I108  1  -0.00339992  0.17105992  0.16758013  1
  I  I109  1  -0.00389720  0.17019365  0.49857557  1
  I  I110  1  -0.00326921  0.16882595  0.83343770  1
  I  I111  1  -0.00215734  0.49538051  0.16540521  1
  I  I112  1  -0.00525596  0.49290512  0.50295368  1
  I  I113  1  -0.00381014  0.50096632  0.83431965  1
  I  I114  1  -0.00038840  0.83399692  0.16628048  1
  I  I115  1  -0.00078194  0.83500429  0.50006018  1
  I  I116  1  -0.00416035  0.82719694  0.83345392  1
  I  I117  1  0.33650465  0.17234288  0.16957633  1
  I  I118  1  0.33649162  0.16775082  0.49618312  1
  I  I119  1  0.33162979  0.17064587  0.83368938  1
  I  I120  1  0.33479435  0.49423601  0.15978609  1
  I  I121  1  0.33354869  0.49870120  0.50083522  1
  I  I122  1  0.33610119  0.49510195  0.83948359  1
  I  I123  1  0.33343885  0.83565852  0.16486000  1
  I  I124  1  0.33359364  0.83310852  0.50132372  1
  I  I125  1  0.33336813  0.83486538  0.83330752  1
  I  I126  1  0.66795010  0.17407402  0.16464873  1
  I  I127  1  0.66848891  0.17094106  0.50206070  1
  I  I128  1  0.67018523  0.16567100  0.83297008  1
  I  I129  1  0.66762590  0.49572413  0.16402597  1
  I  I130  1  0.67042193  0.49749800  0.49808722  1
  I  I131  1  0.66876833  0.49747203  0.83825129  1
  I  I132  1  0.66690922  0.82933303  0.16565588  1
  I  I133  1  0.66714711  0.83064121  0.50028872  1
  I  I134  1  0.67058821  0.84020511  0.83367968  1
