# generated using pymatgen
data_Cs27Sn14Pb13I81
_symmetry_space_group_name_H-M   'P 1'
_cell_length_a   18.97568999
_cell_length_b   18.97017865
_cell_length_c   18.98318110
_cell_angle_alpha   89.99878487
_cell_angle_beta   90.00055421
_cell_angle_gamma   89.99935317
_symmetry_Int_Tables_number   1
_chemical_formula_structural   Cs27Sn14Pb13I81
_chemical_formula_sum   'Cs27 Sn14 Pb13 I81'
_cell_volume   6833.41801465
_cell_formula_units_Z   1
loop_
 _symmetry_equiv_pos_site_id
 _symmetry_equiv_pos_as_xyz
  1  'x, y, z'
loop_
 _atom_site_type_symbol
 _atom_site_label
 _atom_site_symmetry_multiplicity
 _atom_site_fract_x
 _atom_site_fract_y
 _atom_site_fract_z
 _atom_site_occupancy
  Cs  Cs0  1  -0.00076974  -0.00245871  -0.00187857  1
  Cs  Cs1  1  -0.00089759  0.00214901  0.33153025  1
  Cs  Cs2  1  0.00204843  -0.00140381  0.66828163  1
  Cs  Cs3  1  0.00378306  0.33250999  0.00207448  1
  Cs  Cs4  1  0.00043616  0.32913155  0.33414510  1
  Cs  Cs5  1  0.00054945  0.33335914  0.66442719  1
  Cs  Cs6  1  -0.00256094  0.66931083  -0.00103018  1
  Cs  Cs7  1  0.00054653  0.66648528  0.33624627  1
  Cs  Cs8  1  0.00058356  0.66723236  0.66538595  1
  Cs  Cs9  1  0.33437518  0.00136604  0.00042648  1
  Cs  Cs10  1  0.34135572  -0.00220119  0.33518883  1
  Cs  Cs11  1  0.33158475  0.00151752  0.66464299  1
  Cs  Cs12  1  0.33094775  0.33317072  0.00241546  1
  Cs  Cs13  1  0.32928692  0.33342572  0.32553960  1
  Cs  Cs14  1  0.33374243  0.33172389  0.66862689  1
  Cs  Cs15  1  0.33399684  0.66466876  -0.00051792  1
  Cs  Cs16  1  0.33479751  0.66927774  0.33785907  1
  Cs  Cs17  1  0.33135997  0.66630295  0.66476294  1
  Cs  Cs18  1  0.66624077  -0.00058615  -0.00046605  1
  Cs  Cs19  1  0.66033728  0.00625970  0.33408058  1
  Cs  Cs20  1  0.66561142  0.00293297  0.66819165  1
  Cs  Cs21  1  0.66552592  0.33685333  -0.00197184  1
  Cs  Cs22  1  0.67059735  0.33102695  0.33754284  1
  Cs  Cs23  1  0.66549802  0.33322166  0.66459532  1
  Cs  Cs24  1  0.66797165  0.66647748  -0.00002606  1
  Cs  Cs25  1  0.66492339  0.66571346  0.33035568  1
  Cs  Cs26  1  0.66834967  0.66489845  0.66893829  1
  Sn  Sn27  1  0.49983321  0.49997598  0.50012558  1
  Sn  Sn28  1  0.83279819  0.83357172  0.49957624  1
  Sn  Sn29  1  0.83327437  0.83324371  0.83327437  1
  Sn  Sn30  1  0.83418040  0.16706230  0.83351370  1
  Sn  Sn31  1  0.16670487  0.16643999  0.50059350  1
  Sn  Sn32  1  0.49984714  0.83254319  0.83319959  1
  Sn  Sn33  1  0.16691084  0.83391227  0.83406833  1
  Sn  Sn34  1  0.83292599  0.50065387  0.16597837  1
  Sn  Sn35  1  0.16565351  0.16583261  0.83256249  1
  Sn  Sn36  1  0.83374413  0.83280683  0.16699783  1
  Sn  Sn37  1  0.83301233  0.49967382  0.83393694  1
  Sn  Sn38  1  0.50106362  0.50043140  0.16655671  1
  Sn  Sn39  1  0.50058888  0.50099756  0.83332114  1
  Sn  Sn40  1  0.16621902  0.83313662  0.16600087  1
  Pb  Pb41  1  0.16617047  0.50021389  0.83335420  1
  Pb  Pb42  1  0.83327944  0.16664763  0.16405978  1
  Pb  Pb43  1  0.50047890  0.83160776  0.16448320  1
  Pb  Pb44  1  0.16905319  0.49749962  0.49994155  1
  Pb  Pb45  1  0.50269978  0.83155476  0.50287091  1
  Pb  Pb46  1  0.16485764  0.83493273  0.49991994  1
  Pb  Pb47  1  0.16650687  0.16327930  0.16601494  1
  Pb  Pb48  1  0.49977552  0.16695302  0.83349319  1
  Pb  Pb49  1  0.83496339  0.16404090  0.50267466  1
  Pb  Pb50  1  0.50039648  0.17010130  0.16637375  1
  Pb  Pb51  1  0.49738904  0.16948490  0.50019358  1
  Pb  Pb52  1  0.16564286  0.50302391  0.16652514  1
  Pb  Pb53  1  0.83200739  0.50170702  0.49984942  1
  I  I54  1  0.15878331  -0.00447614  0.16348444  1
  I  I55  1  0.16515281  0.00258511  0.50405369  1
  I  I56  1  0.16295258  -0.00115113  0.83328432  1
  I  I57  1  0.16808628  0.33326740  0.16667133  1
  I  I58  1  0.16591022  0.32958806  0.50821600  1
  I  I59  1  0.16393478  0.33056062  0.82887471  1
  I  I60  1  0.16468996  0.67073663  0.15876348  1
  I  I61  1  0.16697139  0.66703612  0.50054771  1
  I  I62  1  0.16451454  0.67002926  0.83727505  1
  I  I63  1  0.49956331  -0.00052654  0.16533898  1
  I  I64  1  0.50024109  -0.00013923  0.50140874  1
  I  I65  1  0.50317318  -0.00307339  0.83341658  1
  I  I66  1  0.50492250  0.33884182  0.16227979  1
  I  I67  1  0.50235553  0.33759431  0.50440400  1
  I  I68  1  0.50343180  0.33697949  0.83360895  1
  I  I69  1  0.50133142  0.66338825  0.16726520  1
  I  I70  1  0.49933314  0.66361562  0.49846661  1
  I  I71  1  0.50326002  0.66608599  0.83370494  1
  I  I72  1  0.83910994  -0.00363710  0.16488135  1
  I  I73  1  0.83398658  -0.00403803  0.50014296  1
  I  I74  1  0.83381584  -0.00160115  0.83315876  1
  I  I75  1  0.82790336  0.33686141  0.16199955  1
  I  I76  1  0.83302140  0.33323265  0.50006307  1
  I  I77  1  0.83241701  0.33434251  0.83771910  1
  I  I78  1  0.83303925  0.66720628  0.16073506  1
  I  I79  1  0.83443205  0.66966089  0.50598688  1
  I  I80  1  0.83249655  0.66751346  0.83402359  1
  I  I81  1  0.16291087  0.16512740  -0.00348381  1
  I  I82  1  0.16766523  0.16750814  0.33561132  1
  I  I83  1  0.16320646  0.16062504  0.66883705  1
  I  I84  1  0.17226376  0.49451427  -0.00023086  1
  I  I85  1  0.16703040  0.49968277  0.33311042  1
  I  I86  1  0.16672036  0.50474072  0.66697485  1
  I  I87  1  0.16179813  0.83797280  -0.00184717  1
  I  I88  1  0.16126824  0.83319250  0.33063628  1
  I  I89  1  0.16548841  0.83499565  0.67005475  1
  I  I90  1  0.49702838  0.16809821  -0.00057585  1
  I  I91  1  0.49734536  0.16617221  0.33352908  1
  I  I92  1  0.50206509  0.16945460  0.66706853  1
  I  I93  1  0.50474115  0.50407799  -0.00094196  1
  I  I94  1  0.50395196  0.49929464  0.33248902  1
  I  I95  1  0.50401488  0.50359570  0.66841608  1
  I  I96  1  0.50355000  0.82811177  -0.00376034  1
  I  I97  1  0.49871533  0.83139120  0.33328971  1
  I  I98  1  0.49953005  0.82733617  0.67112334  1
  I  I99  1  0.83976085  0.16253817  -0.00435672  1
  I  I100  1  0.83530491  0.16725566  0.33348352  1
  I  I101  1  0.83454751  0.16719839  0.67102104  1
  I  I102  1  0.82519425  0.50488092  -0.00115259  1
  I  I103  1  0.82888812  0.50580176  0.33030085  1
  I  I104  1  0.82937566  0.50132464  0.67007985  1
  I  I105  1  0.83451680  0.83244996  -0.00131661  1
  I  I106  1  0.83993411  0.82653708  0.33201039  1
  I  I107  1  0.83363312  0.83275636  0.66903173  1
  I  I108  1  -0.00002419  0.17311414  0.16892405  1
  I  I109  1  0.00274442  0.16720202  0.50296035  1
  I  I110  1  -0.00018256  0.16295176  0.83009198  1
  I  I111  1  -0.00382468  0.50204362  0.15983183  1
  I  I112  1  -0.00024653  0.50020900  0.50045237  1
  I  I113  1  -0.00367527  0.50261394  0.83822525  1
  I  I114  1  -0.00149139  0.82813802  0.16087935  1
  I  I115  1  -0.00303185  0.83212896  0.50554654  1
  I  I116  1  -0.00105630  0.83385148  0.83410066  1
  I  I117  1  0.33307787  0.16736541  0.16398034  1
  I  I118  1  0.32970886  0.16510498  0.50909385  1
  I  I119  1  0.33023748  0.16325814  0.82970029  1
  I  I120  1  0.33617248  0.50000716  0.16520264  1
  I  I121  1  0.33746282  0.50159845  0.50165426  1
  I  I122  1  0.33646037  0.50308116  0.83390279  1
  I  I123  1  0.33109429  0.83278503  0.16124665  1
  I  I124  1  0.33355322  0.83333572  0.49976904  1
  I  I125  1  0.33281647  0.83310258  0.83804890  1
  I  I126  1  0.66707740  0.16020870  0.16517812  1
  I  I127  1  0.66673808  0.16635637  0.50081571  1
  I  I128  1  0.66966346  0.16359266  0.83440090  1
  I  I129  1  0.66748350  0.50674441  0.16436069  1
  I  I130  1  0.66393240  0.50123922  0.50163613  1
  I  I131  1  0.66711338  0.50318078  0.83395884  1
  I  I132  1  0.67002171  0.83058153  0.16453116  1
  I  I133  1  0.67060634  0.83261545  0.50011839  1
  I  I134  1  0.66809010  0.83277723  0.83338542  1
