# generated using pymatgen
data_Cs27Sn14Pb13I81
_symmetry_space_group_name_H-M   'P 1'
_cell_length_a   18.98302095
_cell_length_b   18.96885163
_cell_length_c   18.97477600
_cell_angle_alpha   89.99922416
_cell_angle_beta   90.00045960
_cell_angle_gamma   90.00058169
_symmetry_Int_Tables_number   1
_chemical_formula_structural   Cs27Sn14Pb13I81
_chemical_formula_sum   'Cs27 Sn14 Pb13 I81'
_cell_volume   6832.55323669
_cell_formula_units_Z   1
loop_
 _symmetry_equiv_pos_site_id
 _symmetry_equiv_pos_as_xyz
  1  'x, y, z'
loop_
 _atom_site_type_symbol
 _atom_site_label
 _atom_site_symmetry_multiplicity
 _atom_site_fract_x
 _atom_site_fract_y
 _atom_site_fract_z
 _atom_site_occupancy
  Cs  Cs0  1  -0.00087727  -0.00447274  -0.00155790  1
  Cs  Cs1  1  0.00378961  0.00453247  0.33517879  1
  Cs  Cs2  1  0.00260720  -0.00023635  0.66705701  1
  Cs  Cs3  1  0.00119222  0.33195758  -0.00210213  1
  Cs  Cs4  1  -0.00024318  0.33118837  0.33523798  1
  Cs  Cs5  1  -0.00034825  0.33444153  0.66561602  1
  Cs  Cs6  1  -0.00110659  0.67522246  0.00464610  1
  Cs  Cs7  1  -0.00190789  0.66569904  0.32359242  1
  Cs  Cs8  1  -0.00257488  0.66325212  0.66965880  1
  Cs  Cs9  1  0.33487996  0.00297547  -0.00006972  1
  Cs  Cs10  1  0.33604770  -0.00164022  0.33569278  1
  Cs  Cs11  1  0.33374669  -0.00507898  0.66375199  1
  Cs  Cs12  1  0.33449670  0.33299400  -0.00199655  1
  Cs  Cs13  1  0.33285366  0.33367444  0.33190086  1
  Cs  Cs14  1  0.33206742  0.33529493  0.67098140  1
  Cs  Cs15  1  0.33282247  0.66504314  0.00381571  1
  Cs  Cs16  1  0.33155610  0.66907545  0.33367485  1
  Cs  Cs17  1  0.33249837  0.66825231  0.66412613  1
  Cs  Cs18  1  0.66630502  0.00062098  -0.00012728  1
  Cs  Cs19  1  0.66341630  0.00210172  0.33354937  1
  Cs  Cs20  1  0.66602502  -0.00174976  0.66658996  1
  Cs  Cs21  1  0.66409320  0.33301693  -0.00180107  1
  Cs  Cs22  1  0.66771380  0.33288714  0.33342912  1
  Cs  Cs23  1  0.66803924  0.33445031  0.66850625  1
  Cs  Cs24  1  0.66763603  0.66725908  0.00328470  1
  Cs  Cs25  1  0.66739502  0.66573733  0.33539364  1
  Cs  Cs26  1  0.66805300  0.66638053  0.66401885  1
  Sn  Sn27  1  0.50002909  0.83295213  0.83438515  1
  Sn  Sn28  1  0.16676222  0.16690227  0.16581253  1
  Sn  Sn29  1  0.49988653  0.49881803  0.49996301  1
  Sn  Sn30  1  0.50024576  0.83393696  0.16550367  1
  Sn  Sn31  1  0.16548814  0.49960741  0.83292206  1
  Sn  Sn32  1  0.50001383  0.16787628  0.49984306  1
  Sn  Sn33  1  0.16624773  0.49998602  0.50043428  1
  Sn  Sn34  1  0.83404363  0.16718436  0.83401963  1
  Sn  Sn35  1  0.83330306  0.16690152  0.16559649  1
  Sn  Sn36  1  0.83391175  0.83278052  0.49993412  1
  Sn  Sn37  1  0.49998006  0.16639767  0.16742785  1
  Sn  Sn38  1  0.83372801  0.50088383  0.50045257  1
  Sn  Sn39  1  0.83419984  0.49943688  0.83324355  1
  Sn  Sn40  1  0.16581202  0.16711019  0.83389629  1
  Pb  Pb41  1  0.50006282  0.50254193  0.83128027  1
  Pb  Pb42  1  0.49986967  0.16544377  0.83321784  1
  Pb  Pb43  1  0.16311821  0.82979965  0.50012869  1
  Pb  Pb44  1  0.16922066  0.83662624  0.16668970  1
  Pb  Pb45  1  0.83338499  0.49761873  0.16598211  1
  Pb  Pb46  1  0.16888120  0.83296043  0.83332297  1
  Pb  Pb47  1  0.50003970  0.49973799  0.16918483  1
  Pb  Pb48  1  0.83119796  0.83647678  0.16926012  1
  Pb  Pb49  1  0.83173723  0.16717553  0.50069670  1
  Pb  Pb50  1  0.16645178  0.49775395  0.16583948  1
  Pb  Pb51  1  0.50128637  0.83306629  0.49950846  1
  Pb  Pb52  1  0.16922073  0.16855695  0.50080392  1
  Pb  Pb53  1  0.83167087  0.83327372  0.83200554  1
  I  I54  1  0.16391139  0.00501891  0.16072801  1
  I  I55  1  0.16767597  0.00019853  0.49994824  1
  I  I56  1  0.16316827  0.00338549  0.83823933  1
  I  I57  1  0.17048082  0.32937621  0.16616617  1
  I  I58  1  0.16148201  0.33661690  0.50076889  1
  I  I59  1  0.16410571  0.33303538  0.83299202  1
  I  I60  1  0.16917574  0.66668319  0.16711598  1
  I  I61  1  0.17506543  0.66159402  0.50727480  1
  I  I62  1  0.16376382  0.66300114  0.82680729  1
  I  I63  1  0.50004873  0.00178739  0.16963477  1
  I  I64  1  0.50259391  0.00219307  0.49875490  1
  I  I65  1  0.50087051  -0.00220902  0.83146185  1
  I  I66  1  0.50002853  0.32966838  0.16954670  1
  I  I67  1  0.50306920  0.33344419  0.49450980  1
  I  I68  1  0.50022214  0.33354194  0.83471404  1
  I  I69  1  0.50058544  0.66943023  0.16397061  1
  I  I70  1  0.49912247  0.66380489  0.50105542  1
  I  I71  1  0.50066286  0.66996538  0.83731343  1
  I  I72  1  0.83461791  0.00455589  0.16197028  1
  I  I73  1  0.82742897  -0.00127855  0.49951454  1
  I  I74  1  0.83565444  0.00311859  0.83541073  1
  I  I75  1  0.82950016  0.32923314  0.16887661  1
  I  I76  1  0.83398750  0.33628652  0.50071771  1
  I  I77  1  0.83548863  0.33320416  0.83043189  1
  I  I78  1  0.83107147  0.66687103  0.16516182  1
  I  I79  1  0.82932799  0.66450296  0.50642313  1
  I  I80  1  0.83589228  0.66350019  0.82877272  1
  I  I81  1  0.16938543  0.17310511  -0.00049061  1
  I  I82  1  0.16461290  0.16771715  0.33096096  1
  I  I83  1  0.16259810  0.16900132  0.66978293  1
  I  I84  1  0.16277975  0.49741843  -0.00372725  1
  I  I85  1  0.16707201  0.49889936  0.33627630  1
  I  I86  1  0.16639084  0.49310920  0.66693390  1
  I  I87  1  0.16465290  0.82778691  0.00000520  1
  I  I88  1  0.16991441  0.83363984  0.33350033  1
  I  I89  1  0.17225855  0.84040795  0.66663592  1
  I  I90  1  0.50018629  0.16324914  0.00257962  1
  I  I91  1  0.50077776  0.16413240  0.33242511  1
  I  I92  1  0.50121192  0.16835669  0.66438567  1
  I  I93  1  0.49991088  0.49842963  -0.00021999  1
  I  I94  1  0.50078997  0.50031651  0.33768088  1
  I  I95  1  0.50086415  0.49528128  0.66313977  1
  I  I96  1  0.50098202  0.84061534  0.00081771  1
  I  I97  1  0.50169502  0.83633642  0.33102445  1
  I  I98  1  0.50148316  0.83440138  0.66804373  1
  I  I99  1  0.83059303  0.17208528  -0.00065962  1
  I  I100  1  0.83408865  0.16605404  0.33121738  1
  I  I101  1  0.83598171  0.16775724  0.66954585  1
  I  I102  1  0.83764485  0.49735398  -0.00367801  1
  I  I103  1  0.83269121  0.50263217  0.33652792  1
  I  I104  1  0.83322788  0.49733126  0.66637331  1
  I  I105  1  0.83266712  0.83075100  0.00026249  1
  I  I106  1  0.82972776  0.82649541  0.33680790  1
  I  I107  1  0.82778466  0.83398541  0.66418673  1
  I  I108  1  -0.00009896  0.16937182  0.16320959  1
  I  I109  1  0.00008982  0.16615710  0.49607973  1
  I  I110  1  -0.00029007  0.17011861  0.84037833  1
  I  I111  1  -0.00010241  0.49786414  0.17352946  1
  I  I112  1  -0.00054641  0.50389959  0.50520689  1
  I  I113  1  -0.00036942  0.49414562  0.82309226  1
  I  I114  1  -0.00025374  0.83363849  0.16826399  1
  I  I115  1  -0.00453682  0.83185166  0.50205046  1
  I  I116  1  -0.00009551  0.83404705  0.83087822  1
  I  I117  1  0.33377437  0.16318947  0.16674329  1
  I  I118  1  0.33713631  0.17043075  0.49610263  1
  I  I119  1  0.33082118  0.17052495  0.83611618  1
  I  I120  1  0.33336580  0.49766504  0.16675100  1
  I  I121  1  0.33335047  0.49389559  0.50369339  1
  I  I122  1  0.33058109  0.49547658  0.82890434  1
  I  I123  1  0.33735329  0.83860638  0.16486293  1
  I  I124  1  0.33332726  0.83300925  0.49968614  1
  I  I125  1  0.33678401  0.83493824  0.83534958  1
  I  I126  1  0.66620357  0.16302129  0.16737908  1
  I  I127  1  0.66383208  0.17087845  0.49604475  1
  I  I128  1  0.66916299  0.16991401  0.83541511  1
  I  I129  1  0.66664824  0.49682072  0.16680285  1
  I  I130  1  0.66723384  0.50024277  0.50336697  1
  I  I131  1  0.66957810  0.49562204  0.82838811  1
  I  I132  1  0.66341430  0.84017362  0.16359051  1
  I  I133  1  0.66877878  0.82768005  0.50051248  1
  I  I134  1  0.66391209  0.83495141  0.83557850  1
