# generated using pymatgen
data_Cs27Sn13Pb14I81
_symmetry_space_group_name_H-M   'P 1'
_cell_length_a   18.97609756
_cell_length_b   18.97743639
_cell_length_c   18.97841842
_cell_angle_alpha   89.99856713
_cell_angle_beta   89.99999700
_cell_angle_gamma   89.99896352
_symmetry_Int_Tables_number   1
_chemical_formula_structural   Cs27Sn13Pb14I81
_chemical_formula_sum   'Cs27 Sn13 Pb14 I81'
_cell_volume   6834.46409425
_cell_formula_units_Z   1
loop_
 _symmetry_equiv_pos_site_id
 _symmetry_equiv_pos_as_xyz
  1  'x, y, z'
loop_
 _atom_site_type_symbol
 _atom_site_label
 _atom_site_symmetry_multiplicity
 _atom_site_fract_x
 _atom_site_fract_y
 _atom_site_fract_z
 _atom_site_occupancy
  Cs  Cs0  1  -0.00100243  -0.00147937  0.00746238  1
  Cs  Cs1  1  0.00568786  0.00401703  0.32631888  1
  Cs  Cs2  1  0.00654186  0.00029768  0.66565726  1
  Cs  Cs3  1  0.00747871  0.33230638  -0.00140498  1
  Cs  Cs4  1  -0.00256767  0.33049101  0.33005997  1
  Cs  Cs5  1  -0.00180328  0.33252085  0.66882995  1
  Cs  Cs6  1  0.00043590  0.66969969  0.00342776  1
  Cs  Cs7  1  0.00246238  0.66726904  0.33529719  1
  Cs  Cs8  1  -0.00286478  0.66791015  0.66343517  1
  Cs  Cs9  1  0.33456559  0.00265590  -0.00126746  1
  Cs  Cs10  1  0.33117289  -0.00288444  0.33712545  1
  Cs  Cs11  1  0.32810300  0.00141239  0.66436845  1
  Cs  Cs12  1  0.32759588  0.33385202  -0.00270906  1
  Cs  Cs13  1  0.33706110  0.33374928  0.33231222  1
  Cs  Cs14  1  0.33076106  0.33127325  0.67015259  1
  Cs  Cs15  1  0.33366551  0.66356999  -0.00295272  1
  Cs  Cs16  1  0.33348299  0.66744261  0.33375098  1
  Cs  Cs17  1  0.33409695  0.66695444  0.66792007  1
  Cs  Cs18  1  0.66781152  -0.00203865  -0.00058729  1
  Cs  Cs19  1  0.66579277  0.00362728  0.33223505  1
  Cs  Cs20  1  0.66652512  0.00032087  0.66816218  1
  Cs  Cs21  1  0.66550544  0.33309944  0.00005301  1
  Cs  Cs22  1  0.66577068  0.33399585  0.33434062  1
  Cs  Cs23  1  0.66789164  0.33332304  0.66580239  1
  Cs  Cs24  1  0.66597453  0.66933133  -0.00207416  1
  Cs  Cs25  1  0.66583725  0.66417297  0.33459878  1
  Cs  Cs26  1  0.66714187  0.66675726  0.66719307  1
  Sn  Sn27  1  0.83250354  0.16708555  0.83317946  1
  Sn  Sn28  1  0.49984134  0.50077034  0.49977179  1
  Sn  Sn29  1  0.83257154  0.50012981  0.16658051  1
  Sn  Sn30  1  0.16654146  0.83282111  0.83363233  1
  Sn  Sn31  1  0.50101101  0.16687479  0.83387727  1
  Sn  Sn32  1  0.50095721  0.50022784  0.16688272  1
  Sn  Sn33  1  0.83295034  0.49955882  0.83374486  1
  Sn  Sn34  1  0.83269930  0.83347682  0.49966556  1
  Sn  Sn35  1  0.50130792  0.83255902  0.49946663  1
  Sn  Sn36  1  0.83334841  0.50058935  0.49976793  1
  Sn  Sn37  1  0.16671623  0.49969224  0.50006195  1
  Sn  Sn38  1  0.50041847  0.16695762  0.16564140  1
  Sn  Sn39  1  0.50039920  0.83292325  0.16727074  1
  Pb  Pb40  1  0.16346671  0.50199707  0.83114513  1
  Pb  Pb41  1  0.16679993  0.83159786  0.50099348  1
  Pb  Pb42  1  0.83109398  0.83111620  0.16961488  1
  Pb  Pb43  1  0.50010021  0.16665278  0.49999663  1
  Pb  Pb44  1  0.16993423  0.16684005  0.16676663  1
  Pb  Pb45  1  0.16691684  0.50010980  0.16896937  1
  Pb  Pb46  1  0.16603788  0.16452679  0.83350809  1
  Pb  Pb47  1  0.16647317  0.16997697  0.49982671  1
  Pb  Pb48  1  0.50166694  0.49821760  0.83316491  1
  Pb  Pb49  1  0.16975313  0.83293335  0.16438870  1
  Pb  Pb50  1  0.83498734  0.83359510  0.83133483  1
  Pb  Pb51  1  0.49873705  0.83559986  0.83269786  1
  Pb  Pb52  1  0.83335320  0.16641582  0.50179150  1
  Pb  Pb53  1  0.83119372  0.16918748  0.16426876  1
  I  I54  1  0.16676878  -0.00020407  0.16672384  1
  I  I55  1  0.16763131  -0.00046106  0.50261794  1
  I  I56  1  0.16675801  -0.00284045  0.82984072  1
  I  I57  1  0.16855197  0.33372585  0.16663262  1
  I  I58  1  0.16742090  0.33837930  0.50147743  1
  I  I59  1  0.16816107  0.33348310  0.83172696  1
  I  I60  1  0.16890592  0.66646710  0.16511292  1
  I  I61  1  0.16627728  0.66363007  0.50134490  1
  I  I62  1  0.16780691  0.66918487  0.83247026  1
  I  I63  1  0.49882495  -0.00014817  0.16649567  1
  I  I64  1  0.50434468  -0.00323550  0.49744018  1
  I  I65  1  0.50566319  0.00338450  0.83732634  1
  I  I66  1  0.50426736  0.33453447  0.16839452  1
  I  I67  1  0.50158397  0.33688804  0.49690276  1
  I  I68  1  0.50128544  0.33032588  0.83617001  1
  I  I69  1  0.50321241  0.66582163  0.17205284  1
  I  I70  1  0.50058058  0.66567409  0.49331925  1
  I  I71  1  0.50011473  0.66665712  0.83548804  1
  I  I72  1  0.83184384  -0.00000181  0.16604269  1
  I  I73  1  0.82655343  -0.00325015  0.50372491  1
  I  I74  1  0.82985584  0.00260892  0.83069644  1
  I  I75  1  0.82713979  0.33749483  0.17326799  1
  I  I76  1  0.83170986  0.33726836  0.49877145  1
  I  I77  1  0.82894595  0.33448107  0.83002891  1
  I  I78  1  0.82748996  0.66271930  0.16157667  1
  I  I79  1  0.83203961  0.66477580  0.50287317  1
  I  I80  1  0.83458841  0.66371836  0.83324078  1
  I  I81  1  0.16585725  0.16752767  -0.00016439  1
  I  I82  1  0.16755636  0.16477437  0.33327503  1
  I  I83  1  0.17048715  0.16587409  0.66697399  1
  I  I84  1  0.16716836  0.50032007  -0.00014543  1
  I  I85  1  0.16326509  0.50261111  0.33696922  1
  I  I86  1  0.16879666  0.50136604  0.66327233  1
  I  I87  1  0.16628742  0.83317462  -0.00319552  1
  I  I88  1  0.16570064  0.83249553  0.33339593  1
  I  I89  1  0.16881167  0.83271575  0.66864846  1
  I  I90  1  0.50422167  0.16629090  0.00047575  1
  I  I91  1  0.49957976  0.16785463  0.33042879  1
  I  I92  1  0.50323039  0.16709909  0.66931622  1
  I  I93  1  0.50494414  0.50279874  0.00297396  1
  I  I94  1  0.50387280  0.49825961  0.33359515  1
  I  I95  1  0.50136449  0.50350672  0.66348245  1
  I  I96  1  0.49760182  0.83046440  0.00264834  1
  I  I97  1  0.50309758  0.83381513  0.33383912  1
  I  I98  1  0.50208996  0.82883023  0.66344722  1
  I  I99  1  0.83076911  0.17107331  -0.00372591  1
  I  I100  1  0.83179200  0.16796599  0.33297557  1
  I  I101  1  0.82621633  0.17319131  0.66992714  1
  I  I102  1  0.82721934  0.49573785  0.00018952  1
  I  I103  1  0.83202524  0.50463358  0.33413474  1
  I  I104  1  0.83302352  0.49970825  0.66567690  1
  I  I105  1  0.83342753  0.83179460  0.00016935  1
  I  I106  1  0.83209742  0.82662279  0.33765546  1
  I  I107  1  0.82683444  0.82614143  0.66345934  1
  I  I108  1  -0.00046021  0.16790005  0.16549691  1
  I  I109  1  -0.00028674  0.16578321  0.50379932  1
  I  I110  1  -0.00322771  0.17161121  0.83048838  1
  I  I111  1  -0.00336033  0.49991952  0.16736272  1
  I  I112  1  -0.00169662  0.50448839  0.50127811  1
  I  I113  1  -0.00470590  0.49354402  0.83317418  1
  I  I114  1  -0.00029897  0.83206260  0.16692313  1
  I  I115  1  -0.00266469  0.82688750  0.50488486  1
  I  I116  1  0.00235209  0.83325239  0.82900163  1
  I  I117  1  0.33877257  0.17080087  0.15965456  1
  I  I118  1  0.33379433  0.16621007  0.50277026  1
  I  I119  1  0.33615228  0.16560726  0.83725786  1
  I  I120  1  0.33730741  0.49974136  0.17133896  1
  I  I121  1  0.33508650  0.50390026  0.49502356  1
  I  I122  1  0.33333307  0.49881733  0.83274651  1
  I  I123  1  0.33833446  0.83097353  0.17374728  1
  I  I124  1  0.33665116  0.82956037  0.49742075  1
  I  I125  1  0.33127719  0.83458289  0.83121541  1
  I  I126  1  0.66287507  0.16536922  0.16520817  1
  I  I127  1  0.66650659  0.17054945  0.49980858  1
  I  I128  1  0.66645850  0.16981170  0.83608002  1
  I  I129  1  0.66566874  0.49945878  0.17184942  1
  I  I130  1  0.66661042  0.50366746  0.49916417  1
  I  I131  1  0.66978174  0.49961538  0.82849113  1
  I  I132  1  0.66273022  0.83492235  0.16613106  1
  I  I133  1  0.66574702  0.82448623  0.49871451  1
  I  I134  1  0.66669293  0.83266676  0.83399128  1
