# generated using pymatgen
data_Cs27Sn14Pb13I81
_symmetry_space_group_name_H-M   'P 1'
_cell_length_a   18.95918474
_cell_length_b   18.96326716
_cell_length_c   18.95873130
_cell_angle_alpha   89.99891347
_cell_angle_beta   89.99849825
_cell_angle_gamma   89.99721184
_symmetry_Int_Tables_number   1
_chemical_formula_structural   Cs27Sn14Pb13I81
_chemical_formula_sum   'Cs27 Sn14 Pb13 I81'
_cell_volume   6816.19635081
_cell_formula_units_Z   1
loop_
 _symmetry_equiv_pos_site_id
 _symmetry_equiv_pos_as_xyz
  1  'x, y, z'
loop_
 _atom_site_type_symbol
 _atom_site_label
 _atom_site_symmetry_multiplicity
 _atom_site_fract_x
 _atom_site_fract_y
 _atom_site_fract_z
 _atom_site_occupancy
  Cs  Cs0  1  0.00010364  -0.00092456  -0.00493307  1
  Cs  Cs1  1  -0.00112332  0.00463858  0.33516052  1
  Cs  Cs2  1  -0.00014873  -0.00200438  0.66936880  1
  Cs  Cs3  1  -0.00199259  0.33306160  0.00289478  1
  Cs  Cs4  1  -0.00114334  0.33330896  0.33081330  1
  Cs  Cs5  1  0.00111429  0.33364650  0.66640846  1
  Cs  Cs6  1  0.00421649  0.66754764  -0.00004301  1
  Cs  Cs7  1  -0.00022704  0.66103008  0.33478120  1
  Cs  Cs8  1  -0.00336920  0.66810681  0.66571235  1
  Cs  Cs9  1  0.32936093  -0.00291655  0.00020069  1
  Cs  Cs10  1  0.33503422  -0.00097980  0.33448309  1
  Cs  Cs11  1  0.33230962  0.00389829  0.66565806  1
  Cs  Cs12  1  0.33441664  0.33409523  -0.00446048  1
  Cs  Cs13  1  0.33252088  0.33309068  0.33518348  1
  Cs  Cs14  1  0.33476069  0.33333331  0.66759237  1
  Cs  Cs15  1  0.33398092  0.66841475  0.00501562  1
  Cs  Cs16  1  0.33351110  0.66722370  0.33199310  1
  Cs  Cs17  1  0.33484088  0.66352027  0.66461122  1
  Cs  Cs18  1  0.66922357  -0.00277958  0.00563116  1
  Cs  Cs19  1  0.66528271  0.00119801  0.33057789  1
  Cs  Cs20  1  0.66712917  -0.00074741  0.66575750  1
  Cs  Cs21  1  0.66793031  0.33372736  -0.00095377  1
  Cs  Cs22  1  0.66889283  0.33179039  0.33175659  1
  Cs  Cs23  1  0.66312606  0.33354865  0.66896651  1
  Cs  Cs24  1  0.66251219  0.66969002  -0.00276679  1
  Cs  Cs25  1  0.66694819  0.66690931  0.33525258  1
  Cs  Cs26  1  0.66879043  0.66751074  0.66680025  1
  Sn  Sn27  1  0.49946518  0.83380110  0.83209312  1
  Sn  Sn28  1  0.16723014  0.50004853  0.50070078  1
  Sn  Sn29  1  0.49948225  0.50055954  0.49903563  1
  Sn  Sn30  1  0.83426298  0.49946660  0.83310611  1
  Sn  Sn31  1  0.50001778  0.49881069  0.16766932  1
  Sn  Sn32  1  0.16717488  0.83317587  0.49996429  1
  Sn  Sn33  1  0.83421117  0.83264326  0.16719390  1
  Sn  Sn34  1  0.16575910  0.49996191  0.83265720  1
  Sn  Sn35  1  0.83318514  0.16733955  0.83225817  1
  Sn  Sn36  1  0.16788901  0.16677571  0.16708569  1
  Sn  Sn37  1  0.16584654  0.16679030  0.49951678  1
  Sn  Sn38  1  0.49871960  0.16767388  0.16659801  1
  Sn  Sn39  1  0.83387518  0.16689445  0.50115487  1
  Sn  Sn40  1  0.49932062  0.83270395  0.50109317  1
  Pb  Pb41  1  0.16493801  0.16851986  0.83299981  1
  Pb  Pb42  1  0.50076429  0.83327320  0.16758583  1
  Pb  Pb43  1  0.49978237  0.50134026  0.83299378  1
  Pb  Pb44  1  0.16902379  0.83061983  0.83081548  1
  Pb  Pb45  1  0.16859088  0.49801188  0.16698615  1
  Pb  Pb46  1  0.50234502  0.16402520  0.83629276  1
  Pb  Pb47  1  0.49974794  0.16682781  0.49875013  1
  Pb  Pb48  1  0.83321546  0.83547123  0.49836789  1
  Pb  Pb49  1  0.16405908  0.83577936  0.16943626  1
  Pb  Pb50  1  0.83185616  0.83319055  0.83485638  1
  Pb  Pb51  1  0.83307508  0.49772533  0.50166198  1
  Pb  Pb52  1  0.83080142  0.50248622  0.16400426  1
  Pb  Pb53  1  0.83370805  0.16565099  0.16647811  1
  I  I54  1  0.17267243  0.00385847  0.17157467  1
  I  I55  1  0.16727532  0.00054303  0.49480451  1
  I  I56  1  0.16568711  -0.00004901  0.83331576  1
  I  I57  1  0.16678074  0.33001915  0.17274622  1
  I  I58  1  0.16712967  0.33351809  0.50000904  1
  I  I59  1  0.16685092  0.33650826  0.82774940  1
  I  I60  1  0.16732759  0.66655050  0.16658168  1
  I  I61  1  0.17160931  0.66598404  0.50432550  1
  I  I62  1  0.16054408  0.66262764  0.82898730  1
  I  I63  1  0.49942060  0.00221618  0.16710626  1
  I  I64  1  0.49772080  -0.00232914  0.50136607  1
  I  I65  1  0.50192152  -0.00349807  0.82782767  1
  I  I66  1  0.49786223  0.33348630  0.17217915  1
  I  I67  1  0.49721817  0.33597342  0.49781960  1
  I  I68  1  0.49981646  0.33330108  0.83206435  1
  I  I69  1  0.50227332  0.66442973  0.16703669  1
  I  I70  1  0.49326551  0.66626405  0.49777041  1
  I  I71  1  0.50245633  0.66905069  0.83421850  1
  I  I72  1  0.82968823  -0.00175606  0.16565563  1
  I  I73  1  0.83680261  0.00353871  0.50432309  1
  I  I74  1  0.83160983  0.00244341  0.83185051  1
  I  I75  1  0.83330293  0.33346535  0.16724671  1
  I  I76  1  0.83679203  0.32971634  0.49983664  1
  I  I77  1  0.83561860  0.33325416  0.83049866  1
  I  I78  1  0.83051151  0.66963413  0.16655932  1
  I  I79  1  0.83498950  0.66651071  0.50030933  1
  I  I80  1  0.83487076  0.66409153  0.83493027  1
  I  I81  1  0.16873700  0.16853029  0.00231928  1
  I  I82  1  0.16422277  0.16836589  0.33494749  1
  I  I83  1  0.16428346  0.16522849  0.66334126  1
  I  I84  1  0.16456234  0.49755422  -0.00228009  1
  I  I85  1  0.16935910  0.50151668  0.33671250  1
  I  I86  1  0.16930596  0.49759035  0.66493313  1
  I  I87  1  0.16764271  0.83361516  -0.00002191  1
  I  I88  1  0.17363058  0.82902432  0.33762584  1
  I  I89  1  0.16689869  0.83887622  0.66246700  1
  I  I90  1  0.49633326  0.17134299  0.00421319  1
  I  I91  1  0.50161605  0.16543969  0.33077214  1
  I  I92  1  0.49898974  0.16840741  0.66670432  1
  I  I93  1  0.50069299  0.49854207  0.00201024  1
  I  I94  1  0.49481560  0.50253748  0.33463642  1
  I  I95  1  0.49876383  0.50242983  0.66377222  1
  I  I96  1  0.50409098  0.83288244  -0.00133537  1
  I  I97  1  0.49747436  0.83240324  0.33642615  1
  I  I98  1  0.49866422  0.82741825  0.66486670  1
  I  I99  1  0.83236788  0.16860192  -0.00226094  1
  I  I100  1  0.83447710  0.16428457  0.33552031  1
  I  I101  1  0.83824969  0.16865237  0.66620473  1
  I  I102  1  0.83723910  0.49341677  -0.00388242  1
  I  I103  1  0.83485449  0.49912713  0.33340694  1
  I  I104  1  0.83220524  0.49920138  0.66966000  1
  I  I105  1  0.82903446  0.83622858  0.00241134  1
  I  I106  1  0.82981182  0.83688196  0.33107572  1
  I  I107  1  0.83342726  0.83331230  0.66646542  1
  I  I108  1  0.00242200  0.16479159  0.16911336  1
  I  I109  1  0.00138775  0.16643929  0.49709879  1
  I  I110  1  -0.00315221  0.16716935  0.83437661  1
  I  I111  1  0.00011034  0.49925838  0.16852984  1
  I  I112  1  0.00299397  0.50246338  0.50238040  1
  I  I113  1  0.00030579  0.49688312  0.82802504  1
  I  I114  1  -0.00306014  0.83605432  0.16608451  1
  I  I115  1  0.00287035  0.83135300  0.49743877  1
  I  I116  1  0.00026346  0.83436875  0.83376349  1
  I  I117  1  0.33321239  0.16901872  0.17320105  1
  I  I118  1  0.33048309  0.16644267  0.49702427  1
  I  I119  1  0.33333069  0.16783095  0.83170330  1
  I  I120  1  0.33670665  0.50003048  0.16595893  1
  I  I121  1  0.33281338  0.49861737  0.50225407  1
  I  I122  1  0.33103202  0.50112863  0.83143109  1
  I  I123  1  0.33304095  0.83290331  0.16467548  1
  I  I124  1  0.33362902  0.83462045  0.50270195  1
  I  I125  1  0.33684089  0.83181367  0.83414948  1
  I  I126  1  0.66456797  0.16770440  0.16723561  1
  I  I127  1  0.66870590  0.16620246  0.50111580  1
  I  I128  1  0.67029194  0.17291367  0.82859141  1
  I  I129  1  0.66273991  0.49420110  0.17139835  1
  I  I130  1  0.66371180  0.50342464  0.49804674  1
  I  I131  1  0.66867462  0.49775821  0.83399578  1
  I  I132  1  0.66831484  0.83655486  0.16759524  1
  I  I133  1  0.66372757  0.83005331  0.50155476  1
  I  I134  1  0.66391757  0.83072961  0.82833312  1
