# generated using pymatgen
data_Cs27Sn14Pb13I81
_symmetry_space_group_name_H-M   'P 1'
_cell_length_a   18.96329880
_cell_length_b   18.95736333
_cell_length_c   18.96219801
_cell_angle_alpha   89.99978484
_cell_angle_beta   89.99896489
_cell_angle_gamma   90.00059361
_symmetry_Int_Tables_number   1
_chemical_formula_structural   Cs27Sn14Pb13I81
_chemical_formula_sum   'Cs27 Sn14 Pb13 I81'
_cell_volume   6816.79916311
_cell_formula_units_Z   1
loop_
 _symmetry_equiv_pos_site_id
 _symmetry_equiv_pos_as_xyz
  1  'x, y, z'
loop_
 _atom_site_type_symbol
 _atom_site_label
 _atom_site_symmetry_multiplicity
 _atom_site_fract_x
 _atom_site_fract_y
 _atom_site_fract_z
 _atom_site_occupancy
  Cs  Cs0  1  0.00138987  -0.00129867  -0.00477486  1
  Cs  Cs1  1  0.00144114  0.00022600  0.33604770  1
  Cs  Cs2  1  -0.00299796  0.00206615  0.66662152  1
  Cs  Cs3  1  -0.00024700  0.33401687  0.00232631  1
  Cs  Cs4  1  -0.00122252  0.33356420  0.33261641  1
  Cs  Cs5  1  0.00156273  0.33450652  0.66443222  1
  Cs  Cs6  1  0.00263253  0.66710204  -0.00482009  1
  Cs  Cs7  1  -0.00042825  0.66578188  0.33437797  1
  Cs  Cs8  1  -0.00086536  0.66617934  0.66749272  1
  Cs  Cs9  1  0.33200025  -0.00034274  0.00311829  1
  Cs  Cs10  1  0.33209977  -0.00059655  0.33082474  1
  Cs  Cs11  1  0.33493733  0.00390106  0.66379003  1
  Cs  Cs12  1  0.33240308  0.33337208  -0.00112816  1
  Cs  Cs13  1  0.33259334  0.33328765  0.33352832  1
  Cs  Cs14  1  0.33972912  0.33320179  0.66910022  1
  Cs  Cs15  1  0.33045743  0.66633650  -0.00057386  1
  Cs  Cs16  1  0.33362789  0.66786703  0.33287181  1
  Cs  Cs17  1  0.33324232  0.66300956  0.66748106  1
  Cs  Cs18  1  0.66703017  0.00034224  -0.00265562  1
  Cs  Cs19  1  0.66633733  -0.00383545  0.33311976  1
  Cs  Cs20  1  0.66851417  0.00307882  0.67144139  1
  Cs  Cs21  1  0.66972005  0.32998387  0.00217052  1
  Cs  Cs22  1  0.66935386  0.33322314  0.33099529  1
  Cs  Cs23  1  0.65867038  0.32912221  0.66894652  1
  Cs  Cs24  1  0.66720674  0.66755832  0.00214516  1
  Cs  Cs25  1  0.66695876  0.66688147  0.33406859  1
  Cs  Cs26  1  0.66791569  0.66689858  0.66484176  1
  Sn  Sn27  1  0.16720534  0.16742173  0.16585894  1
  Sn  Sn28  1  0.49939726  0.16663401  0.16690204  1
  Sn  Sn29  1  0.50066239  0.83319679  0.16650978  1
  Sn  Sn30  1  0.49925057  0.50006192  0.16677701  1
  Sn  Sn31  1  0.49957843  0.83278815  0.83343025  1
  Sn  Sn32  1  0.83341446  0.83262094  0.49920623  1
  Sn  Sn33  1  0.16632022  0.50083663  0.49920206  1
  Sn  Sn34  1  0.83303080  0.49983851  0.83212761  1
  Sn  Sn35  1  0.83368848  0.50042243  0.50117203  1
  Sn  Sn36  1  0.16660957  0.16690193  0.83390695  1
  Sn  Sn37  1  0.16659755  0.83245249  0.49999510  1
  Sn  Sn38  1  0.16745981  0.49949838  0.16739201  1
  Sn  Sn39  1  0.83317909  0.83320351  0.16696490  1
  Sn  Sn40  1  0.50007378  0.83313287  0.50040696  1
  Pb  Pb41  1  0.83562895  0.16976911  0.83335141  1
  Pb  Pb42  1  0.49805839  0.16446513  0.83600606  1
  Pb  Pb43  1  0.16670095  0.16755106  0.49948420  1
  Pb  Pb44  1  0.50234912  0.50182037  0.83626309  1
  Pb  Pb45  1  0.83401641  0.16336266  0.16675872  1
  Pb  Pb46  1  0.50021738  0.16389546  0.49715640  1
  Pb  Pb47  1  0.83388431  0.50200945  0.16720101  1
  Pb  Pb48  1  0.16900198  0.83528743  0.82981960  1
  Pb  Pb49  1  0.50015781  0.50163347  0.49804911  1
  Pb  Pb50  1  0.83159699  0.83188752  0.83290368  1
  Pb  Pb51  1  0.16646885  0.83318844  0.16802820  1
  Pb  Pb52  1  0.16536336  0.49828659  0.83301289  1
  Pb  Pb53  1  0.83308128  0.16707501  0.49994242  1
  I  I54  1  0.16983830  0.00212987  0.16538316  1
  I  I55  1  0.16667397  -0.00291141  0.49909835  1
  I  I56  1  0.16748494  0.00290390  0.84038083  1
  I  I57  1  0.17346511  0.33404258  0.16845600  1
  I  I58  1  0.16061726  0.33690884  0.49772210  1
  I  I59  1  0.16594814  0.33051199  0.83424504  1
  I  I60  1  0.16957637  0.66406840  0.16952099  1
  I  I61  1  0.16600765  0.66641820  0.49402573  1
  I  I62  1  0.16656847  0.66662614  0.83604861  1
  I  I63  1  0.49916474  -0.00107699  0.16752799  1
  I  I64  1  0.49912044  -0.00507239  0.49758281  1
  I  I65  1  0.50097522  -0.00367698  0.83412558  1
  I  I66  1  0.49522274  0.33363945  0.16674484  1
  I  I67  1  0.49945963  0.33353561  0.49885171  1
  I  I68  1  0.50047953  0.33331232  0.83398518  1
  I  I69  1  0.50015281  0.66770242  0.16749786  1
  I  I70  1  0.50000221  0.67037437  0.49615888  1
  I  I71  1  0.49947256  0.67004550  0.83565605  1
  I  I72  1  0.82907616  -0.00473882  0.17239859  1
  I  I73  1  0.83432009  -0.00401139  0.49523874  1
  I  I74  1  0.83290157  -0.00009973  0.83353002  1
  I  I75  1  0.83025797  0.33358656  0.16702694  1
  I  I76  1  0.84015433  0.33734398  0.50196461  1
  I  I77  1  0.83296523  0.33766469  0.82866797  1
  I  I78  1  0.82823139  0.66990547  0.16883716  1
  I  I79  1  0.83414010  0.66755849  0.49923672  1
  I  I80  1  0.83456659  0.66411056  0.83259337  1
  I  I81  1  0.17068714  0.17128656  0.00201598  1
  I  I82  1  0.17115838  0.16704747  0.33014700  1
  I  I83  1  0.16501960  0.16467659  0.66874233  1
  I  I84  1  0.16857336  0.49821539  0.00292706  1
  I  I85  1  0.16474064  0.49859588  0.33309372  1
  I  I86  1  0.16351434  0.50325862  0.66356159  1
  I  I87  1  0.16651038  0.83143129  -0.00004571  1
  I  I88  1  0.17011649  0.83409589  0.33620440  1
  I  I89  1  0.16533553  0.82872163  0.66170925  1
  I  I90  1  0.49806572  0.16404128  0.00421905  1
  I  I91  1  0.49278638  0.16453434  0.32879316  1
  I  I92  1  0.49826359  0.16500210  0.66691456  1
  I  I93  1  0.49559249  0.50334042  0.00452693  1
  I  I94  1  0.50040594  0.50271739  0.32962306  1
  I  I95  1  0.49767707  0.50225210  0.66661310  1
  I  I96  1  0.50511092  0.83380087  0.00188783  1
  I  I97  1  0.50107617  0.83362248  0.33270383  1
  I  I98  1  0.49970289  0.83249174  0.66557698  1
  I  I99  1  0.83175201  0.16698806  0.00027118  1
  I  I100  1  0.83552585  0.17032723  0.33301711  1
  I  I101  1  0.83615320  0.16120938  0.66673479  1
  I  I102  1  0.83287912  0.50212037  -0.00130238  1
  I  I103  1  0.83463929  0.50353801  0.33598215  1
  I  I104  1  0.84016491  0.50724273  0.66477866  1
  I  I105  1  0.82803538  0.83165223  0.00238421  1
  I  I106  1  0.82848050  0.82840369  0.33423920  1
  I  I107  1  0.83274625  0.83105321  0.66326362  1
  I  I108  1  0.00348864  0.17092244  0.16415822  1
  I  I109  1  0.00025813  0.16105142  0.49773126  1
  I  I110  1  0.00353827  0.16451638  0.84062308  1
  I  I111  1  0.00282578  0.49670298  0.16793531  1
  I  I112  1  0.00049138  0.50774366  0.49779160  1
  I  I113  1  -0.00257301  0.50130273  0.83452529  1
  I  I114  1  -0.00225350  0.83259759  0.17195311  1
  I  I115  1  -0.00046966  0.82989911  0.49408978  1
  I  I116  1  0.00012431  0.83389172  0.83464693  1
  I  I117  1  0.33329163  0.16435482  0.16374918  1
  I  I118  1  0.33324628  0.16540943  0.50182850  1
  I  I119  1  0.33028315  0.16742453  0.83476282  1
  I  I120  1  0.33288251  0.50181113  0.17141576  1
  I  I121  1  0.33060620  0.50452666  0.49673834  1
  I  I122  1  0.33350028  0.49984442  0.83143527  1
  I  I123  1  0.33618968  0.83375214  0.16828041  1
  I  I124  1  0.33355309  0.83042524  0.49840394  1
  I  I125  1  0.33692548  0.83297306  0.83677351  1
  I  I126  1  0.66361623  0.16891300  0.16773427  1
  I  I127  1  0.66649922  0.16732626  0.49845534  1
  I  I128  1  0.66635344  0.16621161  0.83422386  1
  I  I129  1  0.66428259  0.49912292  0.16656964  1
  I  I130  1  0.66939031  0.50536350  0.50111105  1
  I  I131  1  0.67000211  0.50194201  0.82790905  1
  I  I132  1  0.66498777  0.83264375  0.17124996  1
  I  I133  1  0.66682433  0.82933771  0.49714848  1
  I  I134  1  0.66352189  0.83284535  0.83143317  1
