# generated using pymatgen
data_Cs27Sn14Pb13I81
_symmetry_space_group_name_H-M   'P 1'
_cell_length_a   18.97276881
_cell_length_b   18.97329426
_cell_length_c   18.97865287
_cell_angle_alpha   89.99846380
_cell_angle_beta   90.00028294
_cell_angle_gamma   89.99823998
_symmetry_Int_Tables_number   1
_chemical_formula_structural   Cs27Sn14Pb13I81
_chemical_formula_sum   'Cs27 Sn14 Pb13 I81'
_cell_volume   6831.85812551
_cell_formula_units_Z   1
loop_
 _symmetry_equiv_pos_site_id
 _symmetry_equiv_pos_as_xyz
  1  'x, y, z'
loop_
 _atom_site_type_symbol
 _atom_site_label
 _atom_site_symmetry_multiplicity
 _atom_site_fract_x
 _atom_site_fract_y
 _atom_site_fract_z
 _atom_site_occupancy
  Cs  Cs0  1  -0.00232938  0.00132033  -0.00097654  1
  Cs  Cs1  1  0.00095158  0.00002746  0.33263429  1
  Cs  Cs2  1  0.00043303  -0.00218312  0.66761559  1
  Cs  Cs3  1  -0.00170267  0.33386411  0.00033447  1
  Cs  Cs4  1  0.00200993  0.33341271  0.33167513  1
  Cs  Cs5  1  0.00195272  0.33412968  0.66805338  1
  Cs  Cs6  1  0.00120820  0.66366728  0.00111912  1
  Cs  Cs7  1  -0.00121671  0.66661032  0.33342764  1
  Cs  Cs8  1  -0.00191378  0.66815516  0.66569655  1
  Cs  Cs9  1  0.33326677  -0.00105589  0.00036158  1
  Cs  Cs10  1  0.33295767  0.00049135  0.33475568  1
  Cs  Cs11  1  0.33114256  0.00236395  0.66424557  1
  Cs  Cs12  1  0.33207365  0.33449057  -0.00045958  1
  Cs  Cs13  1  0.33289709  0.33313692  0.33347286  1
  Cs  Cs14  1  0.33391087  0.33053437  0.66699036  1
  Cs  Cs15  1  0.34339015  0.66756882  0.00129556  1
  Cs  Cs16  1  0.33241011  0.66961673  0.32776966  1
  Cs  Cs17  1  0.33233514  0.66889116  0.67168832  1
  Cs  Cs18  1  0.66927852  0.00093094  -0.00028791  1
  Cs  Cs19  1  0.66472714  0.00007860  0.33180970  1
  Cs  Cs20  1  0.67194777  -0.00168496  0.66655327  1
  Cs  Cs21  1  0.67187300  0.33046720  -0.00201308  1
  Cs  Cs22  1  0.66569052  0.33274549  0.34002820  1
  Cs  Cs23  1  0.66159044  0.33666892  0.66304918  1
  Cs  Cs24  1  0.65541761  0.66661320  0.00066006  1
  Cs  Cs25  1  0.66832140  0.66617701  0.33480591  1
  Cs  Cs26  1  0.66972682  0.66395215  0.66619109  1
  Sn  Sn27  1  0.49916768  0.83308399  0.50033355  1
  Sn  Sn28  1  0.16676053  0.50024692  0.50063365  1
  Sn  Sn29  1  0.49920272  0.16643181  0.83429317  1
  Sn  Sn30  1  0.16599498  0.49952362  0.83287896  1
  Sn  Sn31  1  0.16737158  0.16591284  0.16639731  1
  Sn  Sn32  1  0.83342969  0.50100836  0.16594496  1
  Sn  Sn33  1  0.16558370  0.16681120  0.49997382  1
  Sn  Sn34  1  0.16754433  0.83310451  0.49923708  1
  Sn  Sn35  1  0.16571135  0.83400862  0.16691710  1
  Sn  Sn36  1  0.83412600  0.50015200  0.83426377  1
  Sn  Sn37  1  0.83451410  0.16668857  0.50005485  1
  Sn  Sn38  1  0.49895358  0.16690282  0.16568206  1
  Sn  Sn39  1  0.16712615  0.16725177  0.83362201  1
  Sn  Sn40  1  0.83417409  0.83221091  0.16634370  1
  Pb  Pb41  1  0.83367527  0.16682528  0.16827063  1
  Pb  Pb42  1  0.16655916  0.83310691  0.83392907  1
  Pb  Pb43  1  0.16571162  0.50016018  0.16620545  1
  Pb  Pb44  1  0.49971169  0.83556323  0.16822943  1
  Pb  Pb45  1  0.50339098  0.49666665  0.16685917  1
  Pb  Pb46  1  0.49942945  0.49759821  0.83330587  1
  Pb  Pb47  1  0.49991443  0.83658254  0.83034245  1
  Pb  Pb48  1  0.83345756  0.83008181  0.83655294  1
  Pb  Pb49  1  0.49940799  0.16520649  0.50022110  1
  Pb  Pb50  1  0.49623428  0.50329888  0.49996394  1
  Pb  Pb51  1  0.83368984  0.16856162  0.83079642  1
  Pb  Pb52  1  0.83410120  0.83514200  0.49810478  1
  Pb  Pb53  1  0.83561079  0.49812746  0.49997004  1
  I  I54  1  0.16467898  0.00073437  0.17046970  1
  I  I55  1  0.16709263  0.00066260  0.49921605  1
  I  I56  1  0.17109224  0.00334451  0.83065675  1
  I  I57  1  0.16825696  0.33036964  0.16956803  1
  I  I58  1  0.16124730  0.33216582  0.49987129  1
  I  I59  1  0.16660713  0.33231592  0.83013233  1
  I  I60  1  0.16302162  0.66923333  0.17132630  1
  I  I61  1  0.17086394  0.66712447  0.49959838  1
  I  I62  1  0.16088550  0.66351957  0.82876363  1
  I  I63  1  0.50059741  0.00344050  0.16420793  1
  I  I64  1  0.49351293  -0.00225770  0.49922264  1
  I  I65  1  0.49271652  0.00454021  0.83723716  1
  I  I66  1  0.49310737  0.32869259  0.16491370  1
  I  I67  1  0.50108093  0.33314668  0.50001998  1
  I  I68  1  0.49785897  0.32957108  0.83529987  1
  I  I69  1  0.49760788  0.66687567  0.16775327  1
  I  I70  1  0.49653974  0.67107834  0.49799717  1
  I  I71  1  0.49969757  0.66664870  0.83266330  1
  I  I72  1  0.83457163  -0.00187110  0.17077628  1
  I  I73  1  0.83870606  0.00304344  0.49824134  1
  I  I74  1  0.83301910  0.00027967  0.83342064  1
  I  I75  1  0.83405884  0.33543498  0.16389580  1
  I  I76  1  0.83807171  0.33023539  0.49688483  1
  I  I77  1  0.83601406  0.33618939  0.84062189  1
  I  I78  1  0.84120122  0.66699787  0.16507281  1
  I  I79  1  0.83335257  0.66657331  0.50118287  1
  I  I80  1  0.84162864  0.66208143  0.83124661  1
  I  I81  1  0.17118282  0.16700935  0.00020452  1
  I  I82  1  0.16642564  0.16635981  0.33352441  1
  I  I83  1  0.16701954  0.16727272  0.66630751  1
  I  I84  1  0.16303472  0.49515057  -0.00257538  1
  I  I85  1  0.16471210  0.49704728  0.33563811  1
  I  I86  1  0.16112113  0.49618261  0.66678685  1
  I  I87  1  0.16176564  0.83759038  0.00343662  1
  I  I88  1  0.16676808  0.83676421  0.33367238  1
  I  I89  1  0.17077586  0.83626605  0.66359648  1
  I  I90  1  0.49215516  0.16644220  0.00019616  1
  I  I91  1  0.49760596  0.16465540  0.33121087  1
  I  I92  1  0.49636794  0.16586916  0.66888604  1
  I  I93  1  0.49478499  0.50344208  0.00009411  1
  I  I94  1  0.50078589  0.49551784  0.33343628  1
  I  I95  1  0.50587452  0.49716390  0.66657771  1
  I  I96  1  0.49965018  0.83240715  0.00014592  1
  I  I97  1  0.49710591  0.83801036  0.33588307  1
  I  I98  1  0.49195564  0.83608161  0.66261102  1
  I  I99  1  0.83451737  0.16548331  -0.00005111  1
  I  I100  1  0.83760222  0.16839049  0.33591179  1
  I  I101  1  0.83738410  0.16725196  0.66321351  1
  I  I102  1  0.84130262  0.50119033  -0.00008822  1
  I  I103  1  0.83513045  0.50209534  0.33094686  1
  I  I104  1  0.83568811  0.49626226  0.66898685  1
  I  I105  1  0.84053779  0.83609283  0.00462274  1
  I  I106  1  0.83552989  0.82782114  0.33028691  1
  I  I107  1  0.83280243  0.83373371  0.66648648  1
  I  I108  1  0.00321967  0.16587978  0.16530901  1
  I  I109  1  0.00281664  0.16458869  0.49905918  1
  I  I110  1  0.00346132  0.16883525  0.83569177  1
  I  I111  1  -0.00220678  0.49830466  0.16601382  1
  I  I112  1  0.00379125  0.50363674  0.50089820  1
  I  I113  1  0.00133684  0.49298399  0.83346337  1
  I  I114  1  0.00144963  0.83612742  0.17322653  1
  I  I115  1  0.00365328  0.83271932  0.49766661  1
  I  I116  1  0.00017015  0.83898217  0.82848984  1
  I  I117  1  0.33113560  0.16116289  0.16883001  1
  I  I118  1  0.32972931  0.16779840  0.50004323  1
  I  I119  1  0.33118884  0.17218813  0.83146951  1
  I  I120  1  0.33320515  0.50262282  0.16641321  1
  I  I121  1  0.32803866  0.49204258  0.50541511  1
  I  I122  1  0.32975105  0.49744081  0.82821555  1
  I  I123  1  0.33015092  0.83583770  0.16955067  1
  I  I124  1  0.33058777  0.83654309  0.49417314  1
  I  I125  1  0.33301806  0.82768220  0.83800894  1
  I  I126  1  0.66466077  0.16663820  0.16441151  1
  I  I127  1  0.66832263  0.16490323  0.49864042  1
  I  I128  1  0.66442981  0.16728436  0.83675318  1
  I  I129  1  0.67147200  0.50553919  0.16070081  1
  I  I130  1  0.66684654  0.49832980  0.50023941  1
  I  I131  1  0.66941169  0.49852632  0.83801685  1
  I  I132  1  0.66903046  0.83131906  0.16889850  1
  I  I133  1  0.66502813  0.83839540  0.49815303  1
  I  I134  1  0.66671955  0.83471332  0.83221616  1
