# generated using pymatgen
data_Cs27Sn13Pb14I81
_symmetry_space_group_name_H-M   'P 1'
_cell_length_a   18.96936764
_cell_length_b   18.97674212
_cell_length_c   18.98658358
_cell_angle_alpha   90.00079595
_cell_angle_beta   89.99945096
_cell_angle_gamma   90.00063977
_symmetry_Int_Tables_number   1
_chemical_formula_structural   Cs27Sn13Pb14I81
_chemical_formula_sum   'Cs27 Sn13 Pb14 I81'
_cell_volume   6834.72956061
_cell_formula_units_Z   1
loop_
 _symmetry_equiv_pos_site_id
 _symmetry_equiv_pos_as_xyz
  1  'x, y, z'
loop_
 _atom_site_type_symbol
 _atom_site_label
 _atom_site_symmetry_multiplicity
 _atom_site_fract_x
 _atom_site_fract_y
 _atom_site_fract_z
 _atom_site_occupancy
  Cs  Cs0  1  -0.00068511  -0.00054733  0.00352732  1
  Cs  Cs1  1  0.00042028  -0.00025999  0.33162685  1
  Cs  Cs2  1  -0.00111827  -0.00243435  0.66572463  1
  Cs  Cs3  1  -0.00084608  0.33446610  -0.00068725  1
  Cs  Cs4  1  -0.00037052  0.33256677  0.33320941  1
  Cs  Cs5  1  0.00031150  0.33459801  0.66655891  1
  Cs  Cs6  1  0.00048511  0.66645845  -0.00111571  1
  Cs  Cs7  1  0.00078637  0.66787883  0.33470389  1
  Cs  Cs8  1  0.00006394  0.66719581  0.66669364  1
  Cs  Cs9  1  0.34009158  0.00530178  0.00564897  1
  Cs  Cs10  1  0.33871697  0.00548757  0.32770916  1
  Cs  Cs11  1  0.34005809  0.00773965  0.66642257  1
  Cs  Cs12  1  0.33522677  0.33159448  -0.00200807  1
  Cs  Cs13  1  0.34153956  0.32857538  0.33578893  1
  Cs  Cs14  1  0.33108160  0.32484700  0.66729561  1
  Cs  Cs15  1  0.33231202  0.66674629  0.00195614  1
  Cs  Cs16  1  0.33685905  0.66811215  0.32979828  1
  Cs  Cs17  1  0.32875032  0.66812822  0.66808921  1
  Cs  Cs18  1  0.66556423  0.00224658  -0.00074501  1
  Cs  Cs19  1  0.66506616  0.00196900  0.33311431  1
  Cs  Cs20  1  0.66512399  -0.00254545  0.66740804  1
  Cs  Cs21  1  0.66830649  0.33373055  0.00279558  1
  Cs  Cs22  1  0.66018720  0.33581993  0.33227084  1
  Cs  Cs23  1  0.66871297  0.33583851  0.66434929  1
  Cs  Cs24  1  0.66734835  0.66638447  -0.00182919  1
  Cs  Cs25  1  0.66174695  0.66382549  0.33589908  1
  Cs  Cs26  1  0.66722196  0.66727019  0.66546468  1
  Sn  Sn27  1  0.16636092  0.50064482  0.49976659  1
  Sn  Sn28  1  0.83405689  0.83397695  0.49984285  1
  Sn  Sn29  1  0.49971380  0.50061136  0.83271005  1
  Sn  Sn30  1  0.83424935  0.83342102  0.83339373  1
  Sn  Sn31  1  0.83360032  0.83197796  0.16684792  1
  Sn  Sn32  1  0.83413045  0.16649945  0.83225156  1
  Sn  Sn33  1  0.83341312  0.50011914  0.83384228  1
  Sn  Sn34  1  0.16648031  0.83299926  0.50064186  1
  Sn  Sn35  1  0.16625865  0.83339002  0.83284013  1
  Sn  Sn36  1  0.83405975  0.16584458  0.50071836  1
  Sn  Sn37  1  0.16669765  0.50072586  0.83324508  1
  Sn  Sn38  1  0.83449344  0.50125492  0.16632082  1
  Sn  Sn39  1  0.16580582  0.49993036  0.16691152  1
  Pb  Pb40  1  0.83355931  0.16699119  0.16690653  1
  Pb  Pb41  1  0.16624421  0.16990268  0.16664866  1
  Pb  Pb42  1  0.16454512  0.16562747  0.50006027  1
  Pb  Pb43  1  0.50346393  0.16952668  0.83325765  1
  Pb  Pb44  1  0.49928468  0.83141349  0.83326196  1
  Pb  Pb45  1  0.16511543  0.83181031  0.16655511  1
  Pb  Pb46  1  0.16433325  0.16562940  0.83351038  1
  Pb  Pb47  1  0.50333993  0.83285865  0.16640285  1
  Pb  Pb48  1  0.83470685  0.50039720  0.49970200  1
  Pb  Pb49  1  0.49990863  0.50031882  0.16432520  1
  Pb  Pb50  1  0.49899063  0.83309251  0.50030589  1
  Pb  Pb51  1  0.49578776  0.50046246  0.50314232  1
  Pb  Pb52  1  0.50368446  0.16661123  0.50037298  1
  Pb  Pb53  1  0.50038476  0.16691420  0.16632155  1
  I  I54  1  0.16460186  -0.00046962  0.16664416  1
  I  I55  1  0.16228051  -0.00409262  0.50642276  1
  I  I56  1  0.15984398  -0.00404235  0.82728792  1
  I  I57  1  0.15801635  0.33903123  0.16488059  1
  I  I58  1  0.16432471  0.33628057  0.50157137  1
  I  I59  1  0.16551941  0.33697302  0.83297028  1
  I  I60  1  0.16349657  0.66323436  0.16536991  1
  I  I61  1  0.15928379  0.66669421  0.50230898  1
  I  I62  1  0.16168874  0.66541892  0.83233497  1
  I  I63  1  0.50099988  -0.00016700  0.16576642  1
  I  I64  1  0.49638209  -0.00004696  0.50097552  1
  I  I65  1  0.50018264  0.00013863  0.83338315  1
  I  I66  1  0.50315207  0.33408166  0.16623473  1
  I  I67  1  0.50101549  0.33364851  0.50002765  1
  I  I68  1  0.49785565  0.33767706  0.83391997  1
  I  I69  1  0.49937097  0.66624728  0.16664198  1
  I  I70  1  0.50746250  0.66653710  0.49990795  1
  I  I71  1  0.50547916  0.66333434  0.83399529  1
  I  I72  1  0.83325570  -0.00313131  0.16390417  1
  I  I73  1  0.83842243  -0.00159083  0.50312300  1
  I  I74  1  0.83802763  -0.00140729  0.83321283  1
  I  I75  1  0.83686508  0.33689836  0.16241346  1
  I  I76  1  0.83554290  0.33175962  0.50424323  1
  I  I77  1  0.83335449  0.33482612  0.83347705  1
  I  I78  1  0.83721981  0.66601478  0.16233285  1
  I  I79  1  0.83542937  0.66959170  0.50249859  1
  I  I80  1  0.83358980  0.66639898  0.83396984  1
  I  I81  1  0.16308539  0.16654662  -0.00020246  1
  I  I82  1  0.16241914  0.16680754  0.33350419  1
  I  I83  1  0.16639048  0.17325631  0.66682407  1
  I  I84  1  0.16509739  0.50357972  -0.00138163  1
  I  I85  1  0.15842937  0.50414270  0.33335754  1
  I  I86  1  0.16520548  0.50379496  0.66784737  1
  I  I87  1  0.16059485  0.82740062  -0.00316612  1
  I  I88  1  0.15984583  0.82753445  0.33619285  1
  I  I89  1  0.15657874  0.82279579  0.66723642  1
  I  I90  1  0.50248911  0.16720234  -0.00062751  1
  I  I91  1  0.50216064  0.16830288  0.33355097  1
  I  I92  1  0.49829307  0.16792266  0.66698769  1
  I  I93  1  0.49789145  0.50036417  -0.00353637  1
  I  I94  1  0.50165105  0.49878276  0.33344908  1
  I  I95  1  0.50565748  0.50085870  0.67080979  1
  I  I96  1  0.49982662  0.83211744  -0.00030543  1
  I  I97  1  0.50011746  0.83233107  0.33336716  1
  I  I98  1  0.50600785  0.83148559  0.66684565  1
  I  I99  1  0.83323543  0.16569980  -0.00304359  1
  I  I100  1  0.83466160  0.16321034  0.33627540  1
  I  I101  1  0.83410553  0.16511425  0.66753737  1
  I  I102  1  0.83669088  0.50173619  -0.00149988  1
  I  I103  1  0.83848811  0.50227695  0.33071700  1
  I  I104  1  0.83377044  0.50096839  0.66972902  1
  I  I105  1  0.83680105  0.83235093  -0.00129908  1
  I  I106  1  0.83785387  0.83390956  0.33394323  1
  I  I107  1  0.83638527  0.83345710  0.66742892  1
  I  I108  1  -0.00069509  0.16601812  0.16640469  1
  I  I109  1  -0.00361939  0.16580998  0.50452300  1
  I  I110  1  -0.00406402  0.17234202  0.83003223  1
  I  I111  1  -0.00094054  0.50327087  0.16081828  1
  I  I112  1  0.00273359  0.50087098  0.50466334  1
  I  I113  1  -0.00038293  0.50019862  0.83428867  1
  I  I114  1  -0.00364057  0.83114055  0.16599632  1
  I  I115  1  -0.00115390  0.83260171  0.50177482  1
  I  I116  1  -0.00144055  0.82806090  0.83216262  1
  I  I117  1  0.33325297  0.16737102  0.16673535  1
  I  I118  1  0.33327920  0.16755219  0.49947837  1
  I  I119  1  0.33335506  0.16735059  0.83360851  1
  I  I120  1  0.32988469  0.50021438  0.16546963  1
  I  I121  1  0.32760673  0.50673024  0.49815865  1
  I  I122  1  0.33148098  0.50570531  0.83379423  1
  I  I123  1  0.33290465  0.83158735  0.16649386  1
  I  I124  1  0.32883828  0.82622666  0.50637159  1
  I  I125  1  0.32924856  0.82598800  0.82761890  1
  I  I126  1  0.66770332  0.16923037  0.16678147  1
  I  I127  1  0.67200765  0.16144318  0.50444147  1
  I  I128  1  0.67192206  0.16507763  0.83017318  1
  I  I129  1  0.67027582  0.50247470  0.16208526  1
  I  I130  1  0.66672423  0.49904451  0.49975033  1
  I  I131  1  0.66892358  0.49947385  0.83834150  1
  I  I132  1  0.67252741  0.82685846  0.16575524  1
  I  I133  1  0.67060774  0.83722287  0.50121263  1
  I  I134  1  0.67063244  0.83240052  0.83292937  1
