# generated using pymatgen
data_Cs27Sn13Pb14I81
_symmetry_space_group_name_H-M   'P 1'
_cell_length_a   18.98677820
_cell_length_b   18.98726760
_cell_length_c   19.00123042
_cell_angle_alpha   90.00037763
_cell_angle_beta   89.99984673
_cell_angle_gamma   90.00011349
_symmetry_Int_Tables_number   1
_chemical_formula_structural   Cs27Sn13Pb14I81
_chemical_formula_sum   'Cs27 Sn13 Pb14 I81'
_cell_volume   6850.07730671
_cell_formula_units_Z   1
loop_
 _symmetry_equiv_pos_site_id
 _symmetry_equiv_pos_as_xyz
  1  'x, y, z'
loop_
 _atom_site_type_symbol
 _atom_site_label
 _atom_site_symmetry_multiplicity
 _atom_site_fract_x
 _atom_site_fract_y
 _atom_site_fract_z
 _atom_site_occupancy
  Cs  Cs0  1  -0.00176272  0.00047025  -0.00036283  1
  Cs  Cs1  1  0.00015813  -0.00161881  0.33356604  1
  Cs  Cs2  1  -0.00349658  -0.00152644  0.66703659  1
  Cs  Cs3  1  0.00107500  0.33333749  -0.00112854  1
  Cs  Cs4  1  0.00789872  0.33421644  0.33374520  1
  Cs  Cs5  1  -0.00422969  0.34297525  0.66720057  1
  Cs  Cs6  1  0.00570763  0.66825091  -0.00197703  1
  Cs  Cs7  1  -0.00040595  0.66862234  0.33536807  1
  Cs  Cs8  1  0.00107593  0.66274570  0.66624229  1
  Cs  Cs9  1  0.33229296  0.00045417  -0.00406346  1
  Cs  Cs10  1  0.33118819  0.00237460  0.33934979  1
  Cs  Cs11  1  0.33489543  -0.00095081  0.66590691  1
  Cs  Cs12  1  0.33604706  0.33252914  0.00245776  1
  Cs  Cs13  1  0.32807499  0.33066027  0.33294755  1
  Cs  Cs14  1  0.33509418  0.33020734  0.66317795  1
  Cs  Cs15  1  0.33166029  0.66797577  -0.00604653  1
  Cs  Cs16  1  0.33373285  0.66669971  0.33306712  1
  Cs  Cs17  1  0.33280412  0.67057816  0.67369758  1
  Cs  Cs18  1  0.66891689  0.00148012  0.00280339  1
  Cs  Cs19  1  0.66773294  -0.00168356  0.33372192  1
  Cs  Cs20  1  0.66832944  0.00022345  0.66388652  1
  Cs  Cs21  1  0.66555592  0.33216672  -0.00036400  1
  Cs  Cs22  1  0.66575128  0.33458019  0.33131303  1
  Cs  Cs23  1  0.66828435  0.33452710  0.66922972  1
  Cs  Cs24  1  0.66368559  0.66774833  0.00758961  1
  Cs  Cs25  1  0.66633929  0.66649490  0.32935785  1
  Cs  Cs26  1  0.66661523  0.66453268  0.66461166  1
  Sn  Sn27  1  0.83388591  0.83368230  0.50086185  1
  Sn  Sn28  1  0.50057025  0.16700786  0.16642771  1
  Sn  Sn29  1  0.50033363  0.49914450  0.83363771  1
  Sn  Sn30  1  0.49978201  0.49994157  0.49962526  1
  Sn  Sn31  1  0.16697707  0.83370451  0.16740504  1
  Sn  Sn32  1  0.49938367  0.16717639  0.83392372  1
  Sn  Sn33  1  0.83301316  0.16776422  0.16792945  1
  Sn  Sn34  1  0.83341726  0.49883050  0.16673560  1
  Sn  Sn35  1  0.83268088  0.83305716  0.83261672  1
  Sn  Sn36  1  0.50046198  0.49891754  0.16681567  1
  Sn  Sn37  1  0.16695523  0.16699096  0.83296856  1
  Sn  Sn38  1  0.16605198  0.83343174  0.49938290  1
  Sn  Sn39  1  0.83340916  0.16683544  0.49891456  1
  Pb  Pb40  1  0.83084465  0.50262788  0.83640383  1
  Pb  Pb41  1  0.49719438  0.83415636  0.16673281  1
  Pb  Pb42  1  0.50218305  0.16850181  0.49975733  1
  Pb  Pb43  1  0.16958653  0.50268769  0.50014444  1
  Pb  Pb44  1  0.83174741  0.50008259  0.49764103  1
  Pb  Pb45  1  0.83480443  0.83342061  0.16719319  1
  Pb  Pb46  1  0.16718142  0.50212681  0.16663595  1
  Pb  Pb47  1  0.16934945  0.49692769  0.83336430  1
  Pb  Pb48  1  0.50043855  0.83109372  0.49991572  1
  Pb  Pb49  1  0.83270425  0.16582983  0.83351917  1
  Pb  Pb50  1  0.16359861  0.16489895  0.50278459  1
  Pb  Pb51  1  0.16675644  0.16478900  0.16533312  1
  Pb  Pb52  1  0.50275221  0.83415236  0.83348055  1
  Pb  Pb53  1  0.16457802  0.83526268  0.83267340  1
  I  I54  1  0.16516021  -0.00280603  0.16973018  1
  I  I55  1  0.16616120  -0.00307536  0.49566330  1
  I  I56  1  0.17427950  0.00271896  0.83436300  1
  I  I57  1  0.16609156  0.33314461  0.16485611  1
  I  I58  1  0.16559134  0.33315785  0.50101866  1
  I  I59  1  0.16551369  0.32914455  0.83539489  1
  I  I60  1  0.16507254  0.66997794  0.16969985  1
  I  I61  1  0.15870696  0.67068882  0.49663549  1
  I  I62  1  0.16770415  0.66678775  0.83375944  1
  I  I63  1  0.50496159  0.00377003  0.16081122  1
  I  I64  1  0.49875094  0.00015143  0.50008066  1
  I  I65  1  0.49710350  0.00361173  0.83880977  1
  I  I66  1  0.50460741  0.33334906  0.16493445  1
  I  I67  1  0.50317208  0.33636206  0.50032438  1
  I  I68  1  0.49673422  0.33295993  0.83482164  1
  I  I69  1  0.50462266  0.66343842  0.16623383  1
  I  I70  1  0.50205504  0.66299742  0.49921787  1
  I  I71  1  0.50225098  0.66378270  0.83461639  1
  I  I72  1  0.82957725  0.00275596  0.16667752  1
  I  I73  1  0.83540515  -0.00034340  0.49806176  1
  I  I74  1  0.83188191  -0.00212407  0.83418199  1
  I  I75  1  0.82845388  0.33225071  0.17115262  1
  I  I76  1  0.83020085  0.33080288  0.49887738  1
  I  I77  1  0.83591777  0.33350780  0.83011836  1
  I  I78  1  0.82815358  0.66447094  0.16619994  1
  I  I79  1  0.83608111  0.66951150  0.50259348  1
  I  I80  1  0.83360349  0.67017635  0.82754296  1
  I  I81  1  0.16635463  0.16239997  -0.00233893  1
  I  I82  1  0.16918878  0.16627268  0.33358474  1
  I  I83  1  0.17444487  0.16300451  0.67011339  1
  I  I84  1  0.16710792  0.50560769  0.00002513  1
  I  I85  1  0.16986520  0.49797333  0.33331255  1
  I  I86  1  0.16720681  0.50285462  0.66679409  1
  I  I87  1  0.16474830  0.83384709  0.00155468  1
  I  I88  1  0.16000903  0.83385723  0.33405429  1
  I  I89  1  0.16411514  0.83452213  0.66393869  1
  I  I90  1  0.50203514  0.17410893  0.00044461  1
  I  I91  1  0.50261113  0.17060782  0.33032171  1
  I  I92  1  0.49772770  0.17062639  0.66930229  1
  I  I93  1  0.50444082  0.49567190  0.00062334  1
  I  I94  1  0.50484322  0.49812296  0.33187623  1
  I  I95  1  0.49943770  0.49677310  0.66737441  1
  I  I96  1  0.50009842  0.82843677  0.00011288  1
  I  I97  1  0.50413422  0.83211511  0.33325002  1
  I  I98  1  0.49584251  0.83245135  0.66673224  1
  I  I99  1  0.83193723  0.16760228  0.00274617  1
  I  I100  1  0.82691220  0.16291687  0.33229505  1
  I  I101  1  0.83307002  0.16175604  0.66465386  1
  I  I102  1  0.82742100  0.49520340  0.00397178  1
  I  I103  1  0.82539498  0.50180461  0.33005579  1
  I  I104  1  0.83096741  0.49820337  0.66670091  1
  I  I105  1  0.83470027  0.83408510  -0.00130278  1
  I  I106  1  0.83592000  0.83448372  0.33587396  1
  I  I107  1  0.83817195  0.84003489  0.66521190  1
  I  I108  1  -0.00312301  0.16898990  0.16813955  1
  I  I109  1  -0.00423974  0.16460479  0.49444495  1
  I  I110  1  0.00137172  0.16070047  0.83439172  1
  I  I111  1  -0.00293387  0.49643048  0.16782329  1
  I  I112  1  -0.00020617  0.49830504  0.49832960  1
  I  I113  1  -0.00032128  0.49940799  0.83453437  1
  I  I114  1  0.00234018  0.83382030  0.16721178  1
  I  I115  1  -0.00112554  0.83773963  0.49932169  1
  I  I116  1  -0.00306451  0.83704846  0.83336179  1
  I  I117  1  0.33647088  0.17064962  0.16378456  1
  I  I118  1  0.33339068  0.16578377  0.49818347  1
  I  I119  1  0.33505859  0.16908457  0.83986138  1
  I  I120  1  0.33729487  0.49630559  0.16652282  1
  I  I121  1  0.33777417  0.49985675  0.49646607  1
  I  I122  1  0.33782334  0.50212752  0.83731423  1
  I  I123  1  0.32960679  0.83286834  0.17238975  1
  I  I124  1  0.33058787  0.83126850  0.49542166  1
  I  I125  1  0.33344296  0.83126693  0.83297383  1
  I  I126  1  0.66656135  0.16943474  0.16353693  1
  I  I127  1  0.66993636  0.15918630  0.50058975  1
  I  I128  1  0.66374179  0.16980381  0.83489712  1
  I  I129  1  0.66563500  0.49787654  0.16643722  1
  I  I130  1  0.66378392  0.50232167  0.50177299  1
  I  I131  1  0.66296285  0.49245024  0.83117302  1
  I  I132  1  0.66662776  0.83267659  0.16665948  1
  I  I133  1  0.67010263  0.83661505  0.50429817  1
  I  I134  1  0.67031624  0.83574795  0.82733977  1
