# generated using pymatgen
data_Cs27Sn14Pb13I81
_symmetry_space_group_name_H-M   'P 1'
_cell_length_a   18.96134557
_cell_length_b   18.98139855
_cell_length_c   18.98249018
_cell_angle_alpha   90.00026137
_cell_angle_beta   89.99757826
_cell_angle_gamma   89.99869482
_symmetry_Int_Tables_number   1
_chemical_formula_structural   Cs27Sn14Pb13I81
_chemical_formula_sum   'Cs27 Sn14 Pb13 I81'
_cell_volume   6832.04227200
_cell_formula_units_Z   1
loop_
 _symmetry_equiv_pos_site_id
 _symmetry_equiv_pos_as_xyz
  1  'x, y, z'
loop_
 _atom_site_type_symbol
 _atom_site_label
 _atom_site_symmetry_multiplicity
 _atom_site_fract_x
 _atom_site_fract_y
 _atom_site_fract_z
 _atom_site_occupancy
  Cs  Cs0  1  0.00088250  -0.00149239  0.00331232  1
  Cs  Cs1  1  0.00670167  0.01039713  0.34260552  1
  Cs  Cs2  1  0.00546532  -0.00229466  0.65448471  1
  Cs  Cs3  1  -0.00162960  0.33042693  0.00127733  1
  Cs  Cs4  1  0.00216373  0.32222773  0.33202644  1
  Cs  Cs5  1  -0.00650303  0.33452257  0.66757463  1
  Cs  Cs6  1  0.00066090  0.66802262  0.00061556  1
  Cs  Cs7  1  -0.00146514  0.66864559  0.33314958  1
  Cs  Cs8  1  -0.00361374  0.66708636  0.66496194  1
  Cs  Cs9  1  0.33351809  -0.00302136  -0.00368107  1
  Cs  Cs10  1  0.33260079  0.00200594  0.33505419  1
  Cs  Cs11  1  0.33207133  0.00101211  0.66839127  1
  Cs  Cs12  1  0.33311367  0.33536031  -0.00298933  1
  Cs  Cs13  1  0.33348462  0.33569456  0.33414375  1
  Cs  Cs14  1  0.33476886  0.33477716  0.66841601  1
  Cs  Cs15  1  0.33218302  0.66575367  -0.00062648  1
  Cs  Cs16  1  0.33599688  0.66314911  0.33133130  1
  Cs  Cs17  1  0.33435626  0.66427874  0.66861271  1
  Cs  Cs18  1  0.66643578  -0.00070537  0.00016356  1
  Cs  Cs19  1  0.66567952  -0.00226814  0.33083889  1
  Cs  Cs20  1  0.66620173  0.00055603  0.66957472  1
  Cs  Cs21  1  0.66838764  0.33130279  -0.00176549  1
  Cs  Cs22  1  0.66522832  0.33430294  0.33216355  1
  Cs  Cs23  1  0.67226699  0.33377912  0.67091674  1
  Cs  Cs24  1  0.66661612  0.66797287  0.00152233  1
  Cs  Cs25  1  0.66486905  0.66767979  0.33149516  1
  Cs  Cs26  1  0.66789084  0.66607168  0.66645743  1
  Sn  Sn27  1  0.83266525  0.50058990  0.16690587  1
  Sn  Sn28  1  0.83282274  0.83282144  0.16631251  1
  Sn  Sn29  1  0.49989309  0.83343224  0.16654417  1
  Sn  Sn30  1  0.49982155  0.16675563  0.16704680  1
  Sn  Sn31  1  0.16645820  0.16757023  0.83350447  1
  Sn  Sn32  1  0.50015673  0.16715538  0.49957583  1
  Sn  Sn33  1  0.49991098  0.49978216  0.50040384  1
  Sn  Sn34  1  0.83273666  0.83355788  0.83388395  1
  Sn  Sn35  1  0.50085839  0.83222189  0.83334277  1
  Sn  Sn36  1  0.50084091  0.49975559  0.16626087  1
  Sn  Sn37  1  0.16695968  0.49903643  0.83232500  1
  Sn  Sn38  1  0.50000037  0.83326740  0.50011492  1
  Sn  Sn39  1  0.49987689  0.50081246  0.83340230  1
  Sn  Sn40  1  0.16704086  0.50023180  0.50083076  1
  Pb  Pb41  1  0.83314606  0.49990561  0.49680024  1
  Pb  Pb42  1  0.83097458  0.83330392  0.49913172  1
  Pb  Pb43  1  0.83095069  0.16584119  0.16659578  1
  Pb  Pb44  1  0.83681510  0.16272895  0.83334041  1
  Pb  Pb45  1  0.16978526  0.83015952  0.49984435  1
  Pb  Pb46  1  0.83349379  0.50179615  0.83554346  1
  Pb  Pb47  1  0.16632011  0.50006589  0.16668392  1
  Pb  Pb48  1  0.16629367  0.83339523  0.16703733  1
  Pb  Pb49  1  0.16958725  0.16979181  0.50241518  1
  Pb  Pb50  1  0.16635227  0.83254392  0.83333679  1
  Pb  Pb51  1  0.16996995  0.16671038  0.16422503  1
  Pb  Pb52  1  0.49916902  0.16667579  0.83331696  1
  Pb  Pb53  1  0.83004735  0.16680118  0.50012227  1
  I  I54  1  0.16768240  0.00014568  0.16335043  1
  I  I55  1  0.16713171  0.00032586  0.50143709  1
  I  I56  1  0.16912798  0.00181380  0.83546455  1
  I  I57  1  0.16641952  0.33359580  0.16821481  1
  I  I58  1  0.17468155  0.33721334  0.50034672  1
  I  I59  1  0.17528646  0.33530949  0.83073831  1
  I  I60  1  0.17181648  0.66642782  0.16386341  1
  I  I61  1  0.17300761  0.66244514  0.50704360  1
  I  I62  1  0.17001027  0.66333130  0.83012252  1
  I  I63  1  0.50311156  -0.00105908  0.16878026  1
  I  I64  1  0.50212431  -0.00053065  0.49699827  1
  I  I65  1  0.50110383  -0.00284321  0.83371014  1
  I  I66  1  0.50286666  0.33454024  0.16932907  1
  I  I67  1  0.49539738  0.33444229  0.49608584  1
  I  I68  1  0.49697509  0.33633840  0.83378693  1
  I  I69  1  0.50298860  0.66645118  0.16860873  1
  I  I70  1  0.49641416  0.66616641  0.49796595  1
  I  I71  1  0.49748687  0.66618803  0.83347300  1
  I  I72  1  0.82653174  -0.00376250  0.16076283  1
  I  I73  1  0.83262040  -0.00025893  0.49893496  1
  I  I74  1  0.82429978  -0.00499237  0.84138954  1
  I  I75  1  0.82838980  0.33595736  0.16710380  1
  I  I76  1  0.83077040  0.33374582  0.49875113  1
  I  I77  1  0.83065149  0.33337244  0.83468030  1
  I  I78  1  0.82384473  0.66714009  0.16296948  1
  I  I79  1  0.83234464  0.66659108  0.50223513  1
  I  I80  1  0.83222612  0.66970257  0.83535613  1
  I  I81  1  0.16984435  0.17395471  -0.00335931  1
  I  I82  1  0.16482005  0.16714222  0.33375114  1
  I  I83  1  0.17105912  0.16696054  0.66978248  1
  I  I84  1  0.17185320  0.49740042  -0.00306869  1
  I  I85  1  0.17275448  0.50200529  0.33597845  1
  I  I86  1  0.17737597  0.49694964  0.66743891  1
  I  I87  1  0.17250620  0.83130539  -0.00014077  1
  I  I88  1  0.16693528  0.83144942  0.33355911  1
  I  I89  1  0.16625648  0.83635665  0.66675750  1
  I  I90  1  0.49827096  0.16672587  0.00250396  1
  I  I91  1  0.50024514  0.16660826  0.33312563  1
  I  I92  1  0.49703859  0.16582649  0.66423835  1
  I  I93  1  0.49894167  0.50222214  -0.00008658  1
  I  I94  1  0.49942116  0.50201351  0.33326365  1
  I  I95  1  0.49470498  0.50278645  0.66691790  1
  I  I96  1  0.50281837  0.83144318  0.00002728  1
  I  I97  1  0.50295832  0.83096146  0.33274037  1
  I  I98  1  0.50303706  0.83082067  0.66724823  1
  I  I99  1  0.83061277  0.16924976  -0.00003934  1
  I  I100  1  0.83685266  0.16522392  0.33307362  1
  I  I101  1  0.82964889  0.16629926  0.66703193  1
  I  I102  1  0.82793607  0.50211138  0.00326515  1
  I  I103  1  0.82711726  0.50764460  0.32906071  1
  I  I104  1  0.83087408  0.50136100  0.66676201  1
  I  I105  1  0.82385838  0.82912278  0.00056548  1
  I  I106  1  0.82660493  0.82744926  0.32963608  1
  I  I107  1  0.82860551  0.83323721  0.66924042  1
  I  I108  1  0.00002803  0.16705166  0.16561406  1
  I  I109  1  0.00070325  0.16695274  0.50037431  1
  I  I110  1  0.00436288  0.17529446  0.83422220  1
  I  I111  1  -0.00313290  0.50697644  0.16546447  1
  I  I112  1  0.00285912  0.50066484  0.50532142  1
  I  I113  1  0.00282041  0.49786699  0.82984009  1
  I  I114  1  -0.00397251  0.82545558  0.15817660  1
  I  I115  1  0.00006638  0.83241318  0.50074571  1
  I  I116  1  -0.00305647  0.83300343  0.84086469  1
  I  I117  1  0.33833809  0.16740896  0.17135172  1
  I  I118  1  0.33762633  0.16363812  0.49538254  1
  I  I119  1  0.33151240  0.16672249  0.83371694  1
  I  I120  1  0.33708226  0.50118650  0.16683705  1
  I  I121  1  0.33594148  0.50052253  0.49870593  1
  I  I122  1  0.33530956  0.50212814  0.83503736  1
  I  I123  1  0.33792303  0.83146192  0.16517535  1
  I  I124  1  0.33861193  0.83592689  0.50044894  1
  I  I125  1  0.33682048  0.83241804  0.83440911  1
  I  I126  1  0.66233928  0.16697541  0.16914995  1
  I  I127  1  0.66131877  0.16970935  0.49716229  1
  I  I128  1  0.66663033  0.16887310  0.83291015  1
  I  I129  1  0.66390419  0.50102600  0.16694279  1
  I  I130  1  0.66242505  0.50052589  0.50251961  1
  I  I131  1  0.66329441  0.50176358  0.83029326  1
  I  I132  1  0.66446950  0.83216847  0.16592873  1
  I  I133  1  0.66197810  0.82936700  0.49972111  1
  I  I134  1  0.66425361  0.82811562  0.83403226  1
