# generated using pymatgen
data_Cs27Sn14Pb13I81
_symmetry_space_group_name_H-M   'P 1'
_cell_length_a   18.97031503
_cell_length_b   18.98113888
_cell_length_c   18.97730339
_cell_angle_alpha   90.00069767
_cell_angle_beta   90.00088567
_cell_angle_gamma   89.99984546
_symmetry_Int_Tables_number   1
_chemical_formula_structural   Cs27Sn14Pb13I81
_chemical_formula_sum   'Cs27 Sn14 Pb13 I81'
_cell_volume   6833.31294236
_cell_formula_units_Z   1
loop_
 _symmetry_equiv_pos_site_id
 _symmetry_equiv_pos_as_xyz
  1  'x, y, z'
loop_
 _atom_site_type_symbol
 _atom_site_label
 _atom_site_symmetry_multiplicity
 _atom_site_fract_x
 _atom_site_fract_y
 _atom_site_fract_z
 _atom_site_occupancy
  Cs  Cs0  1  0.00076972  0.00000767  -0.00064812  1
  Cs  Cs1  1  -0.00144901  -0.00169481  0.33372816  1
  Cs  Cs2  1  0.00163355  -0.00104726  0.66680451  1
  Cs  Cs3  1  -0.00217874  0.33467013  0.00739889  1
  Cs  Cs4  1  -0.00302214  0.33443531  0.32718316  1
  Cs  Cs5  1  0.00237699  0.33326850  0.66591043  1
  Cs  Cs6  1  -0.00321692  0.66536314  0.00091651  1
  Cs  Cs7  1  0.00034488  0.66698326  0.33509867  1
  Cs  Cs8  1  0.00075104  0.66729030  0.66416303  1
  Cs  Cs9  1  0.33387886  0.00224690  0.00060102  1
  Cs  Cs10  1  0.33432065  -0.00321765  0.33286692  1
  Cs  Cs11  1  0.32921296  0.00166997  0.66680846  1
  Cs  Cs12  1  0.33325263  0.33095615  0.00235453  1
  Cs  Cs13  1  0.33430411  0.33506421  0.32975233  1
  Cs  Cs14  1  0.33292590  0.33383004  0.66682692  1
  Cs  Cs15  1  0.33537565  0.66751062  0.00187306  1
  Cs  Cs16  1  0.33470356  0.66870262  0.33311753  1
  Cs  Cs17  1  0.33309887  0.66270733  0.66511484  1
  Cs  Cs18  1  0.66300347  -0.00222587  -0.00252818  1
  Cs  Cs19  1  0.66704974  0.00059459  0.33611843  1
  Cs  Cs20  1  0.66649513  0.00286980  0.66636264  1
  Cs  Cs21  1  0.66710135  0.33574346  0.00098210  1
  Cs  Cs22  1  0.66777414  0.33003991  0.33465274  1
  Cs  Cs23  1  0.66301271  0.33269710  0.66455918  1
  Cs  Cs24  1  0.66699174  0.66585904  -0.00852741  1
  Cs  Cs25  1  0.66497025  0.66974721  0.33404856  1
  Cs  Cs26  1  0.66307618  0.66315250  0.67464247  1
  Sn  Sn27  1  0.83399762  0.83218464  0.49977225  1
  Sn  Sn28  1  0.16655095  0.83288190  0.83340457  1
  Sn  Sn29  1  0.50003467  0.16734788  0.16623353  1
  Sn  Sn30  1  0.83395889  0.16696262  0.83330359  1
  Sn  Sn31  1  0.16580708  0.49973510  0.50023563  1
  Sn  Sn32  1  0.16569224  0.83336038  0.16664971  1
  Sn  Sn33  1  0.16633578  0.49966920  0.83330651  1
  Sn  Sn34  1  0.16624182  0.16728451  0.83309704  1
  Sn  Sn35  1  0.83388178  0.83342531  0.16693707  1
  Sn  Sn36  1  0.16618166  0.83325887  0.50000829  1
  Sn  Sn37  1  0.50027770  0.49962228  0.16678551  1
  Sn  Sn38  1  0.16644912  0.16702722  0.49988124  1
  Sn  Sn39  1  0.49976825  0.16681317  0.83408130  1
  Sn  Sn40  1  0.83397278  0.50081954  0.50024099  1
  Pb  Pb41  1  0.49734211  0.49752880  0.83528859  1
  Pb  Pb42  1  0.83081377  0.50264065  0.16906372  1
  Pb  Pb43  1  0.49696630  0.83568971  0.83297553  1
  Pb  Pb44  1  0.50043678  0.83316036  0.50048454  1
  Pb  Pb45  1  0.16773391  0.50260268  0.16699647  1
  Pb  Pb46  1  0.49712925  0.16666468  0.50006488  1
  Pb  Pb47  1  0.49992499  0.50006406  0.49811449  1
  Pb  Pb48  1  0.83587669  0.49753051  0.83085652  1
  Pb  Pb49  1  0.83543831  0.83485359  0.83258015  1
  Pb  Pb50  1  0.50072999  0.83354912  0.16662368  1
  Pb  Pb51  1  0.83074816  0.16408514  0.16438984  1
  Pb  Pb52  1  0.83590575  0.16651877  0.50169968  1
  Pb  Pb53  1  0.16788875  0.16446954  0.16671571  1
  I  I54  1  0.16640532  -0.00357653  0.16687204  1
  I  I55  1  0.16433564  -0.00066462  0.50325104  1
  I  I56  1  0.16738025  0.00053131  0.83050078  1
  I  I57  1  0.16768541  0.33338365  0.16688837  1
  I  I58  1  0.16439220  0.33370497  0.50881269  1
  I  I59  1  0.16811225  0.33240135  0.82502711  1
  I  I60  1  0.16677044  0.67057742  0.16636765  1
  I  I61  1  0.16352678  0.66701758  0.50281184  1
  I  I62  1  0.16642370  0.66698183  0.83023389  1
  I  I63  1  0.49840830  0.00256944  0.16128322  1
  I  I64  1  0.49964937  0.00021391  0.49701424  1
  I  I65  1  0.49766919  0.00404720  0.84070391  1
  I  I66  1  0.49728732  0.33247920  0.16262736  1
  I  I67  1  0.50009774  0.33322933  0.50091265  1
  I  I68  1  0.49671051  0.32953413  0.83466600  1
  I  I69  1  0.49744871  0.66467654  0.16942539  1
  I  I70  1  0.49427108  0.66649125  0.49585103  1
  I  I71  1  0.49920083  0.66627474  0.83553367  1
  I  I72  1  0.83656329  -0.00351774  0.17380478  1
  I  I73  1  0.83784260  -0.00291291  0.49726338  1
  I  I74  1  0.83581399  0.00284287  0.83173625  1
  I  I75  1  0.83361488  0.33332070  0.16737442  1
  I  I76  1  0.83776546  0.33569705  0.50260916  1
  I  I77  1  0.83562481  0.32969431  0.83170723  1
  I  I78  1  0.83663932  0.67038837  0.16721443  1
  I  I79  1  0.84332862  0.66749663  0.49526374  1
  I  I80  1  0.83421645  0.66656173  0.83586341  1
  I  I81  1  0.16638433  0.16587442  -0.00327727  1
  I  I82  1  0.16878022  0.16620484  0.33608283  1
  I  I83  1  0.16881101  0.16234894  0.66775776  1
  I  I84  1  0.17000027  0.49895248  -0.00259597  1
  I  I85  1  0.16507563  0.49973699  0.33660736  1
  I  I86  1  0.16446755  0.50347958  0.66619522  1
  I  I87  1  0.16397736  0.83487363  -0.00029860  1
  I  I88  1  0.16406478  0.83377265  0.33418908  1
  I  I89  1  0.16351180  0.83501024  0.66620470  1
  I  I90  1  0.49611536  0.16956816  -0.00085910  1
  I  I91  1  0.49767921  0.16953148  0.33060858  1
  I  I92  1  0.50046529  0.16515669  0.66984908  1
  I  I93  1  0.49782723  0.49903033  0.00294972  1
  I  I94  1  0.49664832  0.49327519  0.33039129  1
  I  I95  1  0.50108364  0.49898973  0.66684042  1
  I  I96  1  0.49936150  0.83176098  -0.00000932  1
  I  I97  1  0.49415665  0.83611709  0.33318425  1
  I  I98  1  0.50077868  0.83534488  0.66686910  1
  I  I99  1  0.84042636  0.16490081  -0.00352355  1
  I  I100  1  0.83272011  0.16784470  0.33344421  1
  I  I101  1  0.82928279  0.16396559  0.66966264  1
  I  I102  1  0.83355561  0.50067612  -0.00012031  1
  I  I103  1  0.84161494  0.49968637  0.33690683  1
  I  I104  1  0.83493439  0.50776548  0.66302551  1
  I  I105  1  0.83773301  0.83659958  0.00202911  1
  I  I106  1  0.84183763  0.83103986  0.33413463  1
  I  I107  1  0.83889198  0.83169046  0.66346587  1
  I  I108  1  -0.00007875  0.16720851  0.16534000  1
  I  I109  1  0.00411108  0.16514215  0.50664708  1
  I  I110  1  0.00188439  0.16471952  0.82727630  1
  I  I111  1  -0.00010086  0.49902046  0.16459695  1
  I  I112  1  0.00177632  0.50163226  0.50372182  1
  I  I113  1  0.00424495  0.49820592  0.83274577  1
  I  I114  1  0.00120522  0.83379326  0.16779835  1
  I  I115  1  0.00173270  0.83315802  0.49921428  1
  I  I116  1  0.00404704  0.83718122  0.83294160  1
  I  I117  1  0.33575012  0.16729860  0.16121040  1
  I  I118  1  0.32870085  0.16573490  0.50598367  1
  I  I119  1  0.33182388  0.16567199  0.83354893  1
  I  I120  1  0.33547861  0.49796804  0.16775398  1
  I  I121  1  0.32953773  0.50082175  0.50339418  1
  I  I122  1  0.32907688  0.49933176  0.82623347  1
  I  I123  1  0.33046422  0.83379523  0.16729161  1
  I  I124  1  0.32901282  0.83327418  0.49895347  1
  I  I125  1  0.32810662  0.83569044  0.83357884  1
  I  I126  1  0.66285947  0.16837454  0.16166463  1
  I  I127  1  0.66689055  0.16625122  0.50181424  1
  I  I128  1  0.66631994  0.16519996  0.83821074  1
  I  I129  1  0.66331237  0.49650575  0.16826047  1
  I  I130  1  0.66980494  0.50507138  0.49744355  1
  I  I131  1  0.66673330  0.49883977  0.83234075  1
  I  I132  1  0.66972375  0.83468753  0.17349210  1
  I  I133  1  0.67066607  0.83005780  0.49276783  1
  I  I134  1  0.66690330  0.83574847  0.83446885  1
