# generated using pymatgen
data_Cs27Sn14Pb13I81
_symmetry_space_group_name_H-M   'P 1'
_cell_length_a   18.97545738
_cell_length_b   18.98433569
_cell_length_c   18.96805213
_cell_angle_alpha   89.99962750
_cell_angle_beta   90.00043001
_cell_angle_gamma   89.99867373
_symmetry_Int_Tables_number   1
_chemical_formula_structural   Cs27Sn14Pb13I81
_chemical_formula_sum   'Cs27 Sn14 Pb13 I81'
_cell_volume   6832.98381352
_cell_formula_units_Z   1
loop_
 _symmetry_equiv_pos_site_id
 _symmetry_equiv_pos_as_xyz
  1  'x, y, z'
loop_
 _atom_site_type_symbol
 _atom_site_label
 _atom_site_symmetry_multiplicity
 _atom_site_fract_x
 _atom_site_fract_y
 _atom_site_fract_z
 _atom_site_occupancy
  Cs  Cs0  1  -0.00053952  -0.00287002  0.00274153  1
  Cs  Cs1  1  0.00164000  0.00029691  0.33402443  1
  Cs  Cs2  1  -0.00034911  -0.00140113  0.66637861  1
  Cs  Cs3  1  0.00945561  0.33209821  0.00799908  1
  Cs  Cs4  1  -0.00315104  0.33495337  0.33029298  1
  Cs  Cs5  1  -0.00326395  0.33440089  0.66459084  1
  Cs  Cs6  1  0.00264079  0.67197512  -0.00171298  1
  Cs  Cs7  1  -0.00157022  0.66491605  0.33524734  1
  Cs  Cs8  1  -0.00065551  0.66804097  0.66717036  1
  Cs  Cs9  1  0.33134947  0.00369987  -0.00336803  1
  Cs  Cs10  1  0.33361427  -0.00296560  0.33650491  1
  Cs  Cs11  1  0.33485097  0.00097938  0.66474440  1
  Cs  Cs12  1  0.32870354  0.33520700  0.00170841  1
  Cs  Cs13  1  0.33350937  0.33298499  0.33444195  1
  Cs  Cs14  1  0.33526657  0.33289512  0.66661695  1
  Cs  Cs15  1  0.33175195  0.66124907  0.00180329  1
  Cs  Cs16  1  0.33489551  0.67035962  0.33237303  1
  Cs  Cs17  1  0.33401156  0.66552023  0.66616906  1
  Cs  Cs18  1  0.67004850  -0.00044847  -0.00075612  1
  Cs  Cs19  1  0.66540668  -0.00120322  0.33183323  1
  Cs  Cs20  1  0.66531044  0.00225504  0.66666021  1
  Cs  Cs21  1  0.66375072  0.33166919  -0.00466796  1
  Cs  Cs22  1  0.66980218  0.33484548  0.33271996  1
  Cs  Cs23  1  0.66678179  0.33310806  0.66745747  1
  Cs  Cs24  1  0.66739576  0.66925160  0.00436758  1
  Cs  Cs25  1  0.66672282  0.66666474  0.32428023  1
  Cs  Cs26  1  0.66637239  0.66308759  0.66707969  1
  Sn  Sn27  1  0.49965473  0.49942855  0.50029333  1
  Sn  Sn28  1  0.50037146  0.16754266  0.49975066  1
  Sn  Sn29  1  0.16753526  0.49997844  0.50045026  1
  Sn  Sn30  1  0.16643379  0.16706579  0.50036788  1
  Sn  Sn31  1  0.50086810  0.49995844  0.83249126  1
  Sn  Sn32  1  0.16694830  0.83356323  0.16738722  1
  Sn  Sn33  1  0.83325945  0.83391964  0.50030822  1
  Sn  Sn34  1  0.83325825  0.16780912  0.83276448  1
  Sn  Sn35  1  0.16583594  0.83319777  0.49958370  1
  Sn  Sn36  1  0.83302643  0.49883745  0.83339488  1
  Sn  Sn37  1  0.50057056  0.16685695  0.83338770  1
  Sn  Sn38  1  0.50014708  0.16677366  0.16678565  1
  Sn  Sn39  1  0.83302523  0.16568777  0.50071234  1
  Sn  Sn40  1  0.49983796  0.83311690  0.83323413  1
  Pb  Pb41  1  0.16903093  0.16482358  0.16974136  1
  Pb  Pb42  1  0.16594427  0.16672074  0.83114868  1
  Pb  Pb43  1  0.16903671  0.83341410  0.83254104  1
  Pb  Pb44  1  0.83128483  0.16681846  0.16640806  1
  Pb  Pb45  1  0.49781679  0.83589179  0.16345151  1
  Pb  Pb46  1  0.83262441  0.49992340  0.50106589  1
  Pb  Pb47  1  0.83126421  0.83365616  0.83122711  1
  Pb  Pb48  1  0.83560345  0.83361101  0.16966488  1
  Pb  Pb49  1  0.50015771  0.49762522  0.16659342  1
  Pb  Pb50  1  0.83322741  0.49970743  0.16204667  1
  Pb  Pb51  1  0.16648239  0.49976287  0.83111044  1
  Pb  Pb52  1  0.50037129  0.83284126  0.50115864  1
  Pb  Pb53  1  0.16681673  0.50240652  0.17007426  1
  I  I54  1  0.16793321  -0.00275750  0.17355660  1
  I  I55  1  0.16703741  0.00029519  0.49665729  1
  I  I56  1  0.16885247  0.00007275  0.83032856  1
  I  I57  1  0.16742062  0.33317002  0.16639264  1
  I  I58  1  0.16867904  0.33282198  0.50298485  1
  I  I59  1  0.17091660  0.33322764  0.83212919  1
  I  I60  1  0.16827504  0.67018166  0.17241599  1
  I  I61  1  0.16695723  0.66690454  0.49692082  1
  I  I62  1  0.16707001  0.66662001  0.83028392  1
  I  I63  1  0.49926409  0.00359587  0.16961934  1
  I  I64  1  0.49761677  0.00300923  0.50173027  1
  I  I65  1  0.50245988  0.00186627  0.83200623  1
  I  I66  1  0.49906501  0.32969311  0.16382508  1
  I  I67  1  0.49643415  0.33216154  0.50415363  1
  I  I68  1  0.50452903  0.33266810  0.83131325  1
  I  I69  1  0.49886171  0.66679826  0.16695206  1
  I  I70  1  0.49638515  0.66396258  0.50649777  1
  I  I71  1  0.50259171  0.66532580  0.82629794  1
  I  I72  1  0.83265974  0.00014857  0.16176821  1
  I  I73  1  0.83614660  0.00155845  0.50551789  1
  I  I74  1  0.82784412  0.00312614  0.83036044  1
  I  I75  1  0.83429063  0.33304232  0.17386047  1
  I  I76  1  0.83521096  0.33030176  0.50207352  1
  I  I77  1  0.82284161  0.33213558  0.82453985  1
  I  I78  1  0.83220628  0.66687602  0.16823962  1
  I  I79  1  0.83778440  0.66862064  0.50267900  1
  I  I80  1  0.82854660  0.66435680  0.83037660  1
  I  I81  1  0.16715910  0.16411292  0.00022266  1
  I  I82  1  0.16647433  0.16856807  0.33834087  1
  I  I83  1  0.17215931  0.16301506  0.66238116  1
  I  I84  1  0.16665486  0.50246120  0.00007343  1
  I  I85  1  0.17266747  0.49677331  0.33860574  1
  I  I86  1  0.16920974  0.50279527  0.66263420  1
  I  I87  1  0.16973923  0.83374519  0.00227448  1
  I  I88  1  0.16421908  0.83425077  0.33595842  1
  I  I89  1  0.16377595  0.83384017  0.66271377  1
  I  I90  1  0.50513343  0.16537882  -0.00175904  1
  I  I91  1  0.49889985  0.17049831  0.33543616  1
  I  I92  1  0.49996028  0.16693026  0.66631380  1
  I  I93  1  0.50454605  0.49976380  -0.00373149  1
  I  I94  1  0.49538542  0.49587114  0.33682078  1
  I  I95  1  0.49903484  0.49541029  0.66664079  1
  I  I96  1  0.49913208  0.83258283  -0.00448852  1
  I  I97  1  0.50169066  0.83367653  0.33338021  1
  I  I98  1  0.49792740  0.83800708  0.66899331  1
  I  I99  1  0.82676210  0.17034896  -0.00372911  1
  I  I100  1  0.83282492  0.16248521  0.33710857  1
  I  I101  1  0.82839905  0.16627151  0.66567180  1
  I  I102  1  0.82449805  0.49436584  -0.00602762  1
  I  I103  1  0.83338574  0.50044685  0.33363575  1
  I  I104  1  0.83108923  0.49852559  0.66902973  1
  I  I105  1  0.83462124  0.83323389  -0.00028704  1
  I  I106  1  0.83290941  0.83929729  0.33810278  1
  I  I107  1  0.84077415  0.83552503  0.66334167  1
  I  I108  1  0.00026300  0.16553094  0.16561193  1
  I  I109  1  -0.00033303  0.16533342  0.50546953  1
  I  I110  1  -0.00365875  0.17056596  0.82709849  1
  I  I111  1  0.00023541  0.49863558  0.16786775  1
  I  I112  1  0.00217100  0.49850576  0.50163380  1
  I  I113  1  -0.00314093  0.49575747  0.83016927  1
  I  I114  1  0.00362012  0.83480809  0.16732620  1
  I  I115  1  0.00076219  0.83652368  0.49744298  1
  I  I116  1  -0.00013972  0.83305300  0.83505289  1
  I  I117  1  0.33693674  0.16619460  0.16452390  1
  I  I118  1  0.33414753  0.16625056  0.50026102  1
  I  I119  1  0.33695335  0.16697281  0.83230974  1
  I  I120  1  0.33346500  0.49959651  0.16155869  1
  I  I121  1  0.33420513  0.49697891  0.50580313  1
  I  I122  1  0.33688005  0.49905537  0.83126959  1
  I  I123  1  0.33047491  0.83422513  0.17670780  1
  I  I124  1  0.33084276  0.83575414  0.49824403  1
  I  I125  1  0.33713856  0.83472289  0.82989255  1
  I  I126  1  0.66316496  0.16571281  0.17144256  1
  I  I127  1  0.66598365  0.16611029  0.50134870  1
  I  I128  1  0.66524584  0.16691153  0.82818790  1
  I  I129  1  0.66637169  0.50185441  0.17448382  1
  I  I130  1  0.66362380  0.49638121  0.50338844  1
  I  I131  1  0.66499725  0.49851085  0.82564099  1
  I  I132  1  0.66643114  0.83340693  0.16762558  1
  I  I133  1  0.66894180  0.83766970  0.50442403  1
  I  I134  1  0.66331827  0.83450400  0.83023228  1
