# generated using pymatgen
data_Cs27Sn13Pb14I81
_symmetry_space_group_name_H-M   'P 1'
_cell_length_a   18.98191806
_cell_length_b   18.97501230
_cell_length_c   18.97374100
_cell_angle_alpha   89.99889594
_cell_angle_beta   90.00035424
_cell_angle_gamma   89.99927065
_symmetry_Int_Tables_number   1
_chemical_formula_structural   Cs27Sn13Pb14I81
_chemical_formula_sum   'Cs27 Sn13 Pb14 I81'
_cell_volume   6834.00241709
_cell_formula_units_Z   1
loop_
 _symmetry_equiv_pos_site_id
 _symmetry_equiv_pos_as_xyz
  1  'x, y, z'
loop_
 _atom_site_type_symbol
 _atom_site_label
 _atom_site_symmetry_multiplicity
 _atom_site_fract_x
 _atom_site_fract_y
 _atom_site_fract_z
 _atom_site_occupancy
  Cs  Cs0  1  0.00142956  0.00211754  0.00077236  1
  Cs  Cs1  1  0.00114564  0.00129583  0.33240157  1
  Cs  Cs2  1  0.00506282  -0.00306631  0.66793712  1
  Cs  Cs3  1  0.00140535  0.33038959  0.00485177  1
  Cs  Cs4  1  -0.00503434  0.33829163  0.32599605  1
  Cs  Cs5  1  -0.00321563  0.33635486  0.66707134  1
  Cs  Cs6  1  -0.00531814  0.66798658  0.00056114  1
  Cs  Cs7  1  0.00209510  0.66072543  0.33412224  1
  Cs  Cs8  1  0.00010727  0.66675701  0.66547345  1
  Cs  Cs9  1  0.33101045  -0.00005864  -0.00099505  1
  Cs  Cs10  1  0.33284330  -0.00240086  0.33704067  1
  Cs  Cs11  1  0.32960759  -0.00062992  0.66449753  1
  Cs  Cs12  1  0.33383561  0.33279806  -0.00020285  1
  Cs  Cs13  1  0.33370866  0.33419480  0.33076949  1
  Cs  Cs14  1  0.33587132  0.33419640  0.66821105  1
  Cs  Cs15  1  0.33707391  0.66717085  -0.00096661  1
  Cs  Cs16  1  0.33221033  0.66781381  0.33482869  1
  Cs  Cs17  1  0.33336291  0.66607680  0.66598949  1
  Cs  Cs18  1  0.66713178  -0.00695513  0.00173327  1
  Cs  Cs19  1  0.66956420  0.00244091  0.33336385  1
  Cs  Cs20  1  0.66738762  0.00317119  0.66479750  1
  Cs  Cs21  1  0.66425378  0.33449200  -0.00374949  1
  Cs  Cs22  1  0.67055808  0.32936469  0.33420435  1
  Cs  Cs23  1  0.66613651  0.33212566  0.66822328  1
  Cs  Cs24  1  0.66596725  0.67220494  0.00123696  1
  Cs  Cs25  1  0.66712438  0.66807291  0.33058439  1
  Cs  Cs26  1  0.66605010  0.66605255  0.66795149  1
  Sn  Sn27  1  0.16664275  0.49998002  0.83351846  1
  Sn  Sn28  1  0.50049105  0.83274583  0.50026606  1
  Sn  Sn29  1  0.50016463  0.49947938  0.83345583  1
  Sn  Sn30  1  0.50004029  0.50049016  0.49975698  1
  Sn  Sn31  1  0.49983291  0.16692191  0.16578343  1
  Sn  Sn32  1  0.16636171  0.16756134  0.49968825  1
  Sn  Sn33  1  0.83304909  0.49922634  0.83329726  1
  Sn  Sn34  1  0.83269681  0.16693626  0.83319324  1
  Sn  Sn35  1  0.16686483  0.83319406  0.16707828  1
  Sn  Sn36  1  0.83346848  0.83327666  0.50009683  1
  Sn  Sn37  1  0.50000160  0.49922077  0.16667848  1
  Sn  Sn38  1  0.16631871  0.83383441  0.49894687  1
  Sn  Sn39  1  0.50059766  0.16686228  0.83425276  1
  Pb  Pb40  1  0.83632253  0.83331966  0.16960072  1
  Pb  Pb41  1  0.49881036  0.16698475  0.50020273  1
  Pb  Pb42  1  0.83058115  0.50168882  0.50181440  1
  Pb  Pb43  1  0.83633817  0.16499663  0.50218947  1
  Pb  Pb44  1  0.16685744  0.16882785  0.83171341  1
  Pb  Pb45  1  0.16670063  0.83091131  0.83324827  1
  Pb  Pb46  1  0.83061555  0.16662571  0.16381545  1
  Pb  Pb47  1  0.16826896  0.49986491  0.50122400  1
  Pb  Pb48  1  0.16888168  0.50206808  0.16407705  1
  Pb  Pb49  1  0.49992601  0.83398498  0.83095028  1
  Pb  Pb50  1  0.49853352  0.83368282  0.16916566  1
  Pb  Pb51  1  0.83325855  0.83375348  0.83149265  1
  Pb  Pb52  1  0.83031573  0.49990502  0.16380050  1
  Pb  Pb53  1  0.16903168  0.16511511  0.16904929  1
  I  I54  1  0.16991280  -0.00295011  0.16847808  1
  I  I55  1  0.17034680  -0.00165658  0.49879935  1
  I  I56  1  0.16694791  0.00010380  0.83349000  1
  I  I57  1  0.16667657  0.33350202  0.16788940  1
  I  I58  1  0.17160180  0.33127753  0.50463314  1
  I  I59  1  0.16899619  0.33665587  0.83017692  1
  I  I60  1  0.16947398  0.66971519  0.17487449  1
  I  I61  1  0.16641350  0.66965098  0.49829468  1
  I  I62  1  0.16892324  0.66288324  0.83038640  1
  I  I63  1  0.49828025  0.00264317  0.16262560  1
  I  I64  1  0.49977415  -0.00247433  0.50030778  1
  I  I65  1  0.50460014  0.00354758  0.83655153  1
  I  I66  1  0.49834348  0.33408937  0.16727844  1
  I  I67  1  0.49669511  0.33602682  0.50167187  1
  I  I68  1  0.50030241  0.33458589  0.83112055  1
  I  I69  1  0.49849581  0.66390155  0.16347109  1
  I  I70  1  0.49730623  0.66639659  0.50130842  1
  I  I71  1  0.50060741  0.66326345  0.83524378  1
  I  I72  1  0.82981297  -0.00007527  0.16363071  1
  I  I73  1  0.82760297  -0.00321405  0.50290648  1
  I  I74  1  0.82757183  0.00315842  0.83124310  1
  I  I75  1  0.83730060  0.33334492  0.17122931  1
  I  I76  1  0.83332589  0.33341468  0.50030622  1
  I  I77  1  0.83083683  0.33404514  0.83106615  1
  I  I78  1  0.83019239  0.66662015  0.16302038  1
  I  I79  1  0.83816314  0.66981454  0.50311416  1
  I  I80  1  0.83183900  0.66352697  0.83172517  1
  I  I81  1  0.16548470  0.16466723  -0.00006221  1
  I  I82  1  0.17050665  0.16366215  0.33696314  1
  I  I83  1  0.17011419  0.15875357  0.66402905  1
  I  I84  1  0.16947824  0.50079321  -0.00395628  1
  I  I85  1  0.16974763  0.49942998  0.33321524  1
  I  I86  1  0.17048592  0.50198025  0.66938711  1
  I  I87  1  0.16892758  0.83133055  0.00253449  1
  I  I88  1  0.16845807  0.83681364  0.33535993  1
  I  I89  1  0.16735663  0.83599736  0.66319567  1
  I  I90  1  0.50196622  0.17527534  -0.00110650  1
  I  I91  1  0.49622086  0.16955737  0.33134996  1
  I  I92  1  0.50217465  0.17012961  0.66939964  1
  I  I93  1  0.49917954  0.49513230  -0.00111992  1
  I  I94  1  0.49753522  0.50082972  0.33356013  1
  I  I95  1  0.49953105  0.50052408  0.66770705  1
  I  I96  1  0.49773906  0.83086661  0.00022070  1
  I  I97  1  0.50030019  0.82947048  0.33727388  1
  I  I98  1  0.49631901  0.82921832  0.66266333  1
  I  I99  1  0.83373026  0.17078957  -0.00447093  1
  I  I100  1  0.83193801  0.16448345  0.33344227  1
  I  I101  1  0.82516333  0.17085435  0.67008660  1
  I  I102  1  0.83229631  0.49748130  -0.00465861  1
  I  I103  1  0.83246341  0.50184477  0.33332023  1
  I  I104  1  0.83043059  0.49737191  0.67017030  1
  I  I105  1  0.83490614  0.83278672  0.00001417  1
  I  I106  1  0.82901014  0.83380761  0.33768980  1
  I  I107  1  0.83578920  0.83258781  0.66344577  1
  I  I108  1  0.00018116  0.16433992  0.16571641  1
  I  I109  1  0.00392857  0.15978665  0.50357125  1
  I  I110  1  -0.00238666  0.17067324  0.82920573  1
  I  I111  1  0.00004800  0.50196781  0.16532057  1
  I  I112  1  -0.00010603  0.50196493  0.50418026  1
  I  I113  1  -0.00047638  0.49751743  0.83049964  1
  I  I114  1  0.00407534  0.83327535  0.17127357  1
  I  I115  1  0.00106320  0.83876289  0.49807614  1
  I  I116  1  0.00004184  0.83234945  0.83022454  1
  I  I117  1  0.33698373  0.17059629  0.15986868  1
  I  I118  1  0.33131647  0.16007073  0.50254957  1
  I  I119  1  0.33641304  0.17133271  0.83508223  1
  I  I120  1  0.33720255  0.49739421  0.16422977  1
  I  I121  1  0.33676953  0.50519234  0.50371301  1
  I  I122  1  0.33526414  0.49727654  0.83245274  1
  I  I123  1  0.33098408  0.83271861  0.17377010  1
  I  I124  1  0.33317856  0.83316339  0.49696113  1
  I  I125  1  0.33341025  0.83262387  0.82990937  1
  I  I126  1  0.66229677  0.17004749  0.16794290  1
  I  I127  1  0.66660181  0.16476205  0.49892358  1
  I  I128  1  0.66532257  0.17508052  0.83448310  1
  I  I129  1  0.66184158  0.49815414  0.16593388  1
  I  I130  1  0.66212355  0.50448246  0.50255922  1
  I  I131  1  0.66528682  0.49563720  0.83201559  1
  I  I132  1  0.66647866  0.83291447  0.16788628  1
  I  I133  1  0.66574955  0.82805362  0.50278196  1
  I  I134  1  0.66646325  0.82918318  0.83130999  1
