# generated using pymatgen
data_Cs27Sn13Pb14I81
_symmetry_space_group_name_H-M   'P 1'
_cell_length_a   18.98070634
_cell_length_b   18.97034765
_cell_length_c   18.98077648
_cell_angle_alpha   90.00118953
_cell_angle_beta   90.00064136
_cell_angle_gamma   89.99906741
_symmetry_Int_Tables_number   1
_chemical_formula_structural   Cs27Sn13Pb14I81
_chemical_formula_sum   'Cs27 Sn13 Pb14 I81'
_cell_volume   6834.41953200
_cell_formula_units_Z   1
loop_
 _symmetry_equiv_pos_site_id
 _symmetry_equiv_pos_as_xyz
  1  'x, y, z'
loop_
 _atom_site_type_symbol
 _atom_site_label
 _atom_site_symmetry_multiplicity
 _atom_site_fract_x
 _atom_site_fract_y
 _atom_site_fract_z
 _atom_site_occupancy
  Cs  Cs0  1  -0.00029095  0.00233855  -0.00067203  1
  Cs  Cs1  1  -0.00165364  -0.00537532  0.33521405  1
  Cs  Cs2  1  0.00032990  -0.00130294  0.66607051  1
  Cs  Cs3  1  -0.00126722  0.33195482  0.00085166  1
  Cs  Cs4  1  0.00006230  0.33328089  0.33461554  1
  Cs  Cs5  1  -0.00111004  0.33316529  0.66470533  1
  Cs  Cs6  1  0.00420300  0.66725294  0.00144693  1
  Cs  Cs7  1  0.00031515  0.67158642  0.33320204  1
  Cs  Cs8  1  0.00225066  0.66621239  0.66678051  1
  Cs  Cs9  1  0.33471838  0.00298756  -0.00138573  1
  Cs  Cs10  1  0.33494176  -0.00444775  0.33496860  1
  Cs  Cs11  1  0.33280854  -0.00125475  0.66666097  1
  Cs  Cs12  1  0.33315495  0.33414371  0.00095921  1
  Cs  Cs13  1  0.33283834  0.33402284  0.33353402  1
  Cs  Cs14  1  0.33446323  0.33504469  0.66561632  1
  Cs  Cs15  1  0.32721005  0.65929101  0.00576012  1
  Cs  Cs16  1  0.34104120  0.67338166  0.32576822  1
  Cs  Cs17  1  0.33180142  0.66578345  0.66776950  1
  Cs  Cs18  1  0.66677978  0.00091313  -0.00162701  1
  Cs  Cs19  1  0.66623503  -0.00632779  0.33972548  1
  Cs  Cs20  1  0.66680967  0.00097951  0.66658130  1
  Cs  Cs21  1  0.66893354  0.33235536  -0.00036564  1
  Cs  Cs22  1  0.66731650  0.33293511  0.33635243  1
  Cs  Cs23  1  0.66661771  0.33378442  0.66472180  1
  Cs  Cs24  1  0.66658003  0.66824145  0.00036713  1
  Cs  Cs25  1  0.66009777  0.67453117  0.33152514  1
  Cs  Cs26  1  0.66506130  0.66418795  0.66811749  1
  Sn  Sn27  1  0.83330859  0.49944345  0.16707657  1
  Sn  Sn28  1  0.16663538  0.16702841  0.83296103  1
  Sn  Sn29  1  0.16618591  0.49952716  0.49940301  1
  Sn  Sn30  1  0.50030110  0.16627601  0.83394443  1
  Sn  Sn31  1  0.83398426  0.49988113  0.49944484  1
  Sn  Sn32  1  0.83275797  0.83349639  0.83344185  1
  Sn  Sn33  1  0.50022724  0.83367229  0.83382709  1
  Sn  Sn34  1  0.16638640  0.16737387  0.49986775  1
  Sn  Sn35  1  0.83317755  0.16679222  0.83359106  1
  Sn  Sn36  1  0.50078592  0.16691641  0.16630170  1
  Sn  Sn37  1  0.83354302  0.50002747  0.83357943  1
  Sn  Sn38  1  0.16638791  0.16692818  0.16722389  1
  Sn  Sn39  1  0.83290204  0.16718332  0.16659814  1
  Pb  Pb40  1  0.50014113  0.83625222  0.16324327  1
  Pb  Pb41  1  0.16433235  0.49788413  0.16932149  1
  Pb  Pb42  1  0.50192732  0.49966483  0.83353682  1
  Pb  Pb43  1  0.83338326  0.82972488  0.50304175  1
  Pb  Pb44  1  0.16671000  0.83265662  0.50006638  1
  Pb  Pb45  1  0.83500347  0.16784143  0.49977042  1
  Pb  Pb46  1  0.16699877  0.83530999  0.83353129  1
  Pb  Pb47  1  0.16658690  0.83627500  0.16636063  1
  Pb  Pb48  1  0.49997423  0.83340142  0.50349506  1
  Pb  Pb49  1  0.49965286  0.49996931  0.49982149  1
  Pb  Pb50  1  0.83340493  0.83381140  0.16417481  1
  Pb  Pb51  1  0.50286602  0.49730511  0.16653238  1
  Pb  Pb52  1  0.16427846  0.49743685  0.83177847  1
  Pb  Pb53  1  0.49726291  0.16677181  0.50011934  1
  I  I54  1  0.16280040  0.00575757  0.16808189  1
  I  I55  1  0.16707198  0.00353598  0.50046973  1
  I  I56  1  0.16176929  0.00463783  0.83153416  1
  I  I57  1  0.16803704  0.32908931  0.16331186  1
  I  I58  1  0.16207138  0.33210332  0.50103485  1
  I  I59  1  0.16717065  0.32866544  0.83565880  1
  I  I60  1  0.16508565  0.66613066  0.16783234  1
  I  I61  1  0.15995500  0.66297472  0.50292515  1
  I  I62  1  0.16659125  0.66629295  0.83002402  1
  I  I63  1  0.50209470  0.00480251  0.16440632  1
  I  I64  1  0.49870408  0.00045856  0.49783638  1
  I  I65  1  0.50490723  0.00206401  0.83670220  1
  I  I66  1  0.49734959  0.32880283  0.15896733  1
  I  I67  1  0.50190483  0.33302670  0.50372271  1
  I  I68  1  0.50039322  0.32940809  0.83640191  1
  I  I69  1  0.50102831  0.66682354  0.16669967  1
  I  I70  1  0.49888863  0.66670545  0.50194969  1
  I  I71  1  0.50682007  0.66947638  0.83037364  1
  I  I72  1  0.83442770  0.00404493  0.16127612  1
  I  I73  1  0.83493857  -0.00018602  0.49993333  1
  I  I74  1  0.83324079  0.00179209  0.83801411  1
  I  I75  1  0.83373751  0.33199280  0.16107836  1
  I  I76  1  0.83528698  0.33602261  0.50500252  1
  I  I77  1  0.83385577  0.33224333  0.83392871  1
  I  I78  1  0.83434628  0.66355528  0.16572528  1
  I  I79  1  0.84083272  0.66148240  0.49950126  1
  I  I80  1  0.82759942  0.66624300  0.83202851  1
  I  I81  1  0.16592350  0.16491210  -0.00026863  1
  I  I82  1  0.16615831  0.17179762  0.33285266  1
  I  I83  1  0.16583381  0.16977787  0.66745211  1
  I  I84  1  0.16587080  0.49944794  0.00029496  1
  I  I85  1  0.15901484  0.49108842  0.33701254  1
  I  I86  1  0.16028524  0.49312685  0.66382848  1
  I  I87  1  0.16517201  0.83398305  -0.00039363  1
  I  I88  1  0.16568496  0.83653115  0.33334839  1
  I  I89  1  0.16642547  0.83713388  0.66695546  1
  I  I90  1  0.49695573  0.16341188  -0.00105862  1
  I  I91  1  0.50095894  0.16925333  0.33007372  1
  I  I92  1  0.50124212  0.16322896  0.67034027  1
  I  I93  1  0.50068602  0.50120954  -0.00009004  1
  I  I94  1  0.50279911  0.49677747  0.33310642  1
  I  I95  1  0.50330151  0.49755349  0.66694394  1
  I  I96  1  0.50660329  0.83732041  -0.00435655  1
  I  I97  1  0.49946214  0.83418517  0.33290053  1
  I  I98  1  0.50472605  0.84154085  0.67147126  1
  I  I99  1  0.83672354  0.17035700  -0.00106393  1
  I  I100  1  0.83348035  0.17214591  0.33017699  1
  I  I101  1  0.83310256  0.16732400  0.67001882  1
  I  I102  1  0.83138545  0.49731862  -0.00048121  1
  I  I103  1  0.83806535  0.49102943  0.33292006  1
  I  I104  1  0.83676565  0.49935269  0.66743796  1
  I  I105  1  0.82965318  0.83105248  -0.00406571  1
  I  I106  1  0.83393738  0.83453180  0.33332595  1
  I  I107  1  0.83003674  0.83699067  0.67128041  1
  I  I108  1  -0.00059970  0.17087848  0.16227767  1
  I  I109  1  0.00315969  0.16920518  0.50150675  1
  I  I110  1  -0.00089421  0.16717587  0.83576937  1
  I  I111  1  -0.00386857  0.49310549  0.16279345  1
  I  I112  1  -0.00098152  0.49398208  0.50184094  1
  I  I113  1  -0.00443001  0.49985248  0.83511400  1
  I  I114  1  -0.00034387  0.83597085  0.16413436  1
  I  I115  1  -0.00015392  0.83628887  0.50306690  1
  I  I116  1  -0.00321121  0.83440958  0.83286875  1
  I  I117  1  0.33308972  0.16531333  0.16270087  1
  I  I118  1  0.32892610  0.17304502  0.50115625  1
  I  I119  1  0.33345441  0.16148704  0.83553697  1
  I  I120  1  0.33307969  0.49878730  0.16834515  1
  I  I121  1  0.32966566  0.49333111  0.50232714  1
  I  I122  1  0.33301741  0.50001914  0.83006699  1
  I  I123  1  0.33355295  0.83412580  0.16497290  1
  I  I124  1  0.33325614  0.83288988  0.50263780  1
  I  I125  1  0.33642224  0.84119587  0.83205253  1
  I  I126  1  0.66757317  0.17162880  0.15711263  1
  I  I127  1  0.66676217  0.16863276  0.50064134  1
  I  I128  1  0.66772069  0.16637121  0.83949382  1
  I  I129  1  0.67138233  0.49350366  0.16748910  1
  I  I130  1  0.67037862  0.49863210  0.50212600  1
  I  I131  1  0.67102003  0.49477167  0.83037807  1
  I  I132  1  0.66682085  0.83467695  0.16816748  1
  I  I133  1  0.66697307  0.83281198  0.49845913  1
  I  I134  1  0.66771079  0.83906156  0.83326190  1
