# generated using pymatgen
data_Cs27Sn13Pb14I81
_symmetry_space_group_name_H-M   'P 1'
_cell_length_a   19.02861351
_cell_length_b   19.03412395
_cell_length_c   19.04667331
_cell_angle_alpha   89.99867852
_cell_angle_beta   90.00218066
_cell_angle_gamma   89.99958223
_symmetry_Int_Tables_number   1
_chemical_formula_structural   Cs27Sn13Pb14I81
_chemical_formula_sum   'Cs27 Sn13 Pb14 I81'
_cell_volume   6898.57151221
_cell_formula_units_Z   1
loop_
 _symmetry_equiv_pos_site_id
 _symmetry_equiv_pos_as_xyz
  1  'x, y, z'
loop_
 _atom_site_type_symbol
 _atom_site_label
 _atom_site_symmetry_multiplicity
 _atom_site_fract_x
 _atom_site_fract_y
 _atom_site_fract_z
 _atom_site_occupancy
  Cs  Cs0  1  0.00236777  -0.00491664  0.00104805  1
  Cs  Cs1  1  -0.00871083  0.00159120  0.33774100  1
  Cs  Cs2  1  0.00161932  -0.00091601  0.66175420  1
  Cs  Cs3  1  -0.00199963  0.33611540  -0.00230359  1
  Cs  Cs4  1  0.00009058  0.33327087  0.33554885  1
  Cs  Cs5  1  -0.00406029  0.33072049  0.66655963  1
  Cs  Cs6  1  0.00319695  0.66565747  -0.00390965  1
  Cs  Cs7  1  -0.00032138  0.66525411  0.33138299  1
  Cs  Cs8  1  0.00150658  0.66684471  0.67102153  1
  Cs  Cs9  1  0.33856977  0.00134361  -0.00066380  1
  Cs  Cs10  1  0.33306392  0.00548477  0.33104571  1
  Cs  Cs11  1  0.33207637  0.00137382  0.67033389  1
  Cs  Cs12  1  0.33235545  0.33474217  0.00250148  1
  Cs  Cs13  1  0.33410693  0.33524555  0.33721422  1
  Cs  Cs14  1  0.33348214  0.33379108  0.66143980  1
  Cs  Cs15  1  0.33023826  0.66552770  -0.00044002  1
  Cs  Cs16  1  0.33443425  0.66310956  0.33659346  1
  Cs  Cs17  1  0.33533557  0.66572732  0.66630946  1
  Cs  Cs18  1  0.65396384  0.01018510  0.01182130  1
  Cs  Cs19  1  0.67888184  -0.00757349  0.32102494  1
  Cs  Cs20  1  0.66387214  -0.00027236  0.66674672  1
  Cs  Cs21  1  0.66926242  0.32632524  -0.00244556  1
  Cs  Cs22  1  0.66290615  0.33475782  0.33141928  1
  Cs  Cs23  1  0.66959297  0.33300302  0.67157394  1
  Cs  Cs24  1  0.66795401  0.66650869  0.00117822  1
  Cs  Cs25  1  0.66641142  0.67273284  0.33778233  1
  Cs  Cs26  1  0.66208590  0.66723466  0.66099667  1
  Sn  Sn27  1  0.16524823  0.50099101  0.50142141  1
  Sn  Sn28  1  0.83301146  0.83375734  0.83381040  1
  Sn  Sn29  1  0.16639595  0.16699483  0.83443909  1
  Sn  Sn30  1  0.49908049  0.50016709  0.83454688  1
  Sn  Sn31  1  0.83214384  0.50028372  0.16755566  1
  Sn  Sn32  1  0.16621133  0.16574469  0.16568618  1
  Sn  Sn33  1  0.16602206  0.83355629  0.83323765  1
  Sn  Sn34  1  0.50134331  0.50039639  0.16526219  1
  Sn  Sn35  1  0.50069047  0.16586945  0.49957100  1
  Sn  Sn36  1  0.83447817  0.50007927  0.49925602  1
  Sn  Sn37  1  0.16755370  0.49933971  0.83187553  1
  Sn  Sn38  1  0.16715952  0.83240688  0.49965108  1
  Sn  Sn39  1  0.16685431  0.83458053  0.16720620  1
  Pb  Pb40  1  0.49737086  0.16926517  0.16876080  1
  Pb  Pb41  1  0.83575162  0.83097810  0.50249071  1
  Pb  Pb42  1  0.49998142  0.83123299  0.83340432  1
  Pb  Pb43  1  0.83594968  0.16285226  0.83346039  1
  Pb  Pb44  1  0.16726089  0.16656504  0.50010991  1
  Pb  Pb45  1  0.49736381  0.16934970  0.83158086  1
  Pb  Pb46  1  0.49710524  0.83054480  0.16682536  1
  Pb  Pb47  1  0.50015695  0.49908760  0.50027983  1
  Pb  Pb48  1  0.83014356  0.16889853  0.50012021  1
  Pb  Pb49  1  0.49746085  0.83654627  0.49973675  1
  Pb  Pb50  1  0.16649632  0.50005459  0.16677184  1
  Pb  Pb51  1  0.83603295  0.83075112  0.16388851  1
  Pb  Pb52  1  0.83327861  0.50166267  0.83316609  1
  Pb  Pb53  1  0.83645754  0.16924614  0.16638052  1
  I  I54  1  0.16783158  -0.00055274  0.16231440  1
  I  I55  1  0.17100012  -0.00267138  0.50402472  1
  I  I56  1  0.15994937  -0.00061510  0.83245478  1
  I  I57  1  0.16723183  0.33157790  0.16295023  1
  I  I58  1  0.16511267  0.33635082  0.50271209  1
  I  I59  1  0.17331208  0.33434837  0.83395696  1
  I  I60  1  0.16644058  0.66874408  0.16343653  1
  I  I61  1  0.16357960  0.66553508  0.50326789  1
  I  I62  1  0.16643618  0.66642740  0.83353730  1
  I  I63  1  0.50117363  0.00015479  0.16788884  1
  I  I64  1  0.49279032  0.00391397  0.50338182  1
  I  I65  1  0.49952946  0.00009312  0.83049076  1
  I  I66  1  0.50017435  0.33690937  0.16266023  1
  I  I67  1  0.49345813  0.33226292  0.49961726  1
  I  I68  1  0.49385088  0.33720620  0.83698577  1
  I  I69  1  0.50059763  0.66247417  0.16381505  1
  I  I70  1  0.50185976  0.66668492  0.50011905  1
  I  I71  1  0.49059654  0.66321027  0.83522651  1
  I  I72  1  0.83151554  -0.00017260  0.16653521  1
  I  I73  1  0.83452377  -0.00025860  0.50154393  1
  I  I74  1  0.84453074  -0.00465838  0.83052052  1
  I  I75  1  0.83244992  0.33736198  0.16943773  1
  I  I76  1  0.84452100  0.33736956  0.49790745  1
  I  I77  1  0.83361431  0.33330443  0.83295537  1
  I  I78  1  0.83207061  0.66323456  0.17138000  1
  I  I79  1  0.83324175  0.66314946  0.49532095  1
  I  I80  1  0.84416501  0.66861248  0.83415310  1
  I  I81  1  0.16755727  0.16495444  -0.00064568  1
  I  I82  1  0.17014690  0.16494300  0.33121491  1
  I  I83  1  0.16934188  0.16476112  0.66922826  1
  I  I84  1  0.16727121  0.50269945  -0.00264300  1
  I  I85  1  0.16698400  0.50286343  0.33581485  1
  I  I86  1  0.16784901  0.50323995  0.66731761  1
  I  I87  1  0.16154529  0.83137064  -0.00088568  1
  I  I88  1  0.16975250  0.83083615  0.33341531  1
  I  I89  1  0.16216450  0.83215708  0.66732715  1
  I  I90  1  0.50153182  0.16538614  0.00017645  1
  I  I91  1  0.49177974  0.17362622  0.33562339  1
  I  I92  1  0.49476824  0.17160349  0.66462158  1
  I  I93  1  0.49641394  0.50054427  -0.00049698  1
  I  I94  1  0.49827315  0.49682851  0.33139975  1
  I  I95  1  0.49722410  0.49872679  0.66890439  1
  I  I96  1  0.49656433  0.83551357  -0.00002965  1
  I  I97  1  0.49646920  0.82798705  0.33337943  1
  I  I98  1  0.49739676  0.82875805  0.66666905  1
  I  I99  1  0.83022932  0.17253555  -0.00013692  1
  I  I100  1  0.83815263  0.16391823  0.33330837  1
  I  I101  1  0.83637769  0.17199118  0.66679228  1
  I  I102  1  0.83422757  0.50222586  0.00188753  1
  I  I103  1  0.83595646  0.49989647  0.33361451  1
  I  I104  1  0.83507149  0.50141672  0.66462038  1
  I  I105  1  0.84531169  0.82699296  -0.00303847  1
  I  I106  1  0.83435649  0.83473462  0.33313022  1
  I  I107  1  0.84298719  0.82906375  0.66972145  1
  I  I108  1  0.00441102  0.16512486  0.16384405  1
  I  I109  1  -0.00009782  0.16506055  0.49970876  1
  I  I110  1  0.00472424  0.17690585  0.83568353  1
  I  I111  1  -0.00176807  0.50019134  0.16784937  1
  I  I112  1  0.00172150  0.50342810  0.49932346  1
  I  I113  1  0.00344337  0.49848194  0.83342035  1
  I  I114  1  0.00410802  0.83408548  0.16879414  1
  I  I115  1  0.00424591  0.83366338  0.49776210  1
  I  I116  1  0.00374425  0.82844772  0.83361952  1
  I  I117  1  0.32981764  0.16475213  0.16204977  1
  I  I118  1  0.33417015  0.17224462  0.49985911  1
  I  I119  1  0.32920407  0.15948520  0.83705385  1
  I  I120  1  0.33492090  0.49985611  0.16588194  1
  I  I121  1  0.33041829  0.50269560  0.50035277  1
  I  I122  1  0.33108202  0.50276864  0.83344728  1
  I  I123  1  0.32861266  0.83441683  0.16144107  1
  I  I124  1  0.32858055  0.82244348  0.50428829  1
  I  I125  1  0.32916176  0.83529014  0.83300644  1
  I  I126  1  0.66665293  0.16532420  0.16823057  1
  I  I127  1  0.66262898  0.17368981  0.50266459  1
  I  I128  1  0.66654229  0.16789618  0.83033879  1
  I  I129  1  0.66650913  0.49949952  0.16686313  1
  I  I130  1  0.66903406  0.49612248  0.49999112  1
  I  I131  1  0.66420905  0.50324666  0.83286089  1
  I  I132  1  0.66691520  0.83484007  0.16478424  1
  I  I133  1  0.66694149  0.83095185  0.50396351  1
  I  I134  1  0.66951918  0.82544468  0.83026202  1
