# generated using pymatgen
data_Cs27Sn14Pb13I81
_symmetry_space_group_name_H-M   'P 1'
_cell_length_a   18.97874728
_cell_length_b   18.97287760
_cell_length_c   18.97522817
_cell_angle_alpha   89.99836121
_cell_angle_beta   90.00024911
_cell_angle_gamma   89.99884196
_symmetry_Int_Tables_number   1
_chemical_formula_structural   Cs27Sn14Pb13I81
_chemical_formula_sum   'Cs27 Sn14 Pb13 I81'
_cell_volume   6832.62765381
_cell_formula_units_Z   1
loop_
 _symmetry_equiv_pos_site_id
 _symmetry_equiv_pos_as_xyz
  1  'x, y, z'
loop_
 _atom_site_type_symbol
 _atom_site_label
 _atom_site_symmetry_multiplicity
 _atom_site_fract_x
 _atom_site_fract_y
 _atom_site_fract_z
 _atom_site_occupancy
  Cs  Cs0  1  -0.00084814  0.00214742  -0.00224841  1
  Cs  Cs1  1  -0.00368822  -0.00042498  0.33343115  1
  Cs  Cs2  1  0.00095298  0.00090125  0.66746780  1
  Cs  Cs3  1  0.00272381  0.33885579  0.00826731  1
  Cs  Cs4  1  0.00249421  0.33241095  0.32505916  1
  Cs  Cs5  1  0.00119006  0.33097310  0.66781798  1
  Cs  Cs6  1  0.00060295  0.65863024  0.00088752  1
  Cs  Cs7  1  -0.01013905  0.66805310  0.33825400  1
  Cs  Cs8  1  -0.00125114  0.66484773  0.66231184  1
  Cs  Cs9  1  0.33460211  -0.00111064  -0.00079888  1
  Cs  Cs10  1  0.33470705  -0.00108701  0.33322578  1
  Cs  Cs11  1  0.33163195  0.00020516  0.66731560  1
  Cs  Cs12  1  0.33091132  0.33587361  0.00162155  1
  Cs  Cs13  1  0.33316194  0.33319193  0.33476789  1
  Cs  Cs14  1  0.33312000  0.33406506  0.66386016  1
  Cs  Cs15  1  0.33459517  0.66798154  0.00025833  1
  Cs  Cs16  1  0.33352108  0.67110690  0.33132680  1
  Cs  Cs17  1  0.33185741  0.66688651  0.66757079  1
  Cs  Cs18  1  0.66525167  -0.00022323  -0.00167737  1
  Cs  Cs19  1  0.66551594  -0.00019339  0.33101323  1
  Cs  Cs20  1  0.66654109  0.00295605  0.67128811  1
  Cs  Cs21  1  0.66753801  0.33356025  -0.00084021  1
  Cs  Cs22  1  0.66577943  0.33532756  0.33836092  1
  Cs  Cs23  1  0.66620891  0.33670092  0.66333249  1
  Cs  Cs24  1  0.66519812  0.66747321  -0.00011431  1
  Cs  Cs25  1  0.67365684  0.66630921  0.33386554  1
  Cs  Cs26  1  0.66781148  0.65795919  0.66583579  1
  Sn  Sn27  1  0.83363558  0.16634701  0.83271205  1
  Sn  Sn28  1  0.83438873  0.16617936  0.50062223  1
  Sn  Sn29  1  0.16697178  0.49927062  0.49986345  1
  Sn  Sn30  1  0.16670393  0.16622007  0.83303218  1
  Sn  Sn31  1  0.16574296  0.16717057  0.50040722  1
  Sn  Sn32  1  0.83346185  0.83361068  0.83344498  1
  Sn  Sn33  1  0.16660635  0.83365196  0.16592421  1
  Sn  Sn34  1  0.50013690  0.83388019  0.83280173  1
  Sn  Sn35  1  0.49974177  0.16681616  0.16572238  1
  Sn  Sn36  1  0.49963416  0.16638594  0.83408473  1
  Sn  Sn37  1  0.49939981  0.83346081  0.16672731  1
  Sn  Sn38  1  0.49983903  0.50010650  0.16665065  1
  Sn  Sn39  1  0.16630713  0.83393350  0.83431269  1
  Sn  Sn40  1  0.50034032  0.83345519  0.50066453  1
  Pb  Pb41  1  0.16685908  0.49999108  0.83169083  1
  Pb  Pb42  1  0.83040807  0.49999567  0.16662896  1
  Pb  Pb43  1  0.16885249  0.16450461  0.16649292  1
  Pb  Pb44  1  0.16850144  0.50349461  0.16937566  1
  Pb  Pb45  1  0.83343013  0.49912294  0.83332436  1
  Pb  Pb46  1  0.83036345  0.83594633  0.50300591  1
  Pb  Pb47  1  0.49969664  0.16516397  0.50052810  1
  Pb  Pb48  1  0.83050187  0.16653880  0.16606458  1
  Pb  Pb49  1  0.83342149  0.83356407  0.16374487  1
  Pb  Pb50  1  0.83615385  0.49649025  0.50017198  1
  Pb  Pb51  1  0.16772150  0.83414108  0.50018143  1
  Pb  Pb52  1  0.49799215  0.50307317  0.49766098  1
  Pb  Pb53  1  0.49971565  0.49972978  0.83510941  1
  I  I54  1  0.17452736  -0.00328169  0.16722373  1
  I  I55  1  0.16493296  0.00294581  0.50223897  1
  I  I56  1  0.16806049  0.00012406  0.83078919  1
  I  I57  1  0.16879629  0.33330054  0.16465378  1
  I  I58  1  0.16485615  0.33125229  0.50611489  1
  I  I59  1  0.16719972  0.32956491  0.83081973  1
  I  I60  1  0.17473558  0.67115197  0.16055356  1
  I  I61  1  0.17196758  0.66547349  0.49970966  1
  I  I62  1  0.16869617  0.67041069  0.83571412  1
  I  I63  1  0.49677212  -0.00100611  0.16558728  1
  I  I64  1  0.49698769  -0.00266256  0.49571675  1
  I  I65  1  0.49996749  -0.00038895  0.83751636  1
  I  I66  1  0.50083357  0.33237122  0.16162278  1
  I  I67  1  0.50193667  0.33319221  0.49896308  1
  I  I68  1  0.50041937  0.32949723  0.83742513  1
  I  I69  1  0.49514352  0.66854130  0.16622403  1
  I  I70  1  0.49672850  0.67105609  0.50211327  1
  I  I71  1  0.49953567  0.67046243  0.83405711  1
  I  I72  1  0.83052594  0.00004051  0.17039451  1
  I  I73  1  0.84106036  0.00353303  0.50168732  1
  I  I74  1  0.83225551  0.00056914  0.82992821  1
  I  I75  1  0.83216979  0.33297026  0.16402150  1
  I  I76  1  0.83038501  0.32872704  0.50817912  1
  I  I77  1  0.83139562  0.32882718  0.82896345  1
  I  I78  1  0.83166467  0.66710122  0.16549876  1
  I  I79  1  0.83374563  0.66680909  0.50052942  1
  I  I80  1  0.83167824  0.66998350  0.83505096  1
  I  I81  1  0.16476362  0.16357702  -0.00326631  1
  I  I82  1  0.16431849  0.16870915  0.33591706  1
  I  I83  1  0.16876675  0.16430970  0.66783269  1
  I  I84  1  0.16697729  0.49788828  0.00048003  1
  I  I85  1  0.16926709  0.49290160  0.33670769  1
  I  I86  1  0.16807519  0.50076738  0.66383489  1
  I  I87  1  0.17274153  0.83889706  -0.00143888  1
  I  I88  1  0.17515651  0.83351883  0.33124734  1
  I  I89  1  0.16901153  0.83454960  0.66984539  1
  I  I90  1  0.50028381  0.16162592  -0.00114733  1
  I  I91  1  0.49968503  0.16416381  0.33109802  1
  I  I92  1  0.49967304  0.16066849  0.66987321  1
  I  I93  1  0.49844306  0.50462620  0.00307687  1
  I  I94  1  0.49816561  0.49828670  0.32977125  1
  I  I95  1  0.50014866  0.50068353  0.66635510  1
  I  I96  1  0.49945470  0.83391427  -0.00042625  1
  I  I97  1  0.49332358  0.83459751  0.33190323  1
  I  I98  1  0.49810481  0.83984570  0.66844596  1
  I  I99  1  0.83446180  0.16175331  -0.00387911  1
  I  I100  1  0.83683847  0.16794899  0.33603401  1
  I  I101  1  0.83187664  0.16203325  0.66804612  1
  I  I102  1  0.83459439  0.49784763  -0.00007316  1
  I  I103  1  0.83288191  0.49957781  0.33367632  1
  I  I104  1  0.83119178  0.50357155  0.66651615  1
  I  I105  1  0.82808551  0.84156470  -0.00426042  1
  I  I106  1  0.83285450  0.83361464  0.33357693  1
  I  I107  1  0.83504082  0.83611588  0.67095995  1
  I  I108  1  0.00024976  0.16537958  0.16509666  1
  I  I109  1  0.00091227  0.16913504  0.50875132  1
  I  I110  1  0.00054402  0.15863986  0.82638190  1
  I  I111  1  0.00047757  0.50089838  0.16709757  1
  I  I112  1  0.00381918  0.50265027  0.50031975  1
  I  I113  1  0.00017311  0.50171599  0.83342379  1
  I  I114  1  0.00306031  0.83418214  0.16343983  1
  I  I115  1  -0.00024067  0.83042236  0.49853492  1
  I  I116  1  0.00091850  0.84060145  0.83750474  1
  I  I117  1  0.33711205  0.16671910  0.16360419  1
  I  I118  1  0.33077734  0.16853080  0.50328275  1
  I  I119  1  0.33324957  0.16032314  0.83262273  1
  I  I120  1  0.33642691  0.49876884  0.16646115  1
  I  I121  1  0.33062099  0.49167115  0.50089944  1
  I  I122  1  0.33331634  0.50003587  0.83255658  1
  I  I123  1  0.33506848  0.83355040  0.16218810  1
  I  I124  1  0.33581369  0.83598877  0.50313357  1
  I  I125  1  0.33386152  0.83881104  0.83417613  1
  I  I126  1  0.66203813  0.16251467  0.16322034  1
  I  I127  1  0.66842112  0.16307516  0.50283550  1
  I  I128  1  0.66619811  0.15993982  0.83377207  1
  I  I129  1  0.66198769  0.50350756  0.16686393  1
  I  I130  1  0.66666059  0.49974678  0.49844414  1
  I  I131  1  0.66646998  0.50067518  0.83388263  1
  I  I132  1  0.66287773  0.83340829  0.16629078  1
  I  I133  1  0.66247452  0.83529542  0.49679328  1
  I  I134  1  0.66537226  0.84006619  0.83400787  1
