# generated using pymatgen
data_Cs27Sn14Pb13I81
_symmetry_space_group_name_H-M   'P 1'
_cell_length_a   18.96084195
_cell_length_b   18.96180784
_cell_length_c   18.96116303
_cell_angle_alpha   89.99984469
_cell_angle_beta   89.99965192
_cell_angle_gamma   89.99929461
_symmetry_Int_Tables_number   1
_chemical_formula_structural   Cs27Sn14Pb13I81
_chemical_formula_sum   'Cs27 Sn14 Pb13 I81'
_cell_volume   6817.14185986
_cell_formula_units_Z   1
loop_
 _symmetry_equiv_pos_site_id
 _symmetry_equiv_pos_as_xyz
  1  'x, y, z'
loop_
 _atom_site_type_symbol
 _atom_site_label
 _atom_site_symmetry_multiplicity
 _atom_site_fract_x
 _atom_site_fract_y
 _atom_site_fract_z
 _atom_site_occupancy
  Cs  Cs0  1  -0.00007093  -0.00102186  -0.00156575  1
  Cs  Cs1  1  0.00051525  0.00284752  0.33418896  1
  Cs  Cs2  1  0.00003654  -0.00016483  0.66616450  1
  Cs  Cs3  1  0.00032006  0.33438533  0.00314591  1
  Cs  Cs4  1  0.00188096  0.32661562  0.32580457  1
  Cs  Cs5  1  0.00041296  0.33421588  0.66690778  1
  Cs  Cs6  1  -0.00015951  0.66599467  -0.00153872  1
  Cs  Cs7  1  0.00028765  0.66779367  0.33451854  1
  Cs  Cs8  1  0.00004788  0.66663460  0.66691810  1
  Cs  Cs9  1  0.33842106  -0.00358960  -0.00380208  1
  Cs  Cs10  1  0.33368131  0.00125830  0.33406116  1
  Cs  Cs11  1  0.33281713  -0.00010569  0.66797354  1
  Cs  Cs12  1  0.33237986  0.33437458  -0.00019040  1
  Cs  Cs13  1  0.33087111  0.33288869  0.33096204  1
  Cs  Cs14  1  0.33454328  0.33521590  0.66738790  1
  Cs  Cs15  1  0.33942865  0.67018934  0.00276820  1
  Cs  Cs16  1  0.33448212  0.66580724  0.33404575  1
  Cs  Cs17  1  0.33037168  0.66520559  0.66599521  1
  Cs  Cs18  1  0.66288644  -0.00030226  -0.00033017  1
  Cs  Cs19  1  0.66613357  0.00020717  0.33390316  1
  Cs  Cs20  1  0.66787652  0.00151612  0.66529274  1
  Cs  Cs21  1  0.66685993  0.33404657  -0.00146347  1
  Cs  Cs22  1  0.66716580  0.33229625  0.33034963  1
  Cs  Cs23  1  0.66540668  0.33548766  0.66831241  1
  Cs  Cs24  1  0.66334897  0.66696614  0.00456737  1
  Cs  Cs25  1  0.66485593  0.66705396  0.33434193  1
  Cs  Cs26  1  0.67091596  0.66237932  0.66307628  1
  Sn  Sn27  1  0.16651093  0.83290282  0.49925209  1
  Sn  Sn28  1  0.16584915  0.49943355  0.83270657  1
  Sn  Sn29  1  0.49994368  0.16667515  0.16748326  1
  Sn  Sn30  1  0.16505859  0.50036782  0.50035679  1
  Sn  Sn31  1  0.49994792  0.83415008  0.50040123  1
  Sn  Sn32  1  0.83359690  0.83304923  0.49987355  1
  Sn  Sn33  1  0.16594178  0.83333591  0.16743322  1
  Sn  Sn34  1  0.83337989  0.83303543  0.83337157  1
  Sn  Sn35  1  0.83440340  0.50010499  0.83272276  1
  Sn  Sn36  1  0.83424459  0.83341208  0.16706955  1
  Sn  Sn37  1  0.83434471  0.16683202  0.83305343  1
  Sn  Sn38  1  0.16582318  0.16738792  0.83298593  1
  Sn  Sn39  1  0.83496050  0.50015644  0.50006417  1
  Sn  Sn40  1  0.50001316  0.16630065  0.49927469  1
  Pb  Pb41  1  0.16511821  0.83272124  0.83309481  1
  Pb  Pb42  1  0.50004342  0.83468154  0.16913912  1
  Pb  Pb43  1  0.50345085  0.83290430  0.82999844  1
  Pb  Pb44  1  0.83178226  0.16728000  0.50165232  1
  Pb  Pb45  1  0.49993985  0.50034104  0.83331579  1
  Pb  Pb46  1  0.16844794  0.16694691  0.50174907  1
  Pb  Pb47  1  0.16860305  0.16370455  0.16357121  1
  Pb  Pb48  1  0.16652405  0.50249433  0.16660743  1
  Pb  Pb49  1  0.49985957  0.16673206  0.83291051  1
  Pb  Pb50  1  0.49994013  0.49701837  0.16691027  1
  Pb  Pb51  1  0.49988401  0.49987424  0.49990199  1
  Pb  Pb52  1  0.83172205  0.16401661  0.16379093  1
  Pb  Pb53  1  0.83349587  0.50229088  0.16699388  1
  I  I54  1  0.16242446  -0.00408539  0.17215910  1
  I  I55  1  0.16443849  -0.00307073  0.49854747  1
  I  I56  1  0.16298925  0.00164452  0.83338278  1
  I  I57  1  0.16920392  0.33304530  0.16869637  1
  I  I58  1  0.16426137  0.33632360  0.50357169  1
  I  I59  1  0.16010125  0.33405521  0.82778339  1
  I  I60  1  0.16325395  0.67066811  0.16616491  1
  I  I61  1  0.16816771  0.66751829  0.50249926  1
  I  I62  1  0.16204073  0.66394974  0.83139417  1
  I  I63  1  0.50048213  0.00230702  0.16823749  1
  I  I64  1  0.50089020  -0.00106272  0.49696616  1
  I  I65  1  0.49935814  -0.00009174  0.83450018  1
  I  I66  1  0.50040509  0.32897663  0.17330291  1
  I  I67  1  0.50045611  0.33060731  0.49730407  1
  I  I68  1  0.50452135  0.33320289  0.83145474  1
  I  I69  1  0.50003971  0.66718881  0.16653411  1
  I  I70  1  0.50094916  0.66971936  0.50059616  1
  I  I71  1  0.49799049  0.66686348  0.83341853  1
  I  I72  1  0.83618265  -0.00431394  0.16834623  1
  I  I73  1  0.83474481  -0.00318483  0.50143030  1
  I  I74  1  0.83664463  -0.00050891  0.83280782  1
  I  I75  1  0.83050834  0.33304892  0.16679382  1
  I  I76  1  0.83498356  0.33648018  0.50601868  1
  I  I77  1  0.83564690  0.33400482  0.82789368  1
  I  I78  1  0.83581362  0.67082233  0.16267941  1
  I  I79  1  0.83158485  0.66803554  0.50441623  1
  I  I80  1  0.83737540  0.66659647  0.83142910  1
  I  I81  1  0.16435561  0.17121631  -0.00424285  1
  I  I82  1  0.16714441  0.16866935  0.33329291  1
  I  I83  1  0.16505218  0.16480230  0.66973633  1
  I  I84  1  0.16191219  0.49667826  -0.00342479  1
  I  I85  1  0.16354064  0.50296667  0.33688568  1
  I  I86  1  0.16339198  0.50257072  0.66622563  1
  I  I87  1  0.16202444  0.83461149  0.00190342  1
  I  I88  1  0.16279073  0.82895212  0.33513514  1
  I  I89  1  0.16652910  0.83297277  0.66361401  1
  I  I90  1  0.50059649  0.16556420  0.00202318  1
  I  I91  1  0.50039459  0.16142106  0.33444391  1
  I  I92  1  0.50056343  0.16222241  0.66397136  1
  I  I93  1  0.50035781  0.49853219  -0.00009243  1
  I  I94  1  0.50069604  0.50221289  0.33397829  1
  I  I95  1  0.50048930  0.49748012  0.66635962  1
  I  I96  1  0.49939662  0.83566024  0.00020296  1
  I  I97  1  0.50442690  0.83513636  0.33715755  1
  I  I98  1  0.49777247  0.84040547  0.66186941  1
  I  I99  1  0.83422860  0.16730122  -0.00451013  1
  I  I100  1  0.83267225  0.16667089  0.33327037  1
  I  I101  1  0.83399883  0.16158458  0.66994108  1
  I  I102  1  0.83698765  0.50034667  -0.00353998  1
  I  I103  1  0.83574707  0.50536303  0.33706318  1
  I  I104  1  0.83595293  0.50515263  0.66673859  1
  I  I105  1  0.83864747  0.83420285  -0.00041744  1
  I  I106  1  0.83287940  0.82881498  0.33476866  1
  I  I107  1  0.83286949  0.83305700  0.66601630  1
  I  I108  1  0.00006623  0.16683034  0.16696469  1
  I  I109  1  0.00003820  0.16352816  0.50049826  1
  I  I110  1  -0.00072470  0.16638326  0.83228789  1
  I  I111  1  -0.00002186  0.49716585  0.16649812  1
  I  I112  1  -0.00015830  0.50994428  0.50618428  1
  I  I113  1  -0.00077670  0.49955027  0.82848140  1
  I  I114  1  -0.00068601  0.83359933  0.17097676  1
  I  I115  1  -0.00052159  0.82889343  0.50001330  1
  I  I116  1  -0.00333380  0.83419308  0.82954381  1
  I  I117  1  0.33626072  0.16389925  0.16953900  1
  I  I118  1  0.33639019  0.16186096  0.49953042  1
  I  I119  1  0.33049055  0.17097548  0.83291911  1
  I  I120  1  0.33292717  0.50354583  0.16625548  1
  I  I121  1  0.32997416  0.50356599  0.50456658  1
  I  I122  1  0.32944477  0.49417578  0.82828853  1
  I  I123  1  0.33077325  0.83427025  0.17011020  1
  I  I124  1  0.33224418  0.83302941  0.49512164  1
  I  I125  1  0.33317984  0.83465746  0.83433857  1
  I  I126  1  0.66392958  0.16347971  0.16928851  1
  I  I127  1  0.66381578  0.16170249  0.49943327  1
  I  I128  1  0.66975010  0.16619674  0.83291510  1
  I  I129  1  0.66705129  0.50324376  0.16630128  1
  I  I130  1  0.67002394  0.50410199  0.50542103  1
  I  I131  1  0.67076931  0.49909433  0.82833689  1
  I  I132  1  0.66954482  0.83443614  0.16598098  1
  I  I133  1  0.66807012  0.83334428  0.50082932  1
  I  I134  1  0.67205532  0.83467708  0.83519721  1
