# generated using pymatgen
data_Cs27Sn14Pb13I81
_symmetry_space_group_name_H-M   'P 1'
_cell_length_a   18.97814250
_cell_length_b   18.96825823
_cell_length_c   18.98124332
_cell_angle_alpha   89.99978766
_cell_angle_beta   89.99971756
_cell_angle_gamma   89.99833563
_symmetry_Int_Tables_number   1
_chemical_formula_structural   Cs27Sn14Pb13I81
_chemical_formula_sum   'Cs27 Sn14 Pb13 I81'
_cell_volume   6832.91176837
_cell_formula_units_Z   1
loop_
 _symmetry_equiv_pos_site_id
 _symmetry_equiv_pos_as_xyz
  1  'x, y, z'
loop_
 _atom_site_type_symbol
 _atom_site_label
 _atom_site_symmetry_multiplicity
 _atom_site_fract_x
 _atom_site_fract_y
 _atom_site_fract_z
 _atom_site_occupancy
  Cs  Cs0  1  0.00179154  -0.00076514  0.00198838  1
  Cs  Cs1  1  -0.00016830  -0.00134032  0.33201040  1
  Cs  Cs2  1  -0.00007767  0.00147267  0.66768273  1
  Cs  Cs3  1  -0.00102663  0.34034686  -0.00143778  1
  Cs  Cs4  1  -0.00111586  0.33732330  0.33560868  1
  Cs  Cs5  1  0.00811203  0.33066086  0.66446568  1
  Cs  Cs6  1  -0.00230069  0.66062871  0.00195250  1
  Cs  Cs7  1  0.00197783  0.66576799  0.33082413  1
  Cs  Cs8  1  -0.00346055  0.66826270  0.66897087  1
  Cs  Cs9  1  0.33075658  -0.00031470  0.00470584  1
  Cs  Cs10  1  0.33279487  -0.00182001  0.32937531  1
  Cs  Cs11  1  0.33117047  -0.00023294  0.66744311  1
  Cs  Cs12  1  0.33473922  0.33430241  -0.00432898  1
  Cs  Cs13  1  0.33746125  0.33562577  0.33628246  1
  Cs  Cs14  1  0.32714109  0.33385137  0.66656284  1
  Cs  Cs15  1  0.33425668  0.66646024  -0.00140549  1
  Cs  Cs16  1  0.33300458  0.66721729  0.33351213  1
  Cs  Cs17  1  0.33790403  0.66612364  0.67006207  1
  Cs  Cs18  1  0.66715292  0.00357632  0.00121708  1
  Cs  Cs19  1  0.66712711  0.00162498  0.33354811  1
  Cs  Cs20  1  0.66780346  -0.00272760  0.66580346  1
  Cs  Cs21  1  0.66679622  0.33177427  -0.00096201  1
  Cs  Cs22  1  0.66551139  0.33243651  0.33445035  1
  Cs  Cs23  1  0.66595587  0.33200377  0.66299106  1
  Cs  Cs24  1  0.66764145  0.66318987  -0.00748261  1
  Cs  Cs25  1  0.66559014  0.66479240  0.33562421  1
  Cs  Cs26  1  0.66545174  0.67196957  0.67195449  1
  Sn  Sn27  1  0.16652366  0.83338607  0.83384709  1
  Sn  Sn28  1  0.50035831  0.16680877  0.50103670  1
  Sn  Sn29  1  0.83289002  0.16666231  0.83323147  1
  Sn  Sn30  1  0.83275222  0.16722578  0.50001083  1
  Sn  Sn31  1  0.50043532  0.16629259  0.83184874  1
  Sn  Sn32  1  0.50071786  0.83198892  0.16682161  1
  Sn  Sn33  1  0.50024623  0.50102774  0.16713126  1
  Sn  Sn34  1  0.16670343  0.83336076  0.50001826  1
  Sn  Sn35  1  0.83241962  0.49956224  0.50001164  1
  Sn  Sn36  1  0.83303309  0.83354327  0.16687120  1
  Sn  Sn37  1  0.16543071  0.16700989  0.16710186  1
  Sn  Sn38  1  0.16630627  0.83382075  0.16658527  1
  Sn  Sn39  1  0.83478751  0.16635938  0.16667999  1
  Sn  Sn40  1  0.50120229  0.49950301  0.49937650  1
  Pb  Pb41  1  0.83505759  0.83359727  0.49807294  1
  Pb  Pb42  1  0.16673997  0.16489115  0.49751895  1
  Pb  Pb43  1  0.83523574  0.83577790  0.83626214  1
  Pb  Pb44  1  0.16933035  0.49985365  0.16676787  1
  Pb  Pb45  1  0.50020364  0.49733795  0.83249585  1
  Pb  Pb46  1  0.16694772  0.50290812  0.49997011  1
  Pb  Pb47  1  0.83087415  0.49960705  0.16837131  1
  Pb  Pb48  1  0.16639296  0.16529832  0.83598452  1
  Pb  Pb49  1  0.50020223  0.16675697  0.16708249  1
  Pb  Pb50  1  0.49841437  0.83363410  0.49836702  1
  Pb  Pb51  1  0.16655821  0.50326807  0.83331998  1
  Pb  Pb52  1  0.49845368  0.83628012  0.83625088  1
  Pb  Pb53  1  0.83316048  0.49679366  0.82965003  1
  I  I54  1  0.16888392  -0.00134880  0.16688651  1
  I  I55  1  0.16697227  -0.00300435  0.49936610  1
  I  I56  1  0.16715892  -0.00266634  0.83332664  1
  I  I57  1  0.16274537  0.33033364  0.16684352  1
  I  I58  1  0.16679193  0.33319792  0.49795550  1
  I  I59  1  0.16729436  0.33288577  0.83519382  1
  I  I60  1  0.16397526  0.67040758  0.16680747  1
  I  I61  1  0.16657597  0.67083505  0.49503349  1
  I  I62  1  0.16763991  0.67159877  0.83714467  1
  I  I63  1  0.49824040  -0.00208585  0.16661173  1
  I  I64  1  0.50382281  0.00313137  0.50143749  1
  I  I65  1  0.50407993  0.00401955  0.82844430  1
  I  I66  1  0.49992727  0.33518649  0.16807614  1
  I  I67  1  0.50341760  0.33272761  0.49591219  1
  I  I68  1  0.50322835  0.32932011  0.83693642  1
  I  I69  1  0.49799663  0.66738437  0.17336372  1
  I  I70  1  0.50217589  0.66407007  0.49599848  1
  I  I71  1  0.49730153  0.66695147  0.83158614  1
  I  I72  1  0.83234823  0.00084742  0.16907838  1
  I  I73  1  0.82981046  0.00346882  0.50059194  1
  I  I74  1  0.82950204  0.00387557  0.82800934  1
  I  I75  1  0.83628661  0.32979445  0.16508122  1
  I  I76  1  0.82939905  0.33160898  0.49679954  1
  I  I77  1  0.82971557  0.32856200  0.84159624  1
  I  I78  1  0.83755613  0.66929597  0.16951795  1
  I  I79  1  0.83078953  0.66431868  0.49631482  1
  I  I80  1  0.83574784  0.66681443  0.83346420  1
  I  I81  1  0.16532862  0.15913776  0.00381723  1
  I  I82  1  0.16425285  0.15884608  0.32975972  1
  I  I83  1  0.16488440  0.16352543  0.66659545  1
  I  I84  1  0.16847999  0.50064143  0.00038297  1
  I  I85  1  0.16565394  0.50292630  0.33335952  1
  I  I86  1  0.16887347  0.50017909  0.66633178  1
  I  I87  1  0.16784648  0.83914625  0.00176710  1
  I  I88  1  0.16705643  0.83714271  0.33145296  1
  I  I89  1  0.16708099  0.83379068  0.66664529  1
  I  I90  1  0.50223265  0.16537085  -0.00135786  1
  I  I91  1  0.50270357  0.16743523  0.33566802  1
  I  I92  1  0.50687665  0.17140557  0.66537746  1
  I  I93  1  0.49801991  0.50295568  0.00251496  1
  I  I94  1  0.50255110  0.49702977  0.33402985  1
  I  I95  1  0.50317363  0.49801102  0.66297502  1
  I  I96  1  0.49726157  0.82999474  0.00457110  1
  I  I97  1  0.49651503  0.83559494  0.33000253  1
  I  I98  1  0.49652495  0.83099182  0.66679724  1
  I  I99  1  0.83229175  0.16006564  0.00086574  1
  I  I100  1  0.83244282  0.16588069  0.33328424  1
  I  I101  1  0.82855260  0.17095717  0.66584013  1
  I  I102  1  0.83299873  0.50004941  -0.00001949  1
  I  I103  1  0.83126614  0.49393380  0.33613721  1
  I  I104  1  0.82655183  0.49751503  0.66171104  1
  I  I105  1  0.83491455  0.83896093  0.00452400  1
  I  I106  1  0.83587220  0.83946712  0.32987275  1
  I  I107  1  0.83674460  0.83350936  0.66670402  1
  I  I108  1  -0.00115086  0.15724946  0.16703473  1
  I  I109  1  -0.00306845  0.16961724  0.50208551  1
  I  I110  1  -0.00290955  0.16439822  0.83048270  1
  I  I111  1  -0.00033331  0.50230079  0.16833187  1
  I  I112  1  -0.00293508  0.49520595  0.49995713  1
  I  I113  1  -0.00038682  0.49746400  0.83263494  1
  I  I114  1  0.00049713  0.83980440  0.16728765  1
  I  I115  1  0.00301032  0.83438420  0.49644407  1
  I  I116  1  0.00316918  0.83696151  0.83480127  1
  I  I117  1  0.33167551  0.16203256  0.16663430  1
  I  I118  1  0.33622976  0.16993580  0.50252200  1
  I  I119  1  0.33571073  0.16557347  0.83081218  1
  I  I120  1  0.33724541  0.50267662  0.17344079  1
  I  I121  1  0.33683382  0.49593274  0.49573271  1
  I  I122  1  0.33367668  0.49642131  0.83199438  1
  I  I123  1  0.33251465  0.83509584  0.16714677  1
  I  I124  1  0.33043251  0.83443856  0.49585914  1
  I  I125  1  0.33045330  0.83653345  0.83573541  1
  I  I126  1  0.66934120  0.16301641  0.16684450  1
  I  I127  1  0.66706098  0.16977168  0.49760731  1
  I  I128  1  0.66715214  0.16611880  0.83630526  1
  I  I129  1  0.66310538  0.50321349  0.16967609  1
  I  I130  1  0.66589459  0.49477802  0.49385046  1
  I  I131  1  0.66668100  0.50396497  0.83710627  1
  I  I132  1  0.66687277  0.83637889  0.16887121  1
  I  I133  1  0.66673020  0.83368042  0.49688994  1
  I  I134  1  0.66679319  0.83228935  0.83481793  1
