# generated using pymatgen
data_Cs27Sn13Pb14I81
_symmetry_space_group_name_H-M   'P 1'
_cell_length_a   18.98278002
_cell_length_b   18.97881421
_cell_length_c   18.96943855
_cell_angle_alpha   89.99917709
_cell_angle_beta   90.00152197
_cell_angle_gamma   89.99853271
_symmetry_Int_Tables_number   1
_chemical_formula_structural   Cs27Sn13Pb14I81
_chemical_formula_sum   'Cs27 Sn13 Pb14 I81'
_cell_volume   6834.13204968
_cell_formula_units_Z   1
loop_
 _symmetry_equiv_pos_site_id
 _symmetry_equiv_pos_as_xyz
  1  'x, y, z'
loop_
 _atom_site_type_symbol
 _atom_site_label
 _atom_site_symmetry_multiplicity
 _atom_site_fract_x
 _atom_site_fract_y
 _atom_site_fract_z
 _atom_site_occupancy
  Cs  Cs0  1  0.00045968  0.00048459  0.00021758  1
  Cs  Cs1  1  0.00166693  0.00024053  0.33417587  1
  Cs  Cs2  1  0.00047098  -0.00056427  0.66696151  1
  Cs  Cs3  1  0.00064874  0.33149610  0.00141381  1
  Cs  Cs4  1  -0.00176258  0.33319872  0.33425760  1
  Cs  Cs5  1  -0.00029077  0.33280489  0.66276946  1
  Cs  Cs6  1  -0.00291165  0.66844351  -0.00131372  1
  Cs  Cs7  1  0.00054915  0.66648824  0.33502311  1
  Cs  Cs8  1  -0.00012837  0.66735219  0.66710360  1
  Cs  Cs9  1  0.33057808  0.00025074  -0.00091554  1
  Cs  Cs10  1  0.33244293  -0.00430780  0.33197361  1
  Cs  Cs11  1  0.33314201  -0.00082619  0.66896242  1
  Cs  Cs12  1  0.33469671  0.33250700  0.00078063  1
  Cs  Cs13  1  0.33206235  0.33735293  0.32964331  1
  Cs  Cs14  1  0.33734684  0.33414711  0.66784676  1
  Cs  Cs15  1  0.33208205  0.66679606  -0.00020207  1
  Cs  Cs16  1  0.33696685  0.66770355  0.33562262  1
  Cs  Cs17  1  0.33184269  0.66787414  0.66481845  1
  Cs  Cs18  1  0.66992658  -0.00044063  0.00000179  1
  Cs  Cs19  1  0.66398538  -0.00110207  0.33699815  1
  Cs  Cs20  1  0.66379657  0.00376207  0.66265137  1
  Cs  Cs21  1  0.66462863  0.33399885  0.00061115  1
  Cs  Cs22  1  0.67033906  0.33117644  0.33318279  1
  Cs  Cs23  1  0.66148377  0.33587225  0.66193544  1
  Cs  Cs24  1  0.67245841  0.66694395  -0.00105163  1
  Cs  Cs25  1  0.65991239  0.67075615  0.33156643  1
  Cs  Cs26  1  0.66765745  0.65973731  0.66958761  1
  Sn  Sn27  1  0.16692290  0.16610462  0.50080385  1
  Sn  Sn28  1  0.16586204  0.16702434  0.83248563  1
  Sn  Sn29  1  0.16561329  0.83442257  0.50090359  1
  Sn  Sn30  1  0.83345460  0.49947301  0.16659828  1
  Sn  Sn31  1  0.50080016  0.16678488  0.16646274  1
  Sn  Sn32  1  0.50022579  0.49927767  0.16608469  1
  Sn  Sn33  1  0.83390208  0.83315255  0.50026374  1
  Sn  Sn34  1  0.16721358  0.83339272  0.83277837  1
  Sn  Sn35  1  0.83361901  0.16704903  0.83336556  1
  Sn  Sn36  1  0.16635042  0.49969336  0.83408561  1
  Sn  Sn37  1  0.83259570  0.16711906  0.16591816  1
  Sn  Sn38  1  0.16634376  0.50022907  0.16579585  1
  Sn  Sn39  1  0.49979147  0.83345553  0.83357125  1
  Pb  Pb40  1  0.49992307  0.16529205  0.83518131  1
  Pb  Pb41  1  0.16644709  0.16832012  0.16663108  1
  Pb  Pb42  1  0.83333405  0.50257106  0.49730961  1
  Pb  Pb43  1  0.16669655  0.50011191  0.50043105  1
  Pb  Pb44  1  0.83344280  0.83397115  0.16894962  1
  Pb  Pb45  1  0.50007627  0.49980907  0.49736021  1
  Pb  Pb46  1  0.49999531  0.83362176  0.16402744  1
  Pb  Pb47  1  0.49960200  0.83331772  0.50292752  1
  Pb  Pb48  1  0.49780561  0.50201113  0.83559545  1
  Pb  Pb49  1  0.83557795  0.49707197  0.83504371  1
  Pb  Pb50  1  0.83510355  0.16528699  0.49988473  1
  Pb  Pb51  1  0.16651328  0.83046944  0.16665735  1
  Pb  Pb52  1  0.49650810  0.16668127  0.49694768  1
  Pb  Pb53  1  0.83363282  0.83562989  0.83129228  1
  I  I54  1  0.16691249  0.00013690  0.16498232  1
  I  I55  1  0.16304464  -0.00050450  0.50678719  1
  I  I56  1  0.16706553  0.00018126  0.82903590  1
  I  I57  1  0.16722101  0.33632482  0.16329558  1
  I  I58  1  0.16632533  0.33060423  0.50224713  1
  I  I59  1  0.16207641  0.33264714  0.83437682  1
  I  I60  1  0.16690159  0.66217478  0.16321089  1
  I  I61  1  0.16348018  0.66976196  0.50251078  1
  I  I62  1  0.17158236  0.66713155  0.83390797  1
  I  I63  1  0.50464062  0.00300364  0.16586854  1
  I  I64  1  0.50164158  -0.00005148  0.49587530  1
  I  I65  1  0.49302957  -0.00245528  0.83613013  1
  I  I66  1  0.49958932  0.33366245  0.16525758  1
  I  I67  1  0.49807694  0.33298416  0.50385559  1
  I  I68  1  0.49834493  0.33339619  0.83359192  1
  I  I69  1  0.49982144  0.66358707  0.16623958  1
  I  I70  1  0.49727923  0.66695264  0.49647369  1
  I  I71  1  0.49439939  0.66990514  0.83491078  1
  I  I72  1  0.82934406  0.00360440  0.16372833  1
  I  I73  1  0.83701986  -0.00258901  0.49793821  1
  I  I74  1  0.83971188  0.00334986  0.84066203  1
  I  I75  1  0.83324194  0.33293455  0.16334828  1
  I  I76  1  0.83581728  0.33313395  0.50023546  1
  I  I77  1  0.83910575  0.32907391  0.83550599  1
  I  I78  1  0.83306992  0.66366059  0.16814163  1
  I  I79  1  0.84181354  0.67043742  0.50006612  1
  I  I80  1  0.83400594  0.66664489  0.83456267  1
  I  I81  1  0.16595952  0.16410369  -0.00279397  1
  I  I82  1  0.16679801  0.16298158  0.33547131  1
  I  I83  1  0.16063133  0.16725153  0.66828346  1
  I  I84  1  0.16707026  0.49965551  -0.00013097  1
  I  I85  1  0.16719872  0.49908028  0.33026475  1
  I  I86  1  0.16637086  0.50051900  0.67004676  1
  I  I87  1  0.17048304  0.83624485  -0.00343542  1
  I  I88  1  0.16303990  0.83744324  0.33644548  1
  I  I89  1  0.16685291  0.83222088  0.66757717  1
  I  I90  1  0.49856353  0.17030118  0.00324287  1
  I  I91  1  0.50545881  0.17026838  0.32879631  1
  I  I92  1  0.50264165  0.16450031  0.66684767  1
  I  I93  1  0.50074789  0.49627104  0.00386389  1
  I  I94  1  0.49551087  0.49811431  0.32823735  1
  I  I95  1  0.49810582  0.50153289  0.66733530  1
  I  I96  1  0.49192877  0.83361832  -0.00341427  1
  I  I97  1  0.49912796  0.83228096  0.33332344  1
  I  I98  1  0.49623949  0.83521448  0.67046635  1
  I  I99  1  0.83652288  0.16871847  0.00060054  1
  I  I100  1  0.83166792  0.16980531  0.33020484  1
  I  I101  1  0.83770344  0.16290943  0.66929283  1
  I  I102  1  0.83192896  0.49993995  0.00364978  1
  I  I103  1  0.83727362  0.49278244  0.32854395  1
  I  I104  1  0.83570060  0.49962247  0.66687833  1
  I  I105  1  0.83385207  0.83214560  -0.00021895  1
  I  I106  1  0.84076840  0.83446424  0.33662971  1
  I  I107  1  0.83681884  0.83613879  0.66376846  1
  I  I108  1  -0.00239891  0.17094973  0.16579819  1
  I  I109  1  0.00325266  0.16442351  0.49906850  1
  I  I110  1  0.00144263  0.16437037  0.83683924  1
  I  I111  1  0.00010443  0.49606872  0.16324487  1
  I  I112  1  0.00028780  0.49889138  0.49572032  1
  I  I113  1  0.00397469  0.50519336  0.83952934  1
  I  I114  1  0.00009410  0.83315811  0.16304471  1
  I  I115  1  0.00201856  0.83672041  0.50472558  1
  I  I116  1  0.00335899  0.83182234  0.83136739  1
  I  I117  1  0.33508164  0.17128718  0.16683784  1
  I  I118  1  0.32849549  0.16017718  0.50533443  1
  I  I119  1  0.32987684  0.16750352  0.83177819  1
  I  I120  1  0.33312398  0.49547726  0.16298605  1
  I  I121  1  0.33285694  0.50229252  0.49622929  1
  I  I122  1  0.32924629  0.49556143  0.83918105  1
  I  I123  1  0.33313673  0.83380306  0.17048988  1
  I  I124  1  0.32980610  0.83653098  0.50154331  1
  I  I125  1  0.33071309  0.83507982  0.82912222  1
  I  I126  1  0.66768587  0.17433589  0.16123109  1
  I  I127  1  0.66672522  0.16417394  0.50167027  1
  I  I128  1  0.66921879  0.16263945  0.83748598  1
  I  I129  1  0.66680354  0.49541913  0.16831700  1
  I  I130  1  0.66687813  0.50244521  0.49988734  1
  I  I131  1  0.66676460  0.50226679  0.83503671  1
  I  I132  1  0.66672677  0.82898906  0.16654686  1
  I  I133  1  0.66905270  0.83366609  0.49856365  1
  I  I134  1  0.66473942  0.83544087  0.83391891  1
