# generated using pymatgen
data_Cs27Sn14Pb13I81
_symmetry_space_group_name_H-M   'P 1'
_cell_length_a   18.97817096
_cell_length_b   18.96807348
_cell_length_c   18.98173635
_cell_angle_alpha   90.00132135
_cell_angle_beta   90.00039148
_cell_angle_gamma   89.99805641
_symmetry_Int_Tables_number   1
_chemical_formula_structural   Cs27Sn14Pb13I81
_chemical_formula_sum   'Cs27 Sn14 Pb13 I81'
_cell_volume   6833.03294066
_cell_formula_units_Z   1
loop_
 _symmetry_equiv_pos_site_id
 _symmetry_equiv_pos_as_xyz
  1  'x, y, z'
loop_
 _atom_site_type_symbol
 _atom_site_label
 _atom_site_symmetry_multiplicity
 _atom_site_fract_x
 _atom_site_fract_y
 _atom_site_fract_z
 _atom_site_occupancy
  Cs  Cs0  1  0.00329827  -0.00025000  0.00019840  1
  Cs  Cs1  1  -0.00167054  -0.00011477  0.33131991  1
  Cs  Cs2  1  0.00028423  -0.00073152  0.66661215  1
  Cs  Cs3  1  0.00076289  0.33448591  0.00340315  1
  Cs  Cs4  1  -0.00185982  0.33315928  0.33140930  1
  Cs  Cs5  1  0.00353535  0.33188380  0.66550441  1
  Cs  Cs6  1  -0.00595562  0.66435503  -0.00537398  1
  Cs  Cs7  1  -0.00169431  0.66640533  0.33592685  1
  Cs  Cs8  1  0.00084921  0.67002370  0.66548026  1
  Cs  Cs9  1  0.33495007  -0.00416310  0.00437777  1
  Cs  Cs10  1  0.33340039  -0.00274374  0.33122451  1
  Cs  Cs11  1  0.33167052  0.00292596  0.66560560  1
  Cs  Cs12  1  0.33106667  0.33140983  0.00070342  1
  Cs  Cs13  1  0.33363496  0.33496430  0.33325211  1
  Cs  Cs14  1  0.33342823  0.33335747  0.66634052  1
  Cs  Cs15  1  0.33596907  0.67402091  0.00262662  1
  Cs  Cs16  1  0.33318416  0.66634087  0.33333948  1
  Cs  Cs17  1  0.33284255  0.66461499  0.66654645  1
  Cs  Cs18  1  0.66196273  -0.00363209  -0.00257027  1
  Cs  Cs19  1  0.66794196  -0.00129160  0.33547595  1
  Cs  Cs20  1  0.66863034  0.00275532  0.66403421  1
  Cs  Cs21  1  0.66882247  0.33550420  0.00103996  1
  Cs  Cs22  1  0.66792058  0.33317874  0.33304151  1
  Cs  Cs23  1  0.66319632  0.33195356  0.66604769  1
  Cs  Cs24  1  0.66956567  0.66865469  -0.00723799  1
  Cs  Cs25  1  0.66794113  0.66872249  0.33420096  1
  Cs  Cs26  1  0.66575320  0.66416349  0.67056113  1
  Sn  Sn27  1  0.49970567  0.16699794  0.83347249  1
  Sn  Sn28  1  0.50059112  0.83385737  0.50020593  1
  Sn  Sn29  1  0.83380996  0.50038641  0.50014466  1
  Sn  Sn30  1  0.16739810  0.16744222  0.49997598  1
  Sn  Sn31  1  0.83336665  0.83335892  0.16709562  1
  Sn  Sn32  1  0.16668735  0.16744342  0.83287955  1
  Sn  Sn33  1  0.49964610  0.49962777  0.16662118  1
  Sn  Sn34  1  0.83370703  0.16703341  0.83355004  1
  Sn  Sn35  1  0.16735693  0.50011870  0.16663151  1
  Sn  Sn36  1  0.83240114  0.83247170  0.49936191  1
  Sn  Sn37  1  0.49906154  0.16597358  0.49953448  1
  Sn  Sn38  1  0.16711999  0.49941776  0.83325513  1
  Sn  Sn39  1  0.16584801  0.49906720  0.50000181  1
  Sn  Sn40  1  0.50009084  0.16753587  0.16696813  1
  Pb  Pb41  1  0.16385301  0.82980555  0.16675797  1
  Pb  Pb42  1  0.50179837  0.83299109  0.16876381  1
  Pb  Pb43  1  0.83369282  0.16665860  0.50114482  1
  Pb  Pb44  1  0.49746051  0.49778561  0.83620550  1
  Pb  Pb45  1  0.83336341  0.83570441  0.83236142  1
  Pb  Pb46  1  0.49976009  0.49972400  0.49859071  1
  Pb  Pb47  1  0.16688018  0.83370267  0.83331335  1
  Pb  Pb48  1  0.16661088  0.83367560  0.49990023  1
  Pb  Pb49  1  0.16845182  0.16817169  0.16697144  1
  Pb  Pb50  1  0.83561191  0.49743611  0.83032593  1
  Pb  Pb51  1  0.49976135  0.83584792  0.82988714  1
  Pb  Pb52  1  0.83306334  0.50162248  0.16844720  1
  Pb  Pb53  1  0.83054761  0.16454296  0.16397458  1
  I  I54  1  0.16757985  0.00001619  0.16640801  1
  I  I55  1  0.16751357  0.00342163  0.50613862  1
  I  I56  1  0.16618664  0.00432618  0.82693631  1
  I  I57  1  0.16718481  0.33645309  0.16736689  1
  I  I58  1  0.16685536  0.33346490  0.50135567  1
  I  I59  1  0.16699171  0.33233080  0.83141575  1
  I  I60  1  0.17506149  0.66152291  0.16840422  1
  I  I61  1  0.16599657  0.66336892  0.50059049  1
  I  I62  1  0.16543469  0.66301879  0.83166108  1
  I  I63  1  0.50154741  0.00290134  0.16423966  1
  I  I64  1  0.50074476  0.00171050  0.49874345  1
  I  I65  1  0.49693838  0.00474131  0.83945332  1
  I  I66  1  0.49662522  0.33253906  0.16934615  1
  I  I67  1  0.49936355  0.33018887  0.50216108  1
  I  I68  1  0.50181824  0.32924957  0.82632471  1
  I  I69  1  0.49551593  0.66396396  0.17050603  1
  I  I70  1  0.50082089  0.66859107  0.49584308  1
  I  I71  1  0.49893840  0.66639017  0.83402202  1
  I  I72  1  0.83188441  -0.00299372  0.17525819  1
  I  I73  1  0.83180550  -0.00224249  0.49828362  1
  I  I74  1  0.83539691  0.00376668  0.83046572  1
  I  I75  1  0.83410155  0.33337269  0.16741478  1
  I  I76  1  0.83475910  0.33552122  0.50161678  1
  I  I77  1  0.83024400  0.32960026  0.83185040  1
  I  I78  1  0.83215149  0.66942322  0.16956744  1
  I  I79  1  0.83385974  0.66683827  0.49587385  1
  I  I80  1  0.83520055  0.66639084  0.83499778  1
  I  I81  1  0.16656303  0.17086531  -0.00284823  1
  I  I82  1  0.17092767  0.17068108  0.33637853  1
  I  I83  1  0.17115496  0.17393279  0.66634881  1
  I  I84  1  0.17102207  0.49446281  -0.00018873  1
  I  I85  1  0.16671736  0.49612164  0.33425621  1
  I  I86  1  0.16170221  0.49535250  0.66591080  1
  I  I87  1  0.16508751  0.83508107  0.00020575  1
  I  I88  1  0.16843430  0.83432824  0.33349558  1
  I  I89  1  0.16438523  0.82935123  0.66631783  1
  I  I90  1  0.50037316  0.17219838  -0.00015566  1
  I  I91  1  0.49538473  0.16647526  0.33430206  1
  I  I92  1  0.49943454  0.16144632  0.66624242  1
  I  I93  1  0.49585603  0.49467826  0.00410904  1
  I  I94  1  0.49450523  0.49411921  0.33092107  1
  I  I95  1  0.50019012  0.50031993  0.66667349  1
  I  I96  1  0.50182067  0.83400342  0.00010714  1
  I  I97  1  0.50212637  0.83990883  0.33652744  1
  I  I98  1  0.50661840  0.83728564  0.66191290  1
  I  I99  1  0.83568808  0.16562112  -0.00380849  1
  I  I100  1  0.83328545  0.16788852  0.33331150  1
  I  I101  1  0.82948581  0.16540938  0.66902204  1
  I  I102  1  0.83408731  0.50180315  -0.00019171  1
  I  I103  1  0.83905642  0.50021130  0.33645368  1
  I  I104  1  0.83720736  0.50661994  0.66244325  1
  I  I105  1  0.83343082  0.83436730  0.00211680  1
  I  I106  1  0.82934817  0.83028551  0.33509175  1
  I  I107  1  0.82997401  0.83059001  0.66310759  1
  I  I108  1  -0.00006077  0.16700225  0.16659771  1
  I  I109  1  0.00277132  0.16769335  0.50551446  1
  I  I110  1  0.00148805  0.16948251  0.82697267  1
  I  I111  1  0.00285191  0.50148768  0.16547167  1
  I  I112  1  0.00135755  0.49976019  0.49790807  1
  I  I113  1  0.00367927  0.49366461  0.83887942  1
  I  I114  1  -0.00371629  0.83381359  0.17485239  1
  I  I115  1  -0.00285099  0.83211354  0.49681337  1
  I  I116  1  -0.00011271  0.83669967  0.83175234  1
  I  I117  1  0.33671009  0.16743534  0.16347677  1
  I  I118  1  0.33366190  0.16699296  0.50488724  1
  I  I119  1  0.33304721  0.17126327  0.83073643  1
  I  I120  1  0.33286062  0.49513404  0.16977490  1
  I  I121  1  0.33038081  0.49887057  0.50168175  1
  I  I122  1  0.32938939  0.49356389  0.82590871  1
  I  I123  1  0.33357412  0.83467432  0.16736341  1
  I  I124  1  0.33596271  0.83533102  0.50020851  1
  I  I125  1  0.33349752  0.83474475  0.83264174  1
  I  I126  1  0.66233501  0.17324415  0.16895891  1
  I  I127  1  0.66402507  0.16608143  0.50151160  1
  I  I128  1  0.66554962  0.16425785  0.83210495  1
  I  I129  1  0.66405651  0.49593486  0.17036960  1
  I  I130  1  0.66859502  0.50036263  0.49661041  1
  I  I131  1  0.66660070  0.49830999  0.83378631  1
  I  I132  1  0.66933354  0.83254068  0.17040471  1
  I  I133  1  0.66696090  0.83474891  0.49559534  1
  I  I134  1  0.66658775  0.83515355  0.83547600  1
