# generated using pymatgen
data_Cs27Sn13Pb14I81
_symmetry_space_group_name_H-M   'P 1'
_cell_length_a   18.97587032
_cell_length_b   18.98427536
_cell_length_c   18.97123110
_cell_angle_alpha   89.99848291
_cell_angle_beta   90.00335416
_cell_angle_gamma   90.00035509
_symmetry_Int_Tables_number   1
_chemical_formula_structural   Cs27Sn13Pb14I81
_chemical_formula_sum   'Cs27 Sn13 Pb14 I81'
_cell_volume   6834.25598836
_cell_formula_units_Z   1
loop_
 _symmetry_equiv_pos_site_id
 _symmetry_equiv_pos_as_xyz
  1  'x, y, z'
loop_
 _atom_site_type_symbol
 _atom_site_label
 _atom_site_symmetry_multiplicity
 _atom_site_fract_x
 _atom_site_fract_y
 _atom_site_fract_z
 _atom_site_occupancy
  Cs  Cs0  1  0.00207325  -0.00373867  0.00005353  1
  Cs  Cs1  1  -0.00281176  0.00130889  0.33459582  1
  Cs  Cs2  1  0.00077205  0.00015708  0.66600923  1
  Cs  Cs3  1  0.00033627  0.33192692  -0.00152141  1
  Cs  Cs4  1  0.00222471  0.33304824  0.33440906  1
  Cs  Cs5  1  -0.00212139  0.33394417  0.66734773  1
  Cs  Cs6  1  0.00348263  0.67416532  0.00086026  1
  Cs  Cs7  1  -0.00025265  0.66447928  0.33384431  1
  Cs  Cs8  1  -0.00024202  0.66615723  0.66520027  1
  Cs  Cs9  1  0.32995708  -0.00226906  -0.00026247  1
  Cs  Cs10  1  0.33506146  0.00329284  0.33695725  1
  Cs  Cs11  1  0.33242978  -0.00006122  0.66402507  1
  Cs  Cs12  1  0.33249526  0.33371439  0.00166448  1
  Cs  Cs13  1  0.33014295  0.33490875  0.33210464  1
  Cs  Cs14  1  0.33786118  0.33371251  0.66806785  1
  Cs  Cs15  1  0.33158369  0.66914797  -0.00130515  1
  Cs  Cs16  1  0.33517005  0.66034103  0.33628161  1
  Cs  Cs17  1  0.33415832  0.66652558  0.66551485  1
  Cs  Cs18  1  0.66736857  -0.00010087  0.00055712  1
  Cs  Cs19  1  0.66776792  -0.00039318  0.33365075  1
  Cs  Cs20  1  0.66613510  0.00149624  0.66604503  1
  Cs  Cs21  1  0.66672993  0.33351920  -0.00303105  1
  Cs  Cs22  1  0.66794810  0.33223884  0.33121293  1
  Cs  Cs23  1  0.66277146  0.33915735  0.67638323  1
  Cs  Cs24  1  0.66591843  0.66701164  0.00223107  1
  Cs  Cs25  1  0.66644669  0.66705795  0.33141905  1
  Cs  Cs26  1  0.66658446  0.66199460  0.66635930  1
  Sn  Sn27  1  0.83338891  0.16649938  0.50002571  1
  Sn  Sn28  1  0.83322793  0.49900897  0.16649020  1
  Sn  Sn29  1  0.16636310  0.49899217  0.83326825  1
  Sn  Sn30  1  0.49993652  0.83361199  0.16613613  1
  Sn  Sn31  1  0.50080353  0.16652812  0.16660316  1
  Sn  Sn32  1  0.83225925  0.83361746  0.83219468  1
  Sn  Sn33  1  0.16576466  0.16596437  0.50114729  1
  Sn  Sn34  1  0.16651167  0.16753930  0.83240526  1
  Sn  Sn35  1  0.83393849  0.83400352  0.50097293  1
  Sn  Sn36  1  0.50113607  0.83381636  0.83371522  1
  Sn  Sn37  1  0.83273352  0.16742390  0.16705702  1
  Sn  Sn38  1  0.16585322  0.83395155  0.49965917  1
  Sn  Sn39  1  0.50081443  0.49980212  0.16631821  1
  Pb  Pb40  1  0.50069467  0.83335604  0.50011268  1
  Pb  Pb41  1  0.16617423  0.50007422  0.16454856  1
  Pb  Pb42  1  0.16645344  0.49919668  0.50243495  1
  Pb  Pb43  1  0.16600397  0.16643640  0.16716790  1
  Pb  Pb44  1  0.83492975  0.16485342  0.83330140  1
  Pb  Pb45  1  0.50035821  0.49956826  0.49756030  1
  Pb  Pb46  1  0.49760139  0.16439799  0.83589850  1
  Pb  Pb47  1  0.16981616  0.83340358  0.17052547  1
  Pb  Pb48  1  0.83525164  0.50282070  0.83624421  1
  Pb  Pb49  1  0.16680319  0.83377935  0.83123468  1
  Pb  Pb50  1  0.83323607  0.49936043  0.49806590  1
  Pb  Pb51  1  0.50070385  0.16698182  0.49823582  1
  Pb  Pb52  1  0.49812505  0.50244554  0.83588509  1
  Pb  Pb53  1  0.83192612  0.83372583  0.16720627  1
  I  I54  1  0.16697442  -0.00000701  0.16022728  1
  I  I55  1  0.16348448  0.00073159  0.50559806  1
  I  I56  1  0.16706700  0.00220807  0.83168224  1
  I  I57  1  0.17147840  0.33312016  0.16994493  1
  I  I58  1  0.16219836  0.32964328  0.50026898  1
  I  I59  1  0.16608733  0.33222461  0.82906529  1
  I  I60  1  0.16560980  0.66683675  0.16496255  1
  I  I61  1  0.16325396  0.66939256  0.50086240  1
  I  I62  1  0.16719730  0.66539033  0.83395004  1
  I  I63  1  0.50380076  0.00007471  0.16351911  1
  I  I64  1  0.49846367  -0.00001219  0.49611109  1
  I  I65  1  0.50111640  -0.00346141  0.83980192  1
  I  I66  1  0.50382849  0.33313486  0.16878043  1
  I  I67  1  0.49802115  0.33297098  0.49807678  1
  I  I68  1  0.49976435  0.33330299  0.83423848  1
  I  I69  1  0.50397265  0.66676432  0.16321443  1
  I  I70  1  0.49812244  0.66702941  0.49717085  1
  I  I71  1  0.50060656  0.67031319  0.83898755  1
  I  I72  1  0.82928544  0.00261057  0.16815164  1
  I  I73  1  0.83781599  0.00008605  0.49676105  1
  I  I74  1  0.83267503  -0.00317094  0.83532034  1
  I  I75  1  0.82579703  0.33213190  0.17189744  1
  I  I76  1  0.83928671  0.32959255  0.49524902  1
  I  I77  1  0.83378373  0.33330707  0.83153948  1
  I  I78  1  0.82901508  0.66496105  0.16607606  1
  I  I79  1  0.83767628  0.66989835  0.50194285  1
  I  I80  1  0.83224163  0.67074876  0.82922775  1
  I  I81  1  0.16753585  0.17021480  -0.00235748  1
  I  I82  1  0.16633721  0.16163383  0.33639379  1
  I  I83  1  0.16096506  0.16547589  0.66575261  1
  I  I84  1  0.16716258  0.49474386  -0.00318041  1
  I  I85  1  0.16831351  0.50046027  0.33335011  1
  I  I86  1  0.16651715  0.50014147  0.67008002  1
  I  I87  1  0.16447560  0.83362107  -0.00018165  1
  I  I88  1  0.16049827  0.83987689  0.33813110  1
  I  I89  1  0.16733447  0.83498079  0.66362020  1
  I  I90  1  0.50495959  0.16839443  0.00419493  1
  I  I91  1  0.49886849  0.16333248  0.32940963  1
  I  I92  1  0.50117391  0.16398276  0.66700862  1
  I  I93  1  0.50354364  0.49810556  0.00401904  1
  I  I94  1  0.50184901  0.50440499  0.32842119  1
  I  I95  1  0.49844019  0.50213484  0.66748887  1
  I  I96  1  0.50537434  0.83319755  0.00045127  1
  I  I97  1  0.49973663  0.83289384  0.33026741  1
  I  I98  1  0.49964653  0.83367727  0.66932702  1
  I  I99  1  0.83070283  0.16857989  0.00288284  1
  I  I100  1  0.83530807  0.16388992  0.33330173  1
  I  I101  1  0.83773228  0.16206122  0.66380944  1
  I  I102  1  0.82891581  0.49469598  0.00409075  1
  I  I103  1  0.82964489  0.50173321  0.32970804  1
  I  I104  1  0.83488825  0.49863627  0.66709459  1
  I  I105  1  0.83151870  0.83288234  -0.00181157  1
  I  I106  1  0.83596417  0.83441702  0.33598649  1
  I  I107  1  0.83216000  0.83911343  0.66598419  1
  I  I108  1  -0.00332169  0.17135347  0.16808327  1
  I  I109  1  -0.00028031  0.16164347  0.49688535  1
  I  I110  1  0.00299774  0.16684057  0.83491842  1
  I  I111  1  -0.00316016  0.49483238  0.16646516  1
  I  I112  1  -0.00007275  0.50192509  0.49596569  1
  I  I113  1  0.00293163  0.49835509  0.83557124  1
  I  I114  1  -0.00018215  0.83307301  0.16278152  1
  I  I115  1  -0.00090204  0.83740593  0.50568162  1
  I  I116  1  -0.00218540  0.83317767  0.83216363  1
  I  I117  1  0.33606287  0.16699751  0.16623640  1
  I  I118  1  0.33023263  0.16147296  0.50196847  1
  I  I119  1  0.32962750  0.16765201  0.82896087  1
  I  I120  1  0.33641582  0.49979727  0.16580826  1
  I  I121  1  0.33305921  0.50178652  0.49707818  1
  I  I122  1  0.33036850  0.49843647  0.83545567  1
  I  I123  1  0.33805330  0.83345152  0.15980143  1
  I  I124  1  0.33080425  0.83781767  0.49982236  1
  I  I125  1  0.33542727  0.83298733  0.83753864  1
  I  I126  1  0.66725271  0.16660902  0.17233049  1
  I  I127  1  0.67043557  0.15971334  0.49502476  1
  I  I128  1  0.66667896  0.16642191  0.83119740  1
  I  I129  1  0.66625287  0.49991727  0.16694463  1
  I  I130  1  0.66706307  0.50194503  0.50241232  1
  I  I131  1  0.66669409  0.49980555  0.83235600  1
  I  I132  1  0.66381143  0.83323498  0.16717030  1
  I  I133  1  0.67002329  0.83838755  0.49989279  1
  I  I134  1  0.66691977  0.83395254  0.83252504  1
