# generated using pymatgen
data_Cs27Sn14Pb13I81
_symmetry_space_group_name_H-M   'P 1'
_cell_length_a   19.05149888
_cell_length_b   19.03681734
_cell_length_c   19.04987121
_cell_angle_alpha   90.00056431
_cell_angle_beta   89.99824708
_cell_angle_gamma   90.00156358
_symmetry_Int_Tables_number   1
_chemical_formula_structural   Cs27Sn14Pb13I81
_chemical_formula_sum   'Cs27 Sn14 Pb13 I81'
_cell_volume   6909.00546154
_cell_formula_units_Z   1
loop_
 _symmetry_equiv_pos_site_id
 _symmetry_equiv_pos_as_xyz
  1  'x, y, z'
loop_
 _atom_site_type_symbol
 _atom_site_label
 _atom_site_symmetry_multiplicity
 _atom_site_fract_x
 _atom_site_fract_y
 _atom_site_fract_z
 _atom_site_occupancy
  Cs  Cs0  1  -0.00288276  0.00123000  0.00227484  1
  Cs  Cs1  1  0.00297397  -0.00122709  0.32811927  1
  Cs  Cs2  1  -0.00114458  0.01515176  0.66777947  1
  Cs  Cs3  1  0.00438247  0.33556117  0.00148808  1
  Cs  Cs4  1  -0.00820946  0.33783966  0.33077005  1
  Cs  Cs5  1  -0.00442796  0.32661743  0.66614230  1
  Cs  Cs6  1  0.00254119  0.66556171  -0.00298371  1
  Cs  Cs7  1  -0.00012226  0.66507027  0.33486956  1
  Cs  Cs8  1  0.00202497  0.66539691  0.67175749  1
  Cs  Cs9  1  0.33219777  -0.00343016  0.00355883  1
  Cs  Cs10  1  0.33361083  -0.00140751  0.33515621  1
  Cs  Cs11  1  0.32855500  0.00764945  0.66090732  1
  Cs  Cs12  1  0.34200575  0.33350804  -0.00334422  1
  Cs  Cs13  1  0.33784240  0.33079712  0.33268889  1
  Cs  Cs14  1  0.33557812  0.32703332  0.67098985  1
  Cs  Cs15  1  0.33105454  0.66684542  -0.00270706  1
  Cs  Cs16  1  0.33075866  0.67037018  0.33975296  1
  Cs  Cs17  1  0.33405399  0.66655111  0.66452016  1
  Cs  Cs18  1  0.67482095  -0.00337653  -0.00069917  1
  Cs  Cs19  1  0.66402760  -0.00372539  0.33148024  1
  Cs  Cs20  1  0.67378355  0.00482376  0.66962724  1
  Cs  Cs21  1  0.64525042  0.33954153  0.00210657  1
  Cs  Cs22  1  0.67109879  0.33333527  0.33455678  1
  Cs  Cs23  1  0.66751308  0.31909576  0.66404900  1
  Cs  Cs24  1  0.66448659  0.66666461  -0.00299995  1
  Cs  Cs25  1  0.66848391  0.66616197  0.33617767  1
  Cs  Cs26  1  0.66364472  0.66877392  0.66548789  1
  Sn  Sn27  1  0.50122213  0.83271857  0.50065996  1
  Sn  Sn28  1  0.83367893  0.16669907  0.16575509  1
  Sn  Sn29  1  0.83371263  0.83265757  0.49981223  1
  Sn  Sn30  1  0.16585007  0.50075234  0.83304371  1
  Sn  Sn31  1  0.49940620  0.50075050  0.50028353  1
  Sn  Sn32  1  0.83386070  0.83291641  0.16773583  1
  Sn  Sn33  1  0.16711867  0.50019024  0.16678163  1
  Sn  Sn34  1  0.16732940  0.49997884  0.50042126  1
  Sn  Sn35  1  0.16643452  0.83267993  0.16575045  1
  Sn  Sn36  1  0.16601128  0.16699370  0.16665017  1
  Sn  Sn37  1  0.16721614  0.83314585  0.83335007  1
  Sn  Sn38  1  0.49825590  0.83324338  0.83261252  1
  Sn  Sn39  1  0.49995558  0.83254773  0.16653706  1
  Sn  Sn40  1  0.83353460  0.49993137  0.83351854  1
  Pb  Pb41  1  0.83431871  0.83216279  0.83321993  1
  Pb  Pb42  1  0.16591615  0.83229771  0.50090691  1
  Pb  Pb43  1  0.49696721  0.50340258  0.16949007  1
  Pb  Pb44  1  0.49997458  0.16605226  0.49955927  1
  Pb  Pb45  1  0.83330388  0.50231295  0.50245922  1
  Pb  Pb46  1  0.50029542  0.16362766  0.16669038  1
  Pb  Pb47  1  0.49944355  0.50227590  0.83030601  1
  Pb  Pb48  1  0.83485846  0.50055917  0.16430763  1
  Pb  Pb49  1  0.16654923  0.17078949  0.49638023  1
  Pb  Pb50  1  0.83330537  0.17058326  0.83780208  1
  Pb  Pb51  1  0.16667077  0.16657930  0.83635104  1
  Pb  Pb52  1  0.49987873  0.16208905  0.83378512  1
  Pb  Pb53  1  0.83349731  0.16320595  0.49660313  1
  I  I54  1  0.16660465  -0.00199202  0.16025417  1
  I  I55  1  0.16732909  0.00041891  0.50177068  1
  I  I56  1  0.17306052  -0.00328393  0.83817380  1
  I  I57  1  0.15737400  0.33379622  0.16872568  1
  I  I58  1  0.17552606  0.33858231  0.50347954  1
  I  I59  1  0.16052250  0.33653853  0.83289345  1
  I  I60  1  0.16710986  0.66722227  0.16571115  1
  I  I61  1  0.16751587  0.66456073  0.49283596  1
  I  I62  1  0.16674866  0.66688668  0.84110553  1
  I  I63  1  0.49231560  -0.00468118  0.17100096  1
  I  I64  1  0.50516887  -0.00404758  0.49872255  1
  I  I65  1  0.49229279  -0.00596271  0.83042997  1
  I  I66  1  0.50135385  0.33352518  0.16860409  1
  I  I67  1  0.49228534  0.33639697  0.50082220  1
  I  I68  1  0.50083667  0.33350123  0.83171797  1
  I  I69  1  0.50282819  0.67116629  0.16299306  1
  I  I70  1  0.49928929  0.66837667  0.49856877  1
  I  I71  1  0.49868671  0.66986952  0.83818632  1
  I  I72  1  0.83949799  -0.00210921  0.17118694  1
  I  I73  1  0.82395771  -0.00468114  0.50250183  1
  I  I74  1  0.83144435  0.00038952  0.82849776  1
  I  I75  1  0.84286926  0.33108254  0.16439435  1
  I  I76  1  0.83244959  0.33323982  0.50030888  1
  I  I77  1  0.84594916  0.33769678  0.83043483  1
  I  I78  1  0.83336838  0.67015644  0.17069629  1
  I  I79  1  0.83116348  0.66955387  0.48853696  1
  I  I80  1  0.83671457  0.66487066  0.83742071  1
  I  I81  1  0.16106305  0.17049603  0.00377115  1
  I  I82  1  0.16302796  0.16063686  0.32904846  1
  I  I83  1  0.16784586  0.16397374  0.66662639  1
  I  I84  1  0.15854889  0.50174989  0.00026567  1
  I  I85  1  0.17264736  0.50158862  0.33270184  1
  I  I86  1  0.16691027  0.51127047  0.66724126  1
  I  I87  1  0.17049449  0.82815076  0.00134012  1
  I  I88  1  0.16911701  0.83337844  0.33040078  1
  I  I89  1  0.17068419  0.82466616  0.66969762  1
  I  I90  1  0.49968134  0.17055063  0.00042465  1
  I  I91  1  0.49854419  0.16469896  0.33297531  1
  I  I92  1  0.50013119  0.16584062  0.66654794  1
  I  I93  1  0.50154666  0.49851465  -0.00012838  1
  I  I94  1  0.49418992  0.50764036  0.33669616  1
  I  I95  1  0.49208213  0.51130129  0.66335102  1
  I  I96  1  0.49916013  0.83527220  0.00030384  1
  I  I97  1  0.50025372  0.82981750  0.33325082  1
  I  I98  1  0.50063585  0.82503260  0.66640589  1
  I  I99  1  0.84080620  0.15112191  0.00421348  1
  I  I100  1  0.83963576  0.16845217  0.32926654  1
  I  I101  1  0.83163075  0.16567492  0.66704586  1
  I  I102  1  0.84216050  0.50399510  -0.00283679  1
  I  I103  1  0.83374019  0.49600465  0.33322500  1
  I  I104  1  0.84241800  0.50645589  0.66958477  1
  I  I105  1  0.83027619  0.83768322  0.00287129  1
  I  I106  1  0.82933659  0.83700114  0.33211389  1
  I  I107  1  0.82754834  0.82700939  0.66452411  1
  I  I108  1  0.00071181  0.15789578  0.16703539  1
  I  I109  1  0.00001762  0.16552501  0.50490730  1
  I  I110  1  -0.00002200  0.15813532  0.82899325  1
  I  I111  1  0.00347135  0.50622504  0.17339215  1
  I  I112  1  0.00295986  0.50223616  0.49573605  1
  I  I113  1  0.00244782  0.50983943  0.83228586  1
  I  I114  1  0.00074710  0.83416774  0.16717553  1
  I  I115  1  -0.00234986  0.83040948  0.49334987  1
  I  I116  1  0.00319004  0.82928574  0.83851476  1
  I  I117  1  0.33043624  0.16708372  0.16643976  1
  I  I118  1  0.33305268  0.15869767  0.49647687  1
  I  I119  1  0.33303346  0.17490432  0.83625689  1
  I  I120  1  0.32896695  0.49781187  0.15776626  1
  I  I121  1  0.33285184  0.51053781  0.49976074  1
  I  I122  1  0.33003472  0.50177603  0.83792114  1
  I  I123  1  0.33253883  0.83264286  0.16609839  1
  I  I124  1  0.33545051  0.83094009  0.49603440  1
  I  I125  1  0.33238372  0.82516322  0.83946324  1
  I  I126  1  0.66970151  0.15912229  0.16680234  1
  I  I127  1  0.66685723  0.17593897  0.49700381  1
  I  I128  1  0.66699849  0.16832649  0.83529191  1
  I  I129  1  0.66627382  0.49741898  0.16525522  1
  I  I130  1  0.66392393  0.50453683  0.50169758  1
  I  I131  1  0.66829284  0.50356345  0.83399244  1
  I  I132  1  0.66678484  0.84135655  0.16698580  1
  I  I133  1  0.66562492  0.82534299  0.49477333  1
  I  I134  1  0.66477162  0.83050732  0.83738703  1
