# generated using pymatgen
data_Cs27Sn13Pb14I81
_symmetry_space_group_name_H-M   'P 1'
_cell_length_a   18.97543608
_cell_length_b   18.97760699
_cell_length_c   18.97716526
_cell_angle_alpha   90.00036778
_cell_angle_beta   90.00143298
_cell_angle_gamma   89.99854711
_symmetry_Int_Tables_number   1
_chemical_formula_structural   Cs27Sn13Pb14I81
_chemical_formula_sum   'Cs27 Sn13 Pb14 I81'
_cell_volume   6833.83601445
_cell_formula_units_Z   1
loop_
 _symmetry_equiv_pos_site_id
 _symmetry_equiv_pos_as_xyz
  1  'x, y, z'
loop_
 _atom_site_type_symbol
 _atom_site_label
 _atom_site_symmetry_multiplicity
 _atom_site_fract_x
 _atom_site_fract_y
 _atom_site_fract_z
 _atom_site_occupancy
  Cs  Cs0  1  -0.00070279  0.00031723  0.00017453  1
  Cs  Cs1  1  0.00149730  0.00272985  0.33190048  1
  Cs  Cs2  1  0.00104074  -0.00258160  0.66739688  1
  Cs  Cs3  1  -0.00013706  0.33369790  0.00071887  1
  Cs  Cs4  1  0.00009298  0.33246597  0.33294110  1
  Cs  Cs5  1  0.00137336  0.33391851  0.66648347  1
  Cs  Cs6  1  0.00075473  0.66606295  -0.00124525  1
  Cs  Cs7  1  0.00169711  0.66482553  0.33639159  1
  Cs  Cs8  1  -0.00145912  0.66781489  0.66588809  1
  Cs  Cs9  1  0.33243910  -0.00019771  -0.00153327  1
  Cs  Cs10  1  0.33437539  -0.00219319  0.33456627  1
  Cs  Cs11  1  0.33389105  0.00354499  0.66622660  1
  Cs  Cs12  1  0.33444796  0.33604443  -0.00316141  1
  Cs  Cs13  1  0.33162750  0.33522140  0.33190731  1
  Cs  Cs14  1  0.33822833  0.32980314  0.66998359  1
  Cs  Cs15  1  0.33485556  0.66557864  0.00220852  1
  Cs  Cs16  1  0.33863791  0.66992950  0.32864123  1
  Cs  Cs17  1  0.33134809  0.66771499  0.66746367  1
  Cs  Cs18  1  0.67082515  -0.00287707  0.00350732  1
  Cs  Cs19  1  0.65985769  0.00206802  0.32986923  1
  Cs  Cs20  1  0.66693494  -0.00161873  0.66519337  1
  Cs  Cs21  1  0.66998237  0.33357423  -0.00137222  1
  Cs  Cs22  1  0.66880328  0.33161687  0.33918676  1
  Cs  Cs23  1  0.65985872  0.33496509  0.66474379  1
  Cs  Cs24  1  0.66453879  0.66871049  -0.00099671  1
  Cs  Cs25  1  0.65968270  0.66587722  0.33965821  1
  Cs  Cs26  1  0.67169142  0.66394940  0.66061616  1
  Sn  Sn27  1  0.16663173  0.49916909  0.50095421  1
  Sn  Sn28  1  0.16553711  0.83394443  0.16585251  1
  Sn  Sn29  1  0.83346843  0.50161269  0.16642085  1
  Sn  Sn30  1  0.83369032  0.16745551  0.83192676  1
  Sn  Sn31  1  0.83439137  0.16628313  0.50147866  1
  Sn  Sn32  1  0.83422824  0.49913010  0.83407856  1
  Sn  Sn33  1  0.49924208  0.83319999  0.83315270  1
  Sn  Sn34  1  0.83416209  0.83153396  0.16704726  1
  Sn  Sn35  1  0.16574825  0.16761335  0.49938147  1
  Sn  Sn36  1  0.16777190  0.16616528  0.16701900  1
  Sn  Sn37  1  0.16587351  0.50067084  0.83250373  1
  Sn  Sn38  1  0.16750406  0.83256186  0.83427384  1
  Sn  Sn39  1  0.49844591  0.16734600  0.16594180  1
  Pb  Pb40  1  0.50363933  0.49722120  0.16644935  1
  Pb  Pb41  1  0.49962218  0.83475990  0.16516034  1
  Pb  Pb42  1  0.16532318  0.50011667  0.16646767  1
  Pb  Pb43  1  0.83513635  0.49810051  0.50025384  1
  Pb  Pb44  1  0.49984903  0.83345465  0.50342920  1
  Pb  Pb45  1  0.83358928  0.83638193  0.49623629  1
  Pb  Pb46  1  0.83397967  0.16684299  0.16681280  1
  Pb  Pb47  1  0.49926958  0.16668857  0.49797591  1
  Pb  Pb48  1  0.16664315  0.83347011  0.49986670  1
  Pb  Pb49  1  0.16525361  0.16669561  0.83346885  1
  Pb  Pb50  1  0.50329843  0.16450981  0.83562927  1
  Pb  Pb51  1  0.83385489  0.83279996  0.83457262  1
  Pb  Pb52  1  0.49586046  0.49986357  0.50012401  1
  Pb  Pb53  1  0.50021983  0.50229556  0.83336251  1
  I  I54  1  0.16362357  -0.00002192  0.16614479  1
  I  I55  1  0.16304705  0.00319269  0.49857894  1
  I  I56  1  0.16767563  -0.00235710  0.83484531  1
  I  I57  1  0.16724312  0.33075746  0.16767576  1
  I  I58  1  0.16151541  0.33228419  0.49852951  1
  I  I59  1  0.16277324  0.33577307  0.83343341  1
  I  I60  1  0.16349660  0.66928709  0.16549445  1
  I  I61  1  0.16541741  0.66389854  0.50166946  1
  I  I62  1  0.16436173  0.66648206  0.83334984  1
  I  I63  1  0.50222731  0.00265912  0.16587978  1
  I  I64  1  0.49858285  0.00037079  0.49927153  1
  I  I65  1  0.49374777  -0.00300306  0.83474878  1
  I  I66  1  0.49387168  0.32932461  0.16608771  1
  I  I67  1  0.50284193  0.33300047  0.50005996  1
  I  I68  1  0.49821079  0.33322377  0.83410356  1
  I  I69  1  0.49787343  0.66677172  0.16593606  1
  I  I70  1  0.50015428  0.66662286  0.49781117  1
  I  I71  1  0.49930439  0.67006677  0.83689253  1
  I  I72  1  0.83455772  -0.00175546  0.16537512  1
  I  I73  1  0.84065418  0.00447616  0.50550817  1
  I  I74  1  0.83391308  0.00205715  0.83270959  1
  I  I75  1  0.83399031  0.33524024  0.16473253  1
  I  I76  1  0.83654534  0.33012819  0.49721788  1
  I  I77  1  0.83959167  0.33407440  0.83768626  1
  I  I78  1  0.84013807  0.66680135  0.15906319  1
  I  I79  1  0.83464689  0.66648620  0.50241933  1
  I  I80  1  0.83483636  0.66383677  0.83682408  1
  I  I81  1  0.16710868  0.16520154  0.00258294  1
  I  I82  1  0.16341996  0.16686426  0.33296780  1
  I  I83  1  0.16301597  0.16704805  0.66442395  1
  I  I84  1  0.16362437  0.50063050  -0.00268959  1
  I  I85  1  0.16350909  0.49762784  0.33519080  1
  I  I86  1  0.16023146  0.50084611  0.66799205  1
  I  I87  1  0.16603047  0.83425852  0.00021695  1
  I  I88  1  0.16192173  0.83492850  0.33005085  1
  I  I89  1  0.17017383  0.83282176  0.66986315  1
  I  I90  1  0.49483841  0.16564343  0.00322555  1
  I  I91  1  0.50248761  0.16426390  0.32998463  1
  I  I92  1  0.49846752  0.16502276  0.66689611  1
  I  I93  1  0.49536919  0.49909253  -0.00005831  1
  I  I94  1  0.50060670  0.50068635  0.33313526  1
  I  I95  1  0.50498830  0.50032021  0.66691950  1
  I  I96  1  0.49843725  0.83488457  -0.00251751  1
  I  I97  1  0.50011335  0.83476766  0.33298883  1
  I  I98  1  0.49341264  0.83495010  0.67147447  1
  I  I99  1  0.83368942  0.16738570  -0.00181917  1
  I  I100  1  0.83489473  0.16658650  0.33519186  1
  I  I101  1  0.83940977  0.17090561  0.66702053  1
  I  I102  1  0.83976415  0.49648220  -0.00095114  1
  I  I103  1  0.83583663  0.50073341  0.33097671  1
  I  I104  1  0.83580095  0.49833639  0.66975350  1
  I  I105  1  0.83515778  0.83628184  0.00260212  1
  I  I106  1  0.84067995  0.82954381  0.32815567  1
  I  I107  1  0.83287086  0.83218858  0.66662475  1
  I  I108  1  0.00260961  0.16503471  0.16793191  1
  I  I109  1  0.00100223  0.17011995  0.49636410  1
  I  I110  1  -0.00268013  0.16562383  0.83574639  1
  I  I111  1  -0.00261861  0.49797739  0.16449798  1
  I  I112  1  0.00309761  0.49725989  0.50122674  1
  I  I113  1  0.00027669  0.50199650  0.83384898  1
  I  I114  1  0.00112533  0.83723427  0.16001176  1
  I  I115  1  0.00017596  0.83264507  0.50470928  1
  I  I116  1  0.00286741  0.83263078  0.83614529  1
  I  I117  1  0.33101131  0.16024384  0.17217406  1
  I  I118  1  0.32956547  0.16990785  0.49776471  1
  I  I119  1  0.33320832  0.16834042  0.83174077  1
  I  I120  1  0.33316836  0.50186251  0.16703988  1
  I  I121  1  0.32764674  0.49265641  0.50587249  1
  I  I122  1  0.32981673  0.50149370  0.82980896  1
  I  I123  1  0.32996329  0.83592848  0.16499069  1
  I  I124  1  0.33283619  0.83461363  0.49504764  1
  I  I125  1  0.33094345  0.82857842  0.83980155  1
  I  I126  1  0.66549083  0.16579252  0.16559778  1
  I  I127  1  0.66952288  0.16642076  0.50120312  1
  I  I128  1  0.67133792  0.17084544  0.83057347  1
  I  I129  1  0.67186855  0.50383202  0.15945664  1
  I  I130  1  0.66694737  0.49845751  0.49993312  1
  I  I131  1  0.67023715  0.49708845  0.83844067  1
  I  I132  1  0.66918421  0.83357357  0.16354738  1
  I  I133  1  0.66697038  0.83523170  0.50016278  1
  I  I134  1  0.66530498  0.83577934  0.83691202  1
