# generated using pymatgen
data_Cs27Sn14Pb13I81
_symmetry_space_group_name_H-M   'P 1'
_cell_length_a   18.97837635
_cell_length_b   18.97052358
_cell_length_c   18.97807481
_cell_angle_alpha   90.00054259
_cell_angle_beta   90.00174079
_cell_angle_gamma   90.00028802
_symmetry_Int_Tables_number   1
_chemical_formula_structural   Cs27Sn14Pb13I81
_chemical_formula_sum   'Cs27 Sn14 Pb13 I81'
_cell_volume   6832.67125942
_cell_formula_units_Z   1
loop_
 _symmetry_equiv_pos_site_id
 _symmetry_equiv_pos_as_xyz
  1  'x, y, z'
loop_
 _atom_site_type_symbol
 _atom_site_label
 _atom_site_symmetry_multiplicity
 _atom_site_fract_x
 _atom_site_fract_y
 _atom_site_fract_z
 _atom_site_occupancy
  Cs  Cs0  1  -0.00167761  -0.00322025  0.00095996  1
  Cs  Cs1  1  0.00078817  0.00042995  0.33403803  1
  Cs  Cs2  1  -0.00106879  -0.00010925  0.66570389  1
  Cs  Cs3  1  -0.00206954  0.33911899  0.00270980  1
  Cs  Cs4  1  -0.00162588  0.34248745  0.33378961  1
  Cs  Cs5  1  0.00665049  0.33304264  0.66443600  1
  Cs  Cs6  1  0.00165340  0.66909886  -0.00088364  1
  Cs  Cs7  1  0.00005915  0.66205433  0.33324803  1
  Cs  Cs8  1  -0.00356606  0.66819564  0.66717478  1
  Cs  Cs9  1  0.33451681  -0.00052667  0.00193195  1
  Cs  Cs10  1  0.33413069  -0.00149271  0.33251919  1
  Cs  Cs11  1  0.33145790  0.00290961  0.66570239  1
  Cs  Cs12  1  0.33444549  0.33492161  -0.00758962  1
  Cs  Cs13  1  0.32977087  0.33086135  0.33407293  1
  Cs  Cs14  1  0.32559155  0.33665244  0.67583634  1
  Cs  Cs15  1  0.33233329  0.66716837  0.00191925  1
  Cs  Cs16  1  0.33604010  0.66802462  0.33301726  1
  Cs  Cs17  1  0.33865808  0.66183697  0.66500998  1
  Cs  Cs18  1  0.66718087  0.00026797  0.00010660  1
  Cs  Cs19  1  0.66565618  0.00150592  0.33315469  1
  Cs  Cs20  1  0.66935686  0.00036382  0.66476032  1
  Cs  Cs21  1  0.66661112  0.33178049  -0.00024792  1
  Cs  Cs22  1  0.67117590  0.33054796  0.33178941  1
  Cs  Cs23  1  0.66543305  0.33449116  0.66891657  1
  Cs  Cs24  1  0.66606620  0.67009925  -0.00149893  1
  Cs  Cs25  1  0.66416306  0.66532392  0.33721647  1
  Cs  Cs26  1  0.66607800  0.66386472  0.66357067  1
  Sn  Sn27  1  0.50009773  0.49951558  0.16695422  1
  Sn  Sn28  1  0.16713960  0.16605794  0.16652431  1
  Sn  Sn29  1  0.49911216  0.83401104  0.83350663  1
  Sn  Sn30  1  0.49893301  0.16690822  0.16736862  1
  Sn  Sn31  1  0.83403091  0.83419150  0.49864768  1
  Sn  Sn32  1  0.16825156  0.83376394  0.83293057  1
  Sn  Sn33  1  0.50022418  0.83346111  0.16604430  1
  Sn  Sn34  1  0.83277538  0.16602021  0.50070246  1
  Sn  Sn35  1  0.83317555  0.83346255  0.16814813  1
  Sn  Sn36  1  0.83328210  0.49859616  0.83334553  1
  Sn  Sn37  1  0.16658210  0.83418896  0.16706536  1
  Sn  Sn38  1  0.16602092  0.83362796  0.49984564  1
  Sn  Sn39  1  0.50008620  0.16685236  0.49992021  1
  Sn  Sn40  1  0.83350081  0.16782110  0.83254187  1
  Pb  Pb41  1  0.50180427  0.50262281  0.83541006  1
  Pb  Pb42  1  0.16693409  0.50332329  0.49988970  1
  Pb  Pb43  1  0.16430508  0.50308143  0.83351803  1
  Pb  Pb44  1  0.83092146  0.50343245  0.16477056  1
  Pb  Pb45  1  0.16923814  0.50012355  0.16657754  1
  Pb  Pb46  1  0.50002193  0.83494611  0.49996117  1
  Pb  Pb47  1  0.83312457  0.83375801  0.83285114  1
  Pb  Pb48  1  0.16383892  0.16435111  0.83629527  1
  Pb  Pb49  1  0.16637451  0.16499680  0.49783307  1
  Pb  Pb50  1  0.83315557  0.49960390  0.50206543  1
  Pb  Pb51  1  0.50003955  0.49560043  0.49758632  1
  Pb  Pb52  1  0.83370426  0.16512807  0.16713800  1
  Pb  Pb53  1  0.50147103  0.16467343  0.83335761  1
  I  I54  1  0.17145751  -0.00204934  0.16665350  1
  I  I55  1  0.16465692  -0.00354771  0.50090083  1
  I  I56  1  0.16725624  -0.00396782  0.83258842  1
  I  I57  1  0.17018556  0.33015558  0.16743858  1
  I  I58  1  0.16560867  0.33282718  0.49719233  1
  I  I59  1  0.16741404  0.33305126  0.83490577  1
  I  I60  1  0.16667806  0.67072231  0.16604724  1
  I  I61  1  0.16024523  0.67238705  0.49655277  1
  I  I62  1  0.16709134  0.67163766  0.83769880  1
  I  I63  1  0.49931267  -0.00075868  0.16658765  1
  I  I64  1  0.50215801  0.00259027  0.49365327  1
  I  I65  1  0.49975805  -0.00338722  0.84063139  1
  I  I66  1  0.49651466  0.33184092  0.17190583  1
  I  I67  1  0.50859303  0.32777280  0.49390809  1
  I  I68  1  0.50118449  0.33316853  0.83477079  1
  I  I69  1  0.50053669  0.66876125  0.16115711  1
  I  I70  1  0.50029594  0.66686532  0.49984709  1
  I  I71  1  0.49920874  0.67092479  0.83872446  1
  I  I72  1  0.82952428  -0.00331361  0.16452987  1
  I  I73  1  0.83294204  -0.00056401  0.50270149  1
  I  I74  1  0.83302628  0.00176074  0.83240696  1
  I  I75  1  0.83368655  0.33335379  0.16808483  1
  I  I76  1  0.82820218  0.32977131  0.50107329  1
  I  I77  1  0.83083121  0.33213604  0.82927070  1
  I  I78  1  0.83459815  0.67192103  0.16924086  1
  I  I79  1  0.83754258  0.67003274  0.49804939  1
  I  I80  1  0.83350453  0.66563710  0.83529367  1
  I  I81  1  0.17242364  0.15917137  0.00402766  1
  I  I82  1  0.16745323  0.15871121  0.32991972  1
  I  I83  1  0.16867147  0.16438288  0.66670098  1
  I  I84  1  0.16528717  0.50293594  0.00010212  1
  I  I85  1  0.16490119  0.50176499  0.33290345  1
  I  I86  1  0.16746606  0.50035668  0.66691430  1
  I  I87  1  0.16609015  0.83639752  0.00116059  1
  I  I88  1  0.16638543  0.83756047  0.33223311  1
  I  I89  1  0.16431874  0.83319966  0.66657630  1
  I  I90  1  0.49837282  0.16646656  0.00335001  1
  I  I91  1  0.50307555  0.16301285  0.33183546  1
  I  I92  1  0.50460421  0.16127801  0.66426884  1
  I  I93  1  0.50097387  0.49640636  0.00339504  1
  I  I94  1  0.50070340  0.50910353  0.32948232  1
  I  I95  1  0.50180709  0.50266953  0.66685173  1
  I  I96  1  0.49885545  0.83515507  0.00194945  1
  I  I97  1  0.49830367  0.83228197  0.33017538  1
  I  I98  1  0.49851665  0.83566172  0.66885910  1
  I  I99  1  0.83283046  0.16688545  -0.00170234  1
  I  I100  1  0.83124304  0.16186418  0.33577938  1
  I  I101  1  0.82720560  0.16222187  0.66561250  1
  I  I102  1  0.83270245  0.49525371  -0.00281736  1
  I  I103  1  0.83301938  0.49846927  0.33316257  1
  I  I104  1  0.83152959  0.50416483  0.66978792  1
  I  I105  1  0.83476296  0.83379335  0.00217386  1
  I  I106  1  0.83540957  0.83920587  0.33333373  1
  I  I107  1  0.83634342  0.83427687  0.66421293  1
  I  I108  1  0.00226135  0.15867607  0.16512569  1
  I  I109  1  -0.00291913  0.16255094  0.50329907  1
  I  I110  1  -0.00396471  0.16631433  0.82810814  1
  I  I111  1  -0.00019979  0.49988623  0.16580434  1
  I  I112  1  -0.00022799  0.49632034  0.49899473  1
  I  I113  1  -0.00352255  0.49877155  0.83447436  1
  I  I114  1  0.00062768  0.83884993  0.16529423  1
  I  I115  1  -0.00084322  0.83916644  0.49795028  1
  I  I116  1  0.00196837  0.83328782  0.83681031  1
  I  I117  1  0.33473111  0.16019987  0.17252217  1
  I  I118  1  0.33571632  0.16300872  0.49498613  1
  I  I119  1  0.33313286  0.16679897  0.83072116  1
  I  I120  1  0.33695381  0.50610926  0.16580549  1
  I  I121  1  0.33369388  0.50178931  0.50006527  1
  I  I122  1  0.33343197  0.49955612  0.83392710  1
  I  I123  1  0.33359352  0.83377696  0.16586751  1
  I  I124  1  0.33098141  0.83524714  0.49738760  1
  I  I125  1  0.33322199  0.83401490  0.83797137  1
  I  I126  1  0.66400039  0.16439110  0.16711683  1
  I  I127  1  0.66739564  0.15937693  0.49723617  1
  I  I128  1  0.66950935  0.16528515  0.83506476  1
  I  I129  1  0.66324905  0.49945954  0.16573264  1
  I  I130  1  0.66662072  0.50728305  0.50025563  1
  I  I131  1  0.66956407  0.50019988  0.83445531  1
  I  I132  1  0.66580931  0.83417746  0.16456630  1
  I  I133  1  0.66927059  0.83557187  0.49767224  1
  I  I134  1  0.66471915  0.83372995  0.83855800  1
