# generated using pymatgen
data_Cs27Sn13Pb14I81
_symmetry_space_group_name_H-M   'P 1'
_cell_length_a   18.97594003
_cell_length_b   18.97637142
_cell_length_c   18.97589497
_cell_angle_alpha   90.00024006
_cell_angle_beta   90.00073159
_cell_angle_gamma   89.99908588
_symmetry_Int_Tables_number   1
_chemical_formula_structural   Cs27Sn13Pb14I81
_chemical_formula_sum   'Cs27 Sn13 Pb14 I81'
_cell_volume   6833.11514487
_cell_formula_units_Z   1
loop_
 _symmetry_equiv_pos_site_id
 _symmetry_equiv_pos_as_xyz
  1  'x, y, z'
loop_
 _atom_site_type_symbol
 _atom_site_label
 _atom_site_symmetry_multiplicity
 _atom_site_fract_x
 _atom_site_fract_y
 _atom_site_fract_z
 _atom_site_occupancy
  Cs  Cs0  1  0.00224689  0.00007273  -0.00177068  1
  Cs  Cs1  1  -0.00072868  0.00010797  0.33513594  1
  Cs  Cs2  1  -0.00057991  0.00149586  0.66684453  1
  Cs  Cs3  1  0.00026223  0.33310334  -0.00133019  1
  Cs  Cs4  1  -0.00297032  0.32976814  0.33311635  1
  Cs  Cs5  1  -0.00051906  0.33277219  0.66743464  1
  Cs  Cs6  1  -0.00011141  0.66646554  0.00041996  1
  Cs  Cs7  1  -0.00325665  0.67158962  0.33251032  1
  Cs  Cs8  1  0.00332218  0.66647893  0.66677032  1
  Cs  Cs9  1  0.33304254  -0.00109840  0.00237835  1
  Cs  Cs10  1  0.33371484  0.00365242  0.33012616  1
  Cs  Cs11  1  0.33962601  -0.00321664  0.66698568  1
  Cs  Cs12  1  0.33157372  0.33516366  0.00435582  1
  Cs  Cs13  1  0.33727410  0.33136634  0.33173090  1
  Cs  Cs14  1  0.33117897  0.33938457  0.66089835  1
  Cs  Cs15  1  0.33363178  0.66682496  -0.00075512  1
  Cs  Cs16  1  0.33289160  0.66578492  0.33586646  1
  Cs  Cs17  1  0.33269036  0.66486883  0.65957659  1
  Cs  Cs18  1  0.66340218  0.00154684  -0.00694923  1
  Cs  Cs19  1  0.66881223  -0.00081023  0.33659771  1
  Cs  Cs20  1  0.65843820  -0.00101523  0.67123549  1
  Cs  Cs21  1  0.66773699  0.33454899  -0.00208075  1
  Cs  Cs22  1  0.66738414  0.33372183  0.33513061  1
  Cs  Cs23  1  0.66858970  0.33161168  0.66648764  1
  Cs  Cs24  1  0.66583514  0.66535455  0.00210698  1
  Cs  Cs25  1  0.67057316  0.66819745  0.33077711  1
  Cs  Cs26  1  0.66437837  0.66774463  0.66729687  1
  Sn  Sn27  1  0.16622296  0.16644659  0.50125686  1
  Sn  Sn28  1  0.50042206  0.49987561  0.83384999  1
  Sn  Sn29  1  0.16686195  0.50079052  0.16677973  1
  Sn  Sn30  1  0.16724030  0.83227258  0.16604001  1
  Sn  Sn31  1  0.83402272  0.16718541  0.49957493  1
  Sn  Sn32  1  0.83279905  0.50096647  0.83249028  1
  Sn  Sn33  1  0.49934230  0.83258670  0.16648302  1
  Sn  Sn34  1  0.83312486  0.16640815  0.16678849  1
  Sn  Sn35  1  0.49923702  0.50097210  0.16585440  1
  Sn  Sn36  1  0.16610335  0.83397085  0.83370577  1
  Sn  Sn37  1  0.83374905  0.49984655  0.50096781  1
  Sn  Sn38  1  0.16686481  0.16604423  0.83222585  1
  Sn  Sn39  1  0.83406668  0.83239107  0.83341429  1
  Pb  Pb40  1  0.50027979  0.16675080  0.50016369  1
  Pb  Pb41  1  0.83332927  0.83597919  0.16421132  1
  Pb  Pb42  1  0.16398596  0.49788041  0.49651193  1
  Pb  Pb43  1  0.16663262  0.50043114  0.83460623  1
  Pb  Pb44  1  0.83323765  0.49871619  0.16640007  1
  Pb  Pb45  1  0.83458347  0.16672165  0.83265028  1
  Pb  Pb46  1  0.16664967  0.83582105  0.49992672  1
  Pb  Pb47  1  0.50306543  0.16676051  0.16648461  1
  Pb  Pb48  1  0.49991474  0.83308414  0.49635231  1
  Pb  Pb49  1  0.16519941  0.16631057  0.16668739  1
  Pb  Pb50  1  0.49907803  0.83091429  0.83505122  1
  Pb  Pb51  1  0.50272669  0.50007558  0.49937022  1
  Pb  Pb52  1  0.49599124  0.17011457  0.83338571  1
  Pb  Pb53  1  0.83339690  0.83388950  0.50327568  1
  I  I54  1  0.16966731  -0.00277710  0.16503510  1
  I  I55  1  0.15823866  0.00380426  0.49862610  1
  I  I56  1  0.15935010  -0.00093394  0.83641418  1
  I  I57  1  0.16932442  0.33545127  0.16568549  1
  I  I58  1  0.16383403  0.33002008  0.50568696  1
  I  I59  1  0.16540967  0.33139274  0.83225578  1
  I  I60  1  0.16903521  0.66722074  0.16020480  1
  I  I61  1  0.16564389  0.66648915  0.50209811  1
  I  I62  1  0.16452689  0.66932739  0.83782030  1
  I  I63  1  0.49503679  -0.00293257  0.16658504  1
  I  I64  1  0.50292867  0.00002774  0.49913026  1
  I  I65  1  0.50373060  -0.00025951  0.83478806  1
  I  I66  1  0.49574532  0.33676529  0.16351329  1
  I  I67  1  0.49788028  0.33359144  0.49743551  1
  I  I68  1  0.50702563  0.33783307  0.84042004  1
  I  I69  1  0.49673606  0.66579445  0.16201932  1
  I  I70  1  0.50110841  0.66624798  0.50286186  1
  I  I71  1  0.50102621  0.66318935  0.83659448  1
  I  I72  1  0.83517333  0.00335917  0.17178130  1
  I  I73  1  0.83820595  0.00336072  0.49529616  1
  I  I74  1  0.83651284  -0.00215188  0.83541454  1
  I  I75  1  0.83499552  0.33099424  0.16608350  1
  I  I76  1  0.83699104  0.33305136  0.50142175  1
  I  I77  1  0.83148310  0.33591751  0.83321286  1
  I  I78  1  0.83380197  0.66684491  0.16895884  1
  I  I79  1  0.83199372  0.66390110  0.50108204  1
  I  I80  1  0.83584722  0.66579038  0.82979721  1
  I  I81  1  0.16359613  0.16589571  -0.00204588  1
  I  I82  1  0.16287552  0.16762106  0.33535723  1
  I  I83  1  0.15915762  0.16304404  0.66706929  1
  I  I84  1  0.16531813  0.49822939  0.00261252  1
  I  I85  1  0.17136318  0.50385802  0.32866618  1
  I  I86  1  0.16915747  0.50138325  0.66651985  1
  I  I87  1  0.16596022  0.83606575  -0.00002631  1
  I  I88  1  0.17051531  0.83075910  0.32980769  1
  I  I89  1  0.16133496  0.83531129  0.67002171  1
  I  I90  1  0.50194203  0.16584355  -0.00004763  1
  I  I91  1  0.49592908  0.16820191  0.33306475  1
  I  I92  1  0.50510163  0.16701067  0.66702044  1
  I  I93  1  0.50283721  0.50315036  0.00068957  1
  I  I94  1  0.49699128  0.50311610  0.32973738  1
  I  I95  1  0.50193562  0.49897786  0.66943725  1
  I  I96  1  0.49893294  0.83086009  0.00298618  1
  I  I97  1  0.49475864  0.82713590  0.32800456  1
  I  I98  1  0.50046399  0.83296678  0.66713875  1
  I  I99  1  0.83551057  0.16752751  0.00134549  1
  I  I100  1  0.83926186  0.17248276  0.33436191  1
  I  I101  1  0.83738284  0.16923672  0.66404720  1
  I  I102  1  0.83263514  0.50120633  -0.00257973  1
  I  I103  1  0.83393879  0.49569332  0.33519446  1
  I  I104  1  0.82879620  0.49693649  0.66777006  1
  I  I105  1  0.83537168  0.82856067  -0.00342950  1
  I  I106  1  0.83302032  0.83165706  0.33311548  1
  I  I107  1  0.83981342  0.83334330  0.67126998  1
  I  I108  1  -0.00245506  0.16820371  0.16775766  1
  I  I109  1  -0.00076203  0.17083644  0.49931893  1
  I  I110  1  0.00252595  0.16763634  0.83346850  1
  I  I111  1  0.00218439  0.50232084  0.16577610  1
  I  I112  1  -0.00373963  0.49728352  0.50560854  1
  I  I113  1  -0.00249382  0.50009642  0.83197447  1
  I  I114  1  0.00287708  0.82983348  0.16406107  1
  I  I115  1  -0.00007331  0.83130241  0.49471564  1
  I  I116  1  0.00067369  0.83150518  0.83939007  1
  I  I117  1  0.33325164  0.16737014  0.16719485  1
  I  I118  1  0.32997886  0.16593080  0.50321605  1
  I  I119  1  0.32816811  0.16021297  0.82983063  1
  I  I120  1  0.33354443  0.50202111  0.16012022  1
  I  I121  1  0.33307677  0.49833418  0.50250028  1
  I  I122  1  0.33546412  0.49855318  0.83774440  1
  I  I123  1  0.33212723  0.83052457  0.16033724  1
  I  I124  1  0.33303449  0.83481166  0.50555367  1
  I  I125  1  0.33014796  0.83738125  0.83660566  1
  I  I126  1  0.67081762  0.16773724  0.17252436  1
  I  I127  1  0.67047720  0.17122632  0.49475443  1
  I  I128  1  0.66661738  0.16393126  0.83346598  1
  I  I129  1  0.66418122  0.50298615  0.16552692  1
  I  I130  1  0.67069285  0.49264043  0.49956298  1
  I  I131  1  0.66784283  0.50465220  0.83615295  1
  I  I132  1  0.66433158  0.82884376  0.16571105  1
  I  I133  1  0.66700511  0.83579029  0.49989285  1
  I  I134  1  0.66878144  0.83194793  0.83449711  1
