# generated using pymatgen
data_Cs27Sn14Pb13I81
_symmetry_space_group_name_H-M   'P 1'
_cell_length_a   18.97392741
_cell_length_b   18.97935319
_cell_length_c   18.97351724
_cell_angle_alpha   89.99861890
_cell_angle_beta   90.00161143
_cell_angle_gamma   89.99825505
_symmetry_Int_Tables_number   1
_chemical_formula_structural   Cs27Sn14Pb13I81
_chemical_formula_sum   'Cs27 Sn14 Pb13 I81'
_cell_volume   6832.60773729
_cell_formula_units_Z   1
loop_
 _symmetry_equiv_pos_site_id
 _symmetry_equiv_pos_as_xyz
  1  'x, y, z'
loop_
 _atom_site_type_symbol
 _atom_site_label
 _atom_site_symmetry_multiplicity
 _atom_site_fract_x
 _atom_site_fract_y
 _atom_site_fract_z
 _atom_site_occupancy
  Cs  Cs0  1  0.00204361  -0.00201333  -0.00060697  1
  Cs  Cs1  1  -0.00020264  -0.00435270  0.33363938  1
  Cs  Cs2  1  0.00098784  0.00255336  0.66637067  1
  Cs  Cs3  1  -0.00118476  0.33762999  0.00295308  1
  Cs  Cs4  1  -0.00050291  0.33770919  0.32893652  1
  Cs  Cs5  1  -0.00048706  0.33136456  0.66638377  1
  Cs  Cs6  1  -0.00062968  0.66504636  0.00613478  1
  Cs  Cs7  1  -0.00309327  0.66588988  0.32028931  1
  Cs  Cs8  1  0.00340468  0.66488319  0.66891798  1
  Cs  Cs9  1  0.33474669  0.00009948  0.00095710  1
  Cs  Cs10  1  0.33127468  0.00421728  0.33222412  1
  Cs  Cs11  1  0.33200641  -0.00033950  0.66734577  1
  Cs  Cs12  1  0.33515322  0.33092263  0.00104341  1
  Cs  Cs13  1  0.33159213  0.32944836  0.33554735  1
  Cs  Cs14  1  0.33167349  0.33381163  0.66546459  1
  Cs  Cs15  1  0.33601711  0.66907257  -0.00336023  1
  Cs  Cs16  1  0.33477400  0.66480231  0.34065746  1
  Cs  Cs17  1  0.33313319  0.66568687  0.66538914  1
  Cs  Cs18  1  0.66276199  0.00199575  -0.00297254  1
  Cs  Cs19  1  0.66957856  -0.00111894  0.33729078  1
  Cs  Cs20  1  0.66992576  0.00062294  0.66589316  1
  Cs  Cs21  1  0.66582518  0.33355968  0.00006927  1
  Cs  Cs22  1  0.66664307  0.33309917  0.33056486  1
  Cs  Cs23  1  0.66943639  0.33270085  0.66729468  1
  Cs  Cs24  1  0.66614394  0.66545387  -0.00096198  1
  Cs  Cs25  1  0.66815040  0.66851756  0.33583116  1
  Cs  Cs26  1  0.66525534  0.66666072  0.66608850  1
  Sn  Sn27  1  0.16663198  0.83401023  0.83263122  1
  Sn  Sn28  1  0.16637865  0.83369292  0.50067452  1
  Sn  Sn29  1  0.50066959  0.50000473  0.83372648  1
  Sn  Sn30  1  0.83260456  0.50089907  0.83219930  1
  Sn  Sn31  1  0.83333727  0.16592065  0.16634562  1
  Sn  Sn32  1  0.49925377  0.16668662  0.83213247  1
  Sn  Sn33  1  0.49986691  0.83239802  0.16653300  1
  Sn  Sn34  1  0.16716710  0.16577492  0.50101496  1
  Sn  Sn35  1  0.83340290  0.83254633  0.83310202  1
  Sn  Sn36  1  0.16746376  0.16618655  0.83282856  1
  Sn  Sn37  1  0.83355417  0.50031873  0.50093693  1
  Sn  Sn38  1  0.49984581  0.16656811  0.50116046  1
  Sn  Sn39  1  0.50010150  0.83331251  0.83350936  1
  Sn  Sn40  1  0.49982156  0.50116172  0.16616341  1
  Pb  Pb41  1  0.50155097  0.49764414  0.50051997  1
  Pb  Pb42  1  0.83371443  0.16688368  0.83461716  1
  Pb  Pb43  1  0.50118030  0.16633014  0.16655507  1
  Pb  Pb44  1  0.17083152  0.50012510  0.16644429  1
  Pb  Pb45  1  0.16694512  0.49999250  0.83354575  1
  Pb  Pb46  1  0.83414758  0.16825122  0.49805737  1
  Pb  Pb47  1  0.16957637  0.83325292  0.16632910  1
  Pb  Pb48  1  0.83090705  0.49885707  0.16581726  1
  Pb  Pb49  1  0.16412101  0.16647416  0.16637201  1
  Pb  Pb50  1  0.83048138  0.83549319  0.16378323  1
  Pb  Pb51  1  0.16385932  0.50002627  0.50007688  1
  Pb  Pb52  1  0.83637028  0.83096777  0.50245860  1
  Pb  Pb53  1  0.49832258  0.83561574  0.50054138  1
  I  I54  1  0.16902012  -0.00004387  0.16620212  1
  I  I55  1  0.17029645  0.00081773  0.50489875  1
  I  I56  1  0.16929664  -0.00022573  0.82991056  1
  I  I57  1  0.16754422  0.33300769  0.16678037  1
  I  I58  1  0.17000545  0.32994575  0.50463520  1
  I  I59  1  0.16965284  0.33011750  0.82883763  1
  I  I60  1  0.16140508  0.66693144  0.16699008  1
  I  I61  1  0.16751450  0.66970124  0.50639492  1
  I  I62  1  0.16970057  0.67000319  0.82875845  1
  I  I63  1  0.50131813  -0.00227871  0.16155346  1
  I  I64  1  0.49981167  0.00358772  0.50305966  1
  I  I65  1  0.49995729  -0.00025756  0.83475160  1
  I  I66  1  0.50319101  0.33532768  0.16264908  1
  I  I67  1  0.49434529  0.32974814  0.50314991  1
  I  I68  1  0.50082288  0.33320177  0.83427362  1
  I  I69  1  0.50061345  0.66671842  0.15701544  1
  I  I70  1  0.49869384  0.66673528  0.50088998  1
  I  I71  1  0.50064661  0.66700833  0.83862782  1
  I  I72  1  0.83042377  0.00264881  0.16610107  1
  I  I73  1  0.83139623  -0.00016195  0.49956406  1
  I  I74  1  0.83044570  -0.00242088  0.83636568  1
  I  I75  1  0.83035985  0.33135903  0.16425379  1
  I  I76  1  0.83357557  0.33588016  0.50714398  1
  I  I77  1  0.82958920  0.33582973  0.83220109  1
  I  I78  1  0.83460054  0.66684997  0.16884437  1
  I  I79  1  0.83196916  0.66332584  0.50129455  1
  I  I80  1  0.82969416  0.66656453  0.82973898  1
  I  I81  1  0.17128002  0.16215583  -0.00363410  1
  I  I82  1  0.17128481  0.16307024  0.33664317  1
  I  I83  1  0.17038802  0.16250387  0.66741983  1
  I  I84  1  0.15979749  0.49868130  -0.00045312  1
  I  I85  1  0.16501382  0.49931074  0.33357175  1
  I  I86  1  0.17074146  0.50022770  0.66686789  1
  I  I87  1  0.16543261  0.83799858  -0.00387350  1
  I  I88  1  0.16869852  0.83874961  0.33619522  1
  I  I89  1  0.16891184  0.83777059  0.66846416  1
  I  I90  1  0.49747916  0.16658474  -0.00335517  1
  I  I91  1  0.49718165  0.16740794  0.33565800  1
  I  I92  1  0.49722113  0.16705679  0.66841372  1
  I  I93  1  0.50597077  0.49819984  -0.00214363  1
  I  I94  1  0.50229229  0.50301324  0.33109058  1
  I  I95  1  0.50207278  0.50266489  0.67015957  1
  I  I96  1  0.49826931  0.83501132  -0.00247291  1
  I  I97  1  0.49818149  0.83018028  0.33117205  1
  I  I98  1  0.50137724  0.83046064  0.67040579  1
  I  I99  1  0.83116724  0.16880992  0.00184697  1
  I  I100  1  0.83059329  0.17009616  0.33069488  1
  I  I101  1  0.83260646  0.16617707  0.66689692  1
  I  I102  1  0.83145315  0.50214441  -0.00326556  1
  I  I103  1  0.83308398  0.49561560  0.33494837  1
  I  I104  1  0.82680004  0.50168011  0.66870594  1
  I  I105  1  0.83861736  0.82692516  -0.00442329  1
  I  I106  1  0.83337193  0.83271134  0.33330303  1
  I  I107  1  0.82657528  0.83386797  0.67076216  1
  I  I108  1  -0.00328189  0.16860707  0.16559459  1
  I  I109  1  0.00331312  0.16422776  0.50469081  1
  I  I110  1  0.00281245  0.16328959  0.83023089  1
  I  I111  1  -0.00043686  0.49747664  0.16698415  1
  I  I112  1  -0.00378237  0.49676897  0.50795802  1
  I  I113  1  -0.00296232  0.50168894  0.82919965  1
  I  I114  1  -0.00015068  0.83494529  0.16619250  1
  I  I115  1  0.00408604  0.84153242  0.50628904  1
  I  I116  1  0.00052495  0.83473244  0.82789494  1
  I  I117  1  0.33343042  0.16756920  0.16719005  1
  I  I118  1  0.33319871  0.16462918  0.50288463  1
  I  I119  1  0.33431467  0.16423772  0.83080116  1
  I  I120  1  0.33881286  0.50165962  0.15908840  1
  I  I121  1  0.33331441  0.50055343  0.49903809  1
  I  I122  1  0.33685508  0.50175356  0.83780711  1
  I  I123  1  0.33732383  0.83144944  0.15881072  1
  I  I124  1  0.33042339  0.83400164  0.50575483  1
  I  I125  1  0.33399158  0.83387558  0.83412995  1
  I  I126  1  0.66851291  0.16766288  0.16559411  1
  I  I127  1  0.66430149  0.16857293  0.50332958  1
  I  I128  1  0.66371597  0.16446917  0.83143519  1
  I  I129  1  0.66329015  0.50207573  0.16390117  1
  I  I130  1  0.66924879  0.49750050  0.50218476  1
  I  I131  1  0.66575242  0.50207016  0.83358935  1
  I  I132  1  0.66271257  0.83025254  0.16098637  1
  I  I133  1  0.66674498  0.83473973  0.49994286  1
  I  I134  1  0.66564517  0.83334199  0.83855063  1
