# generated using pymatgen
data_Cs27Sn14Pb13I81
_symmetry_space_group_name_H-M   'P 1'
_cell_length_a   18.97783258
_cell_length_b   18.98060817
_cell_length_c   18.97041537
_cell_angle_alpha   89.99933410
_cell_angle_beta   89.99933223
_cell_angle_gamma   89.99987207
_symmetry_Int_Tables_number   1
_chemical_formula_structural   Cs27Sn14Pb13I81
_chemical_formula_sum   'Cs27 Sn14 Pb13 I81'
_cell_volume   6833.34857314
_cell_formula_units_Z   1
loop_
 _symmetry_equiv_pos_site_id
 _symmetry_equiv_pos_as_xyz
  1  'x, y, z'
loop_
 _atom_site_type_symbol
 _atom_site_label
 _atom_site_symmetry_multiplicity
 _atom_site_fract_x
 _atom_site_fract_y
 _atom_site_fract_z
 _atom_site_occupancy
  Cs  Cs0  1  -0.00142641  0.00284610  -0.00100359  1
  Cs  Cs1  1  0.00019419  -0.00112776  0.33425204  1
  Cs  Cs2  1  -0.00198596  -0.00075963  0.66563656  1
  Cs  Cs3  1  0.00816557  0.33783171  0.00869760  1
  Cs  Cs4  1  -0.00002183  0.33445747  0.32807102  1
  Cs  Cs5  1  -0.00297146  0.33487096  0.66538040  1
  Cs  Cs6  1  0.00302864  0.66088647  -0.00172717  1
  Cs  Cs7  1  0.00148861  0.66818924  0.33593593  1
  Cs  Cs8  1  -0.00119199  0.66544095  0.66462140  1
  Cs  Cs9  1  0.33143081  0.00090096  -0.00741351  1
  Cs  Cs10  1  0.33533070  -0.00166804  0.33454044  1
  Cs  Cs11  1  0.33362632  0.00339070  0.67086174  1
  Cs  Cs12  1  0.32435231  0.33329854  -0.00569480  1
  Cs  Cs13  1  0.33506677  0.33485285  0.33416563  1
  Cs  Cs14  1  0.33597012  0.32913957  0.66951004  1
  Cs  Cs15  1  0.33388220  0.66611224  -0.00651302  1
  Cs  Cs16  1  0.33474971  0.66723537  0.33374565  1
  Cs  Cs17  1  0.33236196  0.66739969  0.66870824  1
  Cs  Cs18  1  0.66881421  -0.00140870  0.00147440  1
  Cs  Cs19  1  0.66572530  -0.00073802  0.33285641  1
  Cs  Cs20  1  0.66910707  0.00202479  0.66694174  1
  Cs  Cs21  1  0.66843426  0.33751543  0.00153344  1
  Cs  Cs22  1  0.66501752  0.33452119  0.33179577  1
  Cs  Cs23  1  0.66660497  0.33234729  0.66934776  1
  Cs  Cs24  1  0.66442463  0.66678815  -0.00130152  1
  Cs  Cs25  1  0.66426686  0.66845070  0.33351838  1
  Cs  Cs26  1  0.66815388  0.66448598  0.66790349  1
  Sn  Sn27  1  0.83352062  0.16636489  0.83336605  1
  Sn  Sn28  1  0.49933177  0.83343837  0.16720774  1
  Sn  Sn29  1  0.16709718  0.83362539  0.16716975  1
  Sn  Sn30  1  0.49991263  0.83280196  0.49988364  1
  Sn  Sn31  1  0.16712369  0.83368811  0.49942401  1
  Sn  Sn32  1  0.49921197  0.50091988  0.49952936  1
  Sn  Sn33  1  0.49962597  0.16645562  0.16636686  1
  Sn  Sn34  1  0.16772738  0.49983771  0.49961778  1
  Sn  Sn35  1  0.49957194  0.50028863  0.16733484  1
  Sn  Sn36  1  0.83334098  0.83384857  0.83321954  1
  Sn  Sn37  1  0.83376402  0.83330018  0.16660547  1
  Sn  Sn38  1  0.83303555  0.83409461  0.49986365  1
  Sn  Sn39  1  0.83394771  0.16598636  0.50021786  1
  Sn  Sn40  1  0.16589807  0.16658095  0.49950381  1
  Pb  Pb41  1  0.16939740  0.50277507  0.16909076  1
  Pb  Pb42  1  0.49997385  0.50001193  0.83289880  1
  Pb  Pb43  1  0.83111412  0.50320934  0.16698856  1
  Pb  Pb44  1  0.83199810  0.16497104  0.16709358  1
  Pb  Pb45  1  0.16340199  0.16653604  0.83053950  1
  Pb  Pb46  1  0.50040946  0.16652854  0.49888120  1
  Pb  Pb47  1  0.50288010  0.16658286  0.83689037  1
  Pb  Pb48  1  0.83350318  0.49940162  0.83349433  1
  Pb  Pb49  1  0.50238144  0.83349606  0.83290562  1
  Pb  Pb50  1  0.16661833  0.50004014  0.82982436  1
  Pb  Pb51  1  0.16913988  0.16407514  0.16922387  1
  Pb  Pb52  1  0.16372635  0.83335581  0.83290543  1
  Pb  Pb53  1  0.83286429  0.49978441  0.49981798  1
  I  I54  1  0.16803858  -0.00408972  0.17366656  1
  I  I55  1  0.16547062  -0.00126783  0.49602522  1
  I  I56  1  0.16948374  -0.00014977  0.83172394  1
  I  I57  1  0.16775547  0.33345578  0.16785470  1
  I  I58  1  0.16692420  0.33323297  0.50165900  1
  I  I59  1  0.16412956  0.33315543  0.83319190  1
  I  I60  1  0.16608823  0.67088655  0.17313096  1
  I  I61  1  0.16642990  0.66806180  0.49621313  1
  I  I62  1  0.16389746  0.66703932  0.83193658  1
  I  I63  1  0.50178064  -0.00207136  0.17219039  1
  I  I64  1  0.49902366  -0.00315381  0.49506117  1
  I  I65  1  0.49840859  -0.00009780  0.83247172  1
  I  I66  1  0.50264952  0.33387995  0.17324222  1
  I  I67  1  0.49734147  0.33568906  0.49494322  1
  I  I68  1  0.50427936  0.33324821  0.83136078  1
  I  I69  1  0.50160670  0.66812028  0.17195850  1
  I  I70  1  0.49835388  0.66805345  0.49262395  1
  I  I71  1  0.50365906  0.66695362  0.83677323  1
  I  I72  1  0.82980809  -0.00382199  0.16797465  1
  I  I73  1  0.83541436  -0.00165742  0.50032686  1
  I  I74  1  0.83248952  -0.00118208  0.83123889  1
  I  I75  1  0.83011743  0.33331799  0.16596245  1
  I  I76  1  0.83535861  0.33005558  0.50600303  1
  I  I77  1  0.83102834  0.32969198  0.82461223  1
  I  I78  1  0.83138217  0.67202677  0.16874559  1
  I  I79  1  0.83524587  0.67030210  0.49991614  1
  I  I80  1  0.83250420  0.67012149  0.83185931  1
  I  I81  1  0.16706955  0.16552940  0.00031492  1
  I  I82  1  0.15876857  0.16772042  0.33740319  1
  I  I83  1  0.16809672  0.16281407  0.66194452  1
  I  I84  1  0.16732647  0.50126264  0.00050612  1
  I  I85  1  0.16777733  0.49892163  0.33725950  1
  I  I86  1  0.17267429  0.50445961  0.66124160  1
  I  I87  1  0.16838181  0.83317990  0.00315041  1
  I  I88  1  0.16271240  0.83325190  0.33483668  1
  I  I89  1  0.16713972  0.83283368  0.66245416  1
  I  I90  1  0.50230184  0.16382208  0.00494075  1
  I  I91  1  0.50303748  0.16497773  0.33106375  1
  I  I92  1  0.49806022  0.16696931  0.66653575  1
  I  I93  1  0.50338680  0.50300205  0.00346769  1
  I  I94  1  0.49710276  0.50219526  0.33407323  1
  I  I95  1  0.49662907  0.50555494  0.66262489  1
  I  I96  1  0.50040077  0.83206250  0.00369761  1
  I  I97  1  0.50423575  0.83271662  0.33349278  1
  I  I98  1  0.49938662  0.82855994  0.66275212  1
  I  I99  1  0.82775439  0.15956889  -0.00217973  1
  I  I100  1  0.83573672  0.16182870  0.33650694  1
  I  I101  1  0.83627010  0.15766882  0.66512714  1
  I  I102  1  0.83012353  0.50066229  0.00029940  1
  I  I103  1  0.83478578  0.49808355  0.33361694  1
  I  I104  1  0.83152882  0.50522774  0.66624691  1
  I  I105  1  0.83125166  0.83752346  0.00065557  1
  I  I106  1  0.83249623  0.83695766  0.33423625  1
  I  I107  1  0.83330842  0.83691921  0.66505704  1
  I  I108  1  0.00018353  0.16510705  0.16469287  1
  I  I109  1  -0.00046047  0.16236297  0.50373940  1
  I  I110  1  -0.00435242  0.15895173  0.83186414  1
  I  I111  1  0.00055587  0.50051952  0.16685359  1
  I  I112  1  0.00267519  0.50363856  0.50173231  1
  I  I113  1  -0.00001253  0.50201703  0.83139418  1
  I  I114  1  -0.00029207  0.83479896  0.17119093  1
  I  I115  1  -0.00009461  0.83339203  0.49754949  1
  I  I116  1  -0.00429091  0.83786954  0.83233499  1
  I  I117  1  0.33700826  0.16389403  0.17110546  1
  I  I118  1  0.33107118  0.16400330  0.49619443  1
  I  I119  1  0.33315026  0.16789566  0.83253077  1
  I  I120  1  0.33736636  0.50251667  0.17039178  1
  I  I121  1  0.33378185  0.50384515  0.49516224  1
  I  I122  1  0.33337723  0.50046646  0.83556277  1
  I  I123  1  0.33426789  0.83318450  0.17602018  1
  I  I124  1  0.33326899  0.83262916  0.49224309  1
  I  I125  1  0.33317402  0.83219842  0.83351940  1
  I  I126  1  0.66392803  0.16335383  0.16995437  1
  I  I127  1  0.66941830  0.16255588  0.50217564  1
  I  I128  1  0.67048908  0.16096499  0.82360001  1
  I  I129  1  0.66271631  0.50179918  0.17405655  1
  I  I130  1  0.66335717  0.50403170  0.49611053  1
  I  I131  1  0.66671534  0.50064935  0.83062771  1
  I  I132  1  0.66614254  0.83343793  0.16966028  1
  I  I133  1  0.66688040  0.83346953  0.49717474  1
  I  I134  1  0.67044522  0.83708897  0.83285656  1
