# generated using pymatgen
data_Cs27Sn13Pb14I81
_symmetry_space_group_name_H-M   'P 1'
_cell_length_a   18.98459293
_cell_length_b   18.97127024
_cell_length_c   18.97635567
_cell_angle_alpha   90.00092725
_cell_angle_beta   89.99960370
_cell_angle_gamma   90.00192358
_symmetry_Int_Tables_number   1
_chemical_formula_structural   Cs27Sn13Pb14I81
_chemical_formula_sum   'Cs27 Sn13 Pb14 I81'
_cell_volume   6834.55922093
_cell_formula_units_Z   1
loop_
 _symmetry_equiv_pos_site_id
 _symmetry_equiv_pos_as_xyz
  1  'x, y, z'
loop_
 _atom_site_type_symbol
 _atom_site_label
 _atom_site_symmetry_multiplicity
 _atom_site_fract_x
 _atom_site_fract_y
 _atom_site_fract_z
 _atom_site_occupancy
  Cs  Cs0  1  -0.00018502  -0.00105857  0.00288942  1
  Cs  Cs1  1  0.00056338  0.00086986  0.33115808  1
  Cs  Cs2  1  -0.00096235  0.00335223  0.66720264  1
  Cs  Cs3  1  -0.00050557  0.33416371  -0.00423220  1
  Cs  Cs4  1  -0.00050799  0.33372160  0.33307257  1
  Cs  Cs5  1  0.00210118  0.33156323  0.67218624  1
  Cs  Cs6  1  0.00043200  0.66678754  0.00039089  1
  Cs  Cs7  1  0.00080975  0.66562981  0.33271622  1
  Cs  Cs8  1  -0.00076001  0.66592616  0.66638018  1
  Cs  Cs9  1  0.33541638  -0.00236326  0.00186416  1
  Cs  Cs10  1  0.33216256  0.00208444  0.33923996  1
  Cs  Cs11  1  0.33300010  0.00599517  0.65866668  1
  Cs  Cs12  1  0.33996292  0.33301776  -0.00432485  1
  Cs  Cs13  1  0.33419007  0.33181483  0.33227807  1
  Cs  Cs14  1  0.33071189  0.32743994  0.67238181  1
  Cs  Cs15  1  0.33317257  0.66799337  -0.00185041  1
  Cs  Cs16  1  0.32888728  0.66747573  0.33561370  1
  Cs  Cs17  1  0.33462260  0.66639545  0.66568670  1
  Cs  Cs18  1  0.66657361  -0.00107840  0.00030871  1
  Cs  Cs19  1  0.66773328  0.00099480  0.33304529  1
  Cs  Cs20  1  0.66707245  -0.00126144  0.66680000  1
  Cs  Cs21  1  0.65867415  0.33918012  -0.00396154  1
  Cs  Cs22  1  0.66593884  0.33449415  0.33062711  1
  Cs  Cs23  1  0.66678359  0.33198787  0.67243414  1
  Cs  Cs24  1  0.66599327  0.66570751  0.00092033  1
  Cs  Cs25  1  0.66766085  0.66485770  0.33409740  1
  Cs  Cs26  1  0.66615429  0.66885047  0.66447618  1
  Sn  Sn27  1  0.83257853  0.83371935  0.16678630  1
  Sn  Sn28  1  0.83353410  0.83320773  0.83369003  1
  Sn  Sn29  1  0.50067277  0.83325069  0.16689801  1
  Sn  Sn30  1  0.16680083  0.83366703  0.83292158  1
  Sn  Sn31  1  0.49988365  0.49964022  0.49995421  1
  Sn  Sn32  1  0.83340335  0.49936551  0.49983544  1
  Sn  Sn33  1  0.83366160  0.83362490  0.49956709  1
  Sn  Sn34  1  0.83379432  0.16672623  0.16686627  1
  Sn  Sn35  1  0.49979785  0.83335782  0.83359157  1
  Sn  Sn36  1  0.83346795  0.16697943  0.49909418  1
  Sn  Sn37  1  0.16646270  0.49861365  0.16680922  1
  Sn  Sn38  1  0.16664255  0.49978660  0.49947574  1
  Sn  Sn39  1  0.16599351  0.16791210  0.16650140  1
  Pb  Pb40  1  0.83319834  0.16453879  0.83438012  1
  Pb  Pb41  1  0.49995044  0.50252542  0.83072648  1
  Pb  Pb42  1  0.16404081  0.83170950  0.50228578  1
  Pb  Pb43  1  0.16423884  0.16938713  0.49798270  1
  Pb  Pb44  1  0.49723984  0.50267293  0.16862361  1
  Pb  Pb45  1  0.16657932  0.16377987  0.83666956  1
  Pb  Pb46  1  0.50055113  0.16444973  0.16680101  1
  Pb  Pb47  1  0.50007670  0.16345488  0.83335226  1
  Pb  Pb48  1  0.83470128  0.49966769  0.16806146  1
  Pb  Pb49  1  0.16667058  0.50177404  0.83349825  1
  Pb  Pb50  1  0.83324732  0.50244077  0.83071879  1
  Pb  Pb51  1  0.16660358  0.83343253  0.16554003  1
  Pb  Pb52  1  0.50191926  0.83211400  0.49967709  1
  Pb  Pb53  1  0.50300756  0.16977838  0.49979046  1
  I  I54  1  0.16428984  0.00198341  0.16342964  1
  I  I55  1  0.16600009  0.00024118  0.49957626  1
  I  I56  1  0.16484015  -0.00441199  0.83511012  1
  I  I57  1  0.15969260  0.33334900  0.17267379  1
  I  I58  1  0.16420651  0.33752645  0.49873746  1
  I  I59  1  0.16618659  0.33317314  0.83100328  1
  I  I60  1  0.16645182  0.66465891  0.16979555  1
  I  I61  1  0.16369077  0.66352865  0.49362460  1
  I  I62  1  0.16529655  0.67012653  0.83575232  1
  I  I63  1  0.50001368  -0.00398335  0.16284015  1
  I  I64  1  0.50101996  -0.00000087  0.50086100  1
  I  I65  1  0.50203168  -0.00518932  0.83678043  1
  I  I66  1  0.50248815  0.33359439  0.16810147  1
  I  I67  1  0.50156553  0.33780033  0.49780024  1
  I  I68  1  0.50009620  0.33357171  0.83279451  1
  I  I69  1  0.50583097  0.67062911  0.16297626  1
  I  I70  1  0.50292180  0.66412989  0.50016336  1
  I  I71  1  0.50120005  0.67087115  0.83703343  1
  I  I72  1  0.83585036  -0.00121598  0.17120354  1
  I  I73  1  0.83295707  -0.00076119  0.50001126  1
  I  I74  1  0.83303582  -0.00444256  0.82836407  1
  I  I75  1  0.83720108  0.33043083  0.17382841  1
  I  I76  1  0.83338084  0.33349820  0.49307221  1
  I  I77  1  0.83414068  0.33323503  0.83256201  1
  I  I78  1  0.83180727  0.66983219  0.16725444  1
  I  I79  1  0.83326959  0.66693832  0.50079493  1
  I  I80  1  0.83345819  0.67145529  0.83429528  1
  I  I81  1  0.15843080  0.17242921  0.00453262  1
  I  I82  1  0.16421407  0.16508938  0.33010310  1
  I  I83  1  0.16562604  0.16704057  0.66659944  1
  I  I84  1  0.16519088  0.49878308  0.00313823  1
  I  I85  1  0.16553952  0.49924633  0.33382732  1
  I  I86  1  0.16509384  0.50402608  0.66342456  1
  I  I87  1  0.16203985  0.83130290  -0.00236785  1
  I  I88  1  0.16696528  0.83373995  0.33342281  1
  I  I89  1  0.16686446  0.83013410  0.67017986  1
  I  I90  1  0.50197044  0.16889608  0.00033084  1
  I  I91  1  0.49816665  0.16241879  0.33331178  1
  I  I92  1  0.50121277  0.16449295  0.66633465  1
  I  I93  1  0.49850054  0.49962573  0.00013714  1
  I  I94  1  0.50360098  0.50397548  0.33648062  1
  I  I95  1  0.49973169  0.50397739  0.66265286  1
  I  I96  1  0.50504759  0.83312176  -0.00000026  1
  I  I97  1  0.50504805  0.83164057  0.33073033  1
  I  I98  1  0.50205396  0.83019859  0.66914153  1
  I  I99  1  0.83847688  0.15923529  0.00382147  1
  I  I100  1  0.83697895  0.16056838  0.33322831  1
  I  I101  1  0.83265844  0.16612653  0.66371034  1
  I  I102  1  0.83607578  0.50107987  0.00010120  1
  I  I103  1  0.83248743  0.50604952  0.33674521  1
  I  I104  1  0.83630103  0.50019805  0.66164459  1
  I  I105  1  0.83308271  0.83832549  0.00065005  1
  I  I106  1  0.82885155  0.83331807  0.33305880  1
  I  I107  1  0.83331787  0.83166705  0.66632383  1
  I  I108  1  -0.00121667  0.16268487  0.17127096  1
  I  I109  1  -0.00389326  0.16611717  0.49815227  1
  I  I110  1  -0.00016668  0.16329010  0.83066132  1
  I  I111  1  0.00267048  0.50304951  0.17302608  1
  I  I112  1  -0.00057336  0.50238682  0.49571472  1
  I  I113  1  -0.00004023  0.50463038  0.83074889  1
  I  I114  1  -0.00298796  0.83382127  0.16642178  1
  I  I115  1  -0.00448302  0.83075137  0.49834447  1
  I  I116  1  -0.00119524  0.83248313  0.83342083  1
  I  I117  1  0.33047609  0.16874528  0.16585251  1
  I  I118  1  0.33309017  0.16667457  0.49881648  1
  I  I119  1  0.33309080  0.16407118  0.83411758  1
  I  I120  1  0.32937015  0.49704308  0.17302783  1
  I  I121  1  0.33264453  0.50404123  0.49518223  1
  I  I122  1  0.33324360  0.50501081  0.83093649  1
  I  I123  1  0.33540070  0.83174479  0.16056610  1
  I  I124  1  0.33322100  0.83034248  0.50014817  1
  I  I125  1  0.33390130  0.83123326  0.84096693  1
  I  I126  1  0.67038842  0.16223590  0.17168385  1
  I  I127  1  0.67143927  0.16615388  0.49360531  1
  I  I128  1  0.66700148  0.16475770  0.83391333  1
  I  I129  1  0.66658544  0.49894312  0.16878434  1
  I  I130  1  0.66796310  0.50252998  0.50061202  1
  I  I131  1  0.66668670  0.50226006  0.83239074  1
  I  I132  1  0.66850227  0.83773211  0.16284277  1
  I  I133  1  0.67055988  0.83075562  0.50356113  1
  I  I134  1  0.66745441  0.83311600  0.83336136  1
