# generated using pymatgen
data_Cs27Sn14Pb13I81
_symmetry_space_group_name_H-M   'P 1'
_cell_length_a   18.97779324
_cell_length_b   18.97691559
_cell_length_c   18.97129592
_cell_angle_alpha   89.99827330
_cell_angle_beta   90.00134756
_cell_angle_gamma   90.00062154
_symmetry_Int_Tables_number   1
_chemical_formula_structural   Cs27Sn14Pb13I81
_chemical_formula_sum   'Cs27 Sn14 Pb13 I81'
_cell_volume   6832.32213485
_cell_formula_units_Z   1
loop_
 _symmetry_equiv_pos_site_id
 _symmetry_equiv_pos_as_xyz
  1  'x, y, z'
loop_
 _atom_site_type_symbol
 _atom_site_label
 _atom_site_symmetry_multiplicity
 _atom_site_fract_x
 _atom_site_fract_y
 _atom_site_fract_z
 _atom_site_occupancy
  Cs  Cs0  1  0.00961627  -0.00036522  0.00271379  1
  Cs  Cs1  1  -0.00172046  0.00120302  0.33517350  1
  Cs  Cs2  1  -0.00273164  -0.00025656  0.66477497  1
  Cs  Cs3  1  -0.00138577  0.33764016  -0.00852995  1
  Cs  Cs4  1  -0.00018135  0.33425935  0.33359671  1
  Cs  Cs5  1  -0.00189046  0.33081002  0.67199888  1
  Cs  Cs6  1  -0.00010612  0.66312099  -0.00447314  1
  Cs  Cs7  1  -0.00115634  0.66567482  0.33370071  1
  Cs  Cs8  1  0.00173235  0.66833703  0.66719555  1
  Cs  Cs9  1  0.32788203  0.00855774  0.00899021  1
  Cs  Cs10  1  0.33289538  0.00090493  0.32857300  1
  Cs  Cs11  1  0.33430766  -0.00048064  0.66647247  1
  Cs  Cs12  1  0.33359127  0.32530851  -0.00061608  1
  Cs  Cs13  1  0.33253496  0.33628595  0.33491510  1
  Cs  Cs14  1  0.33487910  0.33445206  0.66603878  1
  Cs  Cs15  1  0.33240221  0.66857974  -0.00042830  1
  Cs  Cs16  1  0.33406841  0.66421615  0.33399998  1
  Cs  Cs17  1  0.33557982  0.66592380  0.66551096  1
  Cs  Cs18  1  0.66244242  0.00020733  0.00149176  1
  Cs  Cs19  1  0.66862816  -0.00059720  0.33231796  1
  Cs  Cs20  1  0.66814853  -0.00104147  0.66657097  1
  Cs  Cs21  1  0.66821782  0.33331851  -0.00299479  1
  Cs  Cs22  1  0.66854838  0.33652222  0.33409166  1
  Cs  Cs23  1  0.66561970  0.32765502  0.66792245  1
  Cs  Cs24  1  0.66817268  0.66595501  0.00003973  1
  Cs  Cs25  1  0.66653248  0.66638628  0.33296780  1
  Cs  Cs26  1  0.66284524  0.66938941  0.66550439  1
  Sn  Sn27  1  0.49988916  0.83447392  0.50013778  1
  Sn  Sn28  1  0.49938907  0.16520118  0.49955118  1
  Sn  Sn29  1  0.16748654  0.50014192  0.16704522  1
  Sn  Sn30  1  0.83420303  0.50063922  0.50032179  1
  Sn  Sn31  1  0.16699386  0.83335666  0.49970616  1
  Sn  Sn32  1  0.49983579  0.50083114  0.83486835  1
  Sn  Sn33  1  0.83350562  0.16609709  0.16649728  1
  Sn  Sn34  1  0.83325367  0.83230363  0.49999312  1
  Sn  Sn35  1  0.49910133  0.50025382  0.16503279  1
  Sn  Sn36  1  0.16528258  0.49988574  0.49959123  1
  Sn  Sn37  1  0.16752027  0.16680568  0.49976385  1
  Sn  Sn38  1  0.83343362  0.83417066  0.16635000  1
  Sn  Sn39  1  0.83268117  0.83354083  0.83355874  1
  Sn  Sn40  1  0.50011535  0.83299299  0.83339124  1
  Pb  Pb41  1  0.16415055  0.16966849  0.16911443  1
  Pb  Pb42  1  0.50150273  0.83173557  0.16651207  1
  Pb  Pb43  1  0.83321711  0.16287873  0.83675256  1
  Pb  Pb44  1  0.83076072  0.50230131  0.82988883  1
  Pb  Pb45  1  0.16758323  0.83343945  0.83133379  1
  Pb  Pb46  1  0.16944285  0.50011976  0.83289928  1
  Pb  Pb47  1  0.50002931  0.50027207  0.50019743  1
  Pb  Pb48  1  0.50189762  0.16948019  0.16945129  1
  Pb  Pb49  1  0.16663165  0.16650915  0.83038599  1
  Pb  Pb50  1  0.16403780  0.83090562  0.16916293  1
  Pb  Pb51  1  0.83341302  0.16652750  0.49901114  1
  Pb  Pb52  1  0.83364187  0.50034716  0.16796042  1
  Pb  Pb53  1  0.49996493  0.16540692  0.83122234  1
  I  I54  1  0.16712396  0.00003279  0.16742908  1
  I  I55  1  0.16599479  -0.00075871  0.50202808  1
  I  I56  1  0.16795185  -0.00032990  0.83201540  1
  I  I57  1  0.16874055  0.33720137  0.17500689  1
  I  I58  1  0.16762059  0.33409515  0.49505304  1
  I  I59  1  0.16767583  0.33366414  0.83068523  1
  I  I60  1  0.16840429  0.66326670  0.17441836  1
  I  I61  1  0.16564717  0.66668370  0.49661413  1
  I  I62  1  0.16431123  0.66674228  0.83051021  1
  I  I63  1  0.50010827  0.00002741  0.16497218  1
  I  I64  1  0.49856645  -0.00177341  0.50558640  1
  I  I65  1  0.50607768  -0.00391154  0.82786741  1
  I  I66  1  0.49911744  0.33743969  0.16407774  1
  I  I67  1  0.49783090  0.33174233  0.49917027  1
  I  I68  1  0.49890479  0.33581789  0.83449054  1
  I  I69  1  0.49985637  0.66371814  0.17006881  1
  I  I70  1  0.49915497  0.66936254  0.50080181  1
  I  I71  1  0.50376076  0.66768025  0.82919292  1
  I  I72  1  0.83177876  -0.00162392  0.17144786  1
  I  I73  1  0.83522208  -0.00338193  0.50146812  1
  I  I74  1  0.82565076  -0.00498412  0.82353573  1
  I  I75  1  0.83253911  0.33194811  0.17304725  1
  I  I76  1  0.83478869  0.33562210  0.49548283  1
  I  I77  1  0.83230142  0.33341938  0.83300151  1
  I  I78  1  0.83272898  0.66938779  0.16738607  1
  I  I79  1  0.83525584  0.66825219  0.49695799  1
  I  I80  1  0.83186417  0.67028602  0.83765922  1
  I  I81  1  0.16569652  0.16760907  0.00070010  1
  I  I82  1  0.16992338  0.16416944  0.33736560  1
  I  I83  1  0.16904528  0.16973575  0.66134795  1
  I  I84  1  0.16710365  0.50076593  0.00278884  1
  I  I85  1  0.16936603  0.50065402  0.33513863  1
  I  I86  1  0.16422298  0.50056642  0.66279995  1
  I  I87  1  0.16548917  0.83114238  0.00037927  1
  I  I88  1  0.16753584  0.83466739  0.33792382  1
  I  I89  1  0.16226962  0.83025328  0.66207472  1
  I  I90  1  0.50153876  0.16521054  0.00033771  1
  I  I91  1  0.49678742  0.16165446  0.33741203  1
  I  I92  1  0.49772511  0.16898650  0.66278577  1
  I  I93  1  0.49637573  0.50682982  0.00015248  1
  I  I94  1  0.49974980  0.49984300  0.33190871  1
  I  I95  1  0.50084634  0.50165514  0.66831179  1
  I  I96  1  0.50735173  0.82840634  -0.00274617  1
  I  I97  1  0.50129607  0.83447697  0.33665485  1
  I  I98  1  0.50462340  0.83035996  0.66519263  1
  I  I99  1  0.83196034  0.16480072  0.00443527  1
  I  I100  1  0.83285538  0.16104200  0.33157565  1
  I  I101  1  0.83350420  0.16766676  0.66665530  1
  I  I102  1  0.83571630  0.50040973  -0.00030499  1
  I  I103  1  0.83157307  0.50565085  0.33611190  1
  I  I104  1  0.83847832  0.50421692  0.66185894  1
  I  I105  1  0.82622183  0.83745607  -0.00012918  1
  I  I106  1  0.83315545  0.83305530  0.33485778  1
  I  I107  1  0.83271757  0.82779413  0.66510793  1
  I  I108  1  -0.00319438  0.16248487  0.17167450  1
  I  I109  1  0.00247816  0.16484746  0.49743389  1
  I  I110  1  -0.00037939  0.16641617  0.83030112  1
  I  I111  1  0.00215554  0.50038934  0.17262103  1
  I  I112  1  0.00070165  0.50326852  0.49312505  1
  I  I113  1  -0.00019021  0.50088070  0.83561906  1
  I  I114  1  -0.00418033  0.83497670  0.16759896  1
  I  I115  1  -0.00066183  0.83243239  0.49945019  1
  I  I116  1  -0.00292264  0.83377070  0.83161905  1
  I  I117  1  0.33311912  0.16608509  0.16605332  1
  I  I118  1  0.33314653  0.16479668  0.50004710  1
  I  I119  1  0.33359799  0.16498069  0.83522200  1
  I  I120  1  0.33327209  0.50117071  0.17192733  1
  I  I121  1  0.33102981  0.50217359  0.49905352  1
  I  I122  1  0.33721158  0.50764811  0.83032673  1
  I  I123  1  0.33311482  0.83292677  0.16715999  1
  I  I124  1  0.33380424  0.83239512  0.50546087  1
  I  I125  1  0.33707769  0.82753754  0.82532955  1
  I  I126  1  0.66945218  0.16415117  0.17124617  1
  I  I127  1  0.66444907  0.16479466  0.49879251  1
  I  I128  1  0.66663269  0.17035119  0.82912045  1
  I  I129  1  0.66471870  0.50048606  0.16641568  1
  I  I130  1  0.66861563  0.50342477  0.49848680  1
  I  I131  1  0.66313203  0.50224535  0.83784711  1
  I  I132  1  0.66971818  0.83318648  0.17306858  1
  I  I133  1  0.66708308  0.83247206  0.50046169  1
  I  I134  1  0.66647386  0.82874844  0.82664507  1
