# generated using pymatgen
data_Cs27Sn13Pb14I81
_symmetry_space_group_name_H-M   'P 1'
_cell_length_a   18.97769926
_cell_length_b   18.98341188
_cell_length_c   18.96902597
_cell_angle_alpha   90.00288575
_cell_angle_beta   90.00113777
_cell_angle_gamma   90.00026705
_symmetry_Int_Tables_number   1
_chemical_formula_structural   Cs27Sn13Pb14I81
_chemical_formula_sum   'Cs27 Sn13 Pb14 I81'
_cell_volume   6833.80939031
_cell_formula_units_Z   1
loop_
 _symmetry_equiv_pos_site_id
 _symmetry_equiv_pos_as_xyz
  1  'x, y, z'
loop_
 _atom_site_type_symbol
 _atom_site_label
 _atom_site_symmetry_multiplicity
 _atom_site_fract_x
 _atom_site_fract_y
 _atom_site_fract_z
 _atom_site_occupancy
  Cs  Cs0  1  -0.00203207  0.00084564  -0.00281017  1
  Cs  Cs1  1  0.00365585  0.00163566  0.33484712  1
  Cs  Cs2  1  0.00873864  -0.00362013  0.66772714  1
  Cs  Cs3  1  -0.00189643  0.33043320  0.00166719  1
  Cs  Cs4  1  -0.00430352  0.33759349  0.33631120  1
  Cs  Cs5  1  0.00354383  0.33496624  0.66029506  1
  Cs  Cs6  1  -0.00602203  0.67098069  -0.00086376  1
  Cs  Cs7  1  -0.00173758  0.66162774  0.33505764  1
  Cs  Cs8  1  0.00797610  0.67033988  0.66544045  1
  Cs  Cs9  1  0.33453142  0.00195578  0.00305758  1
  Cs  Cs10  1  0.33476004  -0.00022831  0.33219201  1
  Cs  Cs11  1  0.32923153  0.00066964  0.66393352  1
  Cs  Cs12  1  0.33413875  0.33407544  0.00026323  1
  Cs  Cs13  1  0.33538522  0.33235240  0.33058318  1
  Cs  Cs14  1  0.32793757  0.33559803  0.66879514  1
  Cs  Cs15  1  0.33540030  0.66189344  0.00088803  1
  Cs  Cs16  1  0.33459002  0.66793813  0.33249805  1
  Cs  Cs17  1  0.33099281  0.66421181  0.66783561  1
  Cs  Cs18  1  0.66682385  -0.00072273  -0.00063104  1
  Cs  Cs19  1  0.66421673  -0.00106615  0.33586070  1
  Cs  Cs20  1  0.66630446  -0.00057279  0.66580013  1
  Cs  Cs21  1  0.66672678  0.33300017  -0.00173362  1
  Cs  Cs22  1  0.66833499  0.33328009  0.33639437  1
  Cs  Cs23  1  0.66633193  0.33234884  0.66801929  1
  Cs  Cs24  1  0.66911874  0.66943975  -0.00058932  1
  Cs  Cs25  1  0.66739961  0.66775431  0.33316374  1
  Cs  Cs26  1  0.66451468  0.66857020  0.66761289  1
  Sn  Sn27  1  0.50035182  0.50047773  0.49948358  1
  Sn  Sn28  1  0.83350217  0.49925502  0.83288245  1
  Sn  Sn29  1  0.83269884  0.16759582  0.83347530  1
  Sn  Sn30  1  0.50058938  0.16579357  0.83388378  1
  Sn  Sn31  1  0.83289472  0.83360655  0.50008458  1
  Sn  Sn32  1  0.16649095  0.16698383  0.16638020  1
  Sn  Sn33  1  0.83275862  0.16654346  0.16647967  1
  Sn  Sn34  1  0.50008154  0.49925054  0.16746078  1
  Sn  Sn35  1  0.49988390  0.83432447  0.83262653  1
  Sn  Sn36  1  0.16651734  0.83298426  0.16631317  1
  Sn  Sn37  1  0.16689335  0.50004980  0.16627553  1
  Sn  Sn38  1  0.50070612  0.16755323  0.16591416  1
  Sn  Sn39  1  0.50065605  0.83249796  0.50104791  1
  Pb  Pb40  1  0.49894680  0.83325352  0.16667248  1
  Pb  Pb41  1  0.83573285  0.83611354  0.16879167  1
  Pb  Pb42  1  0.49997809  0.16685949  0.50061020  1
  Pb  Pb43  1  0.83266478  0.49809995  0.16531881  1
  Pb  Pb44  1  0.16763069  0.83316965  0.49759704  1
  Pb  Pb45  1  0.83166924  0.83420257  0.83127437  1
  Pb  Pb46  1  0.83325846  0.16448013  0.50108484  1
  Pb  Pb47  1  0.50112732  0.49951566  0.83360140  1
  Pb  Pb48  1  0.83097732  0.50211509  0.50293582  1
  Pb  Pb49  1  0.16672431  0.16699407  0.49699229  1
  Pb  Pb50  1  0.16665340  0.16685032  0.83532707  1
  Pb  Pb51  1  0.16327109  0.49992075  0.83630612  1
  Pb  Pb52  1  0.17021093  0.83325437  0.83620170  1
  Pb  Pb53  1  0.16961074  0.50001639  0.49737585  1
  I  I54  1  0.16782225  0.00108554  0.16717988  1
  I  I55  1  0.16835527  -0.00023713  0.49667937  1
  I  I56  1  0.16243523  0.00001159  0.83645812  1
  I  I57  1  0.16923410  0.33292471  0.16610801  1
  I  I58  1  0.16774473  0.33368595  0.49871639  1
  I  I59  1  0.17254922  0.33331926  0.83586079  1
  I  I60  1  0.17395667  0.66584333  0.16724681  1
  I  I61  1  0.16446924  0.66668004  0.49605793  1
  I  I62  1  0.16622807  0.66668039  0.83710981  1
  I  I63  1  0.49869773  0.00283038  0.16597707  1
  I  I64  1  0.50342690  -0.00280715  0.49971093  1
  I  I65  1  0.50589871  0.00105423  0.83523291  1
  I  I66  1  0.49511396  0.33267600  0.16644297  1
  I  I67  1  0.49954493  0.33602981  0.49710091  1
  I  I68  1  0.50260883  0.33046262  0.83562972  1
  I  I69  1  0.49455391  0.66421705  0.16704299  1
  I  I70  1  0.50379777  0.66716494  0.49886634  1
  I  I71  1  0.50209415  0.66857964  0.83325908  1
  I  I72  1  0.83155841  0.00430875  0.16038483  1
  I  I73  1  0.82507795  -0.00315421  0.49931539  1
  I  I74  1  0.83024606  0.00322595  0.83782454  1
  I  I75  1  0.83683577  0.32981172  0.16544133  1
  I  I76  1  0.83250313  0.33341208  0.49790111  1
  I  I77  1  0.82588377  0.33173621  0.83890200  1
  I  I78  1  0.83390318  0.66668568  0.16490525  1
  I  I79  1  0.83017751  0.66980535  0.49988437  1
  I  I80  1  0.83058310  0.66507548  0.83354346  1
  I  I81  1  0.16762633  0.16668290  0.00420446  1
  I  I82  1  0.16822050  0.16550537  0.32775339  1
  I  I83  1  0.16678868  0.16554823  0.66700494  1
  I  I84  1  0.17609103  0.49885042  0.00461624  1
  I  I85  1  0.16673487  0.49912558  0.32885857  1
  I  I86  1  0.16769493  0.50044036  0.66669192  1
  I  I87  1  0.16745840  0.83454121  0.00426280  1
  I  I88  1  0.16975678  0.83534227  0.32959870  1
  I  I89  1  0.16457340  0.83379033  0.66661976  1
  I  I90  1  0.50002918  0.16623858  0.00108307  1
  I  I91  1  0.49922211  0.16689611  0.32995739  1
  I  I92  1  0.50699219  0.16556458  0.67006182  1
  I  I93  1  0.49647193  0.49898201  0.00293738  1
  I  I94  1  0.49644023  0.50042653  0.33210918  1
  I  I95  1  0.50390538  0.50173286  0.66457802  1
  I  I96  1  0.49822054  0.83449459  -0.00212260  1
  I  I97  1  0.50143664  0.83270739  0.33557619  1
  I  I98  1  0.50492802  0.83314944  0.66632924  1
  I  I99  1  0.83270083  0.16937636  0.00046268  1
  I  I100  1  0.83336993  0.16514870  0.33023405  1
  I  I101  1  0.82509694  0.16964526  0.67048009  1
  I  I102  1  0.83073442  0.49923509  -0.00251755  1
  I  I103  1  0.83521406  0.49938864  0.33339826  1
  I  I104  1  0.82921970  0.49207306  0.67046049  1
  I  I105  1  0.83295306  0.83174218  -0.00011201  1
  I  I106  1  0.82537594  0.83408515  0.33628178  1
  I  I107  1  0.82967371  0.83473512  0.66362577  1
  I  I108  1  -0.00009097  0.16543612  0.16276177  1
  I  I109  1  -0.00023109  0.16373117  0.49946108  1
  I  I110  1  -0.00331943  0.16981811  0.83877957  1
  I  I111  1  0.00237103  0.49898758  0.16401753  1
  I  I112  1  -0.00015171  0.50147550  0.49916548  1
  I  I113  1  -0.00447204  0.49371822  0.83528916  1
  I  I114  1  0.00363108  0.83241462  0.16848535  1
  I  I115  1  -0.00216833  0.83536580  0.49831882  1
  I  I116  1  -0.00000134  0.83351701  0.83188233  1
  I  I117  1  0.33414022  0.16711191  0.16355843  1
  I  I118  1  0.33379456  0.16363072  0.49992700  1
  I  I119  1  0.33681743  0.16271281  0.83757162  1
  I  I120  1  0.33426930  0.49570837  0.16981156  1
  I  I121  1  0.33774985  0.50655215  0.49992172  1
  I  I122  1  0.33350032  0.50024493  0.83167556  1
  I  I123  1  0.33105113  0.83804497  0.16810556  1
  I  I124  1  0.33696486  0.83003382  0.50239933  1
  I  I125  1  0.33826064  0.83878467  0.82674888  1
  I  I126  1  0.66564517  0.17108979  0.16254455  1
  I  I127  1  0.66646373  0.16726263  0.49347295  1
  I  I128  1  0.66606849  0.16640384  0.84246225  1
  I  I129  1  0.66344021  0.49566775  0.16896189  1
  I  I130  1  0.66308360  0.50206296  0.49197370  1
  I  I131  1  0.66874853  0.49831805  0.83630528  1
  I  I132  1  0.66666923  0.83323635  0.16548210  1
  I  I133  1  0.66488768  0.83050281  0.50207760  1
  I  I134  1  0.66350447  0.83454862  0.83360992  1
