# generated using pymatgen
data_Cs27Sn14Pb13I81
_symmetry_space_group_name_H-M   'P 1'
_cell_length_a   18.96538483
_cell_length_b   18.95289250
_cell_length_c   18.96505495
_cell_angle_alpha   89.99897848
_cell_angle_beta   89.99977082
_cell_angle_gamma   90.00011303
_symmetry_Int_Tables_number   1
_chemical_formula_structural   Cs27Sn14Pb13I81
_chemical_formula_sum   'Cs27 Sn14 Pb13 I81'
_cell_volume   6816.96813956
_cell_formula_units_Z   1
loop_
 _symmetry_equiv_pos_site_id
 _symmetry_equiv_pos_as_xyz
  1  'x, y, z'
loop_
 _atom_site_type_symbol
 _atom_site_label
 _atom_site_symmetry_multiplicity
 _atom_site_fract_x
 _atom_site_fract_y
 _atom_site_fract_z
 _atom_site_occupancy
  Cs  Cs0  1  -0.00127321  -0.00426938  -0.00062404  1
  Cs  Cs1  1  -0.00012956  0.00101786  0.33439347  1
  Cs  Cs2  1  -0.00041972  0.00053151  0.66577114  1
  Cs  Cs3  1  0.00055099  0.33245241  0.00022200  1
  Cs  Cs4  1  0.00100218  0.33350408  0.33372159  1
  Cs  Cs5  1  -0.00029174  0.33481306  0.66708525  1
  Cs  Cs6  1  -0.00073149  0.67411366  -0.00804382  1
  Cs  Cs7  1  0.00052640  0.66492611  0.33548332  1
  Cs  Cs8  1  -0.00180088  0.66176255  0.67183535  1
  Cs  Cs9  1  0.33314014  -0.00230826  0.00170599  1
  Cs  Cs10  1  0.33307184  -0.00175961  0.33515051  1
  Cs  Cs11  1  0.33403069  0.00180488  0.66441832  1
  Cs  Cs12  1  0.33334930  0.33335136  -0.00003168  1
  Cs  Cs13  1  0.33156630  0.33410934  0.33295630  1
  Cs  Cs14  1  0.33315066  0.33173833  0.66787307  1
  Cs  Cs15  1  0.33330548  0.66806627  -0.00017828  1
  Cs  Cs16  1  0.33472466  0.66679884  0.33331818  1
  Cs  Cs17  1  0.33450187  0.66635038  0.66677292  1
  Cs  Cs18  1  0.66892076  0.00088430  0.00861424  1
  Cs  Cs19  1  0.66828883  0.00104540  0.33038686  1
  Cs  Cs20  1  0.66633128  0.00017655  0.66503116  1
  Cs  Cs21  1  0.66575394  0.33233290  0.00250027  1
  Cs  Cs22  1  0.66711051  0.33385523  0.33090947  1
  Cs  Cs23  1  0.66620505  0.33194519  0.66750228  1
  Cs  Cs24  1  0.66680319  0.66710862  -0.00173886  1
  Cs  Cs25  1  0.66457795  0.66544868  0.33445621  1
  Cs  Cs26  1  0.66637351  0.66683764  0.66656215  1
  Sn  Sn27  1  0.50015936  0.83321215  0.83261870  1
  Sn  Sn28  1  0.16631341  0.83347507  0.50023779  1
  Sn  Sn29  1  0.16582207  0.16617143  0.50009652  1
  Sn  Sn30  1  0.16609051  0.49998263  0.16643312  1
  Sn  Sn31  1  0.83345058  0.83364529  0.50016588  1
  Sn  Sn32  1  0.16583010  0.16659170  0.83324526  1
  Sn  Sn33  1  0.83405463  0.16619374  0.50073202  1
  Sn  Sn34  1  0.83384796  0.16661225  0.83278858  1
  Sn  Sn35  1  0.49984962  0.50007642  0.16658943  1
  Sn  Sn36  1  0.49986446  0.50057641  0.83319899  1
  Sn  Sn37  1  0.16665131  0.16691977  0.16667369  1
  Sn  Sn38  1  0.50020821  0.83258599  0.50075531  1
  Sn  Sn39  1  0.83402317  0.50052182  0.16642686  1
  Sn  Sn40  1  0.49984470  0.50036199  0.50028570  1
  Pb  Pb41  1  0.50026627  0.16626882  0.49978511  1
  Pb  Pb42  1  0.16876630  0.83579848  0.83056093  1
  Pb  Pb43  1  0.16861115  0.49976188  0.49867304  1
  Pb  Pb44  1  0.83355476  0.83051268  0.16933927  1
  Pb  Pb45  1  0.83572322  0.16821921  0.16703270  1
  Pb  Pb46  1  0.16865235  0.49810532  0.83584009  1
  Pb  Pb47  1  0.16648152  0.83315024  0.16884692  1
  Pb  Pb48  1  0.83122543  0.49951257  0.49880625  1
  Pb  Pb49  1  0.50006469  0.83110953  0.16689747  1
  Pb  Pb50  1  0.50033306  0.16591231  0.83342188  1
  Pb  Pb51  1  0.83108817  0.49774744  0.83560345  1
  Pb  Pb52  1  0.49721083  0.16890469  0.16679536  1
  Pb  Pb53  1  0.83078093  0.83586976  0.83098192  1
  I  I54  1  0.16612872  0.00320290  0.16571835  1
  I  I55  1  0.16921114  0.00088220  0.49792513  1
  I  I56  1  0.16580351  0.00413126  0.83825299  1
  I  I57  1  0.16826407  0.33315776  0.16957362  1
  I  I58  1  0.16392682  0.33014370  0.50049361  1
  I  I59  1  0.16623798  0.32968452  0.82803798  1
  I  I60  1  0.16950022  0.66342352  0.17018278  1
  I  I61  1  0.16606012  0.66922569  0.49663497  1
  I  I62  1  0.16657827  0.66682736  0.83370166  1
  I  I63  1  0.49890251  -0.00012319  0.16631767  1
  I  I64  1  0.49911002  -0.00324629  0.50593350  1
  I  I65  1  0.49877365  -0.00286550  0.82494888  1
  I  I66  1  0.50213565  0.33767452  0.16701706  1
  I  I67  1  0.49962950  0.33617055  0.49961625  1
  I  I68  1  0.49952798  0.33611284  0.83353193  1
  I  I69  1  0.49663692  0.66245978  0.16788652  1
  I  I70  1  0.49975313  0.66704509  0.49936354  1
  I  I71  1  0.49980091  0.66598718  0.83267054  1
  I  I72  1  0.83416979  0.00015938  0.16522251  1
  I  I73  1  0.83171684  0.00045229  0.50309613  1
  I  I74  1  0.83557006  0.00387341  0.83232654  1
  I  I75  1  0.82970803  0.33624117  0.16928973  1
  I  I76  1  0.83700073  0.33027414  0.50157210  1
  I  I77  1  0.83512842  0.32977588  0.82647724  1
  I  I78  1  0.83361455  0.66229543  0.16893008  1
  I  I79  1  0.83446653  0.66928184  0.49647160  1
  I  I80  1  0.83366409  0.66676372  0.83320833  1
  I  I81  1  0.16484389  0.17344424  0.00003984  1
  I  I82  1  0.16391808  0.16740292  0.33422638  1
  I  I83  1  0.16396567  0.16210874  0.66579976  1
  I  I84  1  0.16968314  0.49370764  0.00408518  1
  I  I85  1  0.16987463  0.49461746  0.33045837  1
  I  I86  1  0.16933584  0.49869244  0.66677427  1
  I  I87  1  0.16956568  0.83419226  -0.00040908  1
  I  I88  1  0.17019148  0.83837255  0.33739097  1
  I  I89  1  0.16622445  0.83854332  0.66228647  1
  I  I90  1  0.50057791  0.16670860  -0.00011654  1
  I  I91  1  0.50038582  0.16725050  0.33354798  1
  I  I92  1  0.49578973  0.17256381  0.66656894  1
  I  I93  1  0.49949831  0.50241904  0.00020443  1
  I  I94  1  0.49969713  0.50316077  0.33330853  1
  I  I95  1  0.49996709  0.50395430  0.66634645  1
  I  I96  1  0.49908453  0.83000053  -0.00280633  1
  I  I97  1  0.49937004  0.82967782  0.33699923  1
  I  I98  1  0.49962357  0.82481275  0.66516099  1
  I  I99  1  0.83564451  0.16990748  -0.00222275  1
  I  I100  1  0.83640434  0.16422874  0.33636770  1
  I  I101  1  0.84029436  0.16446390  0.66551350  1
  I  I102  1  0.83083366  0.49650370  0.00359189  1
  I  I103  1  0.83031950  0.49788079  0.33071734  1
  I  I104  1  0.83099898  0.50070363  0.66673464  1
  I  I105  1  0.83095206  0.83440982  -0.00035754  1
  I  I106  1  0.82989876  0.84037265  0.33788592  1
  I  I107  1  0.83461720  0.83412453  0.66259891  1
  I  I108  1  0.00364573  0.17399955  0.16811454  1
  I  I109  1  0.00065140  0.15978092  0.49974983  1
  I  I110  1  0.00063196  0.16764208  0.83210542  1
  I  I111  1  0.00087765  0.49366466  0.17020785  1
  I  I112  1  0.00002042  0.50237143  0.49645571  1
  I  I113  1  -0.00000878  0.50036158  0.83487259  1
  I  I114  1  0.00009779  0.82985554  0.16818884  1
  I  I115  1  0.00008768  0.83970529  0.49665264  1
  I  I116  1  -0.00008625  0.83237084  0.83267704  1
  I  I117  1  0.32885110  0.17188556  0.16725346  1
  I  I118  1  0.33021256  0.16465207  0.50033709  1
  I  I119  1  0.33047088  0.16768654  0.83227509  1
  I  I120  1  0.33368872  0.49520080  0.16740680  1
  I  I121  1  0.33691001  0.50295321  0.49750545  1
  I  I122  1  0.33704410  0.50065995  0.83457534  1
  I  I123  1  0.33330471  0.83247084  0.16950721  1
  I  I124  1  0.33369717  0.83401996  0.50248456  1
  I  I125  1  0.33670684  0.83102737  0.82791015  1
  I  I126  1  0.66703855  0.16864961  0.16643685  1
  I  I127  1  0.66968891  0.16489653  0.50498071  1
  I  I128  1  0.66937782  0.16784600  0.82696539  1
  I  I129  1  0.66568380  0.50060554  0.16763980  1
  I  I130  1  0.66292487  0.50307917  0.49731428  1
  I  I131  1  0.66275250  0.50091613  0.83480595  1
  I  I132  1  0.66666610  0.83266340  0.16893388  1
  I  I133  1  0.66614415  0.83303138  0.50356973  1
  I  I134  1  0.66293137  0.83033047  0.82709147  1
