# generated using pymatgen
data_Cs27Sn14Pb13I81
_symmetry_space_group_name_H-M   'P 1'
_cell_length_a   18.97926472
_cell_length_b   18.97315058
_cell_length_c   18.97431479
_cell_angle_alpha   89.99744025
_cell_angle_beta   90.00048588
_cell_angle_gamma   90.00021800
_symmetry_Int_Tables_number   1
_chemical_formula_structural   Cs27Sn14Pb13I81
_chemical_formula_sum   'Cs27 Sn14 Pb13 I81'
_cell_volume   6832.58333832
_cell_formula_units_Z   1
loop_
 _symmetry_equiv_pos_site_id
 _symmetry_equiv_pos_as_xyz
  1  'x, y, z'
loop_
 _atom_site_type_symbol
 _atom_site_label
 _atom_site_symmetry_multiplicity
 _atom_site_fract_x
 _atom_site_fract_y
 _atom_site_fract_z
 _atom_site_occupancy
  Cs  Cs0  1  -0.00235245  -0.00082088  0.00034332  1
  Cs  Cs1  1  -0.00180835  -0.00007037  0.33419859  1
  Cs  Cs2  1  0.00923585  0.00145708  0.66626936  1
  Cs  Cs3  1  0.00316198  0.33577770  -0.00287250  1
  Cs  Cs4  1  -0.00733124  0.33848813  0.33386223  1
  Cs  Cs5  1  -0.00274980  0.33180227  0.66802542  1
  Cs  Cs6  1  0.00004840  0.66663707  0.00121505  1
  Cs  Cs7  1  0.00134545  0.66526864  0.33434358  1
  Cs  Cs8  1  -0.00031179  0.66568489  0.66411710  1
  Cs  Cs9  1  0.33191728  0.00127696  0.00081704  1
  Cs  Cs10  1  0.33540198  -0.00141618  0.33595864  1
  Cs  Cs11  1  0.32653849  0.00305347  0.66376843  1
  Cs  Cs12  1  0.33113571  0.33407076  0.00002060  1
  Cs  Cs13  1  0.33783255  0.33560669  0.32913341  1
  Cs  Cs14  1  0.33334238  0.33040097  0.66928650  1
  Cs  Cs15  1  0.33452819  0.66554865  0.00145733  1
  Cs  Cs16  1  0.33287042  0.66731714  0.33243353  1
  Cs  Cs17  1  0.33644420  0.66695164  0.66545112  1
  Cs  Cs18  1  0.67151443  -0.00167560  0.00142513  1
  Cs  Cs19  1  0.66589341  0.00668490  0.32969338  1
  Cs  Cs20  1  0.66544762  -0.00343209  0.66939581  1
  Cs  Cs21  1  0.66598870  0.33223356  -0.00138769  1
  Cs  Cs22  1  0.66757095  0.32698800  0.33548821  1
  Cs  Cs23  1  0.66933827  0.33455576  0.66602603  1
  Cs  Cs24  1  0.66590813  0.66941752  -0.00278813  1
  Cs  Cs25  1  0.66517408  0.66632721  0.33532100  1
  Cs  Cs26  1  0.66432064  0.66719849  0.66708563  1
  Sn  Sn27  1  0.50098250  0.16647609  0.83344603  1
  Sn  Sn28  1  0.16619191  0.50116033  0.83214422  1
  Sn  Sn29  1  0.16693188  0.83192284  0.83434511  1
  Sn  Sn30  1  0.83216802  0.83353940  0.49991377  1
  Sn  Sn31  1  0.83227801  0.16703699  0.83340231  1
  Sn  Sn32  1  0.49952667  0.83263796  0.16720098  1
  Sn  Sn33  1  0.16784953  0.49984217  0.50116832  1
  Sn  Sn34  1  0.16654123  0.16564587  0.16724250  1
  Sn  Sn35  1  0.83154272  0.50043869  0.16567590  1
  Sn  Sn36  1  0.50158486  0.50068717  0.16724434  1
  Sn  Sn37  1  0.50110482  0.83276152  0.49900601  1
  Sn  Sn38  1  0.49910167  0.50044664  0.49926991  1
  Sn  Sn39  1  0.16725790  0.83437267  0.16597576  1
  Sn  Sn40  1  0.83380720  0.49987494  0.83420449  1
  Pb  Pb41  1  0.49996198  0.16658160  0.50231168  1
  Pb  Pb42  1  0.16674494  0.17052041  0.49639680  1
  Pb  Pb43  1  0.16694570  0.50061273  0.16661087  1
  Pb  Pb44  1  0.50002160  0.49883852  0.83331946  1
  Pb  Pb45  1  0.49868898  0.16643948  0.16475891  1
  Pb  Pb46  1  0.49750722  0.83564217  0.83338527  1
  Pb  Pb47  1  0.83311450  0.83127121  0.16849748  1
  Pb  Pb48  1  0.83256834  0.50118434  0.50041374  1
  Pb  Pb49  1  0.16739281  0.83167971  0.49942621  1
  Pb  Pb50  1  0.83332690  0.16330307  0.50287957  1
  Pb  Pb51  1  0.83577075  0.16941214  0.16449092  1
  Pb  Pb52  1  0.83584040  0.83290780  0.83129975  1
  Pb  Pb53  1  0.16619846  0.16696828  0.83470798  1
  I  I54  1  0.17215103  -0.00195461  0.15966091  1
  I  I55  1  0.16665549  -0.00010974  0.50378172  1
  I  I56  1  0.16720826  -0.00218301  0.83506151  1
  I  I57  1  0.16701564  0.33223386  0.16525025  1
  I  I58  1  0.17167807  0.33852569  0.50615080  1
  I  I59  1  0.16578250  0.33621231  0.83213012  1
  I  I60  1  0.16803603  0.66909043  0.16549539  1
  I  I61  1  0.16748349  0.66371386  0.49944040  1
  I  I62  1  0.16156381  0.66565734  0.83604101  1
  I  I63  1  0.49629438  -0.00314799  0.17023253  1
  I  I64  1  0.50375235  -0.00347958  0.49607456  1
  I  I65  1  0.50436402  0.00307340  0.83406761  1
  I  I66  1  0.50081174  0.33643782  0.16976331  1
  I  I67  1  0.49545812  0.33678223  0.49598423  1
  I  I68  1  0.49824420  0.33115377  0.83406669  1
  I  I69  1  0.49643854  0.66656453  0.16968667  1
  I  I70  1  0.49944275  0.66638243  0.49690516  1
  I  I71  1  0.50152222  0.66685037  0.83328806  1
  I  I72  1  0.83194695  -0.00006549  0.16622902  1
  I  I73  1  0.82785682  -0.00454972  0.49963533  1
  I  I74  1  0.83093033  0.00215062  0.83109865  1
  I  I75  1  0.83017460  0.33756597  0.16709414  1
  I  I76  1  0.83422793  0.33350711  0.49821729  1
  I  I77  1  0.83631644  0.33479127  0.83669408  1
  I  I78  1  0.83528279  0.66324255  0.16009392  1
  I  I79  1  0.83273058  0.66880579  0.50217168  1
  I  I80  1  0.83657441  0.66364289  0.83588748  1
  I  I81  1  0.16746302  0.16806675  0.00232458  1
  I  I82  1  0.16870557  0.15967533  0.32890896  1
  I  I83  1  0.16666976  0.16364961  0.66672442  1
  I  I84  1  0.16560580  0.50015088  -0.00227320  1
  I  I85  1  0.16702798  0.50046721  0.33519476  1
  I  I86  1  0.16605694  0.50602010  0.66784256  1
  I  I87  1  0.17140545  0.83065510  0.00061778  1
  I  I88  1  0.16780715  0.83474392  0.33051218  1
  I  I89  1  0.16583545  0.83144642  0.66864288  1
  I  I90  1  0.50212394  0.16810909  -0.00289309  1
  I  I91  1  0.49770508  0.16733275  0.33315944  1
  I  I92  1  0.50203398  0.16770915  0.67017528  1
  I  I93  1  0.49968345  0.50301418  0.00267576  1
  I  I94  1  0.49788426  0.50379533  0.33309047  1
  I  I95  1  0.49882769  0.50362678  0.66415173  1
  I  I96  1  0.49657933  0.82892157  0.00293182  1
  I  I97  1  0.49666185  0.82856940  0.33283998  1
  I  I98  1  0.50261040  0.82887565  0.66394453  1
  I  I99  1  0.83004685  0.16720219  -0.00340554  1
  I  I100  1  0.83519193  0.16859537  0.33308616  1
  I  I101  1  0.83128444  0.17569396  0.67078628  1
  I  I102  1  0.83514215  0.49723337  -0.00074940  1
  I  I103  1  0.83524368  0.50290932  0.33128925  1
  I  I104  1  0.83538137  0.49724841  0.66945659  1
  I  I105  1  0.83179833  0.83442467  -0.00011397  1
  I  I106  1  0.83536999  0.82873404  0.33617110  1
  I  I107  1  0.82807585  0.83015757  0.66373421  1
  I  I108  1  0.00345248  0.16168119  0.16346404  1
  I  I109  1  0.00016512  0.16563320  0.50286422  1
  I  I110  1  -0.00218721  0.16881603  0.83497345  1
  I  I111  1  -0.00160115  0.49923629  0.16593292  1
  I  I112  1  0.00181224  0.50259437  0.49973996  1
  I  I113  1  0.00022584  0.49746531  0.83410903  1
  I  I114  1  0.00274134  0.83482633  0.16420166  1
  I  I115  1  -0.00119121  0.83079301  0.50106038  1
  I  I116  1  0.00372838  0.83388591  0.83750423  1
  I  I117  1  0.33089498  0.16877857  0.16161544  1
  I  I118  1  0.33326125  0.16213918  0.50543704  1
  I  I119  1  0.33465707  0.16723604  0.83469580  1
  I  I120  1  0.33569383  0.50068727  0.16753088  1
  I  I121  1  0.33417181  0.50655871  0.49936069  1
  I  I122  1  0.33081125  0.50141340  0.83321953  1
  I  I123  1  0.33361608  0.83029532  0.16841906  1
  I  I124  1  0.33609053  0.83031486  0.49897968  1
  I  I125  1  0.32973740  0.82831699  0.83306890  1
  I  I126  1  0.66687805  0.16490149  0.16609991  1
  I  I127  1  0.66662076  0.17181933  0.49803119  1
  I  I128  1  0.66743992  0.17323025  0.83384335  1
  I  I129  1  0.66558896  0.50554224  0.16615253  1
  I  I130  1  0.66370775  0.50315359  0.49951355  1
  I  I131  1  0.66906916  0.49676113  0.83407896  1
  I  I132  1  0.66361339  0.83027744  0.16869886  1
  I  I133  1  0.66490037  0.82593115  0.49688794  1
  I  I134  1  0.66657940  0.83225206  0.83466238  1
