# generated using pymatgen
data_Cs27Sn13Pb14I81
_symmetry_space_group_name_H-M   'P 1'
_cell_length_a   18.97069775
_cell_length_b   18.98076837
_cell_length_c   18.97977904
_cell_angle_alpha   90.00101499
_cell_angle_beta   89.99973456
_cell_angle_gamma   89.99788879
_symmetry_Int_Tables_number   1
_chemical_formula_structural   Cs27Sn13Pb14I81
_chemical_formula_sum   'Cs27 Sn13 Pb14 I81'
_cell_volume   6834.20883846
_cell_formula_units_Z   1
loop_
 _symmetry_equiv_pos_site_id
 _symmetry_equiv_pos_as_xyz
  1  'x, y, z'
loop_
 _atom_site_type_symbol
 _atom_site_label
 _atom_site_symmetry_multiplicity
 _atom_site_fract_x
 _atom_site_fract_y
 _atom_site_fract_z
 _atom_site_occupancy
  Cs  Cs0  1  -0.00062938  0.00227513  0.00016460  1
  Cs  Cs1  1  -0.00157149  -0.00356881  0.33594437  1
  Cs  Cs2  1  0.00218981  -0.00210986  0.66469068  1
  Cs  Cs3  1  0.00048330  0.33332375  -0.00012471  1
  Cs  Cs4  1  0.00107726  0.33689930  0.33504415  1
  Cs  Cs5  1  -0.00161161  0.33402425  0.66561490  1
  Cs  Cs6  1  0.00245294  0.66526745  -0.00000407  1
  Cs  Cs7  1  -0.00179584  0.66305972  0.33266645  1
  Cs  Cs8  1  -0.00062990  0.66688259  0.66724708  1
  Cs  Cs9  1  0.33166093  -0.00026150  -0.00246590  1
  Cs  Cs10  1  0.33868446  0.00317597  0.34136224  1
  Cs  Cs11  1  0.33097365  -0.00000055  0.66350395  1
  Cs  Cs12  1  0.33194813  0.33414462  -0.00043079  1
  Cs  Cs13  1  0.33662611  0.32944124  0.33519960  1
  Cs  Cs14  1  0.33565517  0.33212140  0.66596813  1
  Cs  Cs15  1  0.33160939  0.66589018  -0.00115457  1
  Cs  Cs16  1  0.34056659  0.66744271  0.33113388  1
  Cs  Cs17  1  0.33527846  0.66888713  0.66824211  1
  Cs  Cs18  1  0.66851787  0.00256431  0.00306386  1
  Cs  Cs19  1  0.66165133  -0.00800136  0.32647041  1
  Cs  Cs20  1  0.66766616  -0.00120701  0.66898058  1
  Cs  Cs21  1  0.66587491  0.32950839  0.00026668  1
  Cs  Cs22  1  0.66082123  0.33070430  0.33425711  1
  Cs  Cs23  1  0.66944241  0.33506952  0.66764186  1
  Cs  Cs24  1  0.66336010  0.66690936  -0.00173038  1
  Cs  Cs25  1  0.66219168  0.67578909  0.33291305  1
  Cs  Cs26  1  0.66617759  0.66599349  0.66735795  1
  Sn  Sn27  1  0.50079294  0.83454367  0.83364962  1
  Sn  Sn28  1  0.83370425  0.49916689  0.49949364  1
  Sn  Sn29  1  0.83332677  0.49971341  0.16671342  1
  Sn  Sn30  1  0.16655018  0.83358693  0.16701075  1
  Sn  Sn31  1  0.16650414  0.50016808  0.50008224  1
  Sn  Sn32  1  0.83419917  0.50070101  0.83380489  1
  Sn  Sn33  1  0.16717627  0.16756996  0.83370918  1
  Sn  Sn34  1  0.16581397  0.49905046  0.83280880  1
  Sn  Sn35  1  0.83317465  0.16696374  0.49938406  1
  Sn  Sn36  1  0.16620934  0.16659503  0.16657937  1
  Sn  Sn37  1  0.49918344  0.16590110  0.83333045  1
  Sn  Sn38  1  0.83294666  0.83258340  0.83366858  1
  Sn  Sn39  1  0.16617601  0.49971956  0.16702851  1
  Pb  Pb40  1  0.49728465  0.16673253  0.16419894  1
  Pb  Pb41  1  0.83535041  0.83094917  0.16400791  1
  Pb  Pb42  1  0.50001879  0.49966090  0.83337488  1
  Pb  Pb43  1  0.16502729  0.16858766  0.50013824  1
  Pb  Pb44  1  0.49994975  0.83336766  0.50301217  1
  Pb  Pb45  1  0.83405847  0.16696830  0.83221666  1
  Pb  Pb46  1  0.83559869  0.16887146  0.16959566  1
  Pb  Pb47  1  0.16637533  0.83338715  0.83451075  1
  Pb  Pb48  1  0.49707054  0.83349084  0.16370619  1
  Pb  Pb49  1  0.83344710  0.83259294  0.50198431  1
  Pb  Pb50  1  0.50004264  0.49986426  0.16653234  1
  Pb  Pb51  1  0.50059374  0.49996416  0.50007772  1
  Pb  Pb52  1  0.50343053  0.16674004  0.50276765  1
  Pb  Pb53  1  0.16650234  0.82998444  0.49670358  1
  I  I54  1  0.16691522  0.00078062  0.15783308  1
  I  I55  1  0.16472033  0.00013826  0.50076905  1
  I  I56  1  0.16674804  0.00255860  0.83828554  1
  I  I57  1  0.16281153  0.33444000  0.16414731  1
  I  I58  1  0.16356557  0.33689552  0.49731998  1
  I  I59  1  0.16661582  0.33426860  0.83783094  1
  I  I60  1  0.16270576  0.66487731  0.16503305  1
  I  I61  1  0.15900448  0.66156244  0.50343564  1
  I  I62  1  0.16586741  0.66356473  0.83439749  1
  I  I63  1  0.49936897  0.00006765  0.16684668  1
  I  I64  1  0.50056175  0.00028365  0.49960568  1
  I  I65  1  0.49963149  0.00020179  0.83358789  1
  I  I66  1  0.49820950  0.33325808  0.16327719  1
  I  I67  1  0.49823402  0.33324748  0.50305815  1
  I  I68  1  0.49814920  0.33066489  0.83319434  1
  I  I69  1  0.49710772  0.66673119  0.16398140  1
  I  I70  1  0.50077306  0.66656211  0.50233365  1
  I  I71  1  0.50082660  0.66891610  0.83353041  1
  I  I72  1  0.83611423  -0.00002450  0.16656677  1
  I  I73  1  0.83460471  0.00239158  0.50458914  1
  I  I74  1  0.83304561  -0.00192966  0.83045444  1
  I  I75  1  0.84011690  0.33736361  0.15985908  1
  I  I76  1  0.83807383  0.33552211  0.50405564  1
  I  I77  1  0.83451595  0.33653664  0.83421986  1
  I  I78  1  0.84043862  0.66252479  0.17073771  1
  I  I79  1  0.83833820  0.66264783  0.49947734  1
  I  I80  1  0.83383319  0.66490903  0.83132264  1
  I  I81  1  0.16963557  0.17178561  -0.00082248  1
  I  I82  1  0.16347088  0.16849778  0.33066298  1
  I  I83  1  0.16905827  0.17089557  0.66977566  1
  I  I84  1  0.16164766  0.49950936  -0.00021872  1
  I  I85  1  0.15934713  0.50030322  0.33258949  1
  I  I86  1  0.16061101  0.49530714  0.66784808  1
  I  I87  1  0.16665151  0.82789957  0.00222659  1
  I  I88  1  0.16468937  0.83427442  0.32872303  1
  I  I89  1  0.16726435  0.83319908  0.66677948  1
  I  I90  1  0.50031273  0.16402754  -0.00408841  1
  I  I91  1  0.49852214  0.16761956  0.33341695  1
  I  I92  1  0.49171420  0.16313664  0.67083965  1
  I  I93  1  0.49960986  0.50038098  -0.00033821  1
  I  I94  1  0.49868047  0.49990928  0.33330681  1
  I  I95  1  0.49907500  0.50076972  0.66700527  1
  I  I96  1  0.50421551  0.83617797  -0.00407887  1
  I  I97  1  0.49955136  0.83242745  0.33291000  1
  I  I98  1  0.50214793  0.83570301  0.67133878  1
  I  I99  1  0.83155669  0.16726100  0.00003587  1
  I  I100  1  0.83732559  0.17385084  0.33702526  1
  I  I101  1  0.83493015  0.17330941  0.66473671  1
  I  I102  1  0.84025635  0.50485723  -0.00071852  1
  I  I103  1  0.84287699  0.49416958  0.33337468  1
  I  I104  1  0.83913613  0.49995078  0.66732820  1
  I  I105  1  0.83043921  0.82894954  -0.00404449  1
  I  I106  1  0.83477375  0.83258793  0.33296948  1
  I  I107  1  0.83110701  0.82755736  0.67040325  1
  I  I108  1  0.00397652  0.16611656  0.15767229  1
  I  I109  1  -0.00261438  0.17019741  0.50400440  1
  I  I110  1  0.00305056  0.16819814  0.83623589  1
  I  I111  1  0.00122609  0.50028327  0.16572366  1
  I  I112  1  -0.00021772  0.49641250  0.50071112  1
  I  I113  1  0.00038250  0.50023575  0.83359218  1
  I  I114  1  0.00334370  0.83384679  0.16260525  1
  I  I115  1  0.00004042  0.83602088  0.50459599  1
  I  I116  1  -0.00233869  0.83108241  0.83426668  1
  I  I117  1  0.32854088  0.17132248  0.16554993  1
  I  I118  1  0.33323770  0.16822514  0.49846795  1
  I  I119  1  0.33185766  0.16700452  0.83715670  1
  I  I120  1  0.32886574  0.50051434  0.16509862  1
  I  I121  1  0.32980433  0.50024201  0.50045255  1
  I  I122  1  0.32975874  0.49993615  0.83433386  1
  I  I123  1  0.32907785  0.82784168  0.16295104  1
  I  I124  1  0.33297662  0.83173627  0.50244108  1
  I  I125  1  0.33515977  0.83349480  0.83582394  1
  I  I126  1  0.66693687  0.16905582  0.16567450  1
  I  I127  1  0.67101860  0.17650750  0.50331951  1
  I  I128  1  0.66493537  0.16619258  0.82983896  1
  I  I129  1  0.67036791  0.49988211  0.16512445  1
  I  I130  1  0.67089170  0.49589082  0.50272131  1
  I  I131  1  0.67011091  0.50083589  0.83249456  1
  I  I132  1  0.66673971  0.83112576  0.16758177  1
  I  I133  1  0.66693567  0.83064889  0.49845072  1
  I  I134  1  0.66725114  0.83222194  0.83246079  1
