# generated using pymatgen
data_Cs27Sn13Pb14I81
_symmetry_space_group_name_H-M   'P 1'
_cell_length_a   18.97979602
_cell_length_b   18.97596969
_cell_length_c   18.97504113
_cell_angle_alpha   90.00227495
_cell_angle_beta   89.99773685
_cell_angle_gamma   89.99698404
_symmetry_Int_Tables_number   1
_chemical_formula_structural   Cs27Sn13Pb14I81
_chemical_formula_sum   'Cs27 Sn13 Pb14 I81'
_cell_volume   6834.05143944
_cell_formula_units_Z   1
loop_
 _symmetry_equiv_pos_site_id
 _symmetry_equiv_pos_as_xyz
  1  'x, y, z'
loop_
 _atom_site_type_symbol
 _atom_site_label
 _atom_site_symmetry_multiplicity
 _atom_site_fract_x
 _atom_site_fract_y
 _atom_site_fract_z
 _atom_site_occupancy
  Cs  Cs0  1  0.00268967  -0.00315682  -0.00208245  1
  Cs  Cs1  1  -0.00122356  0.00532759  0.33555649  1
  Cs  Cs2  1  -0.00322701  -0.00107272  0.66655066  1
  Cs  Cs3  1  -0.00178541  0.33544115  0.00237106  1
  Cs  Cs4  1  -0.00325233  0.32719717  0.33660240  1
  Cs  Cs5  1  0.00187565  0.33098246  0.66171184  1
  Cs  Cs6  1  -0.00012660  0.66703906  0.00125656  1
  Cs  Cs7  1  0.00087968  0.66538758  0.33029261  1
  Cs  Cs8  1  -0.00073654  0.66911030  0.66643952  1
  Cs  Cs9  1  0.33366325  0.00008043  -0.00071628  1
  Cs  Cs10  1  0.33633167  -0.00015796  0.32845545  1
  Cs  Cs11  1  0.33380637  0.00129117  0.67071759  1
  Cs  Cs12  1  0.33336312  0.33334465  -0.00091336  1
  Cs  Cs13  1  0.33029737  0.33331056  0.33525555  1
  Cs  Cs14  1  0.33521389  0.33499675  0.66555928  1
  Cs  Cs15  1  0.33131261  0.66749385  0.00083947  1
  Cs  Cs16  1  0.33495624  0.66680922  0.33427952  1
  Cs  Cs17  1  0.33363237  0.66359150  0.66448809  1
  Cs  Cs18  1  0.66128021  0.00117120  -0.00017576  1
  Cs  Cs19  1  0.66387388  -0.00096502  0.33541177  1
  Cs  Cs20  1  0.66849979  -0.00015901  0.66523994  1
  Cs  Cs21  1  0.67016956  0.33723998  0.00160538  1
  Cs  Cs22  1  0.67405723  0.33134781  0.32901007  1
  Cs  Cs23  1  0.66213084  0.33465317  0.66889316  1
  Cs  Cs24  1  0.67185154  0.66147103  -0.00079604  1
  Cs  Cs25  1  0.66412005  0.66937921  0.33568773  1
  Cs  Cs26  1  0.66835674  0.66477714  0.66389502  1
  Sn  Sn27  1  0.50012997  0.16611023  0.83261412  1
  Sn  Sn28  1  0.49965579  0.16663815  0.50028287  1
  Sn  Sn29  1  0.16640189  0.16690330  0.83351537  1
  Sn  Sn30  1  0.83389696  0.83380065  0.16651913  1
  Sn  Sn31  1  0.49899023  0.50001585  0.16660930  1
  Sn  Sn32  1  0.49964509  0.83304752  0.83333107  1
  Sn  Sn33  1  0.16757146  0.50039773  0.16620108  1
  Sn  Sn34  1  0.16693615  0.83360190  0.49985408  1
  Sn  Sn35  1  0.83328739  0.16666363  0.83370598  1
  Sn  Sn36  1  0.16671085  0.50018345  0.83374957  1
  Sn  Sn37  1  0.16751225  0.83293075  0.83309129  1
  Sn  Sn38  1  0.16575007  0.83277154  0.16698684  1
  Sn  Sn39  1  0.83350155  0.50037288  0.50027513  1
  Pb  Pb40  1  0.16660274  0.16664615  0.16458676  1
  Pb  Pb41  1  0.49806365  0.50007523  0.83472324  1
  Pb  Pb42  1  0.83340460  0.16348862  0.16425136  1
  Pb  Pb43  1  0.16541117  0.50169117  0.49951448  1
  Pb  Pb44  1  0.49986407  0.16918299  0.16598110  1
  Pb  Pb45  1  0.16866379  0.16399400  0.50248300  1
  Pb  Pb46  1  0.49955646  0.83146438  0.16419582  1
  Pb  Pb47  1  0.83100169  0.16819537  0.50240684  1
  Pb  Pb48  1  0.83644028  0.49782773  0.83141163  1
  Pb  Pb49  1  0.49776651  0.83505247  0.50263766  1
  Pb  Pb50  1  0.83319891  0.83487219  0.83481901  1
  Pb  Pb51  1  0.83434903  0.50174581  0.16841684  1
  Pb  Pb52  1  0.83545438  0.83199921  0.49768723  1
  Pb  Pb53  1  0.50187863  0.49777547  0.49732065  1
  I  I54  1  0.16315209  -0.00356815  0.16531379  1
  I  I55  1  0.16594762  -0.00397738  0.49902973  1
  I  I56  1  0.16763456  -0.00058713  0.83374436  1
  I  I57  1  0.17082245  0.33659007  0.16129717  1
  I  I58  1  0.16596991  0.33313252  0.50044760  1
  I  I59  1  0.16695439  0.33323534  0.83818473  1
  I  I60  1  0.16634607  0.66728057  0.16081759  1
  I  I61  1  0.16620958  0.66963602  0.50518842  1
  I  I62  1  0.17125198  0.66773299  0.83448831  1
  I  I63  1  0.49998243  -0.00014441  0.16751789  1
  I  I64  1  0.50030279  0.00299033  0.50197051  1
  I  I65  1  0.49489056  0.00059806  0.83163370  1
  I  I66  1  0.49406134  0.33694156  0.16439104  1
  I  I67  1  0.49881364  0.33017890  0.50901715  1
  I  I68  1  0.49831366  0.33035318  0.83081890  1
  I  I69  1  0.49785517  0.66386976  0.16478967  1
  I  I70  1  0.50079214  0.66668637  0.50099208  1
  I  I71  1  0.49412767  0.66922275  0.83611803  1
  I  I72  1  0.84083239  -0.00422140  0.16668666  1
  I  I73  1  0.83357189  0.00006763  0.49954010  1
  I  I74  1  0.83774637  0.00290869  0.83371379  1
  I  I75  1  0.83312115  0.33342752  0.16723552  1
  I  I76  1  0.83588189  0.33587941  0.49813769  1
  I  I77  1  0.83155798  0.32984187  0.83342165  1
  I  I78  1  0.83607746  0.66942790  0.16482979  1
  I  I79  1  0.83319128  0.66426989  0.50091267  1
  I  I80  1  0.83277861  0.66658616  0.83358157  1
  I  I81  1  0.17028698  0.16216887  -0.00429784  1
  I  I82  1  0.16843872  0.16689899  0.33360279  1
  I  I83  1  0.16507033  0.16731389  0.67116840  1
  I  I84  1  0.16958362  0.50411416  -0.00024608  1
  I  I85  1  0.16950408  0.50626370  0.33019887  1
  I  I86  1  0.16491662  0.50073172  0.66956502  1
  I  I87  1  0.16639666  0.83311049  -0.00071884  1
  I  I88  1  0.16233361  0.82706599  0.33206770  1
  I  I89  1  0.17089904  0.83341689  0.66844723  1
  I  I90  1  0.49865714  0.16287577  -0.00390880  1
  I  I91  1  0.50008489  0.16809752  0.33571653  1
  I  I92  1  0.49928825  0.16364928  0.66896991  1
  I  I93  1  0.49875355  0.49866826  0.00258383  1
  I  I94  1  0.49250696  0.50021841  0.32969297  1
  I  I95  1  0.49955328  0.50112696  0.66676624  1
  I  I96  1  0.49349562  0.84082473  -0.00361337  1
  I  I97  1  0.49930871  0.83482236  0.33316228  1
  I  I98  1  0.49459652  0.83454983  0.67083345  1
  I  I99  1  0.83112113  0.16821210  -0.00397853  1
  I  I100  1  0.83158183  0.16755152  0.33356143  1
  I  I101  1  0.83695586  0.16536757  0.67036943  1
  I  I102  1  0.83172423  0.49925519  0.00001650  1
  I  I103  1  0.83481984  0.50009853  0.33574880  1
  I  I104  1  0.83433542  0.50049719  0.66411156  1
  I  I105  1  0.84004165  0.83220706  0.00258478  1
  I  I106  1  0.83853498  0.83176867  0.32974024  1
  I  I107  1  0.83462596  0.83340709  0.66673647  1
  I  I108  1  0.00010934  0.17137359  0.16525110  1
  I  I109  1  0.00010262  0.16711243  0.50143758  1
  I  I110  1  0.00127862  0.16595043  0.83505220  1
  I  I111  1  0.00342273  0.50357961  0.16243133  1
  I  I112  1  -0.00215645  0.49996225  0.49914590  1
  I  I113  1  0.00466405  0.50219572  0.83999152  1
  I  I114  1  0.00253308  0.82712365  0.16324091  1
  I  I115  1  0.00357455  0.83309745  0.50635486  1
  I  I116  1  0.00358460  0.83447272  0.83259253  1
  I  I117  1  0.33322515  0.16261271  0.16434262  1
  I  I118  1  0.33621593  0.16770905  0.50685396  1
  I  I119  1  0.33313436  0.16506670  0.83030624  1
  I  I120  1  0.33148408  0.50540464  0.16271032  1
  I  I121  1  0.33322601  0.49979927  0.50123463  1
  I  I122  1  0.32968287  0.49692120  0.83427858  1
  I  I123  1  0.32990702  0.83128965  0.16700472  1
  I  I124  1  0.32972843  0.83184650  0.49568969  1
  I  I125  1  0.33150475  0.83862156  0.83572264  1
  I  I126  1  0.66658921  0.16776221  0.16361312  1
  I  I127  1  0.66337292  0.16673758  0.50673707  1
  I  I128  1  0.66546782  0.16100674  0.82946519  1
  I  I129  1  0.66497604  0.50072721  0.16757231  1
  I  I130  1  0.66942598  0.50020189  0.49898545  1
  I  I131  1  0.66671343  0.49972119  0.83513527  1
  I  I132  1  0.66848925  0.83148727  0.16391212  1
  I  I133  1  0.66648790  0.83307844  0.49941716  1
  I  I134  1  0.66399732  0.83911672  0.83621323  1
