# generated using pymatgen
data_Cs27Sn13Pb14I81
_symmetry_space_group_name_H-M   'P 1'
_cell_length_a   18.98006885
_cell_length_b   18.97760208
_cell_length_c   18.97316599
_cell_angle_alpha   90.00022837
_cell_angle_beta   90.00008472
_cell_angle_gamma   90.00044328
_symmetry_Int_Tables_number   1
_chemical_formula_structural   Cs27Sn13Pb14I81
_chemical_formula_sum   'Cs27 Sn13 Pb14 I81'
_cell_volume   6834.06217901
_cell_formula_units_Z   1
loop_
 _symmetry_equiv_pos_site_id
 _symmetry_equiv_pos_as_xyz
  1  'x, y, z'
loop_
 _atom_site_type_symbol
 _atom_site_label
 _atom_site_symmetry_multiplicity
 _atom_site_fract_x
 _atom_site_fract_y
 _atom_site_fract_z
 _atom_site_occupancy
  Cs  Cs0  1  0.00022873  -0.00777364  0.00118055  1
  Cs  Cs1  1  0.00123675  0.00134310  0.33188046  1
  Cs  Cs2  1  0.00147408  0.00292939  0.66917787  1
  Cs  Cs3  1  -0.00303782  0.33454469  0.00342806  1
  Cs  Cs4  1  0.00041378  0.33401137  0.33174110  1
  Cs  Cs5  1  -0.00032164  0.33087867  0.66807921  1
  Cs  Cs6  1  0.00236113  0.67225703  0.00029854  1
  Cs  Cs7  1  0.00005761  0.66597631  0.33374794  1
  Cs  Cs8  1  -0.00258814  0.66886261  0.66611827  1
  Cs  Cs9  1  0.34147596  -0.00697510  -0.00469367  1
  Cs  Cs10  1  0.33475677  -0.00160157  0.33462201  1
  Cs  Cs11  1  0.32988746  0.00357961  0.66648243  1
  Cs  Cs12  1  0.33538186  0.33387229  -0.00518566  1
  Cs  Cs13  1  0.33202373  0.33458098  0.33316896  1
  Cs  Cs14  1  0.33089683  0.33255668  0.67128014  1
  Cs  Cs15  1  0.33128667  0.66989802  -0.00813918  1
  Cs  Cs16  1  0.33240437  0.66527636  0.33411803  1
  Cs  Cs17  1  0.33432698  0.66453590  0.66781007  1
  Cs  Cs18  1  0.65987724  -0.00419741  0.00028858  1
  Cs  Cs19  1  0.66440719  0.00023241  0.33252903  1
  Cs  Cs20  1  0.66822537  -0.00147622  0.66587528  1
  Cs  Cs21  1  0.66859722  0.33225007  0.00107568  1
  Cs  Cs22  1  0.66708221  0.33409893  0.33277318  1
  Cs  Cs23  1  0.66835123  0.33390124  0.66711405  1
  Cs  Cs24  1  0.66593170  0.67120980  -0.00255136  1
  Cs  Cs25  1  0.66758506  0.66502301  0.33630811  1
  Cs  Cs26  1  0.66805905  0.66916008  0.66420654  1
  Sn  Sn27  1  0.83393242  0.16706729  0.16619703  1
  Sn  Sn28  1  0.83275726  0.16706639  0.49958912  1
  Sn  Sn29  1  0.49967333  0.49985084  0.16695161  1
  Sn  Sn30  1  0.16684746  0.16711391  0.16640537  1
  Sn  Sn31  1  0.83326192  0.49970511  0.16567100  1
  Sn  Sn32  1  0.49913302  0.49954003  0.49928778  1
  Sn  Sn33  1  0.83339676  0.16730549  0.83428302  1
  Sn  Sn34  1  0.16708739  0.49905388  0.16712483  1
  Sn  Sn35  1  0.83349589  0.49949033  0.83456325  1
  Sn  Sn36  1  0.50059708  0.16739724  0.49973165  1
  Sn  Sn37  1  0.16729244  0.50048770  0.49955214  1
  Sn  Sn38  1  0.49893146  0.83301271  0.49954217  1
  Sn  Sn39  1  0.16717323  0.83233550  0.49950356  1
  Pb  Pb40  1  0.50246165  0.16697923  0.83057590  1
  Pb  Pb41  1  0.16680768  0.16726960  0.49847237  1
  Pb  Pb42  1  0.49975573  0.16853504  0.16832678  1
  Pb  Pb43  1  0.83318103  0.83333307  0.16698196  1
  Pb  Pb44  1  0.50003144  0.83315358  0.82983152  1
  Pb  Pb45  1  0.83370899  0.49820187  0.49968685  1
  Pb  Pb46  1  0.83331567  0.83358072  0.83336737  1
  Pb  Pb47  1  0.83376120  0.83659742  0.49968275  1
  Pb  Pb48  1  0.16660512  0.83335184  0.82987393  1
  Pb  Pb49  1  0.49979848  0.82977497  0.16911255  1
  Pb  Pb50  1  0.16689895  0.83309182  0.16863588  1
  Pb  Pb51  1  0.16392981  0.49977753  0.83357550  1
  Pb  Pb52  1  0.50263841  0.49987151  0.83309267  1
  Pb  Pb53  1  0.16424821  0.16689266  0.83770618  1
  I  I54  1  0.15834385  0.00303745  0.16973796  1
  I  I55  1  0.16928898  -0.00163637  0.49844929  1
  I  I56  1  0.16268712  0.00026557  0.83174146  1
  I  I57  1  0.16388743  0.33473498  0.17445415  1
  I  I58  1  0.16920099  0.33624054  0.49718953  1
  I  I59  1  0.16831693  0.33334095  0.82588344  1
  I  I60  1  0.16472506  0.66279837  0.16969950  1
  I  I61  1  0.17344007  0.66520045  0.49444053  1
  I  I62  1  0.16295692  0.66635134  0.83731824  1
  I  I63  1  0.50134330  0.00007419  0.16876249  1
  I  I64  1  0.50086851  0.00029631  0.50077426  1
  I  I65  1  0.50327746  0.00010101  0.83339158  1
  I  I66  1  0.50123354  0.33682788  0.17420961  1
  I  I67  1  0.50107982  0.33417848  0.49581114  1
  I  I68  1  0.49875758  0.33350123  0.82909850  1
  I  I69  1  0.50138757  0.66134636  0.17296058  1
  I  I70  1  0.49589902  0.66561438  0.49600887  1
  I  I71  1  0.50375074  0.66630679  0.83209277  1
  I  I72  1  0.83885510  0.00399898  0.16728053  1
  I  I73  1  0.83002152  0.00489489  0.50006864  1
  I  I74  1  0.83391079  0.00373075  0.83181414  1
  I  I75  1  0.83407174  0.33362710  0.16686072  1
  I  I76  1  0.82980357  0.33015561  0.49961857  1
  I  I77  1  0.83291550  0.33294189  0.83356210  1
  I  I78  1  0.83439350  0.66248849  0.16300707  1
  I  I79  1  0.83110912  0.66642211  0.50058424  1
  I  I80  1  0.83321842  0.66335805  0.83750882  1
  I  I81  1  0.16145889  0.17543283  0.00556277  1
  I  I82  1  0.15977053  0.16881376  0.33076514  1
  I  I83  1  0.16544355  0.16568765  0.66658407  1
  I  I84  1  0.16904728  0.49492006  0.00381564  1
  I  I85  1  0.16482603  0.50005088  0.33330772  1
  I  I86  1  0.17035644  0.50408225  0.66329657  1
  I  I87  1  0.16492271  0.83292059  0.00014600  1
  I  I88  1  0.17049345  0.83166902  0.33686130  1
  I  I89  1  0.17051828  0.82782409  0.66142813  1
  I  I90  1  0.50044608  0.16864049  0.00023896  1
  I  I91  1  0.50636925  0.16538152  0.33684003  1
  I  I92  1  0.50414291  0.16888331  0.66167324  1
  I  I93  1  0.49785469  0.49788372  0.00332323  1
  I  I94  1  0.50226029  0.49984713  0.33430463  1
  I  I95  1  0.49720355  0.50065618  0.66272791  1
  I  I96  1  0.50118803  0.83305847  0.00010143  1
  I  I97  1  0.49681980  0.83612060  0.33749170  1
  I  I98  1  0.49734009  0.83006639  0.66134446  1
  I  I99  1  0.83924563  0.17336762  0.00108237  1
  I  I100  1  0.83328146  0.17074505  0.33276034  1
  I  I101  1  0.82826689  0.17044455  0.66633753  1
  I  I102  1  0.83292496  0.49137730  0.00160251  1
  I  I103  1  0.83325918  0.49569499  0.33047833  1
  I  I104  1  0.83308650  0.49534606  0.66828145  1
  I  I105  1  0.83362992  0.83624044  0.00013053  1
  I  I106  1  0.83300375  0.83264684  0.33365822  1
  I  I107  1  0.83295048  0.83203212  0.66629178  1
  I  I108  1  -0.00127946  0.17495563  0.17048854  1
  I  I109  1  -0.00255477  0.16712956  0.50131708  1
  I  I110  1  -0.00424205  0.17164981  0.82493060  1
  I  I111  1  -0.00001940  0.49548480  0.16820975  1
  I  I112  1  0.00264725  0.50307829  0.49704726  1
  I  I113  1  -0.00401452  0.49476650  0.83541116  1
  I  I114  1  0.00010881  0.83001134  0.17023152  1
  I  I115  1  0.00305936  0.82831908  0.49948735  1
  I  I116  1  -0.00020030  0.83311853  0.83015035  1
  I  I117  1  0.33070720  0.17177142  0.17247870  1
  I  I118  1  0.33586282  0.16611419  0.49673550  1
  I  I119  1  0.33327964  0.16561219  0.83197783  1
  I  I120  1  0.33276179  0.49533565  0.17493550  1
  I  I121  1  0.33376376  0.49933445  0.49242044  1
  I  I122  1  0.33331121  0.50145539  0.83504336  1
  I  I123  1  0.33334936  0.83628343  0.16671250  1
  I  I124  1  0.33384111  0.83443340  0.49850405  1
  I  I125  1  0.33337647  0.83293763  0.83616233  1
  I  I126  1  0.66980861  0.17144923  0.16641840  1
  I  I127  1  0.66679582  0.16716690  0.49841140  1
  I  I128  1  0.67100172  0.17164368  0.83764009  1
  I  I129  1  0.66714266  0.49572842  0.16847301  1
  I  I130  1  0.66412221  0.50190484  0.49742262  1
  I  I131  1  0.67057577  0.49489434  0.83615878  1
  I  I132  1  0.66644023  0.83375578  0.16986498  1
  I  I133  1  0.66361451  0.83002173  0.50026207  1
  I  I134  1  0.66678197  0.83282021  0.83028115  1
