# generated using pymatgen
data_Cs27Sn14Pb13I81
_symmetry_space_group_name_H-M   'P 1'
_cell_length_a   18.97942542
_cell_length_b   18.97504089
_cell_length_c   18.97092300
_cell_angle_alpha   89.99850511
_cell_angle_beta   90.00181492
_cell_angle_gamma   90.00024416
_symmetry_Int_Tables_number   1
_chemical_formula_structural   Cs27Sn14Pb13I81
_chemical_formula_sum   'Cs27 Sn14 Pb13 I81'
_cell_volume   6832.10043270
_cell_formula_units_Z   1
loop_
 _symmetry_equiv_pos_site_id
 _symmetry_equiv_pos_as_xyz
  1  'x, y, z'
loop_
 _atom_site_type_symbol
 _atom_site_label
 _atom_site_symmetry_multiplicity
 _atom_site_fract_x
 _atom_site_fract_y
 _atom_site_fract_z
 _atom_site_occupancy
  Cs  Cs0  1  0.00281193  0.00060274  0.00155872  1
  Cs  Cs1  1  -0.00200458  -0.00061248  0.33435302  1
  Cs  Cs2  1  -0.00423909  0.00367263  0.66347607  1
  Cs  Cs3  1  0.00252341  0.33380921  -0.00089552  1
  Cs  Cs4  1  0.00186764  0.33032392  0.33123494  1
  Cs  Cs5  1  -0.00423129  0.33253798  0.66896312  1
  Cs  Cs6  1  -0.00069277  0.66592659  0.00024869  1
  Cs  Cs7  1  -0.00059985  0.67169629  0.33347085  1
  Cs  Cs8  1  0.00057532  0.66580113  0.66688729  1
  Cs  Cs9  1  0.33448279  -0.00101541  -0.00006421  1
  Cs  Cs10  1  0.33301131  0.00047357  0.33286855  1
  Cs  Cs11  1  0.33631323  -0.00072446  0.66722095  1
  Cs  Cs12  1  0.33103801  0.32948119  0.00180175  1
  Cs  Cs13  1  0.33617347  0.33310947  0.33460209  1
  Cs  Cs14  1  0.33175689  0.33558143  0.66341424  1
  Cs  Cs15  1  0.33066850  0.67027849  -0.00233797  1
  Cs  Cs16  1  0.33273198  0.66678291  0.33810041  1
  Cs  Cs17  1  0.33308294  0.66585214  0.66505439  1
  Cs  Cs18  1  0.65868597  -0.00004029  -0.00219641  1
  Cs  Cs19  1  0.66864229  -0.00058238  0.33576237  1
  Cs  Cs20  1  0.66600947  0.00287189  0.66557830  1
  Cs  Cs21  1  0.66305590  0.33314967  0.00459795  1
  Cs  Cs22  1  0.66176208  0.33553158  0.33004189  1
  Cs  Cs23  1  0.67349934  0.33484168  0.66645789  1
  Cs  Cs24  1  0.67050601  0.66581676  -0.00179034  1
  Cs  Cs25  1  0.66840422  0.66562437  0.32893236  1
  Cs  Cs26  1  0.66569043  0.66378798  0.67140886  1
  Sn  Sn27  1  0.16692698  0.50072974  0.83402244  1
  Sn  Sn28  1  0.49930096  0.16620228  0.50010115  1
  Sn  Sn29  1  0.49997002  0.83353539  0.49919111  1
  Sn  Sn30  1  0.83371366  0.16641252  0.16619379  1
  Sn  Sn31  1  0.16680263  0.50049845  0.16647324  1
  Sn  Sn32  1  0.49928040  0.83286501  0.16775388  1
  Sn  Sn33  1  0.16723545  0.16660728  0.49951067  1
  Sn  Sn34  1  0.83376368  0.50050971  0.49958069  1
  Sn  Sn35  1  0.16542654  0.83289910  0.83352795  1
  Sn  Sn36  1  0.49946852  0.49948779  0.83369963  1
  Sn  Sn37  1  0.83455747  0.83340680  0.83338372  1
  Sn  Sn38  1  0.16732889  0.83307199  0.16637213  1
  Sn  Sn39  1  0.83356167  0.50071450  0.83297486  1
  Sn  Sn40  1  0.16601535  0.16641044  0.16762971  1
  Pb  Pb41  1  0.49929164  0.16460887  0.16850111  1
  Pb  Pb42  1  0.83360589  0.83533082  0.16440365  1
  Pb  Pb43  1  0.83563921  0.49838193  0.16603538  1
  Pb  Pb44  1  0.49989626  0.16984777  0.83029792  1
  Pb  Pb45  1  0.16675022  0.16629825  0.83332532  1
  Pb  Pb46  1  0.49966303  0.83184810  0.83322708  1
  Pb  Pb47  1  0.50198607  0.50012751  0.50165622  1
  Pb  Pb48  1  0.83330956  0.16670086  0.83614318  1
  Pb  Pb49  1  0.49699218  0.50283492  0.16438483  1
  Pb  Pb50  1  0.16473130  0.49799964  0.50021526  1
  Pb  Pb51  1  0.16797280  0.83541833  0.50052698  1
  Pb  Pb52  1  0.83314906  0.16862381  0.49777540  1
  Pb  Pb53  1  0.83062279  0.83114876  0.50257893  1
  I  I54  1  0.16681084  -0.00040494  0.16573640  1
  I  I55  1  0.16748389  0.00337044  0.49600773  1
  I  I56  1  0.16278563  -0.00335088  0.83687810  1
  I  I57  1  0.16125036  0.33317309  0.16539097  1
  I  I58  1  0.17271606  0.33010005  0.49561819  1
  I  I59  1  0.16568357  0.33655751  0.83626640  1
  I  I60  1  0.17085530  0.66720834  0.16086576  1
  I  I61  1  0.16788180  0.66670417  0.49757526  1
  I  I62  1  0.16578555  0.66623538  0.84089114  1
  I  I63  1  0.49463589  -0.00322870  0.16565949  1
  I  I64  1  0.49613241  -0.00008071  0.49693179  1
  I  I65  1  0.50040815  -0.00024386  0.83466452  1
  I  I66  1  0.50001134  0.33348161  0.16705825  1
  I  I67  1  0.49703945  0.33097230  0.50177509  1
  I  I68  1  0.49997378  0.33791122  0.83266847  1
  I  I69  1  0.49593686  0.67067543  0.17334728  1
  I  I70  1  0.50073548  0.66919435  0.49791632  1
  I  I71  1  0.50005886  0.66398953  0.83113743  1
  I  I72  1  0.84003991  0.00288592  0.16652493  1
  I  I73  1  0.83410827  -0.00003124  0.50145832  1
  I  I74  1  0.83862580  -0.00296664  0.83524692  1
  I  I75  1  0.83924907  0.33056964  0.16542925  1
  I  I76  1  0.83242689  0.33621509  0.50817390  1
  I  I77  1  0.83470509  0.33680890  0.82955928  1
  I  I78  1  0.83333930  0.66670799  0.16844513  1
  I  I79  1  0.83300301  0.66336881  0.50121083  1
  I  I80  1  0.83376457  0.66561013  0.83051337  1
  I  I81  1  0.16243299  0.16741696  0.00316602  1
  I  I82  1  0.16644275  0.16724185  0.33199827  1
  I  I83  1  0.17113190  0.16726469  0.66395750  1
  I  I84  1  0.16456035  0.49845481  -0.00066571  1
  I  I85  1  0.16443508  0.50188365  0.33054677  1
  I  I86  1  0.16824887  0.50349351  0.66995036  1
  I  I87  1  0.16923538  0.83455224  0.00058466  1
  I  I88  1  0.16943151  0.83084435  0.33033627  1
  I  I89  1  0.16538681  0.82867334  0.66973753  1
  I  I90  1  0.50025029  0.16556601  0.00024320  1
  I  I91  1  0.49849078  0.16653641  0.33632747  1
  I  I92  1  0.49420688  0.15870805  0.66244295  1
  I  I93  1  0.50649064  0.50207581  -0.00353688  1
  I  I94  1  0.50117651  0.49861330  0.33317240  1
  I  I95  1  0.49502135  0.50267841  0.66973583  1
  I  I96  1  0.49835311  0.83227423  0.00210531  1
  I  I97  1  0.49383828  0.83673181  0.33294122  1
  I  I98  1  0.50008715  0.83619945  0.66452147  1
  I  I99  1  0.84157108  0.16880177  0.00370284  1
  I  I100  1  0.83642413  0.16812489  0.33019007  1
  I  I101  1  0.83354267  0.16596102  0.66663314  1
  I  I102  1  0.83213938  0.50304324  -0.00331951  1
  I  I103  1  0.83382667  0.49656747  0.33508048  1
  I  I104  1  0.83485702  0.50190688  0.66859554  1
  I  I105  1  0.83269743  0.82572450  -0.00338709  1
  I  I106  1  0.83492293  0.83210378  0.33327493  1
  I  I107  1  0.83876759  0.83207559  0.67060478  1
  I  I108  1  0.00246566  0.16505013  0.17220092  1
  I  I109  1  0.00244341  0.16848316  0.49765118  1
  I  I110  1  0.00016610  0.17038950  0.82864312  1
  I  I111  1  0.00379236  0.50367153  0.16149790  1
  I  I112  1  -0.00272782  0.49764910  0.50660278  1
  I  I113  1  0.00041072  0.50399006  0.83346788  1
  I  I114  1  0.00339624  0.83183160  0.16382011  1
  I  I115  1  -0.00012916  0.83436494  0.49792002  1
  I  I116  1  0.00120062  0.82490186  0.83926196  1
  I  I117  1  0.32997396  0.16854285  0.16837896  1
  I  I118  1  0.33290211  0.16477940  0.49424500  1
  I  I119  1  0.33320193  0.16625992  0.83754889  1
  I  I120  1  0.32892938  0.49396973  0.16207050  1
  I  I121  1  0.33322527  0.50007597  0.50173904  1
  I  I122  1  0.33177451  0.50437984  0.83717771  1
  I  I123  1  0.33162211  0.83579227  0.16329863  1
  I  I124  1  0.33600016  0.83400870  0.50117496  1
  I  I125  1  0.33048064  0.82896578  0.83490846  1
  I  I126  1  0.66839831  0.16633471  0.16713242  1
  I  I127  1  0.66416323  0.16371653  0.49918718  1
  I  I128  1  0.66666128  0.16546817  0.83444814  1
  I  I129  1  0.66657501  0.49830424  0.16581472  1
  I  I130  1  0.66969665  0.49802593  0.50670783  1
  I  I131  1  0.66774339  0.50440636  0.82732996  1
  I  I132  1  0.66434699  0.83618137  0.16863976  1
  I  I133  1  0.66280961  0.84019887  0.49539556  1
  I  I134  1  0.66857292  0.82820733  0.83360956  1
