# generated using pymatgen
data_Cs27Sn13Pb14I81
_symmetry_space_group_name_H-M   'P 1'
_cell_length_a   18.97809916
_cell_length_b   18.97431330
_cell_length_c   18.97846414
_cell_angle_alpha   90.00194379
_cell_angle_beta   89.99977509
_cell_angle_gamma   90.00117958
_symmetry_Int_Tables_number   1
_chemical_formula_structural   Cs27Sn13Pb14I81
_chemical_formula_sum   'Cs27 Sn13 Pb14 I81'
_cell_volume   6834.07659345
_cell_formula_units_Z   1
loop_
 _symmetry_equiv_pos_site_id
 _symmetry_equiv_pos_as_xyz
  1  'x, y, z'
loop_
 _atom_site_type_symbol
 _atom_site_label
 _atom_site_symmetry_multiplicity
 _atom_site_fract_x
 _atom_site_fract_y
 _atom_site_fract_z
 _atom_site_occupancy
  Cs  Cs0  1  -0.00149216  0.00267482  0.00436794  1
  Cs  Cs1  1  0.00396032  -0.00001526  0.33213048  1
  Cs  Cs2  1  -0.00012401  0.00004839  0.66475325  1
  Cs  Cs3  1  -0.00126191  0.33493686  -0.00025776  1
  Cs  Cs4  1  -0.00195257  0.33277801  0.33068562  1
  Cs  Cs5  1  -0.00032960  0.33454836  0.66735561  1
  Cs  Cs6  1  -0.00086286  0.66469578  -0.00255899  1
  Cs  Cs7  1  -0.00014364  0.66711577  0.33279668  1
  Cs  Cs8  1  -0.00016198  0.66506434  0.66917958  1
  Cs  Cs9  1  0.34102152  0.00534378  0.00525327  1
  Cs  Cs10  1  0.32444525  -0.00442990  0.33162484  1
  Cs  Cs11  1  0.33366817  0.00562375  0.66486801  1
  Cs  Cs12  1  0.33593083  0.32958417  -0.00263959  1
  Cs  Cs13  1  0.33751730  0.33495003  0.33206595  1
  Cs  Cs14  1  0.33143990  0.33168790  0.66915032  1
  Cs  Cs15  1  0.33329445  0.66690956  0.00167136  1
  Cs  Cs16  1  0.33473550  0.66873330  0.32938829  1
  Cs  Cs17  1  0.32963581  0.66460150  0.66705254  1
  Cs  Cs18  1  0.66082752  -0.00084913  -0.00075021  1
  Cs  Cs19  1  0.66880649  0.00153746  0.33640134  1
  Cs  Cs20  1  0.66664918  -0.00151568  0.66610937  1
  Cs  Cs21  1  0.66762577  0.33135716  0.00279655  1
  Cs  Cs22  1  0.66485582  0.33315203  0.33491449  1
  Cs  Cs23  1  0.66821785  0.33371917  0.66327199  1
  Cs  Cs24  1  0.66651808  0.67013011  -0.00150582  1
  Cs  Cs25  1  0.66544765  0.66517504  0.33578873  1
  Cs  Cs26  1  0.66751140  0.66883102  0.66524307  1
  Sn  Sn27  1  0.83290955  0.16585579  0.50088682  1
  Sn  Sn28  1  0.83274340  0.49934657  0.83403099  1
  Sn  Sn29  1  0.83354445  0.16713309  0.83259243  1
  Sn  Sn30  1  0.83309855  0.83390069  0.49924572  1
  Sn  Sn31  1  0.50014650  0.83396269  0.50027962  1
  Sn  Sn32  1  0.50047923  0.50042043  0.83313734  1
  Sn  Sn33  1  0.16690934  0.50088295  0.83368082  1
  Sn  Sn34  1  0.16690828  0.83367693  0.83360713  1
  Sn  Sn35  1  0.16656245  0.50000030  0.49966434  1
  Sn  Sn36  1  0.83377498  0.50113309  0.16591366  1
  Sn  Sn37  1  0.16593785  0.50008551  0.16628616  1
  Sn  Sn38  1  0.50049106  0.16561027  0.50004241  1
  Sn  Sn39  1  0.83325029  0.83245079  0.16738766  1
  Pb  Pb40  1  0.16444046  0.83132562  0.16371804  1
  Pb  Pb41  1  0.16445509  0.16656768  0.83349577  1
  Pb  Pb42  1  0.16628913  0.16924970  0.49992289  1
  Pb  Pb43  1  0.50278675  0.16878269  0.83120788  1
  Pb  Pb44  1  0.50018142  0.16647737  0.17014836  1
  Pb  Pb45  1  0.16629466  0.83132628  0.50159839  1
  Pb  Pb46  1  0.83476678  0.50011416  0.49982974  1
  Pb  Pb47  1  0.49750028  0.50017253  0.50191292  1
  Pb  Pb48  1  0.50265463  0.83322233  0.16936686  1
  Pb  Pb49  1  0.49713201  0.83161820  0.83103888  1
  Pb  Pb50  1  0.16666666  0.16964336  0.16647968  1
  Pb  Pb51  1  0.83319762  0.16669329  0.16696413  1
  Pb  Pb52  1  0.83460837  0.83358691  0.83326547  1
  Pb  Pb53  1  0.50055156  0.50009046  0.16392908  1
  I  I54  1  0.16467022  -0.00054234  0.16585095  1
  I  I55  1  0.16672658  -0.00014995  0.50296023  1
  I  I56  1  0.16255285  -0.00271380  0.82973368  1
  I  I57  1  0.15844357  0.33865037  0.16428316  1
  I  I58  1  0.16571296  0.33744960  0.50375854  1
  I  I59  1  0.16768754  0.33728312  0.83307394  1
  I  I60  1  0.16393837  0.66283151  0.16823877  1
  I  I61  1  0.16572494  0.66323946  0.50039228  1
  I  I62  1  0.16328294  0.66383619  0.83206337  1
  I  I63  1  0.50242352  -0.00024684  0.16131907  1
  I  I64  1  0.50587468  -0.00009311  0.50186001  1
  I  I65  1  0.49972110  0.00014547  0.83403551  1
  I  I66  1  0.50159777  0.33370167  0.16960417  1
  I  I67  1  0.50440222  0.33105527  0.50161741  1
  I  I68  1  0.49426454  0.33691626  0.83077998  1
  I  I69  1  0.49900526  0.66646012  0.17032314  1
  I  I70  1  0.50474379  0.66914451  0.50171852  1
  I  I71  1  0.50491414  0.66331138  0.83018450  1
  I  I72  1  0.83311405  -0.00281478  0.16757114  1
  I  I73  1  0.82984375  -0.00017558  0.50107717  1
  I  I74  1  0.83655985  0.00232179  0.83148723  1
  I  I75  1  0.83818360  0.33660989  0.16518276  1
  I  I76  1  0.83069328  0.33115238  0.50131954  1
  I  I77  1  0.83571894  0.33512818  0.83249178  1
  I  I78  1  0.83739427  0.66554078  0.16673042  1
  I  I79  1  0.83061855  0.66906005  0.49970126  1
  I  I80  1  0.83357527  0.66358642  0.83350228  1
  I  I81  1  0.16342607  0.16825861  -0.00029444  1
  I  I82  1  0.16425546  0.16835251  0.33356157  1
  I  I83  1  0.16697559  0.17098894  0.66663397  1
  I  I84  1  0.16414852  0.50417911  -0.00089806  1
  I  I85  1  0.16070606  0.49884527  0.33283030  1
  I  I86  1  0.16583094  0.50331032  0.66812330  1
  I  I87  1  0.16320743  0.82512933  -0.00379366  1
  I  I88  1  0.16819894  0.83072780  0.33319944  1
  I  I89  1  0.16338125  0.82414690  0.66915846  1
  I  I90  1  0.50060294  0.16838517  -0.00037089  1
  I  I91  1  0.50889189  0.16705241  0.33840596  1
  I  I92  1  0.50231763  0.16380312  0.66333361  1
  I  I93  1  0.49614730  0.50022712  -0.00406993  1
  I  I94  1  0.49904652  0.49910109  0.33358029  1
  I  I95  1  0.50076417  0.50001766  0.66973100  1
  I  I96  1  0.50080446  0.83136148  -0.00017045  1
  I  I97  1  0.50026841  0.83494816  0.33770200  1
  I  I98  1  0.50806639  0.83537233  0.66314620  1
  I  I99  1  0.83615978  0.16938080  -0.00268545  1
  I  I100  1  0.82921265  0.16709969  0.33661897  1
  I  I101  1  0.83066424  0.16805102  0.66608552  1
  I  I102  1  0.83827757  0.49974724  -0.00094115  1
  I  I103  1  0.83894141  0.50063752  0.33098783  1
  I  I104  1  0.83539376  0.49933204  0.66934120  1
  I  I105  1  0.83744112  0.83088008  0.00203602  1
  I  I106  1  0.83036114  0.83212440  0.33427202  1
  I  I107  1  0.83126149  0.83346117  0.66403410  1
  I  I108  1  -0.00053671  0.16514845  0.16942604  1
  I  I109  1  -0.00351599  0.16368135  0.50356807  1
  I  I110  1  -0.00379881  0.17330925  0.82658379  1
  I  I111  1  -0.00070647  0.50328341  0.16212008  1
  I  I112  1  0.00254275  0.50056366  0.50504374  1
  I  I113  1  -0.00008887  0.49989815  0.83365227  1
  I  I114  1  -0.00358646  0.83137880  0.17356483  1
  I  I115  1  -0.00313344  0.83629809  0.49775719  1
  I  I116  1  0.00214816  0.82531673  0.83050839  1
  I  I117  1  0.33343527  0.16876113  0.16754455  1
  I  I118  1  0.33617727  0.16405631  0.50028562  1
  I  I119  1  0.33360036  0.16893609  0.83081041  1
  I  I120  1  0.33025506  0.49944255  0.16684119  1
  I  I121  1  0.32968456  0.50014846  0.50089273  1
  I  I122  1  0.33200872  0.50495846  0.83175906  1
  I  I123  1  0.33310472  0.83143005  0.16806475  1
  I  I124  1  0.33563191  0.83601484  0.50364748  1
  I  I125  1  0.32950089  0.82440938  0.83048660  1
  I  I126  1  0.66721147  0.17059021  0.16412457  1
  I  I127  1  0.66802705  0.16399443  0.50436514  1
  I  I128  1  0.67082780  0.17189394  0.83146539  1
  I  I129  1  0.67036660  0.50261903  0.16256649  1
  I  I130  1  0.66666775  0.49998583  0.50081334  1
  I  I131  1  0.66814496  0.49556705  0.83672607  1
  I  I132  1  0.67105137  0.82588792  0.16608807  1
  I  I133  1  0.66799788  0.83569939  0.49754988  1
  I  I134  1  0.66677910  0.83139970  0.83453553  1
