# generated using pymatgen
data_Cs27Sn14Pb13I81
_symmetry_space_group_name_H-M   'P 1'
_cell_length_a   18.97996783
_cell_length_b   18.96521367
_cell_length_c   18.98037116
_cell_angle_alpha   90.00057183
_cell_angle_beta   90.00009894
_cell_angle_gamma   89.99959445
_symmetry_Int_Tables_number   1
_chemical_formula_structural   Cs27Sn14Pb13I81
_chemical_formula_sum   'Cs27 Sn14 Pb13 I81'
_cell_volume   6832.15818258
_cell_formula_units_Z   1
loop_
 _symmetry_equiv_pos_site_id
 _symmetry_equiv_pos_as_xyz
  1  'x, y, z'
loop_
 _atom_site_type_symbol
 _atom_site_label
 _atom_site_symmetry_multiplicity
 _atom_site_fract_x
 _atom_site_fract_y
 _atom_site_fract_z
 _atom_site_occupancy
  Cs  Cs0  1  -0.00009210  0.00063199  0.00028173  1
  Cs  Cs1  1  0.00083964  0.00328347  0.34456074  1
  Cs  Cs2  1  0.00236295  0.00229584  0.65495071  1
  Cs  Cs3  1  0.00038109  0.33163590  0.00308505  1
  Cs  Cs4  1  0.00139925  0.33363819  0.33196685  1
  Cs  Cs5  1  0.00137697  0.33241901  0.66324581  1
  Cs  Cs6  1  -0.00134689  0.66721862  -0.00155515  1
  Cs  Cs7  1  -0.00200748  0.66232674  0.33119597  1
  Cs  Cs8  1  -0.00146285  0.66733433  0.67093428  1
  Cs  Cs9  1  0.33153910  -0.00104375  0.00222419  1
  Cs  Cs10  1  0.33422564  -0.00480843  0.33321653  1
  Cs  Cs11  1  0.32943291  -0.00043741  0.66311146  1
  Cs  Cs12  1  0.33379712  0.33286396  -0.00090805  1
  Cs  Cs13  1  0.33374209  0.33367377  0.33243824  1
  Cs  Cs14  1  0.33586255  0.33376301  0.66820972  1
  Cs  Cs15  1  0.32940091  0.66962645  -0.00181200  1
  Cs  Cs16  1  0.33656530  0.66930837  0.33109752  1
  Cs  Cs17  1  0.33036387  0.66711727  0.67213341  1
  Cs  Cs18  1  0.66831472  0.00086202  -0.00298001  1
  Cs  Cs19  1  0.66540423  -0.00225887  0.33615103  1
  Cs  Cs20  1  0.66869778  -0.00186217  0.66949154  1
  Cs  Cs21  1  0.66484749  0.33006222  -0.00016960  1
  Cs  Cs22  1  0.66395361  0.33599107  0.33130685  1
  Cs  Cs23  1  0.66211360  0.33232397  0.67000293  1
  Cs  Cs24  1  0.66909076  0.66746419  -0.00071944  1
  Cs  Cs25  1  0.66555076  0.66575555  0.33343493  1
  Cs  Cs26  1  0.66836773  0.66761633  0.66747931  1
  Sn  Sn27  1  0.50025267  0.83324153  0.83368954  1
  Sn  Sn28  1  0.16706031  0.49951946  0.16717894  1
  Sn  Sn29  1  0.50019377  0.16733451  0.49903641  1
  Sn  Sn30  1  0.83307328  0.50052745  0.16628231  1
  Sn  Sn31  1  0.49925472  0.16711045  0.16742484  1
  Sn  Sn32  1  0.83276179  0.83293185  0.83428068  1
  Sn  Sn33  1  0.83362278  0.83314055  0.16636575  1
  Sn  Sn34  1  0.49981720  0.49966309  0.16674119  1
  Sn  Sn35  1  0.16643361  0.16693527  0.83413817  1
  Sn  Sn36  1  0.49970489  0.49953785  0.49953165  1
  Sn  Sn37  1  0.83299677  0.49984579  0.50006820  1
  Sn  Sn38  1  0.83305040  0.49973630  0.83374676  1
  Sn  Sn39  1  0.16752681  0.16721496  0.16604636  1
  Sn  Sn40  1  0.16724512  0.49999682  0.49919022  1
  Pb  Pb41  1  0.16417139  0.49829085  0.83386441  1
  Pb  Pb42  1  0.16526764  0.83620695  0.83344805  1
  Pb  Pb43  1  0.49814008  0.16433735  0.83364852  1
  Pb  Pb44  1  0.50211630  0.83333575  0.16490015  1
  Pb  Pb45  1  0.83314653  0.16654180  0.16686452  1
  Pb  Pb46  1  0.83588272  0.16620575  0.83323575  1
  Pb  Pb47  1  0.50002644  0.83257181  0.50244350  1
  Pb  Pb48  1  0.16354064  0.83347920  0.16690756  1
  Pb  Pb49  1  0.16921885  0.16909721  0.49881194  1
  Pb  Pb50  1  0.83326030  0.83083628  0.49989896  1
  Pb  Pb51  1  0.16681982  0.82933458  0.49956374  1
  Pb  Pb52  1  0.50193275  0.50161001  0.83384270  1
  Pb  Pb53  1  0.82989235  0.16992173  0.49981608  1
  I  I54  1  0.17091137  0.00333778  0.16123246  1
  I  I55  1  0.16740290  0.00050798  0.50084242  1
  I  I56  1  0.16676212  0.00390160  0.84061837  1
  I  I57  1  0.16455803  0.33463375  0.16646213  1
  I  I58  1  0.16278158  0.33717661  0.49884640  1
  I  I59  1  0.16631256  0.33074965  0.83532193  1
  I  I60  1  0.16931086  0.66293695  0.17104521  1
  I  I61  1  0.16906916  0.66088183  0.49459345  1
  I  I62  1  0.16813200  0.66656750  0.83241397  1
  I  I63  1  0.49627922  0.00302623  0.16986086  1
  I  I64  1  0.49859210  0.00285925  0.49579581  1
  I  I65  1  0.50776266  -0.00314772  0.83368462  1
  I  I66  1  0.50187251  0.33452866  0.16956786  1
  I  I67  1  0.50086299  0.33496263  0.49695041  1
  I  I68  1  0.50129006  0.33334849  0.83271755  1
  I  I69  1  0.49828544  0.66316804  0.17066326  1
  I  I70  1  0.50108822  0.66254892  0.49523417  1
  I  I71  1  0.50180465  0.66933277  0.83311805  1
  I  I72  1  0.83217861  -0.00281522  0.15850846  1
  I  I73  1  0.83296802  0.00009327  0.50081618  1
  I  I74  1  0.82929913  -0.00341769  0.84026449  1
  I  I75  1  0.83363911  0.33705403  0.16654440  1
  I  I76  1  0.83696237  0.33840000  0.49869348  1
  I  I77  1  0.83446245  0.33650255  0.83438201  1
  I  I78  1  0.83323735  0.66417925  0.16626707  1
  I  I79  1  0.83038707  0.66216674  0.49946506  1
  I  I80  1  0.83036246  0.66587273  0.83375181  1
  I  I81  1  0.17179043  0.17274375  0.00196719  1
  I  I82  1  0.16736420  0.16958802  0.33009822  1
  I  I83  1  0.16684613  0.16711433  0.66791815  1
  I  I84  1  0.16694276  0.49805208  0.00339382  1
  I  I85  1  0.16147739  0.49438584  0.33212827  1
  I  I86  1  0.16668755  0.49823445  0.66416282  1
  I  I87  1  0.16849951  0.82882507  0.00012739  1
  I  I88  1  0.16540467  0.83924845  0.33296409  1
  I  I89  1  0.16535896  0.83464915  0.66681386  1
  I  I90  1  0.49834822  0.17132303  0.00315513  1
  I  I91  1  0.49503804  0.17129213  0.33217976  1
  I  I92  1  0.49893344  0.17164391  0.66427229  1
  I  I93  1  0.50014658  0.49622090  0.00342944  1
  I  I94  1  0.50412871  0.49678185  0.33271643  1
  I  I95  1  0.50036416  0.49666077  0.66386876  1
  I  I96  1  0.50322468  0.83293131  -0.00271224  1
  I  I97  1  0.50159998  0.83362056  0.33313208  1
  I  I98  1  0.50745914  0.83315101  0.67011401  1
  I  I99  1  0.82934715  0.17182211  0.00012110  1
  I  I100  1  0.83922908  0.16390762  0.33323211  1
  I  I101  1  0.83445392  0.16720185  0.66656410  1
  I  I102  1  0.83375127  0.50451360  0.00096585  1
  I  I103  1  0.83347652  0.50357742  0.33255572  1
  I  I104  1  0.83358980  0.50371157  0.66653271  1
  I  I105  1  0.82947311  0.82345136  -0.00028942  1
  I  I106  1  0.83365904  0.82859829  0.33041117  1
  I  I107  1  0.82934986  0.82834208  0.66977731  1
  I  I108  1  0.00286980  0.17090485  0.16131377  1
  I  I109  1  0.00030729  0.16657446  0.50071323  1
  I  I110  1  0.00353206  0.16718999  0.84089229  1
  I  I111  1  -0.00014676  0.49991217  0.16922843  1
  I  I112  1  -0.00023812  0.50163173  0.49706436  1
  I  I113  1  -0.00389999  0.50614830  0.83322777  1
  I  I114  1  -0.00427255  0.82713430  0.15864688  1
  I  I115  1  -0.00021292  0.83459143  0.50276023  1
  I  I116  1  -0.00375757  0.82783957  0.83801151  1
  I  I117  1  0.33361104  0.17504217  0.16560811  1
  I  I118  1  0.33668696  0.17356632  0.50031808  1
  I  I119  1  0.33058781  0.16657865  0.83505403  1
  I  I120  1  0.33353491  0.49494465  0.17382361  1
  I  I121  1  0.33402049  0.49564160  0.49346586  1
  I  I122  1  0.33327254  0.50186620  0.83231321  1
  I  I123  1  0.33342540  0.83048213  0.16418298  1
  I  I124  1  0.33368749  0.83141741  0.50318533  1
  I  I125  1  0.33528334  0.83372583  0.83237880  1
  I  I126  1  0.66348462  0.17092224  0.17032143  1
  I  I127  1  0.66212944  0.17217456  0.49400935  1
  I  I128  1  0.66658083  0.16777377  0.83327948  1
  I  I129  1  0.66660807  0.50000678  0.16945251  1
  I  I130  1  0.66645540  0.49678827  0.49673949  1
  I  I131  1  0.67014741  0.50120930  0.83337513  1
  I  I132  1  0.66992710  0.82786207  0.16465789  1
  I  I133  1  0.66666461  0.83196426  0.49870575  1
  I  I134  1  0.66806131  0.82985112  0.83666699  1
