# generated using pymatgen
data_Cs27Sn14Pb13I81
_symmetry_space_group_name_H-M   'P 1'
_cell_length_a   18.97753919
_cell_length_b   18.98183502
_cell_length_c   18.96785485
_cell_angle_alpha   89.99919902
_cell_angle_beta   90.00079692
_cell_angle_gamma   90.00148727
_symmetry_Int_Tables_number   1
_chemical_formula_structural   Cs27Sn14Pb13I81
_chemical_formula_sum   'Cs27 Sn14 Pb13 I81'
_cell_volume   6832.76223976
_cell_formula_units_Z   1
loop_
 _symmetry_equiv_pos_site_id
 _symmetry_equiv_pos_as_xyz
  1  'x, y, z'
loop_
 _atom_site_type_symbol
 _atom_site_label
 _atom_site_symmetry_multiplicity
 _atom_site_fract_x
 _atom_site_fract_y
 _atom_site_fract_z
 _atom_site_occupancy
  Cs  Cs0  1  -0.00114900  0.00101655  0.00069491  1
  Cs  Cs1  1  0.00266876  -0.00158472  0.33205086  1
  Cs  Cs2  1  -0.00044735  0.00356251  0.67067769  1
  Cs  Cs3  1  0.00051463  0.33439992  0.00162559  1
  Cs  Cs4  1  -0.00043725  0.33327433  0.33378294  1
  Cs  Cs5  1  -0.00511550  0.32858994  0.66253285  1
  Cs  Cs6  1  0.00217532  0.66473046  -0.00028534  1
  Cs  Cs7  1  -0.00111401  0.66799626  0.33266019  1
  Cs  Cs8  1  0.00172845  0.66853173  0.66801501  1
  Cs  Cs9  1  0.33463705  0.00095066  -0.00020274  1
  Cs  Cs10  1  0.33188212  -0.00041227  0.33415519  1
  Cs  Cs11  1  0.33215691  0.00235076  0.66484464  1
  Cs  Cs12  1  0.33338202  0.33827990  -0.00022093  1
  Cs  Cs13  1  0.33341548  0.33369061  0.33255533  1
  Cs  Cs14  1  0.33390225  0.33092186  0.66623944  1
  Cs  Cs15  1  0.33795755  0.65672794  -0.00989757  1
  Cs  Cs16  1  0.33176860  0.66680057  0.33419512  1
  Cs  Cs17  1  0.33274615  0.66571382  0.66921388  1
  Cs  Cs18  1  0.66626986  -0.00108509  0.00018553  1
  Cs  Cs19  1  0.66421960  -0.00473182  0.32981111  1
  Cs  Cs20  1  0.66743665  0.00160381  0.67053711  1
  Cs  Cs21  1  0.66655512  0.33318309  0.00129277  1
  Cs  Cs22  1  0.66778501  0.33461638  0.33309979  1
  Cs  Cs23  1  0.66955441  0.33277613  0.66573574  1
  Cs  Cs24  1  0.66164786  0.66629713  -0.00339820  1
  Cs  Cs25  1  0.66911863  0.66920530  0.33551480  1
  Cs  Cs26  1  0.66573418  0.66605231  0.66493087  1
  Sn  Sn27  1  0.16639799  0.83262261  0.49948852  1
  Sn  Sn28  1  0.83408580  0.16626515  0.16700950  1
  Sn  Sn29  1  0.16722299  0.16662909  0.83456637  1
  Sn  Sn30  1  0.49966581  0.83346963  0.49993913  1
  Sn  Sn31  1  0.16611347  0.16602725  0.16578500  1
  Sn  Sn32  1  0.83332845  0.50062642  0.16575569  1
  Sn  Sn33  1  0.50018333  0.16650318  0.50038822  1
  Sn  Sn34  1  0.49901241  0.49999254  0.49974946  1
  Sn  Sn35  1  0.83364056  0.50024401  0.83407370  1
  Sn  Sn36  1  0.83388305  0.83388217  0.49987403  1
  Sn  Sn37  1  0.16664379  0.83333526  0.16652917  1
  Sn  Sn38  1  0.49927970  0.16661864  0.83284727  1
  Sn  Sn39  1  0.16709118  0.50068973  0.49978921  1
  Sn  Sn40  1  0.83424839  0.83310312  0.16713567  1
  Pb  Pb41  1  0.49977753  0.83575709  0.83055789  1
  Pb  Pb42  1  0.50261828  0.50028312  0.16915301  1
  Pb  Pb43  1  0.83363385  0.50193655  0.49958836  1
  Pb  Pb44  1  0.16452524  0.49706876  0.83031099  1
  Pb  Pb45  1  0.83353963  0.83114721  0.83422657  1
  Pb  Pb46  1  0.50205289  0.49742781  0.83056662  1
  Pb  Pb47  1  0.83321841  0.16826988  0.83588689  1
  Pb  Pb48  1  0.49887815  0.83298746  0.16799663  1
  Pb  Pb49  1  0.16804367  0.16629551  0.49934533  1
  Pb  Pb50  1  0.83062354  0.16353126  0.49721059  1
  Pb  Pb51  1  0.49925479  0.16661787  0.16659424  1
  Pb  Pb52  1  0.16668027  0.83531902  0.83402938  1
  Pb  Pb53  1  0.16503389  0.50049571  0.16846892  1
  I  I54  1  0.15842639  -0.00010746  0.17001003  1
  I  I55  1  0.16751833  -0.00277299  0.49877127  1
  I  I56  1  0.16885520  0.00350125  0.83119688  1
  I  I57  1  0.16247993  0.33076599  0.16535421  1
  I  I58  1  0.17131636  0.33514210  0.50026073  1
  I  I59  1  0.17086175  0.32939908  0.83874846  1
  I  I60  1  0.16073669  0.66972865  0.17260765  1
  I  I61  1  0.17051599  0.66804944  0.49448097  1
  I  I62  1  0.16549167  0.66627224  0.83490174  1
  I  I63  1  0.50566601  0.00000472  0.16956096  1
  I  I64  1  0.49993211  -0.00037028  0.50339222  1
  I  I65  1  0.49820090  0.00384640  0.82761018  1
  I  I66  1  0.50129179  0.33320424  0.17113321  1
  I  I67  1  0.49524278  0.33327416  0.50354852  1
  I  I68  1  0.49673045  0.32979001  0.82688816  1
  I  I69  1  0.50084294  0.66667333  0.16908705  1
  I  I70  1  0.50067571  0.66716098  0.49715155  1
  I  I71  1  0.50147106  0.66622614  0.83305978  1
  I  I72  1  0.83681251  -0.00051404  0.17231863  1
  I  I73  1  0.83527359  -0.00443266  0.49566489  1
  I  I74  1  0.83268754  0.00025777  0.83253878  1
  I  I75  1  0.83623346  0.33312647  0.16226669  1
  I  I76  1  0.83285238  0.33316031  0.49911880  1
  I  I77  1  0.83317732  0.33598010  0.83708241  1
  I  I78  1  0.83718621  0.66772516  0.16897855  1
  I  I79  1  0.82891218  0.66977322  0.49452447  1
  I  I80  1  0.83297763  0.66340338  0.83736630  1
  I  I81  1  0.16796905  0.16081607  0.00112170  1
  I  I82  1  0.16368066  0.16562904  0.33064193  1
  I  I83  1  0.16969992  0.16735928  0.66824750  1
  I  I84  1  0.16675600  0.50222870  -0.00004217  1
  I  I85  1  0.16814647  0.49868021  0.33661071  1
  I  I86  1  0.16840967  0.50561916  0.66245661  1
  I  I87  1  0.15823945  0.83734535  0.00377103  1
  I  I88  1  0.16564952  0.83634142  0.33401895  1
  I  I89  1  0.16667367  0.83082540  0.66315008  1
  I  I90  1  0.49992580  0.16707427  -0.00253509  1
  I  I91  1  0.50044632  0.16619920  0.33639216  1
  I  I92  1  0.49389888  0.16597931  0.66582896  1
  I  I93  1  0.49944772  0.49813747  -0.00038019  1
  I  I94  1  0.49866005  0.49643682  0.33775965  1
  I  I95  1  0.49950012  0.50306690  0.66244110  1
  I  I96  1  0.50199216  0.83616977  -0.00013801  1
  I  I97  1  0.50109808  0.83697923  0.33723904  1
  I  I98  1  0.50057575  0.83059058  0.66154890  1
  I  I99  1  0.83205165  0.16150946  0.00388516  1
  I  I100  1  0.83873330  0.17269113  0.32942381  1
  I  I101  1  0.83546264  0.16785500  0.66650991  1
  I  I102  1  0.83446294  0.50068182  0.00140938  1
  I  I103  1  0.83269664  0.49833747  0.33072107  1
  I  I104  1  0.83249665  0.50038100  0.66805631  1
  I  I105  1  0.83890138  0.83600086  0.00405922  1
  I  I106  1  0.83285621  0.83117177  0.33307464  1
  I  I107  1  0.83284897  0.83039143  0.66358611  1
  I  I108  1  0.00035094  0.16573468  0.16147921  1
  I  I109  1  -0.00015724  0.16841194  0.50354427  1
  I  I110  1  0.00241976  0.16774810  0.83463896  1
  I  I111  1  -0.00327575  0.49936528  0.16688127  1
  I  I112  1  0.00223846  0.50414489  0.49976935  1
  I  I113  1  -0.00299374  0.49817536  0.83518539  1
  I  I114  1  -0.00044724  0.83501570  0.17621271  1
  I  I115  1  0.00059749  0.82705660  0.49511728  1
  I  I116  1  0.00004970  0.83618037  0.82575855  1
  I  I117  1  0.32999481  0.16070835  0.16711869  1
  I  I118  1  0.33611356  0.16278553  0.49917963  1
  I  I119  1  0.33317826  0.16591253  0.83409672  1
  I  I120  1  0.33306461  0.49893042  0.16703678  1
  I  I121  1  0.33355647  0.50452746  0.49973560  1
  I  I122  1  0.33327887  0.50066841  0.83391963  1
  I  I123  1  0.32940099  0.84199467  0.17351934  1
  I  I124  1  0.33286205  0.83345615  0.49571093  1
  I  I125  1  0.33321904  0.83148844  0.83403917  1
  I  I126  1  0.66943167  0.16614258  0.16797089  1
  I  I127  1  0.66269428  0.16882713  0.50531354  1
  I  I128  1  0.66434388  0.16836632  0.82868705  1
  I  I129  1  0.67127521  0.49876869  0.16545802  1
  I  I130  1  0.66446382  0.50054283  0.49989838  1
  I  I131  1  0.66971179  0.49781183  0.83589190  1
  I  I132  1  0.66981328  0.83480892  0.17177040  1
  I  I133  1  0.66676467  0.83305200  0.49553137  1
  I  I134  1  0.66673125  0.83600487  0.83284049  1
