# generated using pymatgen
data_Cs27Sn13Pb14I81
_symmetry_space_group_name_H-M   'P 1'
_cell_length_a   18.97671664
_cell_length_b   18.98347300
_cell_length_c   18.97262209
_cell_angle_alpha   89.99975165
_cell_angle_beta   90.00061935
_cell_angle_gamma   90.00077839
_symmetry_Int_Tables_number   1
_chemical_formula_structural   Cs27Sn13Pb14I81
_chemical_formula_sum   'Cs27 Sn13 Pb14 I81'
_cell_volume   6834.77304196
_cell_formula_units_Z   1
loop_
 _symmetry_equiv_pos_site_id
 _symmetry_equiv_pos_as_xyz
  1  'x, y, z'
loop_
 _atom_site_type_symbol
 _atom_site_label
 _atom_site_symmetry_multiplicity
 _atom_site_fract_x
 _atom_site_fract_y
 _atom_site_fract_z
 _atom_site_occupancy
  Cs  Cs0  1  0.00811945  -0.00750281  -0.00356845  1
  Cs  Cs1  1  -0.00037180  0.00030158  0.33226773  1
  Cs  Cs2  1  -0.00144183  0.00038671  0.67115401  1
  Cs  Cs3  1  0.00339983  0.33297683  0.00098293  1
  Cs  Cs4  1  -0.00135425  0.33292869  0.33300216  1
  Cs  Cs5  1  -0.00849304  0.33487255  0.66601743  1
  Cs  Cs6  1  -0.00813060  0.67516228  0.00491591  1
  Cs  Cs7  1  -0.00237065  0.66733680  0.32814290  1
  Cs  Cs8  1  0.00045871  0.66504998  0.66858672  1
  Cs  Cs9  1  0.32853840  0.00267030  -0.00259601  1
  Cs  Cs10  1  0.33522707  0.00018466  0.33520004  1
  Cs  Cs11  1  0.33471196  -0.00075474  0.66581901  1
  Cs  Cs12  1  0.33061734  0.33299086  0.00009159  1
  Cs  Cs13  1  0.33315602  0.33380312  0.33289535  1
  Cs  Cs14  1  0.33400521  0.33663713  0.66649301  1
  Cs  Cs15  1  0.33328281  0.66400114  -0.00073774  1
  Cs  Cs16  1  0.33472867  0.66532615  0.33577697  1
  Cs  Cs17  1  0.33408308  0.66565947  0.66511219  1
  Cs  Cs18  1  0.66646007  0.00079881  0.00083935  1
  Cs  Cs19  1  0.66588612  0.00097022  0.33360940  1
  Cs  Cs20  1  0.66551138  0.00252825  0.66710223  1
  Cs  Cs21  1  0.66789037  0.33311680  -0.00034483  1
  Cs  Cs22  1  0.66834581  0.33129837  0.33241532  1
  Cs  Cs23  1  0.67286713  0.33195789  0.66823935  1
  Cs  Cs24  1  0.67112365  0.66568725  0.00182692  1
  Cs  Cs25  1  0.66530917  0.66677898  0.33163341  1
  Cs  Cs26  1  0.66485161  0.66610656  0.66653833  1
  Sn  Sn27  1  0.83323402  0.83321115  0.50030415  1
  Sn  Sn28  1  0.16636621  0.83316326  0.50003967  1
  Sn  Sn29  1  0.49940427  0.16704717  0.49948036  1
  Sn  Sn30  1  0.49979584  0.83259395  0.83354663  1
  Sn  Sn31  1  0.16736501  0.16692595  0.50028100  1
  Sn  Sn32  1  0.49933394  0.50069973  0.83237646  1
  Sn  Sn33  1  0.49975079  0.49959007  0.50072834  1
  Sn  Sn34  1  0.16739272  0.49990636  0.50057749  1
  Sn  Sn35  1  0.83298578  0.16625719  0.16626446  1
  Sn  Sn36  1  0.50065518  0.16587036  0.16738577  1
  Sn  Sn37  1  0.16727940  0.50049049  0.83249742  1
  Sn  Sn38  1  0.49958700  0.83414708  0.16631176  1
  Sn  Sn39  1  0.49997599  0.83332574  0.50002270  1
  Pb  Pb40  1  0.16732435  0.16654918  0.16879407  1
  Pb  Pb41  1  0.83082915  0.83559138  0.16877929  1
  Pb  Pb42  1  0.16675123  0.50031883  0.16681361  1
  Pb  Pb43  1  0.16688863  0.16943818  0.82993315  1
  Pb  Pb44  1  0.83338846  0.50013273  0.83332488  1
  Pb  Pb45  1  0.83048954  0.83338416  0.83092573  1
  Pb  Pb46  1  0.83327196  0.50249140  0.49976318  1
  Pb  Pb47  1  0.83322440  0.49725974  0.16683375  1
  Pb  Pb48  1  0.83357892  0.16626259  0.83703863  1
  Pb  Pb49  1  0.50001023  0.49961827  0.16653774  1
  Pb  Pb50  1  0.83328319  0.16445853  0.49892533  1
  Pb  Pb51  1  0.16965458  0.83323857  0.16899780  1
  Pb  Pb52  1  0.50001994  0.16713286  0.83324801  1
  Pb  Pb53  1  0.16910591  0.83089142  0.83095009  1
  I  I54  1  0.16537508  -0.00004007  0.16841311  1
  I  I55  1  0.17108947  -0.00026990  0.49720932  1
  I  I56  1  0.16724520  -0.00033372  0.83261260  1
  I  I57  1  0.16859279  0.33322560  0.16935032  1
  I  I58  1  0.17494319  0.33364718  0.50223639  1
  I  I59  1  0.17546094  0.33740818  0.82867893  1
  I  I60  1  0.16859554  0.66687663  0.17074945  1
  I  I61  1  0.17110685  0.66659636  0.50338669  1
  I  I62  1  0.17054386  0.66313777  0.82552764  1
  I  I63  1  0.50375780  -0.00005366  0.17201820  1
  I  I64  1  0.49779531  -0.00075550  0.49935010  1
  I  I65  1  0.50154818  -0.00280741  0.82953232  1
  I  I66  1  0.50350239  0.33013188  0.17120220  1
  I  I67  1  0.49324260  0.33329016  0.49902778  1
  I  I68  1  0.49631996  0.33669047  0.82990572  1
  I  I69  1  0.49895513  0.66955648  0.17091046  1
  I  I70  1  0.49798465  0.66743955  0.49983504  1
  I  I71  1  0.49644849  0.66675586  0.82863810  1
  I  I72  1  0.82870217  0.00306710  0.17035030  1
  I  I73  1  0.83129071  -0.00326392  0.49843202  1
  I  I74  1  0.83078269  -0.00038656  0.83066426  1
  I  I75  1  0.82479295  0.32926278  0.16984900  1
  I  I76  1  0.83309267  0.33311870  0.49834732  1
  I  I77  1  0.83017482  0.33338629  0.83184724  1
  I  I78  1  0.83281670  0.66734755  0.16714169  1
  I  I79  1  0.83091373  0.67041115  0.49945962  1
  I  I80  1  0.83413423  0.66682974  0.83353464  1
  I  I81  1  0.16664439  0.16912174  -0.00013379  1
  I  I82  1  0.16902733  0.16910039  0.33758539  1
  I  I83  1  0.17451490  0.16274050  0.66153424  1
  I  I84  1  0.17379918  0.49800624  -0.00350292  1
  I  I85  1  0.17221424  0.49981155  0.33772279  1
  I  I86  1  0.17284484  0.50047927  0.66476263  1
  I  I87  1  0.16765909  0.83211799  -0.00033558  1
  I  I88  1  0.16940830  0.83079029  0.33817252  1
  I  I89  1  0.16970803  0.83596086  0.66216607  1
  I  I90  1  0.50511953  0.16355716  0.00308720  1
  I  I91  1  0.49994664  0.16361523  0.33486544  1
  I  I92  1  0.49559773  0.16337926  0.66306433  1
  I  I93  1  0.49595381  0.50309974  -0.00328012  1
  I  I94  1  0.49570066  0.50266855  0.33685509  1
  I  I95  1  0.49593764  0.50381989  0.66516968  1
  I  I96  1  0.50070746  0.83311566  0.00002533  1
  I  I97  1  0.49991255  0.83376623  0.33515297  1
  I  I98  1  0.49978115  0.83293062  0.66487351  1
  I  I99  1  0.82253096  0.16779953  0.00486453  1
  I  I100  1  0.82995286  0.16527431  0.33122277  1
  I  I101  1  0.83280207  0.16643310  0.66642753  1
  I  I102  1  0.83207062  0.49992362  -0.00009968  1
  I  I103  1  0.83301737  0.50114899  0.33377833  1
  I  I104  1  0.83220411  0.49865492  0.66632473  1
  I  I105  1  0.83202045  0.83381731  0.00021779  1
  I  I106  1  0.83124981  0.83347647  0.33688485  1
  I  I107  1  0.83115875  0.83429017  0.66253134  1
  I  I108  1  -0.00234242  0.16932663  0.17025285  1
  I  I109  1  0.00291284  0.16726243  0.49829102  1
  I  I110  1  0.00033979  0.16902189  0.83205835  1
  I  I111  1  0.00008446  0.49757554  0.16827015  1
  I  I112  1  0.00362859  0.49884332  0.50429069  1
  I  I113  1  0.00350993  0.49705346  0.82570468  1
  I  I114  1  -0.00011033  0.83438517  0.16878400  1
  I  I115  1  0.00087856  0.83363503  0.49939267  1
  I  I116  1  0.00032756  0.83224364  0.83190285  1
  I  I117  1  0.33697454  0.16330659  0.16971913  1
  I  I118  1  0.33484802  0.16312826  0.49459129  1
  I  I119  1  0.33366458  0.16436041  0.83849404  1
  I  I120  1  0.33377517  0.49749913  0.16747781  1
  I  I121  1  0.33447005  0.50331745  0.50288197  1
  I  I122  1  0.33469657  0.50376442  0.82778367  1
  I  I123  1  0.33807220  0.83964746  0.16981963  1
  I  I124  1  0.33470486  0.83344708  0.49961933  1
  I  I125  1  0.33745719  0.83247839  0.83075258  1
  I  I126  1  0.66439915  0.16314777  0.17395961  1
  I  I127  1  0.66322425  0.16613946  0.49826726  1
  I  I128  1  0.66615556  0.16895257  0.82742673  1
  I  I129  1  0.66600813  0.50237714  0.16754263  1
  I  I130  1  0.66288716  0.50009100  0.50357075  1
  I  I131  1  0.66279101  0.50348287  0.82851329  1
  I  I132  1  0.66249345  0.83442701  0.17015022  1
  I  I133  1  0.66426844  0.83357581  0.49968415  1
  I  I134  1  0.66182985  0.82707165  0.83055456  1
