# generated using pymatgen
data_Cs27Sn13Pb14I81
_symmetry_space_group_name_H-M   'P 1'
_cell_length_a   18.98336918
_cell_length_b   18.97347068
_cell_length_c   18.97367728
_cell_angle_alpha   89.99806020
_cell_angle_beta   90.00093213
_cell_angle_gamma   90.00012121
_symmetry_Int_Tables_number   1
_chemical_formula_structural   Cs27Sn13Pb14I81
_chemical_formula_sum   'Cs27 Sn13 Pb14 I81'
_cell_volume   6833.94663848
_cell_formula_units_Z   1
loop_
 _symmetry_equiv_pos_site_id
 _symmetry_equiv_pos_as_xyz
  1  'x, y, z'
loop_
 _atom_site_type_symbol
 _atom_site_label
 _atom_site_symmetry_multiplicity
 _atom_site_fract_x
 _atom_site_fract_y
 _atom_site_fract_z
 _atom_site_occupancy
  Cs  Cs0  1  0.00020837  0.00294743  -0.00011808  1
  Cs  Cs1  1  0.00076454  -0.00470379  0.33560538  1
  Cs  Cs2  1  0.00072561  0.00062154  0.66408737  1
  Cs  Cs3  1  -0.00013093  0.33245560  -0.00156693  1
  Cs  Cs4  1  0.00062321  0.33320395  0.33512442  1
  Cs  Cs5  1  -0.00020996  0.33372264  0.66777826  1
  Cs  Cs6  1  0.00210067  0.66768793  0.00688482  1
  Cs  Cs7  1  -0.00046279  0.67231863  0.32454050  1
  Cs  Cs8  1  -0.00056657  0.66187545  0.66697921  1
  Cs  Cs9  1  0.33439524  -0.00246345  -0.00101363  1
  Cs  Cs10  1  0.33454322  0.00292875  0.34309038  1
  Cs  Cs11  1  0.33202373  -0.00704155  0.66079400  1
  Cs  Cs12  1  0.33261573  0.33275088  0.00034898  1
  Cs  Cs13  1  0.34234022  0.33295806  0.33431364  1
  Cs  Cs14  1  0.33035631  0.33401969  0.66578158  1
  Cs  Cs15  1  0.32950315  0.67165061  0.00089678  1
  Cs  Cs16  1  0.33479205  0.66412745  0.32950762  1
  Cs  Cs17  1  0.33572975  0.67080573  0.66708371  1
  Cs  Cs18  1  0.66518583  0.00181229  -0.00050437  1
  Cs  Cs19  1  0.66511839  -0.00199545  0.33364128  1
  Cs  Cs20  1  0.66784931  -0.00364053  0.66769363  1
  Cs  Cs21  1  0.66709353  0.33190590  -0.00104318  1
  Cs  Cs22  1  0.65945834  0.33421354  0.33220834  1
  Cs  Cs23  1  0.67016021  0.33458788  0.66938972  1
  Cs  Cs24  1  0.66781203  0.66754179  0.00091593  1
  Cs  Cs25  1  0.66611206  0.66853428  0.33208377  1
  Cs  Cs26  1  0.66558613  0.66665215  0.66554667  1
  Sn  Sn27  1  0.83357731  0.50024457  0.83312236  1
  Sn  Sn28  1  0.49979074  0.49932400  0.83348269  1
  Sn  Sn29  1  0.49941744  0.16705008  0.83303118  1
  Sn  Sn30  1  0.83327712  0.16769553  0.49992856  1
  Sn  Sn31  1  0.49998206  0.83379139  0.16637646  1
  Sn  Sn32  1  0.83407428  0.16708190  0.16707886  1
  Sn  Sn33  1  0.16701290  0.16707626  0.83370356  1
  Sn  Sn34  1  0.16621341  0.16702234  0.16638274  1
  Sn  Sn35  1  0.83348396  0.16656935  0.83321737  1
  Sn  Sn36  1  0.83442183  0.49906145  0.50032365  1
  Sn  Sn37  1  0.16563810  0.49975748  0.50050311  1
  Sn  Sn38  1  0.83404591  0.83302484  0.83347130  1
  Sn  Sn39  1  0.16663534  0.49923637  0.83274997  1
  Pb  Pb40  1  0.50037265  0.49992457  0.50258263  1
  Pb  Pb41  1  0.49999188  0.50209016  0.16339810  1
  Pb  Pb42  1  0.83328484  0.49757118  0.16694445  1
  Pb  Pb43  1  0.16390996  0.83329411  0.83319971  1
  Pb  Pb44  1  0.16624656  0.82916697  0.50011793  1
  Pb  Pb45  1  0.16466433  0.16857213  0.50032672  1
  Pb  Pb46  1  0.50025904  0.83304627  0.49706910  1
  Pb  Pb47  1  0.16659622  0.49734034  0.16671664  1
  Pb  Pb48  1  0.83353161  0.83257363  0.50214261  1
  Pb  Pb49  1  0.16901477  0.83712393  0.16664357  1
  Pb  Pb50  1  0.49967465  0.16536557  0.16456505  1
  Pb  Pb51  1  0.50311215  0.16679524  0.50364776  1
  Pb  Pb52  1  0.83204484  0.83636552  0.16427628  1
  Pb  Pb53  1  0.50200165  0.83321705  0.83424720  1
  I  I54  1  0.16109101  0.00497188  0.15821260  1
  I  I55  1  0.16594589  0.00035400  0.50010565  1
  I  I56  1  0.16618125  0.00361417  0.83819427  1
  I  I57  1  0.16260924  0.32945309  0.16238376  1
  I  I58  1  0.16352576  0.33646687  0.50345899  1
  I  I59  1  0.16295064  0.33301971  0.83374359  1
  I  I60  1  0.16797394  0.66667779  0.16629069  1
  I  I61  1  0.16000019  0.66103306  0.50852736  1
  I  I62  1  0.16743038  0.66295104  0.82896453  1
  I  I63  1  0.50192153  -0.00199758  0.16112332  1
  I  I64  1  0.50126396  0.00031822  0.50303619  1
  I  I65  1  0.50223951  0.00293073  0.83602795  1
  I  I66  1  0.50016269  0.33302771  0.16760538  1
  I  I67  1  0.49847093  0.33327615  0.49521404  1
  I  I68  1  0.50501907  0.33304452  0.83442619  1
  I  I69  1  0.50136698  0.66971491  0.16426785  1
  I  I70  1  0.50218108  0.66620306  0.50320022  1
  I  I71  1  0.50081172  0.66353541  0.83435762  1
  I  I72  1  0.83621897  0.00453173  0.16534832  1
  I  I73  1  0.83256461  0.00321489  0.50183223  1
  I  I74  1  0.83192196  0.00215916  0.83389091  1
  I  I75  1  0.83555516  0.32932501  0.16015885  1
  I  I76  1  0.83688556  0.33339358  0.50649279  1
  I  I77  1  0.83279755  0.33277040  0.83301040  1
  I  I78  1  0.83174321  0.66682138  0.16578274  1
  I  I79  1  0.83602503  0.66271604  0.50672746  1
  I  I80  1  0.83157564  0.66508345  0.82800390  1
  I  I81  1  0.16147872  0.17175544  -0.00207232  1
  I  I82  1  0.16139301  0.16689130  0.33100074  1
  I  I83  1  0.16542671  0.16910594  0.67010886  1
  I  I84  1  0.16544967  0.49807954  -0.00371862  1
  I  I85  1  0.16056134  0.49947691  0.33643678  1
  I  I86  1  0.16501242  0.49357901  0.66873219  1
  I  I87  1  0.16627535  0.82856155  -0.00016773  1
  I  I88  1  0.16645109  0.83390652  0.33320501  1
  I  I89  1  0.16778557  0.83960798  0.66701258  1
  I  I90  1  0.50548370  0.16975647  -0.00374276  1
  I  I91  1  0.49992335  0.16420117  0.33340432  1
  I  I92  1  0.49966050  0.17037605  0.67188975  1
  I  I93  1  0.50168842  0.49516642  -0.00502432  1
  I  I94  1  0.50002651  0.50198793  0.33339857  1
  I  I95  1  0.50145013  0.49651941  0.67107199  1
  I  I96  1  0.50204590  0.83416846  0.00174652  1
  I  I97  1  0.50175023  0.83530429  0.32934501  1
  I  I98  1  0.50123004  0.83340282  0.66689473  1
  I  I99  1  0.83338333  0.16643147  -0.00194399  1
  I  I100  1  0.83836783  0.17110116  0.33341456  1
  I  I101  1  0.83277754  0.16739103  0.66841490  1
  I  I102  1  0.83371266  0.49900758  -0.00388975  1
  I  I103  1  0.83808041  0.49540394  0.33684853  1
  I  I104  1  0.83360444  0.49551110  0.66858810  1
  I  I105  1  0.83215139  0.83234120  -0.00378249  1
  I  I106  1  0.83134574  0.83325759  0.33309894  1
  I  I107  1  0.83133160  0.83846135  0.67044705  1
  I  I108  1  -0.00084438  0.16745822  0.15949968  1
  I  I109  1  -0.00354168  0.16864982  0.50513291  1
  I  I110  1  -0.00096394  0.16882047  0.83462512  1
  I  I111  1  -0.00010476  0.50251113  0.16209571  1
  I  I112  1  -0.00111111  0.49471046  0.51079999  1
  I  I113  1  -0.00053851  0.49649741  0.82892533  1
  I  I114  1  -0.00000539  0.83200638  0.16601666  1
  I  I115  1  -0.00038652  0.83679083  0.49985318  1
  I  I116  1  -0.00410634  0.83484901  0.83385553  1
  I  I117  1  0.33052381  0.16575711  0.16016068  1
  I  I118  1  0.33317702  0.16768101  0.49875424  1
  I  I119  1  0.33258967  0.17447840  0.84019125  1
  I  I120  1  0.33321605  0.49771764  0.16747380  1
  I  I121  1  0.33038168  0.50009713  0.50449383  1
  I  I122  1  0.33262211  0.49241535  0.83037105  1
  I  I123  1  0.33639437  0.83342506  0.16203366  1
  I  I124  1  0.33324252  0.83382888  0.50162637  1
  I  I125  1  0.33335697  0.83342172  0.83503264  1
  I  I126  1  0.66949560  0.16539441  0.16440259  1
  I  I127  1  0.67152739  0.17301203  0.49911327  1
  I  I128  1  0.66817919  0.16916846  0.83394440  1
  I  I129  1  0.66678385  0.49743126  0.16592475  1
  I  I130  1  0.67030821  0.49626106  0.50508461  1
  I  I131  1  0.66792830  0.49706205  0.83062785  1
  I  I132  1  0.66451671  0.83571824  0.16415851  1
  I  I133  1  0.66717856  0.83196615  0.50093965  1
  I  I134  1  0.66989662  0.83464666  0.83445840  1
