# generated using pymatgen
data_Cs27Sn14Pb13I81
_symmetry_space_group_name_H-M   'P 1'
_cell_length_a   18.96233886
_cell_length_b   18.96233887
_cell_length_c   18.95658380
_cell_angle_alpha   90.00120850
_cell_angle_beta   89.99879149
_cell_angle_gamma   89.99688449
_symmetry_Int_Tables_number   1
_chemical_formula_structural   Cs27Sn14Pb13I81
_chemical_formula_sum   'Cs27 Sn14 Pb13 I81'
_cell_volume   6816.22442196
_cell_formula_units_Z   1
loop_
 _symmetry_equiv_pos_site_id
 _symmetry_equiv_pos_as_xyz
  1  'x, y, z'
loop_
 _atom_site_type_symbol
 _atom_site_label
 _atom_site_symmetry_multiplicity
 _atom_site_fract_x
 _atom_site_fract_y
 _atom_site_fract_z
 _atom_site_occupancy
  Cs  Cs0  1  -0.00090958  0.00162655  0.00174389  1
  Cs  Cs1  1  0.00262691  0.00097878  0.33373058  1
  Cs  Cs2  1  -0.00229476  -0.00294366  0.66421435  1
  Cs  Cs3  1  0.00077573  0.33451261  -0.00043122  1
  Cs  Cs4  1  -0.00108224  0.33067026  0.33206309  1
  Cs  Cs5  1  -0.00038311  0.33732225  0.67086412  1
  Cs  Cs6  1  0.00267623  0.66399050  0.00066024  1
  Cs  Cs7  1  -0.00098410  0.66765081  0.33493126  1
  Cs  Cs8  1  0.00011314  0.66655359  0.66175281  1
  Cs  Cs9  1  0.33371265  -0.00146289  0.00086869  1
  Cs  Cs10  1  0.33132526  0.00070366  0.33506431  1
  Cs  Cs11  1  0.33634491  0.00230675  0.66284811  1
  Cs  Cs12  1  0.32923619  0.33743050  0.00031202  1
  Cs  Cs13  1  0.33652169  0.33014497  0.33631536  1
  Cs  Cs14  1  0.33470422  0.33196270  0.66603577  1
  Cs  Cs15  1  0.33215406  0.66589089  -0.00043123  1
  Cs  Cs16  1  0.33599627  0.66774891  0.33206305  1
  Cs  Cs17  1  0.32934468  0.66704987  0.67086413  1
  Cs  Cs18  1  0.66683038  -0.00016377  -0.00365129  1
  Cs  Cs19  1  0.66621859  0.00044814  0.33069863  1
  Cs  Cs20  1  0.66556418  0.00110236  0.67781745  1
  Cs  Cs21  1  0.66812948  0.33295375  0.00086871  1
  Cs  Cs22  1  0.66596311  0.33534125  0.33506418  1
  Cs  Cs23  1  0.66435979  0.33032196  0.66284813  1
  Cs  Cs24  1  0.66504011  0.66757615  0.00174399  1
  Cs  Cs25  1  0.66568784  0.66403980  0.33373051  1
  Cs  Cs26  1  0.66961039  0.66896142  0.66421433  1
  Sn  Sn27  1  0.83240691  0.16666971  0.16745447  1
  Sn  Sn28  1  0.50165140  0.50004717  0.83338185  1
  Sn  Sn29  1  0.83165372  0.50023363  0.83394459  1
  Sn  Sn30  1  0.16681906  0.49984768  0.49816753  1
  Sn  Sn31  1  0.16643307  0.83501291  0.83394454  1
  Sn  Sn32  1  0.83408101  0.50014017  0.16609696  1
  Sn  Sn33  1  0.16652652  0.83258565  0.16609699  1
  Sn  Sn34  1  0.83333867  0.16631122  0.49963269  1
  Sn  Sn35  1  0.50035542  0.83332799  0.49963268  1
  Sn  Sn36  1  0.83341759  0.83324908  0.16658486  1
  Sn  Sn37  1  0.16605471  0.50061197  0.16835908  1
  Sn  Sn38  1  0.16661953  0.16501529  0.83338182  1
  Sn  Sn39  1  0.50052515  0.16614152  0.16631570  1
  Sn  Sn40  1  0.49999690  0.83425975  0.16745448  1
  Pb  Pb41  1  0.83472477  0.49843810  0.49936233  1
  Pb  Pb42  1  0.49780730  0.50207729  0.50272456  1
  Pb  Pb43  1  0.83589281  0.83077384  0.83572348  1
  Pb  Pb44  1  0.16822856  0.83194184  0.49936236  1
  Pb  Pb45  1  0.83493734  0.16852640  0.83397414  1
  Pb  Pb46  1  0.49814024  0.83172930  0.83397419  1
  Pb  Pb47  1  0.16618998  0.50047670  0.83380364  1
  Pb  Pb48  1  0.49777788  0.16888878  0.83610178  1
  Pb  Pb49  1  0.49998227  0.50012073  0.16565387  1
  Pb  Pb50  1  0.83086089  0.83580580  0.49763725  1
  Pb  Pb51  1  0.50232029  0.16434640  0.49779046  1
  Pb  Pb52  1  0.16654589  0.16668440  0.16565389  1
  Pb  Pb53  1  0.16458936  0.16885934  0.50272456  1
  I  I54  1  0.16489403  -0.00285309  0.16344893  1
  I  I55  1  0.16687462  0.00000718  0.49883061  1
  I  I56  1  0.16679426  -0.00094812  0.84063874  1
  I  I57  1  0.16371287  0.33598909  0.16613480  1
  I  I58  1  0.16658330  0.33681141  0.49578830  1
  I  I59  1  0.16615917  0.33212083  0.83428728  1
  I  I60  1  0.16459217  0.66699239  0.16360066  1
  I  I61  1  0.16565569  0.66388407  0.50172844  1
  I  I62  1  0.16770699  0.66872383  0.83569935  1
  I  I63  1  0.50208813  -0.00109337  0.16921154  1
  I  I64  1  0.49753071  -0.00341560  0.49768586  1
  I  I65  1  0.49954211  -0.00003134  0.83207940  1
  I  I66  1  0.50257647  0.33120338  0.16365785  1
  I  I67  1  0.49918781  0.33318290  0.49971368  1
  I  I68  1  0.49986412  0.33663731  0.83549207  1
  I  I69  1  0.50124408  0.66952074  0.16805542  1
  I  I70  1  0.50027967  0.66968181  0.49168267  1
  I  I71  1  0.49952489  0.66392554  0.83672028  1
  I  I72  1  0.83363689  -0.00004328  0.17125215  1
  I  I73  1  0.83519960  0.00344693  0.49392447  1
  I  I74  1  0.83373647  -0.00016952  0.83371630  1
  I  I75  1  0.83409256  0.33366416  0.16597869  1
  I  I76  1  0.83425556  0.33071983  0.49391758  1
  I  I77  1  0.83475507  0.33653374  0.83977200  1
  I  I78  1  0.83436458  0.66648441  0.16148982  1
  I  I79  1  0.83379014  0.66683406  0.50020209  1
  I  I80  1  0.83280164  0.66273723  0.83856035  1
  I  I81  1  0.16488981  0.16895951  -0.00205822  1
  I  I82  1  0.16790270  0.16576521  0.33326663  1
  I  I83  1  0.16510736  0.16414526  0.67045695  1
  I  I84  1  0.16561375  0.50105309  0.00266907  1
  I  I85  1  0.16118541  0.50548099  0.33097369  1
  I  I86  1  0.16686657  0.49980023  0.66533678  1
  I  I87  1  0.16880043  0.83005303  0.00189519  1
  I  I88  1  0.16507965  0.83053229  0.32963803  1
  I  I89  1  0.16938741  0.83326224  0.66900208  1
  I  I90  1  0.50652950  0.16013742  0.00402234  1
  I  I91  1  0.49990674  0.16675964  0.32943795  1
  I  I92  1  0.50065907  0.16600770  0.66681572  1
  I  I93  1  0.49770723  0.50177713  -0.00205826  1
  I  I94  1  0.50090157  0.49876423  0.33326666  1
  I  I95  1  0.50252104  0.50155885  0.67045694  1
  I  I96  1  0.50114041  0.83525708  0.00356508  1
  I  I97  1  0.49726425  0.83562400  0.33064445  1
  I  I98  1  0.49691214  0.83007696  0.66485844  1
  I  I99  1  0.83140939  0.16552612  0.00356511  1
  I  I100  1  0.83104263  0.16940269  0.33064447  1
  I  I101  1  0.83659000  0.16975426  0.66485846  1
  I  I102  1  0.83661344  0.49786638  0.00189515  1
  I  I103  1  0.83613446  0.50158703  0.32963806  1
  I  I104  1  0.83340446  0.49727908  0.66900200  1
  I  I105  1  0.82854845  0.83811837  0.00443201  1
  I  I106  1  0.83840005  0.82826652  0.32871580  1
  I  I107  1  0.83342579  0.83324110  0.66678184  1
  I  I108  1  -0.00285408  0.16542267  0.16805543  1
  I  I109  1  -0.00301511  0.16638655  0.49168227  1
  I  I110  1  0.00274106  0.16714156  0.83672060  1
  I  I111  1  -0.00032569  0.50207451  0.16360045  1
  I  I112  1  0.00278258  0.50101142  0.50172872  1
  I  I113  1  -0.00205717  0.49895951  0.83569947  1
  I  I114  1  0.00018231  0.83230188  0.16148987  1
  I  I115  1  -0.00016740  0.83287660  0.50020198  1
  I  I116  1  0.00392945  0.83386528  0.83856055  1
  I  I117  1  0.33546332  0.16408970  0.16365769  1
  I  I118  1  0.33348374  0.16747909  0.49971384  1
  I  I119  1  0.33002936  0.16680238  0.83549176  1
  I  I120  1  0.33067757  0.50295408  0.16613493  1
  I  I121  1  0.32985527  0.50008273  0.49578804  1
  I  I122  1  0.33454585  0.50050745  0.83428748  1
  I  I123  1  0.33300250  0.83257430  0.16597879  1
  I  I124  1  0.33594683  0.83241146  0.49391745  1
  I  I125  1  0.33013287  0.83191163  0.83977189  1
  I  I126  1  0.66776003  0.16457911  0.16921182  1
  I  I127  1  0.67008232  0.16913624  0.49768572  1
  I  I128  1  0.66669796  0.16712491  0.83207929  1
  I  I129  1  0.66951975  0.50177243  0.16344905  1
  I  I130  1  0.66665946  0.49979223  0.49883084  1
  I  I131  1  0.66761476  0.49987248  0.84063841  1
  I  I132  1  0.66670998  0.83302969  0.17125201  1
  I  I133  1  0.66321973  0.83146668  0.49392491  1
  I  I134  1  0.66683617  0.83292974  0.83371627  1
