# generated using pymatgen
data_Cs27Sn14Pb13I81
_symmetry_space_group_name_H-M   'P 1'
_cell_length_a   18.97590241
_cell_length_b   18.97216993
_cell_length_c   18.97697335
_cell_angle_alpha   89.99997148
_cell_angle_beta   89.99831400
_cell_angle_gamma   89.99551637
_symmetry_Int_Tables_number   1
_chemical_formula_structural   Cs27Sn14Pb13I81
_chemical_formula_sum   'Cs27 Sn14 Pb13 I81'
_cell_volume   6831.97691375
_cell_formula_units_Z   1
loop_
 _symmetry_equiv_pos_site_id
 _symmetry_equiv_pos_as_xyz
  1  'x, y, z'
loop_
 _atom_site_type_symbol
 _atom_site_label
 _atom_site_symmetry_multiplicity
 _atom_site_fract_x
 _atom_site_fract_y
 _atom_site_fract_z
 _atom_site_occupancy
  Cs  Cs0  1  -0.00147262  0.00203354  0.00067602  1
  Cs  Cs1  1  0.00172379  -0.00034771  0.33227253  1
  Cs  Cs2  1  -0.00428321  -0.00011178  0.66678674  1
  Cs  Cs3  1  -0.00371441  0.33377083  0.00121321  1
  Cs  Cs4  1  0.00371923  0.33050960  0.32462367  1
  Cs  Cs5  1  -0.00030055  0.33207393  0.67241980  1
  Cs  Cs6  1  0.00231300  0.66314605  -0.00146043  1
  Cs  Cs7  1  0.00155124  0.66950613  0.33442531  1
  Cs  Cs8  1  0.00095525  0.66441296  0.66665701  1
  Cs  Cs9  1  0.33757572  -0.00300966  -0.00170404  1
  Cs  Cs10  1  0.33066926  0.00003596  0.33509510  1
  Cs  Cs11  1  0.33295718  0.00060185  0.66678462  1
  Cs  Cs12  1  0.33540579  0.33429669  0.00034006  1
  Cs  Cs13  1  0.33270114  0.33363641  0.33636578  1
  Cs  Cs14  1  0.33666680  0.33163604  0.66395862  1
  Cs  Cs15  1  0.33367630  0.66839757  0.00056509  1
  Cs  Cs16  1  0.33207521  0.66630287  0.33159640  1
  Cs  Cs17  1  0.32939219  0.66781727  0.66789904  1
  Cs  Cs18  1  0.66452611  0.00001033  -0.00098475  1
  Cs  Cs19  1  0.66774483  -0.00359635  0.33414977  1
  Cs  Cs20  1  0.67114669  0.00108389  0.66847332  1
  Cs  Cs21  1  0.66652669  0.33265772  0.00041779  1
  Cs  Cs22  1  0.66478875  0.33790328  0.33247416  1
  Cs  Cs23  1  0.66309160  0.33312981  0.66597982  1
  Cs  Cs24  1  0.66293937  0.66741111  0.00166238  1
  Cs  Cs25  1  0.66945743  0.66677361  0.33809345  1
  Cs  Cs26  1  0.67098220  0.66454620  0.65866547  1
  Sn  Sn27  1  0.16695276  0.16644418  0.83363411  1
  Sn  Sn28  1  0.16649642  0.50017188  0.49947282  1
  Sn  Sn29  1  0.49888609  0.83356695  0.50024815  1
  Sn  Sn30  1  0.49974369  0.16727201  0.83407008  1
  Sn  Sn31  1  0.49917487  0.49926902  0.16604677  1
  Sn  Sn32  1  0.16755354  0.83283480  0.49961618  1
  Sn  Sn33  1  0.83428705  0.83315212  0.16533056  1
  Sn  Sn34  1  0.83332812  0.83322513  0.83453884  1
  Sn  Sn35  1  0.16754827  0.50070130  0.16724361  1
  Sn  Sn36  1  0.83327253  0.16607017  0.83268300  1
  Sn  Sn37  1  0.49978055  0.16711532  0.16658048  1
  Sn  Sn38  1  0.83341543  0.16741518  0.49986086  1
  Sn  Sn39  1  0.16591349  0.83287585  0.16676983  1
  Sn  Sn40  1  0.50003164  0.49984334  0.83369567  1
  Pb  Pb41  1  0.16458507  0.16658112  0.50196331  1
  Pb  Pb42  1  0.83445829  0.83452855  0.50006002  1
  Pb  Pb43  1  0.50237968  0.83307465  0.83081023  1
  Pb  Pb44  1  0.49967166  0.83294367  0.16829150  1
  Pb  Pb45  1  0.83038017  0.49979318  0.83338102  1
  Pb  Pb46  1  0.83704333  0.49644155  0.49976026  1
  Pb  Pb47  1  0.83075418  0.16474215  0.16629036  1
  Pb  Pb48  1  0.50178008  0.16481177  0.50001537  1
  Pb  Pb49  1  0.16902833  0.16649032  0.16439414  1
  Pb  Pb50  1  0.49803217  0.50208666  0.49974880  1
  Pb  Pb51  1  0.16457188  0.83518942  0.83351129  1
  Pb  Pb52  1  0.16885660  0.49779578  0.83384095  1
  Pb  Pb53  1  0.83330467  0.50280651  0.16666339  1
  I  I54  1  0.16401489  -0.00283906  0.17075617  1
  I  I55  1  0.16874755  -0.00287964  0.49598192  1
  I  I56  1  0.17141005  0.00320932  0.83307174  1
  I  I57  1  0.16948185  0.33599161  0.17074568  1
  I  I58  1  0.16548068  0.33580170  0.49591927  1
  I  I59  1  0.16159593  0.32982844  0.83286039  1
  I  I60  1  0.16874976  0.66677223  0.17007953  1
  I  I61  1  0.17052467  0.66761647  0.49664045  1
  I  I62  1  0.16654294  0.66661957  0.83256835  1
  I  I63  1  0.50087746  0.00198152  0.16233709  1
  I  I64  1  0.49416331  -0.00294009  0.49885816  1
  I  I65  1  0.49933309  0.00305223  0.83714166  1
  I  I66  1  0.49564272  0.33386393  0.16301348  1
  I  I67  1  0.49970230  0.33341353  0.50022832  1
  I  I68  1  0.50189090  0.33198341  0.83663578  1
  I  I69  1  0.49850889  0.66395860  0.16256391  1
  I  I70  1  0.50064052  0.66989292  0.49971314  1
  I  I71  1  0.50031522  0.66421946  0.83812046  1
  I  I72  1  0.83771242  -0.00318010  0.16603009  1
  I  I73  1  0.83430853  0.00223625  0.50283912  1
  I  I74  1  0.83120137  0.00116966  0.83276135  1
  I  I75  1  0.83593016  0.33323431  0.16643977  1
  I  I76  1  0.83163097  0.32892629  0.50863367  1
  I  I77  1  0.83507181  0.32980121  0.82905507  1
  I  I78  1  0.83197484  0.67098077  0.16201161  1
  I  I79  1  0.83058141  0.66669540  0.50063733  1
  I  I80  1  0.83237295  0.66950377  0.83676535  1
  I  I81  1  0.16142707  0.16644237  -0.00339989  1
  I  I82  1  0.16605579  0.16655404  0.33309646  1
  I  I83  1  0.17105059  0.16663105  0.66993454  1
  I  I84  1  0.16923607  0.50439402  0.00307486  1
  I  I85  1  0.17253924  0.50338379  0.33229911  1
  I  I86  1  0.16763591  0.50414839  0.66446741  1
  I  I87  1  0.16460542  0.82986003  0.00287193  1
  I  I88  1  0.16451495  0.83043766  0.33296421  1
  I  I89  1  0.16911740  0.83019619  0.66403115  1
  I  I90  1  0.50207940  0.16948981  -0.00114446  1
  I  I91  1  0.50171527  0.16966738  0.33079712  1
  I  I92  1  0.49926735  0.16989613  0.66988333  1
  I  I93  1  0.49480937  0.49648513  0.00078706  1
  I  I94  1  0.49789484  0.49605297  0.33030217  1
  I  I95  1  0.49943566  0.49541036  0.66898094  1
  I  I96  1  0.49865804  0.83376602  -0.00012105  1
  I  I97  1  0.50167001  0.83419745  0.33588479  1
  I  I98  1  0.49521063  0.83396501  0.66339491  1
  I  I99  1  0.83433362  0.16382940  -0.00310023  1
  I  I100  1  0.83225230  0.16352440  0.33512501  1
  I  I101  1  0.83197864  0.15959998  0.66877797  1
  I  I102  1  0.83851649  0.49648275  0.00001725  1
  I  I103  1  0.82641573  0.50000726  0.33324367  1
  I  I104  1  0.83320688  0.50567150  0.66664748  1
  I  I105  1  0.83741523  0.83990583  0.00000058  1
  I  I106  1  0.83358102  0.83539494  0.33125051  1
  I  I107  1  0.83180772  0.83740167  0.66886393  1
  I  I108  1  0.00009686  0.16871344  0.16553177  1
  I  I109  1  -0.00304284  0.16389854  0.50643011  1
  I  I110  1  -0.00098963  0.16181624  0.82789818  1
  I  I111  1  0.00338307  0.50177964  0.17131936  1
  I  I112  1  0.00474421  0.50866368  0.49501653  1
  I  I113  1  0.00019455  0.49826232  0.83321571  1
  I  I114  1  0.00114324  0.82948743  0.16948063  1
  I  I115  1  0.00304014  0.83098590  0.49859078  1
  I  I116  1  -0.00330770  0.84010417  0.83227840  1
  I  I117  1  0.33680745  0.16526041  0.16117489  1
  I  I118  1  0.33315634  0.16670672  0.50193677  1
  I  I119  1  0.33464039  0.17069721  0.83736539  1
  I  I120  1  0.33318667  0.50237656  0.16623486  1
  I  I121  1  0.33020724  0.50085691  0.49874384  1
  I  I122  1  0.33667659  0.49436794  0.83447530  1
  I  I123  1  0.33064905  0.83246930  0.16966069  1
  I  I124  1  0.33185885  0.83158649  0.49441116  1
  I  I125  1  0.33342345  0.83554577  0.83470879  1
  I  I126  1  0.66298513  0.17022966  0.16149553  1
  I  I127  1  0.66940748  0.16219444  0.50589492  1
  I  I128  1  0.66651652  0.16588001  0.83317348  1
  I  I129  1  0.66334511  0.49669519  0.16170872  1
  I  I130  1  0.66652299  0.50247456  0.50007147  1
  I  I131  1  0.66243509  0.49492239  0.83936077  1
  I  I132  1  0.66851723  0.83520998  0.16494384  1
  I  I133  1  0.66549672  0.83542582  0.49962308  1
  I  I134  1  0.67002241  0.83980926  0.83794789  1
