# generated using pymatgen
data_Cs27Sn14Pb13I81
_symmetry_space_group_name_H-M   'P 1'
_cell_length_a   18.96261324
_cell_length_b   18.96181243
_cell_length_c   18.95785742
_cell_angle_alpha   89.99958351
_cell_angle_beta   90.00213212
_cell_angle_gamma   89.99766830
_symmetry_Int_Tables_number   1
_chemical_formula_structural   Cs27Sn14Pb13I81
_chemical_formula_sum   'Cs27 Sn14 Pb13 I81'
_cell_volume   6816.59176690
_cell_formula_units_Z   1
loop_
 _symmetry_equiv_pos_site_id
 _symmetry_equiv_pos_as_xyz
  1  'x, y, z'
loop_
 _atom_site_type_symbol
 _atom_site_label
 _atom_site_symmetry_multiplicity
 _atom_site_fract_x
 _atom_site_fract_y
 _atom_site_fract_z
 _atom_site_occupancy
  Cs  Cs0  1  0.00173167  -0.00286210  0.00067794  1
  Cs  Cs1  1  0.00123158  0.00250638  0.33177667  1
  Cs  Cs2  1  -0.00116171  0.00178046  0.66708249  1
  Cs  Cs3  1  0.00051901  0.33397241  0.00078445  1
  Cs  Cs4  1  -0.00195794  0.33156830  0.33369716  1
  Cs  Cs5  1  0.00071770  0.33448525  0.66700819  1
  Cs  Cs6  1  -0.00410866  0.66723030  -0.00372848  1
  Cs  Cs7  1  -0.00047024  0.66798576  0.33618494  1
  Cs  Cs8  1  0.00294286  0.66414781  0.66732292  1
  Cs  Cs9  1  0.32919166  -0.00089500  -0.00049084  1
  Cs  Cs10  1  0.33173513  -0.00763598  0.33414951  1
  Cs  Cs11  1  0.33560926  -0.00002556  0.66721532  1
  Cs  Cs12  1  0.33418764  0.33377011  0.00271759  1
  Cs  Cs13  1  0.33419242  0.33399947  0.32954381  1
  Cs  Cs14  1  0.33305779  0.33249127  0.66690046  1
  Cs  Cs15  1  0.33606821  0.66580893  -0.00216450  1
  Cs  Cs16  1  0.33299165  0.67143709  0.33612977  1
  Cs  Cs17  1  0.32961938  0.66749870  0.66803458  1
  Cs  Cs18  1  0.66939698  -0.00197540  -0.00244638  1
  Cs  Cs19  1  0.66610086  -0.00164997  0.33551119  1
  Cs  Cs20  1  0.66528089  0.00526472  0.66671194  1
  Cs  Cs21  1  0.66527597  0.33366948  0.00168017  1
  Cs  Cs22  1  0.66771595  0.33480977  0.33345437  1
  Cs  Cs23  1  0.66643254  0.32964105  0.66615539  1
  Cs  Cs24  1  0.66630229  0.66819775  0.00081636  1
  Cs  Cs25  1  0.66673054  0.66450779  0.33170101  1
  Cs  Cs26  1  0.66794887  0.66570050  0.66671537  1
  Sn  Sn27  1  0.83400726  0.16672999  0.49917902  1
  Sn  Sn28  1  0.50016654  0.50041762  0.83306652  1
  Sn  Sn29  1  0.16644814  0.50046439  0.16690269  1
  Sn  Sn30  1  0.83355142  0.49921209  0.16735848  1
  Sn  Sn31  1  0.16716854  0.83403705  0.83315158  1
  Sn  Sn32  1  0.49989414  0.49953761  0.16703521  1
  Sn  Sn33  1  0.83260272  0.49994924  0.49942811  1
  Sn  Sn34  1  0.16661979  0.16631014  0.83265811  1
  Sn  Sn35  1  0.83321482  0.83336900  0.50005363  1
  Sn  Sn36  1  0.50029513  0.49975881  0.49995189  1
  Sn  Sn37  1  0.83219157  0.16726167  0.16731664  1
  Sn  Sn38  1  0.50076935  0.16660405  0.16693181  1
  Sn  Sn39  1  0.49968476  0.83284963  0.83322484  1
  Sn  Sn40  1  0.16657151  0.16704178  0.50047187  1
  Pb  Pb41  1  0.49994747  0.16847655  0.49758993  1
  Pb  Pb42  1  0.16651704  0.82994219  0.16425693  1
  Pb  Pb43  1  0.83328461  0.83343637  0.16887597  1
  Pb  Pb44  1  0.50196701  0.83066059  0.50249469  1
  Pb  Pb45  1  0.16880363  0.49975851  0.83531205  1
  Pb  Pb46  1  0.49799800  0.16676820  0.83581710  1
  Pb  Pb47  1  0.83317114  0.83333949  0.83076691  1
  Pb  Pb48  1  0.83570776  0.16688084  0.83393048  1
  Pb  Pb49  1  0.16650319  0.16787171  0.16692266  1
  Pb  Pb50  1  0.16460921  0.83588702  0.50214775  1
  Pb  Pb51  1  0.16658363  0.49808111  0.49801477  1
  Pb  Pb52  1  0.50008691  0.83330654  0.16466845  1
  Pb  Pb53  1  0.83065223  0.49969374  0.83341534  1
  I  I54  1  0.16669299  0.00010119  0.16739554  1
  I  I55  1  0.16194347  0.00401462  0.49973307  1
  I  I56  1  0.17242785  0.00015293  0.83024774  1
  I  I57  1  0.16755283  0.33591050  0.16420144  1
  I  I58  1  0.16111112  0.33018205  0.50593786  1
  I  I59  1  0.16718996  0.33091532  0.83115151  1
  I  I60  1  0.16763159  0.66183001  0.16631689  1
  I  I61  1  0.16544335  0.66650773  0.50058998  1
  I  I62  1  0.16919846  0.66876747  0.83567553  1
  I  I63  1  0.50450171  0.00303696  0.16514124  1
  I  I64  1  0.50125015  0.00009738  0.50019348  1
  I  I65  1  0.49769751  -0.00222074  0.83492105  1
  I  I66  1  0.50071310  0.33509322  0.16417144  1
  I  I67  1  0.50486192  0.33693986  0.50416831  1
  I  I68  1  0.49896510  0.33614692  0.83315194  1
  I  I69  1  0.50126842  0.66282705  0.16758028  1
  I  I70  1  0.50465266  0.66224397  0.49449661  1
  I  I71  1  0.49480329  0.66566375  0.83506654  1
  I  I72  1  0.82941977  0.00353713  0.17025223  1
  I  I73  1  0.83835902  0.00151621  0.49697295  1
  I  I74  1  0.82907419  0.00014034  0.83310686  1
  I  I75  1  0.83239515  0.33408552  0.17388916  1
  I  I76  1  0.83342085  0.33349550  0.49556979  1
  I  I77  1  0.83420488  0.33334163  0.82911917  1
  I  I78  1  0.83194063  0.66295383  0.16987631  1
  I  I79  1  0.82832914  0.66500606  0.49661956  1
  I  I80  1  0.83746951  0.66644401  0.83309595  1
  I  I81  1  0.16761985  0.16440395  -0.00206880  1
  I  I82  1  0.16401390  0.17015603  0.33563186  1
  I  I83  1  0.16162127  0.16465408  0.66633449  1
  I  I84  1  0.16623607  0.49745523  0.00333560  1
  I  I85  1  0.17061415  0.49633037  0.33007360  1
  I  I86  1  0.16685684  0.50080886  0.66665122  1
  I  I87  1  0.16969533  0.84063938  -0.00383721  1
  I  I88  1  0.16612357  0.83451479  0.33366061  1
  I  I89  1  0.17039645  0.83306141  0.67015334  1
  I  I90  1  0.50403131  0.17330832  0.00367292  1
  I  I91  1  0.49959954  0.17374263  0.32966549  1
  I  I92  1  0.50180466  0.16824840  0.66659864  1
  I  I93  1  0.49939185  0.50008876  0.00098533  1
  I  I94  1  0.50170234  0.49470696  0.33253162  1
  I  I95  1  0.50432387  0.50405408  0.66638158  1
  I  I96  1  0.49703070  0.82749632  -0.00344230  1
  I  I97  1  0.50069728  0.83255502  0.33367695  1
  I  I98  1  0.49637774  0.82837574  0.67043074  1
  I  I99  1  0.83075032  0.17251052  0.00360071  1
  I  I100  1  0.83592248  0.16823539  0.33390065  1
  I  I101  1  0.83522103  0.16763768  0.66331383  1
  I  I102  1  0.83321277  0.49525498  0.00360816  1
  I  I103  1  0.82888109  0.49924023  0.33336466  1
  I  I104  1  0.82946680  0.49916881  0.66306333  1
  I  I105  1  0.83375877  0.83301126  -0.00015894  1
  I  I106  1  0.83317349  0.83262149  0.33691134  1
  I  I107  1  0.83316115  0.83276833  0.66272297  1
  I  I108  1  -0.00281947  0.17174559  0.16809578  1
  I  I109  1  -0.00150407  0.16864991  0.49837412  1
  I  I110  1  0.00374852  0.16111098  0.83403815  1
  I  I111  1  -0.00150219  0.49534611  0.17075964  1
  I  I112  1  -0.00321348  0.50104955  0.49546418  1
  I  I113  1  0.00016481  0.50128010  0.83422265  1
  I  I114  1  -0.00013652  0.83337447  0.16356642  1
  I  I115  1  -0.00340748  0.82748354  0.50196022  1
  I  I116  1  0.00277142  0.83758676  0.83292700  1
  I  I117  1  0.33545818  0.17316485  0.16526029  1
  I  I118  1  0.33108001  0.16964209  0.50267521  1
  I  I119  1  0.33011319  0.16617542  0.82933107  1
  I  I120  1  0.33490778  0.49487250  0.16549394  1
  I  I121  1  0.33602164  0.49766312  0.49885005  1
  I  I122  1  0.33703868  0.50090063  0.83368292  1
  I  I123  1  0.33336643  0.83428211  0.16897599  1
  I  I124  1  0.33335760  0.83334847  0.49925299  1
  I  I125  1  0.33348288  0.83249535  0.83342811  1
  I  I126  1  0.66750081  0.17504050  0.17101156  1
  I  I127  1  0.66974973  0.16576037  0.49809634  1
  I  I128  1  0.66639699  0.16594550  0.83127865  1
  I  I129  1  0.66656367  0.49605631  0.16736926  1
  I  I130  1  0.66742232  0.49855076  0.49628937  1
  I  I131  1  0.66243293  0.50561891  0.83745164  1
  I  I132  1  0.66670166  0.83015079  0.16333292  1
  I  I133  1  0.66998952  0.83799916  0.50186276  1
  I  I134  1  0.66381141  0.82785146  0.83345916  1
