# generated using pymatgen
data_Cs27Sn13Pb14I81
_symmetry_space_group_name_H-M   'P 1'
_cell_length_a   18.97302800
_cell_length_b   18.97786927
_cell_length_c   18.97936647
_cell_angle_alpha   90.00024198
_cell_angle_beta   90.00265981
_cell_angle_gamma   89.99859494
_symmetry_Int_Tables_number   1
_chemical_formula_structural   Cs27Sn13Pb14I81
_chemical_formula_sum   'Cs27 Sn13 Pb14 I81'
_cell_volume   6833.85578239
_cell_formula_units_Z   1
loop_
 _symmetry_equiv_pos_site_id
 _symmetry_equiv_pos_as_xyz
  1  'x, y, z'
loop_
 _atom_site_type_symbol
 _atom_site_label
 _atom_site_symmetry_multiplicity
 _atom_site_fract_x
 _atom_site_fract_y
 _atom_site_fract_z
 _atom_site_occupancy
  Cs  Cs0  1  0.00673321  0.00201822  -0.00266738  1
  Cs  Cs1  1  -0.00133566  0.00267812  0.33516506  1
  Cs  Cs2  1  0.00084580  -0.00180742  0.66691054  1
  Cs  Cs3  1  0.00116956  0.33395120  0.00309881  1
  Cs  Cs4  1  -0.00079749  0.33301921  0.33459459  1
  Cs  Cs5  1  -0.00108685  0.33420337  0.66428849  1
  Cs  Cs6  1  0.00022048  0.66647817  -0.00132542  1
  Cs  Cs7  1  0.00004368  0.66533936  0.33379479  1
  Cs  Cs8  1  -0.00168080  0.66766225  0.66691395  1
  Cs  Cs9  1  0.32928202  0.00713709  0.00425947  1
  Cs  Cs10  1  0.34228696  -0.01297226  0.32764248  1
  Cs  Cs11  1  0.33089608  0.00229679  0.66741926  1
  Cs  Cs12  1  0.32940843  0.32982123  -0.00104410  1
  Cs  Cs13  1  0.33171647  0.33316340  0.33514676  1
  Cs  Cs14  1  0.33466350  0.33196610  0.66738269  1
  Cs  Cs15  1  0.33506705  0.66566641  0.00333775  1
  Cs  Cs16  1  0.33451742  0.67565109  0.33144962  1
  Cs  Cs17  1  0.33442623  0.66696047  0.66466898  1
  Cs  Cs18  1  0.66500259  0.00100254  0.00336324  1
  Cs  Cs19  1  0.66304249  0.00035960  0.32892042  1
  Cs  Cs20  1  0.66766488  0.00273363  0.66772598  1
  Cs  Cs21  1  0.66758515  0.33444590  -0.00067157  1
  Cs  Cs22  1  0.66749426  0.33265522  0.33447451  1
  Cs  Cs23  1  0.66645406  0.33482857  0.66579317  1
  Cs  Cs24  1  0.66728570  0.66565603  -0.00225169  1
  Cs  Cs25  1  0.66691292  0.66598926  0.33270351  1
  Cs  Cs26  1  0.66778888  0.66460006  0.66947298  1
  Sn  Sn27  1  0.16624232  0.16708901  0.49955077  1
  Sn  Sn28  1  0.16601399  0.49944182  0.50081454  1
  Sn  Sn29  1  0.83311682  0.83331976  0.49924704  1
  Sn  Sn30  1  0.49976263  0.83304824  0.83320887  1
  Sn  Sn31  1  0.16661297  0.50030861  0.83239517  1
  Sn  Sn32  1  0.83325071  0.16751931  0.83282755  1
  Sn  Sn33  1  0.83257147  0.50084858  0.16670316  1
  Sn  Sn34  1  0.50072989  0.49958170  0.16614365  1
  Sn  Sn35  1  0.83389302  0.50004811  0.49990610  1
  Sn  Sn36  1  0.83383847  0.83253438  0.16694590  1
  Sn  Sn37  1  0.83368363  0.16669624  0.50100236  1
  Sn  Sn38  1  0.49973711  0.50084652  0.83419492  1
  Sn  Sn39  1  0.83354743  0.49913376  0.83345230  1
  Pb  Pb40  1  0.16349426  0.83313625  0.16650126  1
  Pb  Pb41  1  0.16449135  0.83322850  0.50010621  1
  Pb  Pb42  1  0.83346692  0.16685202  0.16677200  1
  Pb  Pb43  1  0.50006256  0.17003342  0.16663731  1
  Pb  Pb44  1  0.83224873  0.83363805  0.83367293  1
  Pb  Pb45  1  0.50310121  0.83323288  0.50273438  1
  Pb  Pb46  1  0.49953372  0.49998578  0.49985529  1
  Pb  Pb47  1  0.49970030  0.16656618  0.49995215  1
  Pb  Pb48  1  0.16657234  0.16672898  0.17069421  1
  Pb  Pb49  1  0.50255642  0.83096882  0.16390532  1
  Pb  Pb50  1  0.16662535  0.50007645  0.16729635  1
  Pb  Pb51  1  0.16399965  0.16920566  0.83124843  1
  Pb  Pb52  1  0.50212875  0.16727535  0.83327840  1
  Pb  Pb53  1  0.16984644  0.83082609  0.83328901  1
  I  I54  1  0.16485020  0.00006277  0.16664396  1
  I  I55  1  0.15968090  0.00302826  0.50081983  1
  I  I56  1  0.16597829  0.00045599  0.83192920  1
  I  I57  1  0.16453545  0.33385535  0.16412395  1
  I  I58  1  0.15718590  0.33473471  0.50405007  1
  I  I59  1  0.17116529  0.33758962  0.83198748  1
  I  I60  1  0.16808402  0.66603081  0.16947706  1
  I  I61  1  0.16175185  0.66312777  0.50362670  1
  I  I62  1  0.15940971  0.66186625  0.82709342  1
  I  I63  1  0.50172763  -0.00053507  0.16588778  1
  I  I64  1  0.50059801  -0.00018696  0.50212305  1
  I  I65  1  0.50545344  -0.00237561  0.83101394  1
  I  I66  1  0.50853443  0.33843469  0.16024316  1
  I  I67  1  0.50537948  0.33370750  0.50152955  1
  I  I68  1  0.49954434  0.33734864  0.83668429  1
  I  I69  1  0.50268787  0.66294918  0.16482140  1
  I  I70  1  0.49999202  0.66631355  0.49892113  1
  I  I71  1  0.50392594  0.66394040  0.83596382  1
  I  I72  1  0.83298764  -0.00275572  0.17024601  1
  I  I73  1  0.83704567  0.00056313  0.50130897  1
  I  I74  1  0.83026190  0.00243267  0.82943297  1
  I  I75  1  0.82994085  0.33695814  0.16825537  1
  I  I76  1  0.83655529  0.33451193  0.50068986  1
  I  I77  1  0.83103584  0.33556000  0.83032925  1
  I  I78  1  0.82981302  0.66475802  0.16983573  1
  I  I79  1  0.83640593  0.66516884  0.50020994  1
  I  I80  1  0.83412892  0.66326585  0.83080116  1
  I  I81  1  0.16518896  0.16754986  -0.00018501  1
  I  I82  1  0.15570974  0.17742837  0.33869225  1
  I  I83  1  0.16331667  0.16929096  0.66331563  1
  I  I84  1  0.16356264  0.50118667  -0.00286476  1
  I  I85  1  0.16168323  0.49527119  0.33682642  1
  I  I86  1  0.16287682  0.49716704  0.66651880  1
  I  I87  1  0.16254127  0.83082127  -0.00026418  1
  I  I88  1  0.16944302  0.83049576  0.33360174  1
  I  I89  1  0.16380417  0.83364430  0.66663861  1
  I  I90  1  0.50344290  0.16467732  -0.00031144  1
  I  I91  1  0.50313901  0.16862715  0.33332913  1
  I  I92  1  0.50085465  0.16947631  0.66681370  1
  I  I93  1  0.50503398  0.50419879  -0.00116534  1
  I  I94  1  0.50524282  0.49889406  0.33062538  1
  I  I95  1  0.50353752  0.50277599  0.66990465  1
  I  I96  1  0.50507586  0.82851654  -0.00337967  1
  I  I97  1  0.49867428  0.83233591  0.33297159  1
  I  I98  1  0.50313380  0.82433467  0.67016338  1
  I  I99  1  0.83120375  0.17090069  -0.00282288  1
  I  I100  1  0.83742715  0.16965241  0.33679178  1
  I  I101  1  0.83539734  0.16993146  0.66584004  1
  I  I102  1  0.83257672  0.50024597  -0.00078166  1
  I  I103  1  0.83317750  0.50035066  0.33408942  1
  I  I104  1  0.83308099  0.49987886  0.66668404  1
  I  I105  1  0.83037513  0.82836030  0.00232001  1
  I  I106  1  0.83372785  0.82906724  0.33406933  1
  I  I107  1  0.83191375  0.83065728  0.66416377  1
  I  I108  1  -0.00050004  0.16901789  0.16364914  1
  I  I109  1  -0.00203295  0.16858507  0.50393874  1
  I  I110  1  -0.00422624  0.17063295  0.83177500  1
  I  I111  1  -0.00358699  0.50310012  0.16441259  1
  I  I112  1  -0.00186696  0.49974127  0.50270539  1
  I  I113  1  -0.00136794  0.49583842  0.83284303  1
  I  I114  1  -0.00500622  0.82499099  0.16942125  1
  I  I115  1  -0.00426947  0.83199624  0.49842140  1
  I  I116  1  -0.00023081  0.83267904  0.83337598  1
  I  I117  1  0.33324835  0.16894634  0.16663394  1
  I  I118  1  0.32963921  0.17584184  0.50127486  1
  I  I119  1  0.33299256  0.16745084  0.83125931  1
  I  I120  1  0.33619479  0.49885248  0.16255032  1
  I  I121  1  0.32996728  0.49375245  0.50373925  1
  I  I122  1  0.33357053  0.50529831  0.83297028  1
  I  I123  1  0.33396562  0.83159778  0.16719135  1
  I  I124  1  0.33340238  0.83299100  0.50033054  1
  I  I125  1  0.33770280  0.82627776  0.83237898  1
  I  I126  1  0.66728391  0.16502035  0.16901243  1
  I  I127  1  0.67083813  0.16894761  0.50358596  1
  I  I128  1  0.67060757  0.17291979  0.82660386  1
  I  I129  1  0.66853941  0.50354173  0.16353293  1
  I  I130  1  0.67022629  0.49944729  0.50236771  1
  I  I131  1  0.66790754  0.50025023  0.83326697  1
  I  I132  1  0.67040412  0.83084906  0.17131742  1
  I  I133  1  0.67160455  0.83157584  0.49650427  1
  I  I134  1  0.66475578  0.82563551  0.83240085  1
