# generated using pymatgen
data_Cs27Sn14Pb13I81
_symmetry_space_group_name_H-M   'P 1'
_cell_length_a   18.95861138
_cell_length_b   18.96219517
_cell_length_c   18.96119517
_cell_angle_alpha   90.00056021
_cell_angle_beta   89.99832248
_cell_angle_gamma   89.99895968
_symmetry_Int_Tables_number   1
_chemical_formula_structural   Cs27Sn14Pb13I81
_chemical_formula_sum   'Cs27 Sn14 Pb13 I81'
_cell_volume   6816.49067212
_cell_formula_units_Z   1
loop_
 _symmetry_equiv_pos_site_id
 _symmetry_equiv_pos_as_xyz
  1  'x, y, z'
loop_
 _atom_site_type_symbol
 _atom_site_label
 _atom_site_symmetry_multiplicity
 _atom_site_fract_x
 _atom_site_fract_y
 _atom_site_fract_z
 _atom_site_occupancy
  Cs  Cs0  1  -0.00178886  -0.00345704  -0.00097328  1
  Cs  Cs1  1  -0.00118701  0.00273860  0.33356993  1
  Cs  Cs2  1  0.00559017  0.00054430  0.66752357  1
  Cs  Cs3  1  -0.00262327  0.33501371  0.00202629  1
  Cs  Cs4  1  -0.00060885  0.33792706  0.34045297  1
  Cs  Cs5  1  -0.00008145  0.33227511  0.65859724  1
  Cs  Cs6  1  0.00258554  0.66837780  -0.00055951  1
  Cs  Cs7  1  0.00616418  0.65879679  0.33274630  1
  Cs  Cs8  1  0.00205288  0.66833286  0.67037992  1
  Cs  Cs9  1  0.33173131  0.00347994  0.00031527  1
  Cs  Cs10  1  0.33419824  -0.00353927  0.33325610  1
  Cs  Cs11  1  0.32593946  0.00152066  0.66533987  1
  Cs  Cs12  1  0.33561483  0.33167613  -0.00179932  1
  Cs  Cs13  1  0.33513622  0.33345527  0.33240299  1
  Cs  Cs14  1  0.33314348  0.33174342  0.67012476  1
  Cs  Cs15  1  0.33395733  0.66501142  0.00133109  1
  Cs  Cs16  1  0.33025720  0.66959327  0.33538757  1
  Cs  Cs17  1  0.33570069  0.66714418  0.66300565  1
  Cs  Cs18  1  0.66745781  0.00076043  0.00145185  1
  Cs  Cs19  1  0.66650543  -0.00036454  0.33252090  1
  Cs  Cs20  1  0.66750104  -0.00252583  0.66565221  1
  Cs  Cs21  1  0.66552020  0.33301260  0.00043168  1
  Cs  Cs22  1  0.66774049  0.33268094  0.33312961  1
  Cs  Cs23  1  0.66639278  0.33334210  0.66694203  1
  Cs  Cs24  1  0.66711380  0.66653632  -0.00085552  1
  Cs  Cs25  1  0.66570685  0.66855715  0.33349427  1
  Cs  Cs26  1  0.66542261  0.66839113  0.66852547  1
  Sn  Sn27  1  0.83344714  0.83307873  0.49871039  1
  Sn  Sn28  1  0.50035884  0.50025795  0.16701347  1
  Sn  Sn29  1  0.50019280  0.50077457  0.83330762  1
  Sn  Sn30  1  0.83300110  0.16740160  0.83370352  1
  Sn  Sn31  1  0.83344681  0.49894435  0.83349611  1
  Sn  Sn32  1  0.83275772  0.83356062  0.16802309  1
  Sn  Sn33  1  0.83356193  0.16632932  0.16610063  1
  Sn  Sn34  1  0.50053616  0.49904325  0.49997462  1
  Sn  Sn35  1  0.50037031  0.16704727  0.49945487  1
  Sn  Sn36  1  0.16615748  0.16694756  0.16670410  1
  Sn  Sn37  1  0.50002382  0.83323426  0.83415267  1
  Sn  Sn38  1  0.16671754  0.49968865  0.83353645  1
  Sn  Sn39  1  0.50017539  0.16649666  0.16753082  1
  Sn  Sn40  1  0.50075758  0.83339840  0.16550413  1
  Pb  Pb41  1  0.83166036  0.50027606  0.16518963  1
  Pb  Pb42  1  0.17031487  0.83118303  0.83366592  1
  Pb  Pb43  1  0.16972193  0.16674609  0.49718972  1
  Pb  Pb44  1  0.83181683  0.83346332  0.83394346  1
  Pb  Pb45  1  0.16643589  0.83535586  0.16664064  1
  Pb  Pb46  1  0.16965409  0.49989276  0.50259613  1
  Pb  Pb47  1  0.16940446  0.49763218  0.16487570  1
  Pb  Pb48  1  0.83110028  0.50251114  0.50268392  1
  Pb  Pb49  1  0.50085074  0.83357545  0.49979241  1
  Pb  Pb50  1  0.50138817  0.16637551  0.83330814  1
  Pb  Pb51  1  0.16275184  0.83332282  0.49969771  1
  Pb  Pb52  1  0.16326002  0.16898127  0.83548619  1
  Pb  Pb53  1  0.83138227  0.16513939  0.49970481  1
  I  I54  1  0.17211763  0.00344402  0.16548082  1
  I  I55  1  0.17093757  0.00025996  0.50174731  1
  I  I56  1  0.16688258  0.00036649  0.83347493  1
  I  I57  1  0.16699367  0.32970449  0.16473411  1
  I  I58  1  0.16375611  0.33333044  0.49979221  1
  I  I59  1  0.17484478  0.33672001  0.83517230  1
  I  I60  1  0.16671867  0.66631138  0.16550153  1
  I  I61  1  0.17006998  0.66638946  0.49938880  1
  I  I62  1  0.16137813  0.66291994  0.83481662  1
  I  I63  1  0.50098223  0.00043687  0.16672570  1
  I  I64  1  0.50266715  0.00238129  0.49628962  1
  I  I65  1  0.50452499  -0.00230811  0.83658245  1
  I  I66  1  0.50004682  0.33296758  0.16628703  1
  I  I67  1  0.50105077  0.33370703  0.49725612  1
  I  I68  1  0.49915747  0.33625973  0.83546306  1
  I  I69  1  0.50508364  0.66681449  0.16478716  1
  I  I70  1  0.50192697  0.66410724  0.49963389  1
  I  I71  1  0.50263383  0.66513315  0.83581066  1
  I  I72  1  0.82797102  0.00083219  0.16429716  1
  I  I73  1  0.82770235  -0.00256702  0.50057674  1
  I  I74  1  0.82937963  0.00227840  0.83530518  1
  I  I75  1  0.83081765  0.33037400  0.16293427  1
  I  I76  1  0.83330533  0.33350436  0.49883828  1
  I  I77  1  0.82943366  0.33355641  0.83935428  1
  I  I78  1  0.82683888  0.66947442  0.16781820  1
  I  I79  1  0.82862599  0.67005076  0.49517037  1
  I  I80  1  0.83273546  0.66406878  0.83304535  1
  I  I81  1  0.17404456  0.16748169  0.00327544  1
  I  I82  1  0.16232074  0.16723653  0.32904380  1
  I  I83  1  0.16724031  0.16709288  0.66682116  1
  I  I84  1  0.16958938  0.49950553  -0.00313968  1
  I  I85  1  0.16771822  0.49930743  0.33321281  1
  I  I86  1  0.16842509  0.49936551  0.67075333  1
  I  I87  1  0.16260636  0.83318918  0.00009483  1
  I  I88  1  0.17315742  0.83292080  0.33292485  1
  I  I89  1  0.16713377  0.83398462  0.66692215  1
  I  I90  1  0.49940392  0.16861696  0.00314847  1
  I  I91  1  0.50193527  0.16967750  0.33137404  1
  I  I92  1  0.50351873  0.16985485  0.66465233  1
  I  I93  1  0.50022996  0.50036032  -0.00030051  1
  I  I94  1  0.50094922  0.49878968  0.33248426  1
  I  I95  1  0.50044337  0.50054772  0.66783675  1
  I  I96  1  0.50570996  0.83013516  0.00124060  1
  I  I97  1  0.50236413  0.83185985  0.33008134  1
  I  I98  1  0.50353536  0.82893357  0.66885454  1
  I  I99  1  0.82977185  0.16496639  0.00142814  1
  I  I100  1  0.83308548  0.16360279  0.32982921  1
  I  I101  1  0.82951612  0.16919506  0.66906572  1
  I  I102  1  0.82917760  0.50024436  -0.00323140  1
  I  I103  1  0.83116169  0.49793284  0.33337588  1
  I  I104  1  0.82978790  0.49572979  0.67098947  1
  I  I105  1  0.82993219  0.83530820  0.00289957  1
  I  I106  1  0.82472425  0.84029000  0.33125059  1
  I  I107  1  0.82900127  0.83240871  0.66535739  1
  I  I108  1  -0.00156101  0.16076404  0.15977958  1
  I  I109  1  -0.00022416  0.16466464  0.50005910  1
  I  I110  1  -0.00481381  0.16965771  0.83824880  1
  I  I111  1  -0.00004174  0.50019561  0.16365802  1
  I  I112  1  -0.00022273  0.50153073  0.50133072  1
  I  I113  1  -0.00095148  0.49546278  0.83488692  1
  I  I114  1  -0.00366227  0.83839662  0.16942714  1
  I  I115  1  -0.00520400  0.83475241  0.49532125  1
  I  I116  1  -0.00014070  0.83205607  0.83307387  1
  I  I117  1  0.33534293  0.16738193  0.17043209  1
  I  I118  1  0.33813616  0.16945162  0.49685818  1
  I  I119  1  0.33344694  0.16715098  0.83406553  1
  I  I120  1  0.33829695  0.50029184  0.16416295  1
  I  I121  1  0.33833102  0.49772894  0.50119006  1
  I  I122  1  0.33534652  0.50455442  0.83380403  1
  I  I123  1  0.33715595  0.83361741  0.16276723  1
  I  I124  1  0.33356790  0.83311138  0.50076345  1
  I  I125  1  0.33864850  0.82920108  0.83843703  1
  I  I126  1  0.66599746  0.16578848  0.16621545  1
  I  I127  1  0.66331088  0.17018254  0.49457208  1
  I  I128  1  0.66921038  0.17156689  0.83889167  1
  I  I129  1  0.66277359  0.49610205  0.16359348  1
  I  I130  1  0.66267236  0.49662332  0.50193436  1
  I  I131  1  0.66532298  0.50027388  0.83376374  1
  I  I132  1  0.66555776  0.83786622  0.16605550  1
  I  I133  1  0.66846539  0.83353557  0.49876569  1
  I  I134  1  0.66378174  0.82735259  0.83500607  1
