# generated using pymatgen
data_Cs27Sn14Pb13I81
_symmetry_space_group_name_H-M   'P 1'
_cell_length_a   18.97340070
_cell_length_b   18.97256864
_cell_length_c   18.97810799
_cell_angle_alpha   90.00190344
_cell_angle_beta   89.99917273
_cell_angle_gamma   90.00197093
_symmetry_Int_Tables_number   1
_chemical_formula_structural   Cs27Sn14Pb13I81
_chemical_formula_sum   'Cs27 Sn14 Pb13 I81'
_cell_volume   6831.62822811
_cell_formula_units_Z   1
loop_
 _symmetry_equiv_pos_site_id
 _symmetry_equiv_pos_as_xyz
  1  'x, y, z'
loop_
 _atom_site_type_symbol
 _atom_site_label
 _atom_site_symmetry_multiplicity
 _atom_site_fract_x
 _atom_site_fract_y
 _atom_site_fract_z
 _atom_site_occupancy
  Cs  Cs0  1  0.00002508  0.00354361  -0.00470606  1
  Cs  Cs1  1  0.00241277  0.00157832  0.33539875  1
  Cs  Cs2  1  -0.00199028  -0.00108460  0.66641987  1
  Cs  Cs3  1  0.00338129  0.32807935  -0.00133737  1
  Cs  Cs4  1  -0.00148384  0.33194656  0.33257166  1
  Cs  Cs5  1  -0.00068518  0.33592386  0.66926526  1
  Cs  Cs6  1  -0.00370875  0.66829712  0.00431929  1
  Cs  Cs7  1  0.00045597  0.66559497  0.33385700  1
  Cs  Cs8  1  0.00057150  0.66683227  0.66513577  1
  Cs  Cs9  1  0.33269674  0.00111493  0.00049639  1
  Cs  Cs10  1  0.33233460  -0.00036327  0.33331399  1
  Cs  Cs11  1  0.33714628  -0.00287223  0.66503977  1
  Cs  Cs12  1  0.32974259  0.33205722  -0.00439669  1
  Cs  Cs13  1  0.33483806  0.33241499  0.33770777  1
  Cs  Cs14  1  0.33626216  0.34504785  0.66711115  1
  Cs  Cs15  1  0.33612245  0.66604627  -0.00100946  1
  Cs  Cs16  1  0.33163753  0.66682564  0.33200297  1
  Cs  Cs17  1  0.33193702  0.66454736  0.66804798  1
  Cs  Cs18  1  0.66665224  -0.00116977  -0.00217890  1
  Cs  Cs19  1  0.66483472  0.00240285  0.33406412  1
  Cs  Cs20  1  0.66605426  0.00067826  0.66700316  1
  Cs  Cs21  1  0.66577751  0.33525638  0.00138591  1
  Cs  Cs22  1  0.66638526  0.33173375  0.33347649  1
  Cs  Cs23  1  0.66512731  0.33368870  0.66559742  1
  Cs  Cs24  1  0.66766627  0.66488941  0.01060554  1
  Cs  Cs25  1  0.66828155  0.66580690  0.32243254  1
  Cs  Cs26  1  0.66838766  0.66709338  0.66778906  1
  Sn  Sn27  1  0.83261474  0.16608661  0.16702309  1
  Sn  Sn28  1  0.16704899  0.83354984  0.83316865  1
  Sn  Sn29  1  0.83292769  0.83320149  0.49980388  1
  Sn  Sn30  1  0.16629333  0.16645628  0.50078927  1
  Sn  Sn31  1  0.49992125  0.16621061  0.83383424  1
  Sn  Sn32  1  0.50005813  0.83309742  0.50029719  1
  Sn  Sn33  1  0.50052399  0.16623094  0.16563147  1
  Sn  Sn34  1  0.83320519  0.50024111  0.83317739  1
  Sn  Sn35  1  0.83325310  0.50006394  0.50053961  1
  Sn  Sn36  1  0.16650629  0.83273528  0.16651500  1
  Sn  Sn37  1  0.49961998  0.83387071  0.83281173  1
  Sn  Sn38  1  0.16674844  0.50041622  0.16676563  1
  Sn  Sn39  1  0.16690256  0.83396900  0.50030115  1
  Sn  Sn40  1  0.83422694  0.16670586  0.49962039  1
  Pb  Pb41  1  0.50229388  0.50105923  0.83345298  1
  Pb  Pb42  1  0.16685014  0.16626365  0.16832605  1
  Pb  Pb43  1  0.83520206  0.49741579  0.16697937  1
  Pb  Pb44  1  0.83275874  0.83156134  0.83160613  1
  Pb  Pb45  1  0.49992738  0.16522694  0.50044901  1
  Pb  Pb46  1  0.83592079  0.83628114  0.16925562  1
  Pb  Pb47  1  0.83132748  0.16831252  0.83264633  1
  Pb  Pb48  1  0.49696914  0.49670965  0.16664083  1
  Pb  Pb49  1  0.49792637  0.83519385  0.16643992  1
  Pb  Pb50  1  0.16474032  0.50024302  0.49865965  1
  Pb  Pb51  1  0.16929238  0.16466460  0.82957001  1
  Pb  Pb52  1  0.16435408  0.50303414  0.83565618  1
  Pb  Pb53  1  0.50316557  0.50402422  0.49969332  1
  I  I54  1  0.16704835  -0.00267265  0.16704338  1
  I  I55  1  0.16185081  -0.00159663  0.49705708  1
  I  I56  1  0.16603885  -0.00364438  0.83844694  1
  I  I57  1  0.16544739  0.33483999  0.16950908  1
  I  I58  1  0.16226128  0.33077498  0.49571396  1
  I  I59  1  0.16755813  0.33332543  0.83433750  1
  I  I60  1  0.16578507  0.66829254  0.16989955  1
  I  I61  1  0.16584174  0.67026991  0.50120883  1
  I  I62  1  0.17305320  0.67110292  0.82654747  1
  I  I63  1  0.50148783  0.00300303  0.16657439  1
  I  I64  1  0.50317284  -0.00301373  0.50101504  1
  I  I65  1  0.49753056  -0.00094130  0.83286801  1
  I  I66  1  0.50255776  0.32873355  0.16213271  1
  I  I67  1  0.49890615  0.33334094  0.50010165  1
  I  I68  1  0.50225219  0.33079787  0.83731251  1
  I  I69  1  0.50149275  0.66691104  0.16643889  1
  I  I70  1  0.49620867  0.67216278  0.50715561  1
  I  I71  1  0.49559641  0.67045957  0.82713419  1
  I  I72  1  0.83163651  0.00394592  0.17167663  1
  I  I73  1  0.83486235  -0.00009963  0.49534628  1
  I  I74  1  0.83489416  -0.00011829  0.83323997  1
  I  I75  1  0.83234416  0.32984034  0.17306834  1
  I  I76  1  0.83875966  0.33224962  0.49931123  1
  I  I77  1  0.83191096  0.33596891  0.82747845  1
  I  I78  1  0.83274849  0.66686942  0.16732492  1
  I  I79  1  0.83445183  0.66743557  0.50610812  1
  I  I80  1  0.83340019  0.66396126  0.82675455  1
  I  I81  1  0.16409334  0.16594844  -0.00028287  1
  I  I82  1  0.16696126  0.16082749  0.33621496  1
  I  I83  1  0.15975983  0.16087953  0.66192716  1
  I  I84  1  0.16374945  0.50345277  0.00330095  1
  I  I85  1  0.16380550  0.50552029  0.33099773  1
  I  I86  1  0.16705171  0.49961425  0.66673003  1
  I  I87  1  0.17218050  0.82852277  -0.00018207  1
  I  I88  1  0.16626873  0.83360144  0.33463933  1
  I  I89  1  0.16689197  0.83853023  0.66549317  1
  I  I90  1  0.50529863  0.16042228  0.00002287  1
  I  I91  1  0.50092719  0.16514339  0.33173559  1
  I  I92  1  0.50062888  0.16268460  0.66886762  1
  I  I93  1  0.50433979  0.50482493  0.00005478  1
  I  I94  1  0.50223450  0.49944446  0.33328262  1
  I  I95  1  0.49768119  0.49405364  0.66649960  1
  I  I96  1  0.49473139  0.83589946  -0.00276785  1
  I  I97  1  0.49949674  0.83543497  0.33602364  1
  I  I98  1  0.49576931  0.84019132  0.66651572  1
  I  I99  1  0.83202684  0.16951638  0.00218649  1
  I  I100  1  0.83133029  0.16820770  0.33480887  1
  I  I101  1  0.83570084  0.16427190  0.66317638  1
  I  I102  1  0.83444786  0.49926794  -0.00188105  1
  I  I103  1  0.83527419  0.50207558  0.33622413  1
  I  I104  1  0.83439516  0.49819832  0.66500170  1
  I  I105  1  0.83392090  0.83203661  0.00026616  1
  I  I106  1  0.83226401  0.82814927  0.33775112  1
  I  I107  1  0.83754343  0.83816671  0.66296473  1
  I  I108  1  -0.00204238  0.16717035  0.17073786  1
  I  I109  1  -0.00107721  0.16139815  0.49342719  1
  I  I110  1  0.00012309  0.16631386  0.83631156  1
  I  I111  1  0.00265409  0.50319556  0.16778079  1
  I  I112  1  -0.00335553  0.50404157  0.50240905  1
  I  I113  1  -0.00312200  0.50025834  0.82795999  1
  I  I114  1  0.00395009  0.83144221  0.16635675  1
  I  I115  1  0.00035400  0.83419815  0.49966527  1
  I  I116  1  0.00257186  0.83113234  0.83218539  1
  I  I117  1  0.33547552  0.16574824  0.16486360  1
  I  I118  1  0.33100906  0.16005274  0.49776862  1
  I  I119  1  0.33694590  0.16490652  0.83994672  1
  I  I120  1  0.32937776  0.50409899  0.16739120  1
  I  I121  1  0.33325449  0.49799218  0.49852949  1
  I  I122  1  0.33320806  0.49771919  0.83478597  1
  I  I123  1  0.32991993  0.83288785  0.17234020  1
  I  I124  1  0.33229395  0.83986597  0.49975250  1
  I  I125  1  0.33327782  0.83705526  0.82827412  1
  I  I126  1  0.66708982  0.16682499  0.17035561  1
  I  I127  1  0.66946739  0.16552015  0.49870359  1
  I  I128  1  0.66355498  0.15960410  0.83250831  1
  I  I129  1  0.66693896  0.50101159  0.16663184  1
  I  I130  1  0.67138831  0.49666975  0.50335592  1
  I  I131  1  0.67000813  0.50107067  0.82821811  1
  I  I132  1  0.66683150  0.83237992  0.16680832  1
  I  I133  1  0.66690788  0.83489839  0.50649045  1
  I  I134  1  0.66368103  0.83672187  0.82699740  1
