# generated using pymatgen
data_Cs27Sn13Pb14I81
_symmetry_space_group_name_H-M   'P 1'
_cell_length_a   18.99232936
_cell_length_b   18.98713510
_cell_length_c   18.99232943
_cell_angle_alpha   89.99729192
_cell_angle_beta   89.99919801
_cell_angle_gamma   90.00270812
_symmetry_Int_Tables_number   1
_chemical_formula_structural   Cs27Sn13Pb14I81
_chemical_formula_sum   'Cs27 Sn13 Pb14 I81'
_cell_volume   6848.82244347
_cell_formula_units_Z   1
loop_
 _symmetry_equiv_pos_site_id
 _symmetry_equiv_pos_as_xyz
  1  'x, y, z'
loop_
 _atom_site_type_symbol
 _atom_site_label
 _atom_site_symmetry_multiplicity
 _atom_site_fract_x
 _atom_site_fract_y
 _atom_site_fract_z
 _atom_site_occupancy
  Cs  Cs0  1  -0.00061649  -0.00069049  -0.00074007  1
  Cs  Cs1  1  0.00790174  0.00239970  0.33112985  1
  Cs  Cs2  1  -0.00203021  0.00130904  0.66869681  1
  Cs  Cs3  1  -0.00002687  0.33040481  -0.00046602  1
  Cs  Cs4  1  -0.00127809  0.33460147  0.33018738  1
  Cs  Cs5  1  -0.00064821  0.33354115  0.66731485  1
  Cs  Cs6  1  0.00217142  0.66892667  -0.00340965  1
  Cs  Cs7  1  0.00217911  0.66400014  0.33359832  1
  Cs  Cs8  1  -0.00182479  0.66531761  0.66849156  1
  Cs  Cs9  1  0.33224061  -0.00037740  0.00187653  1
  Cs  Cs10  1  0.32443235  0.00665634  0.34223439  1
  Cs  Cs11  1  0.33553657  0.00239978  0.65876489  1
  Cs  Cs12  1  0.34492917  0.33763484  -0.00099600  1
  Cs  Cs13  1  0.33295374  0.32774224  0.33371297  1
  Cs  Cs14  1  0.33647931  0.33460140  0.66794487  1
  Cs  Cs15  1  0.33339926  0.66419838  -0.00064884  1
  Cs  Cs16  1  0.32987004  0.66814551  0.33679668  1
  Cs  Cs17  1  0.33306845  0.66400011  0.66448748  1
  Cs  Cs18  1  0.66795102  -0.00321229  -0.00128444  1
  Cs  Cs19  1  0.66479010  -0.00037756  0.33442603  1
  Cs  Cs20  1  0.66740685  -0.00069054  0.66728314  1
  Cs  Cs21  1  0.65772343  0.33300001  0.00894327  1
  Cs  Cs22  1  0.66766260  0.33763486  0.32173732  1
  Cs  Cs23  1  0.66713278  0.33040463  0.66669349  1
  Cs  Cs24  1  0.66514141  0.67015510  0.00152520  1
  Cs  Cs25  1  0.66731539  0.66419839  0.33326763  1
  Cs  Cs26  1  0.67007636  0.66892677  0.66449524  1
  Sn  Sn27  1  0.16728949  0.49986104  0.49937715  1
  Sn  Sn28  1  0.83266417  0.49925582  0.83400252  1
  Sn  Sn29  1  0.83318626  0.16607682  0.50022749  1
  Sn  Sn30  1  0.16643910  0.16607680  0.83348042  1
  Sn  Sn31  1  0.49974043  0.83369511  0.16692621  1
  Sn  Sn32  1  0.83366459  0.16702067  0.83300207  1
  Sn  Sn33  1  0.16651882  0.49997598  0.16694400  1
  Sn  Sn34  1  0.83312486  0.83328652  0.16711057  1
  Sn  Sn35  1  0.16722300  0.83430381  0.83280140  1
  Sn  Sn36  1  0.83386530  0.83430378  0.49944368  1
  Sn  Sn37  1  0.83337203  0.83342192  0.83329467  1
  Sn  Sn38  1  0.49955605  0.83328652  0.83354178  1
  Sn  Sn39  1  0.49972264  0.49997593  0.50014782  1
  Pb  Pb40  1  0.49978965  0.16275675  0.16687699  1
  Pb  Pb41  1  0.83337625  0.49945627  0.50135409  1
  Pb  Pb42  1  0.49755040  0.50286779  0.16911623  1
  Pb  Pb43  1  0.16531259  0.49945634  0.83329036  1
  Pb  Pb44  1  0.50200500  0.83218977  0.49960350  1
  Pb  Pb45  1  0.50311390  0.50261867  0.83157466  1
  Pb  Pb46  1  0.50343677  0.16956103  0.49997602  1
  Pb  Pb47  1  0.50042283  0.16379671  0.83333700  1
  Pb  Pb48  1  0.16706320  0.83218972  0.16466165  1
  Pb  Pb49  1  0.16669064  0.16956104  0.16322993  1
  Pb  Pb50  1  0.83332964  0.16379674  0.16624386  1
  Pb  Pb51  1  0.16386443  0.83173155  0.50280221  1
  Pb  Pb52  1  0.83509194  0.50261868  0.16355275  1
  Pb  Pb53  1  0.16408417  0.16947168  0.50258250  1
  I  I54  1  0.16655614  -0.00004467  0.16693625  1
  I  I55  1  0.16805357  0.00014856  0.49861302  1
  I  I56  1  0.15966208  -0.00109999  0.83460604  1
  I  I57  1  0.16432306  0.33728848  0.17014165  1
  I  I58  1  0.16764257  0.33712285  0.49902409  1
  I  I59  1  0.15826906  0.33090876  0.83237639  1
  I  I60  1  0.16531115  0.66435785  0.16752849  1
  I  I61  1  0.16700051  0.66392829  0.49966608  1
  I  I62  1  0.16365127  0.66920851  0.83350973  1
  I  I63  1  0.50616799  -0.00526435  0.16049856  1
  I  I64  1  0.49973044  -0.00004469  0.50011075  1
  I  I65  1  0.50587380  -0.00436772  0.83614901  1
  I  I66  1  0.49962206  0.33376914  0.16704455  1
  I  I67  1  0.49652503  0.33728847  0.50234323  1
  I  I68  1  0.49968285  0.33346225  0.83223927  1
  I  I69  1  0.50556800  0.67025212  0.16109887  1
  I  I70  1  0.49913806  0.66435787  0.50135563  1
  I  I71  1  0.50013186  0.67064639  0.83665958  1
  I  I72  1  0.83051759  -0.00436766  0.16079287  1
  I  I73  1  0.83206057  -0.00109999  0.50700492  1
  I  I74  1  0.83407502  -0.00148579  0.83259141  1
  I  I75  1  0.83442771  0.33346225  0.16698370  1
  I  I76  1  0.83429027  0.33090876  0.50839769  1
  I  I77  1  0.84159045  0.33237672  0.82507625  1
  I  I78  1  0.83000688  0.67064639  0.16653496  1
  I  I79  1  0.83315703  0.66920852  0.50301498  1
  I  I80  1  0.83458386  0.66866411  0.83208300  1
  I  I81  1  0.15710443  0.16324394  -0.00456983  1
  I  I82  1  0.16556595  0.16572559  0.33351467  1
  I  I83  1  0.16300069  0.16373435  0.67025960  1
  I  I84  1  0.16243742  0.50202512  0.00147504  1
  I  I85  1  0.16862706  0.50326346  0.33406370  1
  I  I86  1  0.16821472  0.50113564  0.66471127  1
  I  I87  1  0.16072475  0.83321892  -0.00356876  1
  I  I88  1  0.16592699  0.83232422  0.33360707  1
  I  I89  1  0.16599331  0.83349838  0.67095643  1
  I  I90  1  0.50186288  0.17134380  -0.00025019  1
  I  I91  1  0.50192043  0.16471665  0.33362412  1
  I  I92  1  0.49853119  0.16452348  0.66672792  1
  I  I93  1  0.49895518  0.49887123  0.00011583  1
  I  I94  1  0.50197121  0.50329662  0.33657643  1
  I  I95  1  0.49288779  0.50305825  0.66418456  1
  I  I96  1  0.50650513  0.83243142  -0.00116184  1
  I  I97  1  0.50793940  0.82937615  0.33071952  1
  I  I98  1  0.50217760  0.83154887  0.66939046  1
  I  I99  1  0.83823097  0.16523204  -0.00366532  1
  I  I100  1  0.83235907  0.16289050  0.33620759  1
  I  I101  1  0.83678930  0.16166405  0.66821488  1
  I  I102  1  0.83694038  0.50088126  -0.00442781  1
  I  I103  1  0.83212273  0.50057035  0.33314094  1
  I  I104  1  0.83622099  0.50619767  0.66928032  1
  I  I105  1  0.83285691  0.83247415  -0.00185424  1
  I  I106  1  0.82690133  0.83605037  0.33347576  1
  I  I107  1  0.83325467  0.83285588  0.66832880  1
  I  I108  1  -0.00006123  0.16452308  0.16813526  1
  I  I109  1  -0.00359295  0.16373439  0.50366612  1
  I  I110  1  -0.00154815  0.16166387  0.82987738  1
  I  I111  1  0.00248209  0.50305853  0.17377862  1
  I  I112  1  0.00195543  0.50113560  0.49845249  1
  I  I113  1  -0.00261366  0.50619742  0.83044533  1
  I  I114  1  -0.00272379  0.83154889  0.16448924  1
  I  I115  1  -0.00428975  0.83349837  0.50067397  1
  I  I116  1  -0.00166217  0.83285613  0.83341133  1
  I  I117  1  0.33304256  0.16471683  0.16474646  1
  I  I118  1  0.33315200  0.16572553  0.50110051  1
  I  I119  1  0.33045909  0.16289053  0.83430761  1
  I  I120  1  0.33009022  0.50329640  0.16469575  1
  I  I121  1  0.33260299  0.50326349  0.49803913  1
  I  I122  1  0.33352577  0.50057061  0.83454403  1
  I  I123  1  0.33594713  0.82937597  0.15872703  1
  I  I124  1  0.33305958  0.83232426  0.50073960  1
  I  I125  1  0.33319091  0.83605005  0.83976587  1
  I  I126  1  0.66691689  0.17134405  0.16480384  1
  I  I127  1  0.67123648  0.16324394  0.50956241  1
  I  I128  1  0.67033202  0.16523219  0.82843564  1
  I  I129  1  0.66655087  0.49887093  0.16771130  1
  I  I130  1  0.66519165  0.50202533  0.50422931  1
  I  I131  1  0.67109454  0.50088133  0.82972653  1
  I  I132  1  0.66782854  0.83243160  0.16016159  1
  I  I133  1  0.67023540  0.83321872  0.50594130  1
  I  I134  1  0.66852096  0.83247403  0.83381007  1
