# generated using pymatgen
data_Cs27Sn14Pb13I81
_symmetry_space_group_name_H-M   'P 1'
_cell_length_a   18.97151636
_cell_length_b   18.97312791
_cell_length_c   18.98033223
_cell_angle_alpha   89.99943948
_cell_angle_beta   89.99991210
_cell_angle_gamma   90.00393650
_symmetry_Int_Tables_number   1
_chemical_formula_structural   Cs27Sn14Pb13I81
_chemical_formula_sum   'Cs27 Sn14 Pb13 I81'
_cell_volume   6831.95171531
_cell_formula_units_Z   1
loop_
 _symmetry_equiv_pos_site_id
 _symmetry_equiv_pos_as_xyz
  1  'x, y, z'
loop_
 _atom_site_type_symbol
 _atom_site_label
 _atom_site_symmetry_multiplicity
 _atom_site_fract_x
 _atom_site_fract_y
 _atom_site_fract_z
 _atom_site_occupancy
  Cs  Cs0  1  -0.00052730  -0.00388142  0.00226788  1
  Cs  Cs1  1  -0.00017957  -0.00016413  0.33303080  1
  Cs  Cs2  1  0.00119480  0.00457167  0.66429258  1
  Cs  Cs3  1  0.00337209  0.33540599  0.00082950  1
  Cs  Cs4  1  0.00091349  0.33144115  0.33125054  1
  Cs  Cs5  1  0.00602250  0.32330643  0.66763635  1
  Cs  Cs6  1  -0.00122629  0.66728090  -0.00040214  1
  Cs  Cs7  1  -0.00187610  0.66781424  0.33216893  1
  Cs  Cs8  1  -0.00275449  0.66858362  0.66994373  1
  Cs  Cs9  1  0.33708608  -0.00102192  -0.00033250  1
  Cs  Cs10  1  0.33381080  -0.00139976  0.33318926  1
  Cs  Cs11  1  0.33317190  -0.00055729  0.66772901  1
  Cs  Cs12  1  0.33098365  0.33430252  -0.00065026  1
  Cs  Cs13  1  0.33663879  0.33550162  0.33311340  1
  Cs  Cs14  1  0.32497266  0.33352462  0.66643067  1
  Cs  Cs15  1  0.33171213  0.66671557  -0.00016403  1
  Cs  Cs16  1  0.33488285  0.66598575  0.34443258  1
  Cs  Cs17  1  0.33380096  0.66659578  0.65389590  1
  Cs  Cs18  1  0.66351892  -0.00021171  -0.00002637  1
  Cs  Cs19  1  0.66695670  0.00233892  0.33041735  1
  Cs  Cs20  1  0.66620042  0.00463958  0.67325131  1
  Cs  Cs21  1  0.66656473  0.33507560  0.00128990  1
  Cs  Cs22  1  0.66576214  0.33287407  0.33243375  1
  Cs  Cs23  1  0.66744765  0.33338537  0.66744816  1
  Cs  Cs24  1  0.66839256  0.66596651  -0.00038333  1
  Cs  Cs25  1  0.66742772  0.66551642  0.33414354  1
  Cs  Cs26  1  0.66772893  0.66445010  0.66681060  1
  Sn  Sn27  1  0.83358794  0.49996266  0.50026720  1
  Sn  Sn28  1  0.50061963  0.49978023  0.16577946  1
  Sn  Sn29  1  0.50026542  0.16669642  0.49957831  1
  Sn  Sn30  1  0.50030445  0.50032020  0.83399438  1
  Sn  Sn31  1  0.83365009  0.83332392  0.16659637  1
  Sn  Sn32  1  0.16706308  0.16581633  0.16651477  1
  Sn  Sn33  1  0.16625209  0.83363811  0.16596301  1
  Sn  Sn34  1  0.16608260  0.83271397  0.83410298  1
  Sn  Sn35  1  0.83336056  0.16676392  0.16630679  1
  Sn  Sn36  1  0.49975856  0.16752648  0.16731467  1
  Sn  Sn37  1  0.83265167  0.49993090  0.16664534  1
  Sn  Sn38  1  0.83298049  0.50018373  0.83315586  1
  Sn  Sn39  1  0.83294999  0.83320266  0.50013768  1
  Sn  Sn40  1  0.83387583  0.83289994  0.83336019  1
  Pb  Pb41  1  0.49989564  0.16965637  0.83387924  1
  Pb  Pb42  1  0.49975977  0.83251015  0.16676590  1
  Pb  Pb43  1  0.16395098  0.83341799  0.49971258  1
  Pb  Pb44  1  0.16698294  0.50098327  0.16691141  1
  Pb  Pb45  1  0.83340782  0.16682532  0.83624980  1
  Pb  Pb46  1  0.16955223  0.16641843  0.49689533  1
  Pb  Pb47  1  0.50352456  0.83624547  0.50013324  1
  Pb  Pb48  1  0.50000559  0.83030012  0.83330055  1
  Pb  Pb49  1  0.16668732  0.16348155  0.83628028  1
  Pb  Pb50  1  0.16265634  0.49991631  0.50001312  1
  Pb  Pb51  1  0.16634962  0.50278692  0.83334416  1
  Pb  Pb52  1  0.83183417  0.16673132  0.49779786  1
  Pb  Pb53  1  0.50226815  0.49802811  0.50010125  1
  I  I54  1  0.16265646  -0.00027740  0.16336475  1
  I  I55  1  0.16407478  -0.00008906  0.50185329  1
  I  I56  1  0.15899503  -0.00436965  0.83479992  1
  I  I57  1  0.16353351  0.33080604  0.16817977  1
  I  I58  1  0.16381489  0.33298607  0.49905748  1
  I  I59  1  0.16629463  0.33346325  0.83363358  1
  I  I60  1  0.16142361  0.67010716  0.16198852  1
  I  I61  1  0.17213928  0.66695367  0.49621700  1
  I  I62  1  0.16328697  0.67052049  0.84294637  1
  I  I63  1  0.50290576  0.00279785  0.17054841  1
  I  I64  1  0.50167806  0.00379282  0.49085157  1
  I  I65  1  0.50070805  -0.00006805  0.83352478  1
  I  I66  1  0.50393666  0.33330659  0.16702518  1
  I  I67  1  0.50411996  0.33060687  0.49563450  1
  I  I68  1  0.50881434  0.33743667  0.83586353  1
  I  I69  1  0.50470188  0.66326525  0.16209815  1
  I  I70  1  0.49787353  0.66634103  0.49910114  1
  I  I71  1  0.50347603  0.66250679  0.84130054  1
  I  I72  1  0.83360222  -0.00050374  0.16739157  1
  I  I73  1  0.83236871  -0.00278239  0.49927396  1
  I  I74  1  0.83741954  -0.00340811  0.83268157  1
  I  I75  1  0.83258045  0.33390434  0.16735389  1
  I  I76  1  0.83042225  0.33613033  0.49908725  1
  I  I77  1  0.82772703  0.33680273  0.83334595  1
  I  I78  1  0.83353917  0.66663475  0.16671723  1
  I  I79  1  0.83276390  0.66664470  0.49494959  1
  I  I80  1  0.83324995  0.66672818  0.83765302  1
  I  I81  1  0.16823996  0.16624791  0.00453374  1
  I  I82  1  0.16256528  0.15988492  0.32859387  1
  I  I83  1  0.16838994  0.16630606  0.66668033  1
  I  I84  1  0.16344534  0.49734621  0.00030070  1
  I  I85  1  0.16763443  0.50227630  0.33294255  1
  I  I86  1  0.16949055  0.50214262  0.66687632  1
  I  I87  1  0.15725458  0.83711964  0.00118029  1
  I  I88  1  0.16209950  0.83749341  0.32984396  1
  I  I89  1  0.16235656  0.83088459  0.66956311  1
  I  I90  1  0.50082766  0.16797144  0.00390401  1
  I  I91  1  0.50080903  0.17254008  0.33055288  1
  I  I92  1  0.50305411  0.16646093  0.66430968  1
  I  I93  1  0.50904566  0.49447717  0.00140245  1
  I  I94  1  0.50419361  0.49757857  0.33033860  1
  I  I95  1  0.50558067  0.50004935  0.66914839  1
  I  I96  1  0.50393000  0.83814455  0.00021775  1
  I  I97  1  0.49956522  0.82866297  0.33317011  1
  I  I98  1  0.49908313  0.83394851  0.66673295  1
  I  I99  1  0.83011599  0.16629170  0.00489126  1
  I  I100  1  0.83484627  0.16629788  0.32913514  1
  I  I101  1  0.83038518  0.16642457  0.66665306  1
  I  I102  1  0.82921727  0.50254683  0.00077395  1
  I  I103  1  0.82972929  0.50295743  0.33191188  1
  I  I104  1  0.82789860  0.50957383  0.66741064  1
  I  I105  1  0.83740687  0.83089423  0.00073642  1
  I  I106  1  0.83645685  0.83082563  0.33192305  1
  I  I107  1  0.83621383  0.82495233  0.66741887  1
  I  I108  1  -0.00083649  0.16636993  0.16570046  1
  I  I109  1  -0.00013279  0.16713584  0.49904583  1
  I  I110  1  -0.00010352  0.17276323  0.83343646  1
  I  I111  1  -0.00362489  0.49761622  0.16589133  1
  I  I112  1  -0.00573059  0.50418520  0.49757770  1
  I  I113  1  -0.00382995  0.50284451  0.83576835  1
  I  I114  1  -0.00181713  0.83626907  0.16646660  1
  I  I115  1  -0.00433000  0.82982067  0.49844426  1
  I  I116  1  -0.00201770  0.82702848  0.83555369  1
  I  I117  1  0.33388037  0.16641704  0.17027209  1
  I  I118  1  0.33730344  0.16820015  0.49382095  1
  I  I119  1  0.33335732  0.16670911  0.83541127  1
  I  I120  1  0.33661104  0.49575439  0.16141462  1
  I  I121  1  0.33375387  0.49920637  0.49954789  1
  I  I122  1  0.33623134  0.49907025  0.84064778  1
  I  I123  1  0.33021594  0.83749531  0.16064881  1
  I  I124  1  0.33336569  0.83377117  0.49977898  1
  I  I125  1  0.33031675  0.83420112  0.84106746  1
  I  I126  1  0.66691945  0.16708786  0.17057113  1
  I  I127  1  0.66423756  0.16646803  0.49148630  1
  I  I128  1  0.66673687  0.16061265  0.83592904  1
  I  I129  1  0.66820205  0.49716031  0.16623254  1
  I  I130  1  0.67034316  0.50411031  0.49868309  1
  I  I131  1  0.66848587  0.50551832  0.83514355  1
  I  I132  1  0.67024294  0.83557966  0.16572377  1
  I  I133  1  0.67160454  0.82804265  0.49792345  1
  I  I134  1  0.67039658  0.83192434  0.83507529  1
