# generated using pymatgen
data_Cs27Sn14Pb13I81
_symmetry_space_group_name_H-M   'P 1'
_cell_length_a   18.98403216
_cell_length_b   18.96138326
_cell_length_c   18.98531239
_cell_angle_alpha   89.99833356
_cell_angle_beta   89.99994522
_cell_angle_gamma   89.99906747
_symmetry_Int_Tables_number   1
_chemical_formula_structural   Cs27Sn14Pb13I81
_chemical_formula_sum   'Cs27 Sn14 Pb13 I81'
_cell_volume   6834.01967808
_cell_formula_units_Z   1
loop_
 _symmetry_equiv_pos_site_id
 _symmetry_equiv_pos_as_xyz
  1  'x, y, z'
loop_
 _atom_site_type_symbol
 _atom_site_label
 _atom_site_symmetry_multiplicity
 _atom_site_fract_x
 _atom_site_fract_y
 _atom_site_fract_z
 _atom_site_occupancy
  Cs  Cs0  1  -0.00127125  -0.00122007  0.00083797  1
  Cs  Cs1  1  0.00704557  -0.00092873  0.33426759  1
  Cs  Cs2  1  -0.00125052  -0.00279551  0.66351759  1
  Cs  Cs3  1  -0.00320934  0.33411880  -0.00328663  1
  Cs  Cs4  1  -0.00078783  0.33420306  0.33439962  1
  Cs  Cs5  1  -0.00022712  0.33261736  0.66750569  1
  Cs  Cs6  1  0.00246902  0.66685795  -0.00174160  1
  Cs  Cs7  1  -0.00196973  0.66447785  0.33265902  1
  Cs  Cs8  1  0.00125776  0.67231743  0.66951885  1
  Cs  Cs9  1  0.33435863  -0.00563099  0.01139830  1
  Cs  Cs10  1  0.32389182  -0.00667763  0.32389092  1
  Cs  Cs11  1  0.33275655  -0.00398158  0.66321428  1
  Cs  Cs12  1  0.33481096  0.33305258  -0.00226680  1
  Cs  Cs13  1  0.33322615  0.33285078  0.33435037  1
  Cs  Cs14  1  0.33576992  0.33482675  0.66685598  1
  Cs  Cs15  1  0.32939602  0.67061494  -0.00193381  1
  Cs  Cs16  1  0.33443889  0.66760534  0.33319885  1
  Cs  Cs17  1  0.33288061  0.66848639  0.66975975  1
  Cs  Cs18  1  0.66574704  0.00026133  -0.00011472  1
  Cs  Cs19  1  0.66534495  -0.00158718  0.33225887  1
  Cs  Cs20  1  0.66859800  -0.00082146  0.66839186  1
  Cs  Cs21  1  0.66749767  0.33266756  -0.00107024  1
  Cs  Cs22  1  0.66717960  0.33522130  0.33528145  1
  Cs  Cs23  1  0.66504660  0.33216418  0.66632009  1
  Cs  Cs24  1  0.66757199  0.66621075  -0.00014431  1
  Cs  Cs25  1  0.66724623  0.66372186  0.33557993  1
  Cs  Cs26  1  0.66611334  0.67094624  0.66506110  1
  Sn  Sn27  1  0.50021845  0.16675070  0.50016200  1
  Sn  Sn28  1  0.50108042  0.49946979  0.83323875  1
  Sn  Sn29  1  0.83326309  0.16580096  0.16723065  1
  Sn  Sn30  1  0.83254036  0.16757003  0.49986112  1
  Sn  Sn31  1  0.83234412  0.49933438  0.83187873  1
  Sn  Sn32  1  0.83285582  0.83445435  0.16691927  1
  Sn  Sn33  1  0.49957344  0.16699796  0.83263066  1
  Sn  Sn34  1  0.16739926  0.16671738  0.83329209  1
  Sn  Sn35  1  0.49888507  0.49943011  0.16632152  1
  Sn  Sn36  1  0.83350864  0.49913478  0.50174942  1
  Sn  Sn37  1  0.49986595  0.49926011  0.50039588  1
  Sn  Sn38  1  0.16771414  0.49894553  0.16715674  1
  Sn  Sn39  1  0.16668448  0.49936909  0.49958455  1
  Sn  Sn40  1  0.83332028  0.16761716  0.83291545  1
  Pb  Pb41  1  0.16406743  0.16933433  0.16446873  1
  Pb  Pb42  1  0.16677874  0.49873024  0.83291138  1
  Pb  Pb43  1  0.50016718  0.83447813  0.49990221  1
  Pb  Pb44  1  0.83312554  0.83341150  0.83516031  1
  Pb  Pb45  1  0.16724643  0.16853903  0.50173013  1
  Pb  Pb46  1  0.16665936  0.82989658  0.50010158  1
  Pb  Pb47  1  0.50183172  0.16860130  0.16722000  1
  Pb  Pb48  1  0.16669321  0.83764263  0.83336977  1
  Pb  Pb49  1  0.50250006  0.83000684  0.16676480  1
  Pb  Pb50  1  0.50019763  0.83408421  0.83323948  1
  Pb  Pb51  1  0.83313612  0.49924028  0.16642400  1
  Pb  Pb52  1  0.16395188  0.83005238  0.16668545  1
  Pb  Pb53  1  0.83313997  0.83375224  0.49787155  1
  I  I54  1  0.16767345  0.00018716  0.16480689  1
  I  I55  1  0.16586309  0.00047108  0.50219016  1
  I  I56  1  0.16391795  0.00570029  0.83238617  1
  I  I57  1  0.16763095  0.33710099  0.17119106  1
  I  I58  1  0.16578900  0.33692284  0.49594219  1
  I  I59  1  0.16466374  0.33098564  0.83395308  1
  I  I60  1  0.16799390  0.66205558  0.16933049  1
  I  I61  1  0.16595408  0.66095275  0.49679090  1
  I  I62  1  0.16578937  0.66637734  0.83396451  1
  I  I63  1  0.49969608  0.00024989  0.16606812  1
  I  I64  1  0.50779368  0.00456222  0.50749439  1
  I  I65  1  0.50268983  0.00460210  0.82781221  1
  I  I66  1  0.49993206  0.33707283  0.16655607  1
  I  I67  1  0.50185151  0.33456798  0.50105820  1
  I  I68  1  0.50191493  0.33379079  0.83276187  1
  I  I69  1  0.49919762  0.66132469  0.16710615  1
  I  I70  1  0.50120167  0.66243319  0.50004634  1
  I  I71  1  0.50484644  0.66255651  0.83259796  1
  I  I72  1  0.83265259  0.00196367  0.16499108  1
  I  I73  1  0.82839591  0.00406693  0.50388353  1
  I  I74  1  0.83276386  0.00406483  0.83090552  1
  I  I75  1  0.83350093  0.33079927  0.16564545  1
  I  I76  1  0.83251370  0.33379466  0.49824895  1
  I  I77  1  0.83274032  0.33278235  0.83581806  1
  I  I78  1  0.83350000  0.66771783  0.16669145  1
  I  I79  1  0.83260202  0.66279293  0.50164242  1
  I  I80  1  0.82920256  0.66297005  0.83115425  1
  I  I81  1  0.16655109  0.17122266  -0.00335956  1
  I  I82  1  0.16583408  0.16601287  0.33335187  1
  I  I83  1  0.16156215  0.17141851  0.66952880  1
  I  I84  1  0.16801419  0.49836216  0.00185569  1
  I  I85  1  0.16799122  0.49933759  0.33389947  1
  I  I86  1  0.16805786  0.49743127  0.66404927  1
  I  I87  1  0.16550489  0.82912448  0.00025154  1
  I  I88  1  0.16571220  0.83723332  0.33310457  1
  I  I89  1  0.16542915  0.82961608  0.66678694  1
  I  I90  1  0.50200589  0.17211911  -0.00288458  1
  I  I91  1  0.50711453  0.17341463  0.33646548  1
  I  I92  1  0.50554603  0.17602529  0.66699832  1
  I  I93  1  0.50173508  0.49559486  -0.00103713  1
  I  I94  1  0.50106470  0.49682603  0.33442763  1
  I  I95  1  0.50038150  0.49580317  0.66654243  1
  I  I96  1  0.50089556  0.83330714  0.00008240  1
  I  I97  1  0.50182395  0.83251675  0.33323308  1
  I  I98  1  0.50049974  0.82802343  0.66660393  1
  I  I99  1  0.83352751  0.16810953  -0.00120771  1
  I  I100  1  0.82815632  0.16904200  0.33453183  1
  I  I101  1  0.83301134  0.17244485  0.66690417  1
  I  I102  1  0.83088497  0.49682973  -0.00244142  1
  I  I103  1  0.83137987  0.49761807  0.33578886  1
  I  I104  1  0.83151796  0.49251673  0.66639903  1
  I  I105  1  0.83344598  0.83568489  0.00293447  1
  I  I106  1  0.83304869  0.83494076  0.33017742  1
  I  I107  1  0.83397514  0.83421703  0.66656269  1
  I  I108  1  -0.00423316  0.16641980  0.16714545  1
  I  I109  1  -0.00308866  0.17129965  0.50067275  1
  I  I110  1  -0.00194813  0.17220263  0.83443248  1
  I  I111  1  0.00147856  0.50012510  0.16975641  1
  I  I112  1  -0.00121611  0.49565536  0.49801180  1
  I  I113  1  -0.00281251  0.49539508  0.83238046  1
  I  I114  1  -0.00355735  0.83565956  0.16623702  1
  I  I115  1  -0.00030164  0.83336600  0.49932007  1
  I  I116  1  -0.00030109  0.83006034  0.83500703  1
  I  I117  1  0.33337325  0.16630942  0.16592681  1
  I  I118  1  0.33665276  0.17327699  0.50677727  1
  I  I119  1  0.33497186  0.17418455  0.82755767  1
  I  I120  1  0.33410700  0.49896143  0.16965721  1
  I  I121  1  0.33458890  0.49587288  0.49906405  1
  I  I122  1  0.33631791  0.49532318  0.83167035  1
  I  I123  1  0.33317855  0.83473599  0.16665347  1
  I  I124  1  0.33342880  0.83442068  0.49902074  1
  I  I125  1  0.33344990  0.82973345  0.83418582  1
  I  I126  1  0.67006516  0.16691581  0.16199270  1
  I  I127  1  0.66741276  0.17532790  0.50413583  1
  I  I128  1  0.66717554  0.17112148  0.83340917  1
  I  I129  1  0.66452061  0.50001251  0.16849603  1
  I  I130  1  0.66672727  0.49675752  0.49877919  1
  I  I131  1  0.66673130  0.49293093  0.83284737  1
  I  I132  1  0.67007840  0.83567366  0.16602886  1
  I  I133  1  0.66679294  0.82702484  0.49840536  1
  I  I134  1  0.66678408  0.83537268  0.83494549  1
