# generated using pymatgen
data_Cs27Sn13Pb14I81
_symmetry_space_group_name_H-M   'P 1'
_cell_length_a   18.98365005
_cell_length_b   19.00717950
_cell_length_c   18.98916884
_cell_angle_alpha   90.00000000
_cell_angle_beta   90.00253024
_cell_angle_gamma   89.99999997
_symmetry_Int_Tables_number   1
_chemical_formula_structural   Cs27Sn13Pb14I81
_chemical_formula_sum   'Cs27 Sn13 Pb14 I81'
_cell_volume   6851.77906875
_cell_formula_units_Z   1
loop_
 _symmetry_equiv_pos_site_id
 _symmetry_equiv_pos_as_xyz
  1  'x, y, z'
loop_
 _atom_site_type_symbol
 _atom_site_label
 _atom_site_symmetry_multiplicity
 _atom_site_fract_x
 _atom_site_fract_y
 _atom_site_fract_z
 _atom_site_occupancy
  Cs  Cs0  1  -0.00238260  0.00275416  -0.00152837  1
  Cs  Cs1  1  0.00030636  0.00017791  0.33583086  1
  Cs  Cs2  1  0.00511466  0.00783812  0.66782704  1
  Cs  Cs3  1  -0.00238273  0.33057911  -0.00152844  1
  Cs  Cs4  1  0.00030610  0.33315543  0.33583086  1
  Cs  Cs5  1  0.00511470  0.32549525  0.66782700  1
  Cs  Cs6  1  -0.00527594  0.66666666  0.00328259  1
  Cs  Cs7  1  -0.00076044  0.66666666  0.33210125  1
  Cs  Cs8  1  0.00074692  0.66666664  0.66543638  1
  Cs  Cs9  1  0.33338037  -0.00198619  0.00209159  1
  Cs  Cs10  1  0.33536037  -0.00159938  0.33102671  1
  Cs  Cs11  1  0.32931058  -0.00280908  0.66940294  1
  Cs  Cs12  1  0.33338040  0.33531957  0.00209146  1
  Cs  Cs13  1  0.33536041  0.33493280  0.33102665  1
  Cs  Cs14  1  0.32931066  0.33614240  0.66940313  1
  Cs  Cs15  1  0.33430199  0.66666669  -0.00393552  1
  Cs  Cs16  1  0.33339529  0.66666656  0.33340623  1
  Cs  Cs17  1  0.32797077  0.66666673  0.67478841  1
  Cs  Cs18  1  0.66767108  0.00349544  0.00136018  1
  Cs  Cs19  1  0.66452486  0.00010946  0.33427594  1
  Cs  Cs20  1  0.66678532  -0.00077790  0.66530372  1
  Cs  Cs21  1  0.66767105  0.32983798  0.00136013  1
  Cs  Cs22  1  0.66452486  0.33322386  0.33427584  1
  Cs  Cs23  1  0.66678528  0.33411140  0.66530375  1
  Cs  Cs24  1  0.66989856  0.66666678  -0.00378472  1
  Cs  Cs25  1  0.66665136  0.66666669  0.33636213  1
  Cs  Cs26  1  0.66589086  0.66666669  0.66707168  1
  Sn  Sn27  1  0.16743172  0.83294273  0.16687635  1
  Sn  Sn28  1  0.49972291  0.16666669  0.50135106  1
  Sn  Sn29  1  0.50014874  0.83261195  0.49991475  1
  Sn  Sn30  1  0.83310775  0.83286004  0.83171547  1
  Sn  Sn31  1  0.16743170  0.50039059  0.16687632  1
  Sn  Sn32  1  0.49962270  0.83181938  0.16712430  1
  Sn  Sn33  1  0.50014875  0.50072134  0.49991477  1
  Sn  Sn34  1  0.16667699  0.16666670  0.16712481  1
  Sn  Sn35  1  0.83310771  0.50047330  0.83171546  1
  Sn  Sn36  1  0.49993125  0.16666666  0.83210758  1
  Sn  Sn37  1  0.49962269  0.50151396  0.16712430  1
  Sn  Sn38  1  0.83275780  0.83258495  0.50122587  1
  Sn  Sn39  1  0.83275778  0.50074838  0.50122586  1
  Pb  Pb40  1  0.16668853  0.50017708  0.49823136  1
  Pb  Pb41  1  0.83639783  0.16666663  0.16709680  1
  Pb  Pb42  1  0.16333868  0.83315251  0.83622926  1
  Pb  Pb43  1  0.17030589  0.16666669  0.49771776  1
  Pb  Pb44  1  0.50181844  0.83492358  0.83327589  1
  Pb  Pb45  1  0.49880886  0.16666665  0.16715192  1
  Pb  Pb46  1  0.16333867  0.50018081  0.83622930  1
  Pb  Pb47  1  0.16668854  0.83315622  0.49823131  1
  Pb  Pb48  1  0.83127996  0.16666668  0.83291535  1
  Pb  Pb49  1  0.50181844  0.49840975  0.83327594  1
  Pb  Pb50  1  0.83251256  0.50002663  0.16745544  1
  Pb  Pb51  1  0.16985626  0.16666666  0.83577128  1
  Pb  Pb52  1  0.83251258  0.83330675  0.16745544  1
  Pb  Pb53  1  0.83126986  0.16666666  0.49995968  1
  I  I54  1  0.17214720  -0.00075688  0.16693249  1
  I  I55  1  0.16520552  -0.00009165  0.49556976  1
  I  I56  1  0.16378258  -0.00004491  0.83676771  1
  I  I57  1  0.17214703  0.33409022  0.16693271  1
  I  I58  1  0.16520551  0.33342497  0.49556930  1
  I  I59  1  0.16378241  0.33337828  0.83676794  1
  I  I60  1  0.17083842  0.66666668  0.16748407  1
  I  I61  1  0.17018719  0.66666666  0.49562693  1
  I  I62  1  0.17128149  0.66666665  0.83637597  1
  I  I63  1  0.49656719  -0.00262263  0.16948236  1
  I  I64  1  0.50462887  -0.00111380  0.49766448  1
  I  I65  1  0.50310603  0.00262368  0.83111038  1
  I  I66  1  0.49656703  0.33595594  0.16948267  1
  I  I67  1  0.50462900  0.33444711  0.49766439  1
  I  I68  1  0.50310615  0.33070968  0.83111008  1
  I  I69  1  0.49189809  0.66666666  0.17442477  1
  I  I70  1  0.50609016  0.66666667  0.49172673  1
  I  I71  1  0.49960375  0.66666666  0.83321563  1
  I  I72  1  0.83201926  -0.00043886  0.16534290  1
  I  I73  1  0.82907118  -0.00345992  0.50218615  1
  I  I74  1  0.83193073  -0.00294672  0.83079272  1
  I  I75  1  0.83201976  0.33377216  0.16534285  1
  I  I76  1  0.82907113  0.33679325  0.50218629  1
  I  I77  1  0.83193085  0.33628008  0.83079267  1
  I  I78  1  0.83918656  0.66666666  0.16501534  1
  I  I79  1  0.82461413  0.66666671  0.50313019  1
  I  I80  1  0.83130353  0.66666665  0.83089928  1
  I  I81  1  0.16956083  0.16666666  0.00383197  1
  I  I82  1  0.16865302  0.16666637  0.32961438  1
  I  I83  1  0.16444197  0.16666683  0.66671375  1
  I  I84  1  0.17326152  0.49992431  0.00464677  1
  I  I85  1  0.16595665  0.50000220  0.32961189  1
  I  I86  1  0.17005504  0.49958330  0.66676806  1
  I  I87  1  0.17326118  0.83340905  0.00464676  1
  I  I88  1  0.16595665  0.83333139  0.32961188  1
  I  I89  1  0.17005527  0.83374982  0.66676808  1
  I  I90  1  0.49901314  0.16666685  -0.00147859  1
  I  I91  1  0.49883312  0.16666656  0.33601982  1
  I  I92  1  0.50292374  0.16666662  0.66526616  1
  I  I93  1  0.49715671  0.50185140  0.00309509  1
  I  I94  1  0.50222241  0.49757139  0.33370519  1
  I  I95  1  0.50360051  0.50185240  0.66331300  1
  I  I96  1  0.49715693  0.83148172  0.00309508  1
  I  I97  1  0.50222248  0.83576210  0.33370517  1
  I  I98  1  0.50360033  0.83148093  0.66331301  1
  I  I99  1  0.82900696  0.16666667  -0.00030551  1
  I  I100  1  0.83027628  0.16666685  0.33372786  1
  I  I101  1  0.83556527  0.16666654  0.66645095  1
  I  I102  1  0.83421019  0.50430342  -0.00214446  1
  I  I103  1  0.83232412  0.50493099  0.33659739  1
  I  I104  1  0.82490870  0.50499462  0.66542069  1
  I  I105  1  0.83421018  0.82902991  -0.00214448  1
  I  I106  1  0.83232406  0.82840224  0.33659740  1
  I  I107  1  0.82490883  0.82833878  0.66542071  1
  I  I108  1  0.00484772  0.16666640  0.16548684  1
  I  I109  1  0.00021113  0.16666672  0.49754253  1
  I  I110  1  0.00008257  0.16666660  0.83666133  1
  I  I111  1  0.00261487  0.50034293  0.16579955  1
  I  I112  1  -0.00345947  0.50577441  0.50083409  1
  I  I113  1  -0.00465707  0.50368191  0.82876386  1
  I  I114  1  0.00261488  0.83299059  0.16579968  1
  I  I115  1  -0.00345948  0.82755889  0.50083400  1
  I  I116  1  -0.00465707  0.82965154  0.82876379  1
  I  I117  1  0.33094453  0.16666664  0.16713300  1
  I  I118  1  0.33854629  0.16666666  0.50333043  1
  I  I119  1  0.33746988  0.16666680  0.82781145  1
  I  I120  1  0.33456630  0.49955770  0.17275193  1
  I  I121  1  0.33710395  0.49960483  0.49588271  1
  I  I122  1  0.33341933  0.49779226  0.83148550  1
  I  I123  1  0.33456636  0.83377566  0.17275175  1
  I  I124  1  0.33710398  0.83372851  0.49588262  1
  I  I125  1  0.33341934  0.83554090  0.83148575  1
  I  I126  1  0.66601414  0.16666689  0.16544029  1
  I  I127  1  0.66284373  0.16666654  0.50092830  1
  I  I128  1  0.66363082  0.16666660  0.83223957  1
  I  I129  1  0.66316053  0.50513477  0.16788098  1
  I  I130  1  0.66557073  0.50011584  0.49669383  1
  I  I131  1  0.66955959  0.50352283  0.83528684  1
  I  I132  1  0.66316051  0.82819833  0.16788103  1
  I  I133  1  0.66557075  0.83321758  0.49669392  1
  I  I134  1  0.66955959  0.82981033  0.83528665  1
