# generated using pymatgen
data_Cs27Sn13Pb14I81
_symmetry_space_group_name_H-M   'P 1'
_cell_length_a   18.98889704
_cell_length_b   18.97156774
_cell_length_c   18.97072989
_cell_angle_alpha   90.00167254
_cell_angle_beta   89.99953329
_cell_angle_gamma   90.00025574
_symmetry_Int_Tables_number   1
_chemical_formula_structural   Cs27Sn13Pb14I81
_chemical_formula_sum   'Cs27 Sn13 Pb14 I81'
_cell_volume   6834.18925100
_cell_formula_units_Z   1
loop_
 _symmetry_equiv_pos_site_id
 _symmetry_equiv_pos_as_xyz
  1  'x, y, z'
loop_
 _atom_site_type_symbol
 _atom_site_label
 _atom_site_symmetry_multiplicity
 _atom_site_fract_x
 _atom_site_fract_y
 _atom_site_fract_z
 _atom_site_occupancy
  Cs  Cs0  1  -0.00301539  0.00011376  0.00166123  1
  Cs  Cs1  1  0.00199974  0.00049233  0.33291397  1
  Cs  Cs2  1  0.00300664  -0.00046152  0.66447028  1
  Cs  Cs3  1  -0.00232327  0.33395932  -0.00012794  1
  Cs  Cs4  1  -0.00202771  0.33244196  0.33325814  1
  Cs  Cs5  1  0.00382252  0.33387917  0.66673920  1
  Cs  Cs6  1  0.00226520  0.66543477  0.00037375  1
  Cs  Cs7  1  -0.00075633  0.66734199  0.33404126  1
  Cs  Cs8  1  -0.00156861  0.66571778  0.66586009  1
  Cs  Cs9  1  0.33460817  -0.00099528  0.00059922  1
  Cs  Cs10  1  0.33286532  0.00019378  0.33409367  1
  Cs  Cs11  1  0.33262870  0.00176903  0.66515285  1
  Cs  Cs12  1  0.33338286  0.33601237  -0.00052103  1
  Cs  Cs13  1  0.33608528  0.33412724  0.33117645  1
  Cs  Cs14  1  0.32949239  0.33070277  0.66963220  1
  Cs  Cs15  1  0.33009856  0.66405200  0.00199770  1
  Cs  Cs16  1  0.33647885  0.66546614  0.33195384  1
  Cs  Cs17  1  0.33390095  0.66812231  0.66653804  1
  Cs  Cs18  1  0.66784332  0.00049131  -0.00269285  1
  Cs  Cs19  1  0.66528055  0.00504921  0.33065515  1
  Cs  Cs20  1  0.66517417  -0.00710578  0.67401553  1
  Cs  Cs21  1  0.66986676  0.33206775  -0.00083037  1
  Cs  Cs22  1  0.66607093  0.33155281  0.33587567  1
  Cs  Cs23  1  0.66581791  0.33487735  0.66303745  1
  Cs  Cs24  1  0.66776638  0.66760333  -0.00077228  1
  Cs  Cs25  1  0.66602625  0.66454741  0.33969884  1
  Cs  Cs26  1  0.66722399  0.67131623  0.66101935  1
  Sn  Sn27  1  0.50030682  0.50015169  0.83334419  1
  Sn  Sn28  1  0.83251594  0.16610155  0.50058805  1
  Sn  Sn29  1  0.49903635  0.16611087  0.16685543  1
  Sn  Sn30  1  0.16680857  0.83410945  0.16589357  1
  Sn  Sn31  1  0.83313268  0.83224601  0.16679699  1
  Sn  Sn32  1  0.16663619  0.83283657  0.83406024  1
  Sn  Sn33  1  0.16748319  0.16615726  0.16632455  1
  Sn  Sn34  1  0.83301913  0.50013643  0.83366743  1
  Sn  Sn35  1  0.83310287  0.50085367  0.16647127  1
  Sn  Sn36  1  0.16691430  0.50025765  0.50037658  1
  Sn  Sn37  1  0.50094146  0.16648035  0.49995666  1
  Sn  Sn38  1  0.50004392  0.83372975  0.16657023  1
  Sn  Sn39  1  0.16659715  0.50096539  0.83249227  1
  Pb  Pb40  1  0.83339811  0.16877506  0.83006094  1
  Pb  Pb41  1  0.49991623  0.83609233  0.49760059  1
  Pb  Pb42  1  0.83331976  0.83627716  0.49742512  1
  Pb  Pb43  1  0.16672966  0.83104167  0.49959486  1
  Pb  Pb44  1  0.49762271  0.49784235  0.50251631  1
  Pb  Pb45  1  0.16655104  0.16638554  0.83616495  1
  Pb  Pb46  1  0.83302355  0.16649619  0.16755849  1
  Pb  Pb47  1  0.50277588  0.49980256  0.16514088  1
  Pb  Pb48  1  0.16499717  0.50013835  0.16638522  1
  Pb  Pb49  1  0.16712346  0.16848972  0.49755903  1
  Pb  Pb50  1  0.83571090  0.83111918  0.83533794  1
  Pb  Pb51  1  0.49761186  0.83102414  0.83578872  1
  Pb  Pb52  1  0.50005362  0.16835286  0.83371217  1
  Pb  Pb53  1  0.83486813  0.49862754  0.50023198  1
  I  I54  1  0.16477010  -0.00101386  0.16241202  1
  I  I55  1  0.16639565  0.00013310  0.50227579  1
  I  I56  1  0.16692179  -0.00316690  0.83655119  1
  I  I57  1  0.16945870  0.33124899  0.16755879  1
  I  I58  1  0.16592989  0.33626406  0.50524189  1
  I  I59  1  0.16647617  0.33673175  0.83096600  1
  I  I60  1  0.16870081  0.66938340  0.16537804  1
  I  I61  1  0.16495124  0.66307758  0.49964951  1
  I  I62  1  0.16675105  0.66557145  0.83696259  1
  I  I63  1  0.50030162  0.00014424  0.17038004  1
  I  I64  1  0.50189576  0.00428584  0.49814412  1
  I  I65  1  0.49800197  -0.00033479  0.83152218  1
  I  I66  1  0.49623562  0.33049743  0.16894307  1
  I  I67  1  0.50335237  0.33012856  0.49164815  1
  I  I68  1  0.49652244  0.33673288  0.83615302  1
  I  I69  1  0.49598399  0.66930211  0.16322261  1
  I  I70  1  0.49885969  0.66650086  0.49869290  1
  I  I71  1  0.50100149  0.66296074  0.83594966  1
  I  I72  1  0.83467319  -0.00264252  0.16949218  1
  I  I73  1  0.83140726  0.00415522  0.49622505  1
  I  I74  1  0.83481443  -0.00044389  0.83451382  1
  I  I75  1  0.83484999  0.33560096  0.16395058  1
  I  I76  1  0.83044124  0.33090717  0.49598843  1
  I  I77  1  0.83694509  0.33761055  0.84173002  1
  I  I78  1  0.83518104  0.66688045  0.16243874  1
  I  I79  1  0.83513663  0.66665666  0.50036091  1
  I  I80  1  0.83250082  0.66266678  0.83514389  1
  I  I81  1  0.17180938  0.16803364  0.00431917  1
  I  I82  1  0.16721121  0.16282917  0.32959269  1
  I  I83  1  0.16694565  0.16543633  0.66661972  1
  I  I84  1  0.16761036  0.50095519  -0.00268217  1
  I  I85  1  0.16375589  0.49859604  0.33482685  1
  I  I86  1  0.16425152  0.50348738  0.66851793  1
  I  I87  1  0.16690452  0.82998298  0.00131519  1
  I  I88  1  0.16625102  0.83590279  0.32944340  1
  I  I89  1  0.16618896  0.82995631  0.66965886  1
  I  I90  1  0.49569330  0.16395591  0.00359040  1
  I  I91  1  0.49991790  0.16408379  0.33195689  1
  I  I92  1  0.50357332  0.17109401  0.66385611  1
  I  I93  1  0.49398794  0.49840768  -0.00266280  1
  I  I94  1  0.49922595  0.50140707  0.33322886  1
  I  I95  1  0.50396233  0.49802906  0.67050182  1
  I  I96  1  0.50208707  0.84023663  0.00411739  1
  I  I97  1  0.49635690  0.83271870  0.32875434  1
  I  I98  1  0.49831098  0.83409671  0.66702789  1
  I  I99  1  0.83349864  0.16654206  0.00012018  1
  I  I100  1  0.83256653  0.16978774  0.33514004  1
  I  I101  1  0.82825106  0.17009311  0.66221981  1
  I  I102  1  0.83654223  0.50225809  -0.00002186  1
  I  I103  1  0.83631927  0.50233793  0.33075962  1
  I  I104  1  0.83370663  0.49634432  0.66965142  1
  I  I105  1  0.83201378  0.83330536  0.00392813  1
  I  I106  1  0.83690039  0.82601922  0.32857873  1
  I  I107  1  0.83526643  0.83283005  0.66687205  1
  I  I108  1  0.00198644  0.16443814  0.16831547  1
  I  I109  1  -0.00158477  0.16939780  0.49731471  1
  I  I110  1  0.00014715  0.17007843  0.83394875  1
  I  I111  1  -0.00275396  0.50203140  0.16234251  1
  I  I112  1  0.00260166  0.49665772  0.50441027  1
  I  I113  1  0.00054810  0.50333359  0.83392959  1
  I  I114  1  0.00069476  0.83355205  0.16287106  1
  I  I115  1  0.00013363  0.83625923  0.49682392  1
  I  I116  1  0.00365878  0.82739652  0.83991386  1
  I  I117  1  0.33371113  0.16048954  0.17192813  1
  I  I118  1  0.33591346  0.16876765  0.49655936  1
  I  I119  1  0.33318603  0.17072943  0.82974263  1
  I  I120  1  0.33340063  0.50113854  0.16589712  1
  I  I121  1  0.32991040  0.49796175  0.50346241  1
  I  I122  1  0.33217252  0.50262100  0.82972628  1
  I  I123  1  0.33277220  0.83820752  0.16308628  1
  I  I124  1  0.33320737  0.83465202  0.49776350  1
  I  I125  1  0.32974103  0.82692994  0.83967454  1
  I  I126  1  0.66402800  0.16463940  0.16915520  1
  I  I127  1  0.66586063  0.16966161  0.49112233  1
  I  I128  1  0.66667163  0.16925637  0.83868890  1
  I  I129  1  0.67050349  0.50250514  0.16148783  1
  I  I130  1  0.66649961  0.49947120  0.50058821  1
  I  I131  1  0.66730985  0.49671009  0.84060326  1
  I  I132  1  0.66656627  0.83399796  0.16753576  1
  I  I133  1  0.66661640  0.82939529  0.49899281  1
  I  I134  1  0.66667359  0.83178368  0.83509538  1
