# generated using pymatgen
data_Cs27Sn14Pb13I81
_symmetry_space_group_name_H-M   'P 1'
_cell_length_a   18.99410781
_cell_length_b   18.96734955
_cell_length_c   18.96703215
_cell_angle_alpha   90.00623392
_cell_angle_beta   89.99946475
_cell_angle_gamma   90.00131382
_symmetry_Int_Tables_number   1
_chemical_formula_structural   Cs27Sn14Pb13I81
_chemical_formula_sum   'Cs27 Sn14 Pb13 I81'
_cell_volume   6833.21246279
_cell_formula_units_Z   1
loop_
 _symmetry_equiv_pos_site_id
 _symmetry_equiv_pos_as_xyz
  1  'x, y, z'
loop_
 _atom_site_type_symbol
 _atom_site_label
 _atom_site_symmetry_multiplicity
 _atom_site_fract_x
 _atom_site_fract_y
 _atom_site_fract_z
 _atom_site_occupancy
  Cs  Cs0  1  -0.00142717  0.00124754  0.00059750  1
  Cs  Cs1  1  0.00004911  0.00153294  0.33158917  1
  Cs  Cs2  1  0.00363973  -0.00062816  0.66810726  1
  Cs  Cs3  1  0.00048148  0.33218389  -0.00126839  1
  Cs  Cs4  1  0.00130269  0.33157104  0.33494201  1
  Cs  Cs5  1  0.00152993  0.33294639  0.66719494  1
  Cs  Cs6  1  -0.00228282  0.66621593  0.00099339  1
  Cs  Cs7  1  -0.00360174  0.66635413  0.33631074  1
  Cs  Cs8  1  -0.00014166  0.66723260  0.66363993  1
  Cs  Cs9  1  0.33266133  -0.00192086  -0.00096308  1
  Cs  Cs10  1  0.33370271  0.00173725  0.33299846  1
  Cs  Cs11  1  0.34046184  -0.00858272  0.67240315  1
  Cs  Cs12  1  0.33143020  0.33704414  0.00065319  1
  Cs  Cs13  1  0.33149116  0.33240587  0.33501677  1
  Cs  Cs14  1  0.33392956  0.33446226  0.66441940  1
  Cs  Cs15  1  0.33450412  0.66478341  0.00030250  1
  Cs  Cs16  1  0.33162080  0.66522872  0.33173660  1
  Cs  Cs17  1  0.33273868  0.66819331  0.66759732  1
  Cs  Cs18  1  0.66910155  -0.00096685  0.00187354  1
  Cs  Cs19  1  0.66573987  0.00084192  0.33199491  1
  Cs  Cs20  1  0.65601379  0.00147347  0.66587922  1
  Cs  Cs21  1  0.66756203  0.33385001  -0.00099567  1
  Cs  Cs22  1  0.66815269  0.33294198  0.33356548  1
  Cs  Cs23  1  0.66357903  0.33276934  0.66815232  1
  Cs  Cs24  1  0.66782649  0.66666666  0.00044538  1
  Cs  Cs25  1  0.67250656  0.66534538  0.33454461  1
  Cs  Cs26  1  0.66808123  0.66585354  0.66535612  1
  Sn  Sn27  1  0.83404186  0.16631356  0.49984569  1
  Sn  Sn28  1  0.49925083  0.50002816  0.50029299  1
  Sn  Sn29  1  0.50018507  0.83382747  0.16680099  1
  Sn  Sn30  1  0.16631382  0.83403645  0.16684100  1
  Sn  Sn31  1  0.16667094  0.16587171  0.16718726  1
  Sn  Sn32  1  0.49981697  0.16627514  0.16646991  1
  Sn  Sn33  1  0.16735065  0.49941926  0.50083176  1
  Sn  Sn34  1  0.83346949  0.16610331  0.16742130  1
  Sn  Sn35  1  0.16644227  0.49996761  0.83237090  1
  Sn  Sn36  1  0.83339439  0.83300759  0.83339658  1
  Sn  Sn37  1  0.83349708  0.83404938  0.16618784  1
  Sn  Sn38  1  0.49997853  0.50005447  0.83249383  1
  Sn  Sn39  1  0.16635611  0.16653254  0.50002224  1
  Sn  Sn40  1  0.83356277  0.50070626  0.83340410  1
  Pb  Pb41  1  0.49971258  0.16885371  0.83635325  1
  Pb  Pb42  1  0.16694717  0.16819554  0.83289430  1
  Pb  Pb43  1  0.16640739  0.49975181  0.16741954  1
  Pb  Pb44  1  0.83335116  0.16592943  0.83290205  1
  Pb  Pb45  1  0.83373277  0.49768083  0.50249942  1
  Pb  Pb46  1  0.83334982  0.83670579  0.50032515  1
  Pb  Pb47  1  0.49930736  0.16830386  0.49803425  1
  Pb  Pb48  1  0.16446704  0.83078668  0.83589026  1
  Pb  Pb49  1  0.50239973  0.83088328  0.83574533  1
  Pb  Pb50  1  0.49999801  0.83025042  0.49714234  1
  Pb  Pb51  1  0.16671580  0.83386866  0.49785139  1
  Pb  Pb52  1  0.50011635  0.50001413  0.16722392  1
  Pb  Pb53  1  0.83345745  0.49956205  0.16469735  1
  I  I54  1  0.16631018  0.00103338  0.17197003  1
  I  I55  1  0.16052844  0.00363646  0.49528278  1
  I  I56  1  0.16405556  -0.00036922  0.83123485  1
  I  I57  1  0.16678777  0.33012669  0.16678481  1
  I  I58  1  0.16636760  0.33337759  0.49681381  1
  I  I59  1  0.16344402  0.33700838  0.83605719  1
  I  I60  1  0.16719840  0.66940024  0.16524808  1
  I  I61  1  0.17072815  0.66352438  0.50242457  1
  I  I62  1  0.16895994  0.66244183  0.82929954  1
  I  I63  1  0.50065183  0.00031429  0.16730404  1
  I  I64  1  0.50014647  0.00016155  0.50122834  1
  I  I65  1  0.50198795  -0.00043417  0.83136806  1
  I  I66  1  0.49987203  0.33044766  0.16609222  1
  I  I67  1  0.49893932  0.33636380  0.50142606  1
  I  I68  1  0.50372319  0.33747023  0.83257381  1
  I  I69  1  0.50009852  0.66950643  0.16573470  1
  I  I70  1  0.49424896  0.66210837  0.50229061  1
  I  I71  1  0.49761208  0.66268836  0.83283597  1
  I  I72  1  0.83333960  0.00010568  0.16395413  1
  I  I73  1  0.84047890  0.00455592  0.49872324  1
  I  I74  1  0.83434882  -0.00285888  0.83754371  1
  I  I75  1  0.83330898  0.32974265  0.16878026  1
  I  I76  1  0.83443813  0.33007316  0.49322068  1
  I  I77  1  0.83305173  0.33608552  0.83414002  1
  I  I78  1  0.83263393  0.66978753  0.16411601  1
  I  I79  1  0.83319074  0.66660268  0.49668217  1
  I  I80  1  0.83309309  0.66620354  0.84056491  1
  I  I81  1  0.16495779  0.16487603  0.00353122  1
  I  I82  1  0.16554421  0.17010585  0.33236361  1
  I  I83  1  0.15900827  0.17180272  0.66307146  1
  I  I84  1  0.16781922  0.50017847  -0.00247643  1
  I  I85  1  0.17272901  0.49873096  0.33638517  1
  I  I86  1  0.16693350  0.49367723  0.66623696  1
  I  I87  1  0.16856420  0.83826207  0.00420706  1
  I  I88  1  0.16337195  0.83133706  0.32916446  1
  I  I89  1  0.16472659  0.83571650  0.66689494  1
  I  I90  1  0.50144260  0.16525429  0.00488978  1
  I  I91  1  0.50058986  0.16590874  0.32967468  1
  I  I92  1  0.50142172  0.16675267  0.66642353  1
  I  I93  1  0.49929145  0.49973664  -0.00258610  1
  I  I94  1  0.49344230  0.49963389  0.33598153  1
  I  I95  1  0.49982935  0.49856107  0.66705656  1
  I  I96  1  0.49802101  0.83489740  0.00397679  1
  I  I97  1  0.50336304  0.83530979  0.32870221  1
  I  I98  1  0.50161877  0.83496610  0.66693079  1
  I  I99  1  0.83400773  0.16644382  0.00325375  1
  I  I100  1  0.83387235  0.16243401  0.33158910  1
  I  I101  1  0.83965842  0.16925479  0.66373500  1
  I  I102  1  0.83290822  0.49895005  -0.00358766  1
  I  I103  1  0.83274321  0.50293346  0.33367549  1
  I  I104  1  0.83318107  0.50463694  0.67049048  1
  I  I105  1  0.83321010  0.83416777  0.00170079  1
  I  I106  1  0.83315840  0.83477868  0.32976684  1
  I  I107  1  0.83419768  0.82801527  0.66961324  1
  I  I108  1  -0.00002277  0.16147595  0.17028054  1
  I  I109  1  0.00080722  0.17375181  0.49050887  1
  I  I110  1  -0.00002577  0.17071537  0.83813420  1
  I  I111  1  0.00003927  0.50086803  0.16546502  1
  I  I112  1  0.00277372  0.49776657  0.50314118  1
  I  I113  1  0.00006455  0.50321032  0.83110875  1
  I  I114  1  -0.00060109  0.83876451  0.16243726  1
  I  I115  1  -0.00002811  0.82707926  0.49769481  1
  I  I116  1  -0.00328342  0.82755250  0.84012597  1
  I  I117  1  0.33259814  0.16189321  0.17003884  1
  I  I118  1  0.33028085  0.17200158  0.49296099  1
  I  I119  1  0.33329374  0.16931609  0.83477555  1
  I  I120  1  0.33326072  0.50085405  0.16143586  1
  I  I121  1  0.33233344  0.49405200  0.50716131  1
  I  I122  1  0.33318288  0.49752754  0.83042482  1
  I  I123  1  0.33318233  0.83869352  0.16839882  1
  I  I124  1  0.33332475  0.83685274  0.49751710  1
  I  I125  1  0.33341427  0.83197854  0.83548457  1
  I  I126  1  0.66741560  0.16193602  0.16978482  1
  I  I127  1  0.66872391  0.16819382  0.49541869  1
  I  I128  1  0.66676753  0.17084176  0.83286768  1
  I  I129  1  0.66666859  0.49927319  0.16663269  1
  I  I130  1  0.66469101  0.49877392  0.50298885  1
  I  I131  1  0.66673450  0.50342761  0.83101414  1
  I  I132  1  0.66740712  0.83896581  0.16236052  1
  I  I133  1  0.66678508  0.83252240  0.49751402  1
  I  I134  1  0.67010897  0.82752338  0.84033249  1
