# generated using pymatgen
data_Cs27Sn13Pb14I81
_symmetry_space_group_name_H-M   'P 1'
_cell_length_a   18.97480789
_cell_length_b   18.97480792
_cell_length_c   18.97950342
_cell_angle_alpha   90.00053896
_cell_angle_beta   89.99946095
_cell_angle_gamma   90.00131145
_symmetry_Int_Tables_number   1
_chemical_formula_structural   Cs27Sn13Pb14I81
_chemical_formula_sum   'Cs27 Sn13 Pb14 I81'
_cell_volume   6833.44370560
_cell_formula_units_Z   1
loop_
 _symmetry_equiv_pos_site_id
 _symmetry_equiv_pos_as_xyz
  1  'x, y, z'
loop_
 _atom_site_type_symbol
 _atom_site_label
 _atom_site_symmetry_multiplicity
 _atom_site_fract_x
 _atom_site_fract_y
 _atom_site_fract_z
 _atom_site_occupancy
  Cs  Cs0  1  0.00037113  0.00151960  0.00149639  1
  Cs  Cs1  1  -0.00147272  -0.00506043  0.33366644  1
  Cs  Cs2  1  -0.00031347  0.00088653  0.66475771  1
  Cs  Cs3  1  -0.00311973  0.33071893  -0.00163141  1
  Cs  Cs4  1  0.00176547  0.33269608  0.33289925  1
  Cs  Cs5  1  -0.00005713  0.33384531  0.66848857  1
  Cs  Cs6  1  -0.00113335  0.66858528  -0.00045703  1
  Cs  Cs7  1  0.00760817  0.67427482  0.33333329  1
  Cs  Cs8  1  0.00191853  0.66553326  0.66712371  1
  Cs  Cs9  1  0.33619779  0.00259627  -0.00691258  1
  Cs  Cs10  1  0.33369413  0.00036098  0.33333324  1
  Cs  Cs11  1  0.33592961  0.00286439  0.67357918  1
  Cs  Cs12  1  0.33402866  0.33057418  0.00385459  1
  Cs  Cs13  1  0.33382506  0.33536542  0.32926899  1
  Cs  Cs14  1  0.33064571  0.33136475  0.66695441  1
  Cs  Cs15  1  0.33421995  0.66635316  0.00190918  1
  Cs  Cs16  1  0.32827299  0.66519393  0.33300021  1
  Cs  Cs17  1  0.33485293  0.66703780  0.66517021  1
  Cs  Cs18  1  0.66469824  -0.00268752  -0.00028773  1
  Cs  Cs19  1  0.66869870  0.00049173  0.33739773  1
  Cs  Cs20  1  0.66390758  0.00069531  0.66281211  1
  Cs  Cs21  1  0.67157265  0.33576033  0.00480882  1
  Cs  Cs22  1  0.66486574  0.33153238  0.33333335  1
  Cs  Cs23  1  0.66909359  0.33823926  0.66185776  1
  Cs  Cs24  1  0.66717868  0.66660956  -0.00182201  1
  Cs  Cs25  1  0.66602932  0.66843218  0.33376743  1
  Cs  Cs26  1  0.66405221  0.66354690  0.66829812  1
  Sn  Sn27  1  0.16661358  0.16668223  0.49888140  1
  Sn  Sn28  1  0.16571379  0.83238043  0.83333334  1
  Sn  Sn29  1  0.16793313  0.50055884  0.83361817  1
  Sn  Sn30  1  0.49992843  0.83257001  0.49890995  1
  Sn  Sn31  1  0.83385207  0.50017639  0.16866510  1
  Sn  Sn32  1  0.50036819  0.50077717  0.50038776  1
  Sn  Sn33  1  0.83292896  0.16537433  0.83351780  1
  Sn  Sn34  1  0.83411052  0.16703485  0.16627889  1
  Sn  Sn35  1  0.83350969  0.50051874  0.49800153  1
  Sn  Sn36  1  0.50001554  0.83328026  0.16778525  1
  Sn  Sn37  1  0.16590334  0.16659512  0.16775667  1
  Sn  Sn38  1  0.83389212  0.83459975  0.83304849  1
  Sn  Sn39  1  0.49870758  0.49959562  0.83314885  1
  Pb  Pb40  1  0.49756911  0.16743551  0.50001869  1
  Pb  Pb41  1  0.50379435  0.17046102  0.83333334  1
  Pb  Pb42  1  0.50185646  0.50169422  0.16717781  1
  Pb  Pb43  1  0.16694858  0.49860904  0.50155906  1
  Pb  Pb44  1  0.83159432  0.83062291  0.50263713  1
  Pb  Pb45  1  0.16496560  0.16676861  0.83379223  1
  Pb  Pb46  1  0.83337908  0.50004575  0.83333329  1
  Pb  Pb47  1  0.83194234  0.83361532  0.16510754  1
  Pb  Pb48  1  0.16395627  0.49826098  0.16402954  1
  Pb  Pb49  1  0.83502752  0.16852311  0.49948884  1
  Pb  Pb50  1  0.50076886  0.16423578  0.16664798  1
  Pb  Pb51  1  0.16902613  0.83597504  0.16417049  1
  Pb  Pb52  1  0.50010194  0.83163225  0.83287447  1
  Pb  Pb53  1  0.16930835  0.83569281  0.50249615  1
  I  I54  1  0.15933488  0.00374538  0.16856298  1
  I  I55  1  0.16634489  0.00331271  0.49849454  1
  I  I56  1  0.16493681  -0.00207331  0.83335530  1
  I  I57  1  0.16626039  0.33018816  0.16739409  1
  I  I58  1  0.16773913  0.33074910  0.49995445  1
  I  I59  1  0.16830901  0.33556425  0.83248681  1
  I  I60  1  0.16573442  0.66681181  0.16644432  1
  I  I61  1  0.16509600  0.66675091  0.50085166  1
  I  I62  1  0.16363928  0.66654612  0.83216521  1
  I  I63  1  0.50164232  -0.00358516  0.17093645  1
  I  I64  1  0.49882707  -0.00269618  0.49702502  1
  I  I65  1  0.49746408  -0.00002206  0.83284336  1
  I  I66  1  0.49900286  0.33339103  0.16610057  1
  I  I67  1  0.50358073  0.33695709  0.50509514  1
  I  I68  1  0.49438445  0.33822121  0.82735407  1
  I  I69  1  0.50283572  0.66937066  0.16604677  1
  I  I70  1  0.50435855  0.66566047  0.50168871  1
  I  I71  1  0.50209617  0.66380222  0.83190482  1
  I  I72  1  0.83593018  0.00298794  0.16274957  1
  I  I73  1  0.83200311  -0.00017371  0.49927981  1
  I  I74  1  0.83928041  0.00004967  0.83914037  1
  I  I75  1  0.83534605  0.33287287  0.16227213  1
  I  I76  1  0.82723643  0.33657365  0.50267133  1
  I  I77  1  0.83385545  0.33149016  0.83489748  1
  I  I78  1  0.82949123  0.66427994  0.16650686  1
  I  I79  1  0.83193462  0.66250387  0.49709528  1
  I  I80  1  0.83369731  0.66848451  0.83357862  1
  I  I81  1  0.16357980  0.16678328  0.00220553  1
  I  I82  1  0.16136296  0.16798428  0.33252685  1
  I  I83  1  0.16591480  0.16729283  0.66535229  1
  I  I84  1  0.17098830  0.50161107  -0.00403404  1
  I  I85  1  0.16859053  0.49912526  0.33310082  1
  I  I86  1  0.16487902  0.50004472  0.66972489  1
  I  I87  1  0.16533130  0.83140823  -0.00371079  1
  I  I88  1  0.16643431  0.83310076  0.33333333  1
  I  I89  1  0.16474152  0.83199818  0.67037742  1
  I  I90  1  0.49457850  0.16482580  -0.00011279  1
  I  I91  1  0.50306387  0.16973056  0.33333335  1
  I  I92  1  0.49815941  0.16124544  0.66677947  1
  I  I93  1  0.49888261  0.50237500  -0.00230489  1
  I  I94  1  0.50331424  0.50185128  0.33635680  1
  I  I95  1  0.50344123  0.50594784  0.66613702  1
  I  I96  1  0.50062632  0.83258128  0.00131435  1
  I  I97  1  0.50131756  0.82802975  0.33413980  1
  I  I98  1  0.50011669  0.83024635  0.66446121  1
  I  I99  1  0.83928120  0.17010782  0.00052964  1
  I  I100  1  0.83518476  0.16998093  0.33030983  1
  I  I101  1  0.83570806  0.16554933  0.66897157  1
  I  I102  1  0.83310615  0.49801094  0.00174282  1
  I  I103  1  0.82610036  0.49276688  0.33333339  1
  I  I104  1  0.83134414  0.49977281  0.66492386  1
  I  I105  1  0.83337806  0.83154554  -0.00305821  1
  I  I106  1  0.83245853  0.83525733  0.33356585  1
  I  I107  1  0.83494448  0.83765504  0.67070074  1
  I  I108  1  -0.00100616  0.17102519  0.16497780  1
  I  I109  1  0.00270400  0.16950288  0.50062024  1
  I  I110  1  -0.00286448  0.16876245  0.83476175  1
  I  I111  1  -0.00416280  0.49860127  0.16957136  1
  I  I112  1  -0.00238669  0.49615780  0.50015998  1
  I  I113  1  0.00181785  0.50036399  0.83308791  1
  I  I114  1  0.00008423  0.83176259  0.16581512  1
  I  I115  1  0.00014513  0.83240093  0.50022221  1
  I  I116  1  -0.00012054  0.83030633  0.83450141  1
  I  I117  1  0.33063717  0.16549373  0.16964179  1
  I  I118  1  0.32974818  0.16830877  0.49573013  1
  I  I119  1  0.33331128  0.16413091  0.83382311  1
  I  I120  1  0.33315960  0.49866966  0.16738692  1
  I  I121  1  0.33632127  0.50259689  0.50391698  1
  I  I122  1  0.33338304  0.50594733  0.82752631  1
  I  I123  1  0.33664604  0.83301192  0.16817190  1
  I  I124  1  0.33707872  0.82600159  0.49810397  1
  I  I125  1  0.33126006  0.83160310  0.83331146  1
  I  I126  1  0.67029042  0.17024739  0.16157150  1
  I  I127  1  0.66672437  0.16566947  0.50056589  1
  I  I128  1  0.67155455  0.16105132  0.83931287  1
  I  I129  1  0.66990700  0.49390323  0.16399538  1
  I  I130  1  0.66620622  0.50201275  0.50439443  1
  I  I131  1  0.66482349  0.50052180  0.83176933  1
  I  I132  1  0.66408237  0.83440548  0.16671232  1
  I  I133  1  0.66352151  0.83292710  0.49927256  1
  I  I134  1  0.66889760  0.83497580  0.83417986  1
