# generated using pymatgen
data_Cs27Sn14Pb13I81
_symmetry_space_group_name_H-M   'P 1'
_cell_length_a   18.97621400
_cell_length_b   18.98060463
_cell_length_c   18.97088134
_cell_angle_alpha   89.99857258
_cell_angle_beta   89.99944246
_cell_angle_gamma   89.99897964
_symmetry_Int_Tables_number   1
_chemical_formula_structural   Cs27Sn14Pb13I81
_chemical_formula_sum   'Cs27 Sn14 Pb13 I81'
_cell_volume   6832.93232831
_cell_formula_units_Z   1
loop_
 _symmetry_equiv_pos_site_id
 _symmetry_equiv_pos_as_xyz
  1  'x, y, z'
loop_
 _atom_site_type_symbol
 _atom_site_label
 _atom_site_symmetry_multiplicity
 _atom_site_fract_x
 _atom_site_fract_y
 _atom_site_fract_z
 _atom_site_occupancy
  Cs  Cs0  1  0.00125338  -0.00111366  0.00830547  1
  Cs  Cs1  1  0.00138553  0.00105799  0.32957339  1
  Cs  Cs2  1  -0.00266896  0.00283188  0.66466398  1
  Cs  Cs3  1  0.00085159  0.32879266  -0.00087623  1
  Cs  Cs4  1  -0.00107883  0.33314615  0.33435678  1
  Cs  Cs5  1  0.00010344  0.33426881  0.66535036  1
  Cs  Cs6  1  0.00525502  0.67368610  -0.00173309  1
  Cs  Cs7  1  -0.00319231  0.66581662  0.33468466  1
  Cs  Cs8  1  0.00099266  0.66360764  0.66704920  1
  Cs  Cs9  1  0.33208690  -0.00292799  -0.00160502  1
  Cs  Cs10  1  0.33254921  0.00025886  0.33465634  1
  Cs  Cs11  1  0.33644044  -0.00047818  0.66561455  1
  Cs  Cs12  1  0.33573923  0.33453436  0.00173036  1
  Cs  Cs13  1  0.33495962  0.33332406  0.33231357  1
  Cs  Cs14  1  0.33106668  0.33250140  0.66646423  1
  Cs  Cs15  1  0.32794179  0.66605753  -0.00037862  1
  Cs  Cs16  1  0.33779670  0.66473117  0.33330813  1
  Cs  Cs17  1  0.33022632  0.66958071  0.66873251  1
  Cs  Cs18  1  0.66739848  0.00050548  -0.00271828  1
  Cs  Cs19  1  0.66588369  -0.00083869  0.33558384  1
  Cs  Cs20  1  0.66633219  0.00026624  0.66666926  1
  Cs  Cs21  1  0.66480818  0.33607150  -0.00055456  1
  Cs  Cs22  1  0.66452694  0.33666218  0.33110719  1
  Cs  Cs23  1  0.66789880  0.33156184  0.66847324  1
  Cs  Cs24  1  0.66802580  0.66132633  0.00429650  1
  Cs  Cs25  1  0.66502325  0.66286925  0.32915644  1
  Cs  Cs26  1  0.66777862  0.67005435  0.66623864  1
  Sn  Sn27  1  0.16592254  0.16637342  0.83266937  1
  Sn  Sn28  1  0.50015402  0.83470888  0.16648759  1
  Sn  Sn29  1  0.50024597  0.16756693  0.49934978  1
  Sn  Sn30  1  0.16596102  0.49967740  0.16698138  1
  Sn  Sn31  1  0.16644698  0.16595924  0.50064746  1
  Sn  Sn32  1  0.83317543  0.83371941  0.83267850  1
  Sn  Sn33  1  0.83439960  0.16640911  0.83267976  1
  Sn  Sn34  1  0.16570376  0.83396531  0.50008453  1
  Sn  Sn35  1  0.50004114  0.49925196  0.50180794  1
  Sn  Sn36  1  0.50027351  0.50009440  0.83177427  1
  Sn  Sn37  1  0.83289318  0.49997322  0.83306072  1
  Sn  Sn38  1  0.83332361  0.16610739  0.50042048  1
  Sn  Sn39  1  0.50021929  0.16519483  0.16720947  1
  Sn  Sn40  1  0.83431173  0.83408387  0.50061494  1
  Pb  Pb41  1  0.50055994  0.83354902  0.49907239  1
  Pb  Pb42  1  0.16876959  0.49972863  0.49867038  1
  Pb  Pb43  1  0.83140545  0.83350879  0.16733349  1
  Pb  Pb44  1  0.83666396  0.49992034  0.16342515  1
  Pb  Pb45  1  0.16418245  0.83643551  0.83089096  1
  Pb  Pb46  1  0.50017031  0.16789203  0.83287537  1
  Pb  Pb47  1  0.16875425  0.83148143  0.16975182  1
  Pb  Pb48  1  0.16632575  0.49776676  0.83472305  1
  Pb  Pb49  1  0.49886280  0.49971118  0.16638676  1
  Pb  Pb50  1  0.16891081  0.16780068  0.16709375  1
  Pb  Pb51  1  0.50240560  0.83044677  0.83568886  1
  Pb  Pb52  1  0.83073384  0.16677401  0.16698723  1
  Pb  Pb53  1  0.83117826  0.49995640  0.50175450  1
  I  I54  1  0.16713911  0.00000661  0.16481595  1
  I  I55  1  0.16892961  0.00156428  0.50309324  1
  I  I56  1  0.16384890  0.00437479  0.83325439  1
  I  I57  1  0.17132987  0.33524086  0.16779466  1
  I  I58  1  0.16456229  0.32989980  0.50233188  1
  I  I59  1  0.16169237  0.33001150  0.82706346  1
  I  I60  1  0.17105338  0.66404022  0.16575985  1
  I  I61  1  0.16379942  0.66909492  0.49720019  1
  I  I62  1  0.16654323  0.66687772  0.83383577  1
  I  I63  1  0.49976750  0.00115134  0.17369141  1
  I  I64  1  0.49981864  0.00306782  0.49715071  1
  I  I65  1  0.50046350  -0.00004451  0.83228903  1
  I  I66  1  0.49822042  0.33112123  0.16854541  1
  I  I67  1  0.49985763  0.33176839  0.49702131  1
  I  I68  1  0.50537054  0.33573505  0.83486951  1
  I  I69  1  0.49901799  0.66816963  0.16775347  1
  I  I70  1  0.49980098  0.66449159  0.50051253  1
  I  I71  1  0.50456602  0.66250772  0.82881190  1
  I  I72  1  0.83457788  0.00020961  0.16132424  1
  I  I73  1  0.83075279  0.00105902  0.50791423  1
  I  I74  1  0.83662284  0.00082001  0.82865181  1
  I  I75  1  0.82982142  0.33328708  0.16721853  1
  I  I76  1  0.83584993  0.33006635  0.50404457  1
  I  I77  1  0.83280541  0.33239624  0.82961659  1
  I  I78  1  0.82863604  0.66666857  0.16823020  1
  I  I79  1  0.83649977  0.66940171  0.50403413  1
  I  I80  1  0.82712969  0.66678863  0.82962264  1
  I  I81  1  0.16321226  0.17007711  -0.00247018  1
  I  I82  1  0.16466353  0.16447707  0.33690313  1
  I  I83  1  0.16848186  0.16509407  0.66531639  1
  I  I84  1  0.17054964  0.49782701  0.00224773  1
  I  I85  1  0.17190457  0.49812643  0.33121001  1
  I  I86  1  0.16680713  0.50117891  0.66662784  1
  I  I87  1  0.16628730  0.83338444  -0.00009859  1
  I  I88  1  0.16060098  0.84049574  0.33745528  1
  I  I89  1  0.16824227  0.83279406  0.66294153  1
  I  I90  1  0.49974178  0.16605768  0.00188622  1
  I  I91  1  0.49958719  0.16950891  0.33522411  1
  I  I92  1  0.49992844  0.16940491  0.66353964  1
  I  I93  1  0.50345752  0.49913232  -0.00238404  1
  I  I94  1  0.49785714  0.49887392  0.33552105  1
  I  I95  1  0.50281448  0.49331781  0.66632892  1
  I  I96  1  0.50115771  0.83906345  0.00333499  1
  I  I97  1  0.50137031  0.83176748  0.33129024  1
  I  I98  1  0.49841573  0.83447747  0.66675091  1
  I  I99  1  0.83665627  0.16648772  -0.00356964  1
  I  I100  1  0.83629469  0.16132931  0.33719319  1
  I  I101  1  0.83143079  0.16629044  0.66629049  1
  I  I102  1  0.82431991  0.49862064  -0.00488021  1
  I  I103  1  0.83117156  0.50049220  0.33359649  1
  I  I104  1  0.83228952  0.49904686  0.66996274  1
  I  I105  1  0.83046124  0.83353334  -0.00312184  1
  I  I106  1  0.83607627  0.83922554  0.33710050  1
  I  I107  1  0.83532102  0.83434045  0.66617887  1
  I  I108  1  0.00012254  0.16901237  0.16794183  1
  I  I109  1  -0.00019296  0.16243896  0.50533342  1
  I  I110  1  -0.00118849  0.17041185  0.82548372  1
  I  I111  1  0.00380381  0.49890412  0.16799611  1
  I  I112  1  -0.00012177  0.49815487  0.49941792  1
  I  I113  1  -0.00306395  0.50098857  0.83530704  1
  I  I114  1  0.00010454  0.83092493  0.16469574  1
  I  I115  1  -0.00080977  0.84038343  0.50296450  1
  I  I116  1  -0.00395469  0.82641078  0.83276236  1
  I  I117  1  0.33676683  0.16519832  0.17075073  1
  I  I118  1  0.33330410  0.16670802  0.50012537  1
  I  I119  1  0.33131288  0.17015029  0.83049246  1
  I  I120  1  0.33164831  0.49939286  0.16495992  1
  I  I121  1  0.33685811  0.49612365  0.50427828  1
  I  I122  1  0.33568958  0.49679948  0.83225091  1
  I  I123  1  0.33649624  0.83656095  0.16887084  1
  I  I124  1  0.33149470  0.83630026  0.49681203  1
  I  I125  1  0.33320542  0.83272695  0.83312361  1
  I  I126  1  0.66268302  0.16520403  0.17060031  1
  I  I127  1  0.66695091  0.16598198  0.50068990  1
  I  I128  1  0.66967142  0.16542396  0.83045326  1
  I  I129  1  0.66662326  0.50045340  0.16765001  1
  I  I130  1  0.66315350  0.49616915  0.49974721  1
  I  I131  1  0.66695512  0.49678313  0.83038296  1
  I  I132  1  0.66354723  0.83532945  0.16948685  1
  I  I133  1  0.66953617  0.83693884  0.50319085  1
  I  I134  1  0.67044648  0.83971243  0.82582167  1
