# generated using pymatgen
data_Cs27Sn14Pb13I81
_symmetry_space_group_name_H-M   'P 1'
_cell_length_a   18.96040015
_cell_length_b   18.96290143
_cell_length_c   18.95904186
_cell_angle_alpha   89.99827375
_cell_angle_beta   90.00014592
_cell_angle_gamma   90.00080977
_symmetry_Int_Tables_number   1
_chemical_formula_structural   Cs27Sn14Pb13I81
_chemical_formula_sum   'Cs27 Sn14 Pb13 I81'
_cell_volume   6816.61351501
_cell_formula_units_Z   1
loop_
 _symmetry_equiv_pos_site_id
 _symmetry_equiv_pos_as_xyz
  1  'x, y, z'
loop_
 _atom_site_type_symbol
 _atom_site_label
 _atom_site_symmetry_multiplicity
 _atom_site_fract_x
 _atom_site_fract_y
 _atom_site_fract_z
 _atom_site_occupancy
  Cs  Cs0  1  0.00020146  -0.00106721  -0.00001972  1
  Cs  Cs1  1  0.00031239  0.00081797  0.33264104  1
  Cs  Cs2  1  -0.00163062  -0.00052860  0.66692334  1
  Cs  Cs3  1  -0.00277597  0.33441363  -0.00070839  1
  Cs  Cs4  1  0.00004915  0.33236590  0.33393025  1
  Cs  Cs5  1  0.00012744  0.33266378  0.66624715  1
  Cs  Cs6  1  -0.00031326  0.66862516  -0.00094008  1
  Cs  Cs7  1  0.00256584  0.66719665  0.33500460  1
  Cs  Cs8  1  -0.00111927  0.66682442  0.66594277  1
  Cs  Cs9  1  0.33404728  -0.00065441  -0.00156743  1
  Cs  Cs10  1  0.33506046  0.00014470  0.33337951  1
  Cs  Cs11  1  0.33501964  0.00300247  0.66842789  1
  Cs  Cs12  1  0.33837448  0.33325653  -0.01062237  1
  Cs  Cs13  1  0.33118433  0.33428808  0.33602624  1
  Cs  Cs14  1  0.33511474  0.33123512  0.67068361  1
  Cs  Cs15  1  0.33484196  0.66782245  0.00106541  1
  Cs  Cs16  1  0.33098257  0.66645174  0.33255302  1
  Cs  Cs17  1  0.33170627  0.66559791  0.66648297  1
  Cs  Cs18  1  0.66854416  0.00097955  0.00178401  1
  Cs  Cs19  1  0.65843644  0.00039170  0.33315467  1
  Cs  Cs20  1  0.66846515  -0.00131774  0.66455586  1
  Cs  Cs21  1  0.66378370  0.33991197  0.00811595  1
  Cs  Cs22  1  0.66692453  0.33142332  0.32730896  1
  Cs  Cs23  1  0.66601955  0.33306124  0.66719070  1
  Cs  Cs24  1  0.66566650  0.66124760  0.00068449  1
  Cs  Cs25  1  0.66168591  0.66819175  0.33473173  1
  Cs  Cs26  1  0.66920759  0.66820011  0.66538136  1
  Sn  Sn27  1  0.49996247  0.49978854  0.50001676  1
  Sn  Sn28  1  0.83310868  0.83404512  0.83435041  1
  Sn  Sn29  1  0.50055413  0.83339610  0.83313737  1
  Sn  Sn30  1  0.16646739  0.83386123  0.50005866  1
  Sn  Sn31  1  0.16669092  0.83331628  0.83331658  1
  Sn  Sn32  1  0.16588312  0.16664873  0.49948091  1
  Sn  Sn33  1  0.83391318  0.83335141  0.16636032  1
  Sn  Sn34  1  0.16647392  0.49959724  0.49956905  1
  Sn  Sn35  1  0.16650137  0.49946340  0.16679283  1
  Sn  Sn36  1  0.83329925  0.16641301  0.83318611  1
  Sn  Sn37  1  0.83327245  0.49901754  0.49988219  1
  Sn  Sn38  1  0.16656005  0.16701785  0.16683541  1
  Sn  Sn39  1  0.16581529  0.83356894  0.16669538  1
  Sn  Sn40  1  0.83403205  0.16727989  0.50051307  1
  Pb  Pb41  1  0.49631000  0.16671913  0.16659354  1
  Pb  Pb42  1  0.50004621  0.16898844  0.50001382  1
  Pb  Pb43  1  0.50017542  0.50223443  0.83099368  1
  Pb  Pb44  1  0.49974608  0.83332881  0.16448695  1
  Pb  Pb45  1  0.83337941  0.49991377  0.83147488  1
  Pb  Pb46  1  0.16650177  0.50222693  0.83326987  1
  Pb  Pb47  1  0.83563413  0.50275993  0.16955254  1
  Pb  Pb48  1  0.50398355  0.16450001  0.83331736  1
  Pb  Pb49  1  0.83476541  0.83384586  0.49951429  1
  Pb  Pb50  1  0.16482632  0.16453260  0.83326440  1
  Pb  Pb51  1  0.49671512  0.83157866  0.50204507  1
  Pb  Pb52  1  0.49672153  0.50005331  0.16900686  1
  Pb  Pb53  1  0.83510003  0.16472989  0.16707933  1
  I  I54  1  0.16285634  -0.00094326  0.16970520  1
  I  I55  1  0.16147118  0.00008540  0.49788469  1
  I  I56  1  0.16755347  -0.00409875  0.83268941  1
  I  I57  1  0.16637218  0.33332422  0.17675803  1
  I  I58  1  0.16554212  0.33350532  0.49309556  1
  I  I59  1  0.16527621  0.33302654  0.83352910  1
  I  I60  1  0.16368243  0.66753224  0.17006191  1
  I  I61  1  0.16628925  0.66657944  0.49832122  1
  I  I62  1  0.16360487  0.67115276  0.83208091  1
  I  I63  1  0.49784698  -0.00036604  0.16815298  1
  I  I64  1  0.49987439  -0.00009556  0.50089902  1
  I  I65  1  0.49537719  -0.00376994  0.83183666  1
  I  I66  1  0.50124149  0.33358148  0.16631313  1
  I  I67  1  0.49414254  0.33694153  0.50080723  1
  I  I68  1  0.49938222  0.33330905  0.83224674  1
  I  I69  1  0.49770996  0.66678599  0.16694774  1
  I  I70  1  0.50062855  0.66356204  0.50105672  1
  I  I71  1  0.50080065  0.67051265  0.83280938  1
  I  I72  1  0.84084947  -0.00337549  0.16649745  1
  I  I73  1  0.83973113  0.00255610  0.50202259  1
  I  I74  1  0.83467158  -0.00140005  0.82993907  1
  I  I75  1  0.83495702  0.33337972  0.16380117  1
  I  I76  1  0.83902336  0.33287744  0.50580891  1
  I  I77  1  0.83609395  0.33037923  0.82928232  1
  I  I78  1  0.84001987  0.67063982  0.16126418  1
  I  I79  1  0.83554730  0.66461732  0.50026098  1
  I  I80  1  0.83446539  0.67032967  0.83483605  1
  I  I81  1  0.16490166  0.16525186  0.00261677  1
  I  I82  1  0.16147829  0.16298683  0.33467445  1
  I  I83  1  0.16484877  0.16689360  0.66350191  1
  I  I84  1  0.16591682  0.50120788  0.00314315  1
  I  I85  1  0.16648837  0.50488884  0.33477522  1
  I  I86  1  0.16654378  0.50092966  0.66280688  1
  I  I87  1  0.16587744  0.83319303  0.00033631  1
  I  I88  1  0.16184571  0.83235945  0.33316893  1
  I  I89  1  0.16602321  0.83219520  0.66640194  1
  I  I90  1  0.49867017  0.16624217  -0.00025184  1
  I  I91  1  0.50460488  0.16483165  0.33364536  1
  I  I92  1  0.49464401  0.16672042  0.66659739  1
  I  I93  1  0.49847704  0.50073199  0.00008414  1
  I  I94  1  0.50133561  0.50205117  0.33721010  1
  I  I95  1  0.49547195  0.50098587  0.66282501  1
  I  I96  1  0.49466928  0.83322753  -0.00351258  1
  I  I97  1  0.50059002  0.83224761  0.33354685  1
  I  I98  1  0.50111178  0.83209756  0.66996402  1
  I  I99  1  0.83611186  0.16111600  -0.00223561  1
  I  I100  1  0.83698609  0.16962993  0.33641086  1
  I  I101  1  0.83923434  0.16415788  0.66564708  1
  I  I102  1  0.83506305  0.49854358  0.00049875  1
  I  I103  1  0.83323851  0.49543942  0.33776250  1
  I  I104  1  0.83766428  0.50235303  0.66277330  1
  I  I105  1  0.83920035  0.83867798  -0.00106232  1
  I  I106  1  0.84044771  0.83221071  0.33102881  1
  I  I107  1  0.83501648  0.83347823  0.66907246  1
  I  I108  1  0.00362834  0.16686679  0.16924291  1
  I  I109  1  0.00106654  0.17058554  0.50048919  1
  I  I110  1  -0.00299677  0.15986667  0.83077635  1
  I  I111  1  0.00393606  0.49965891  0.17302775  1
  I  I112  1  0.00128711  0.50004719  0.49720025  1
  I  I113  1  0.00005200  0.50360547  0.83022004  1
  I  I114  1  0.00198557  0.83309854  0.16223544  1
  I  I115  1  0.00337574  0.82915998  0.50332756  1
  I  I116  1  0.00015635  0.83624717  0.83405420  1
  I  I117  1  0.32755073  0.16254519  0.17385521  1
  I  I118  1  0.32952202  0.16622259  0.49594392  1
  I  I119  1  0.33319967  0.16486596  0.83311246  1
  I  I120  1  0.32832843  0.50448731  0.17308744  1
  I  I121  1  0.33136517  0.50215723  0.49599128  1
  I  I122  1  0.33304003  0.50207537  0.83112150  1
  I  I123  1  0.32919795  0.83268806  0.16673435  1
  I  I124  1  0.32807711  0.83332970  0.49870036  1
  I  I125  1  0.33182787  0.83146108  0.83258928  1
  I  I126  1  0.66706525  0.16359566  0.16753016  1
  I  I127  1  0.67018322  0.16955252  0.50471565  1
  I  I128  1  0.67182662  0.15978699  0.82516880  1
  I  I129  1  0.66687329  0.50241683  0.16819158  1
  I  I130  1  0.66756585  0.49723017  0.50330911  1
  I  I131  1  0.66693596  0.50344831  0.83008691  1
  I  I132  1  0.66971947  0.83384074  0.16305067  1
  I  I133  1  0.66667509  0.83220339  0.50026587  1
  I  I134  1  0.66816109  0.83695585  0.83646839  1
