# generated using pymatgen
data_Cs27Sn14Pb13I81
_symmetry_space_group_name_H-M   'P 1'
_cell_length_a   18.98004931
_cell_length_b   18.97016307
_cell_length_c   18.97680616
_cell_angle_alpha   89.99774001
_cell_angle_beta   89.99887551
_cell_angle_gamma   89.99954527
_symmetry_Int_Tables_number   1
_chemical_formula_structural   Cs27Sn14Pb13I81
_chemical_formula_sum   'Cs27 Sn14 Pb13 I81'
_cell_volume   6832.68692157
_cell_formula_units_Z   1
loop_
 _symmetry_equiv_pos_site_id
 _symmetry_equiv_pos_as_xyz
  1  'x, y, z'
loop_
 _atom_site_type_symbol
 _atom_site_label
 _atom_site_symmetry_multiplicity
 _atom_site_fract_x
 _atom_site_fract_y
 _atom_site_fract_z
 _atom_site_occupancy
  Cs  Cs0  1  -0.00024606  -0.00214653  -0.00045669  1
  Cs  Cs1  1  0.00082164  0.00209454  0.33300318  1
  Cs  Cs2  1  -0.00033755  -0.00019602  0.66730471  1
  Cs  Cs3  1  -0.00070500  0.33373482  0.00121612  1
  Cs  Cs4  1  0.00160176  0.33343956  0.33213771  1
  Cs  Cs5  1  0.00111142  0.33429640  0.66618556  1
  Cs  Cs6  1  0.00057061  0.66778155  -0.00124159  1
  Cs  Cs7  1  -0.00145279  0.66061678  0.33796904  1
  Cs  Cs8  1  -0.00047119  0.66464982  0.66529521  1
  Cs  Cs9  1  0.32962309  -0.00328749  -0.00125661  1
  Cs  Cs10  1  0.33332060  -0.00047421  0.33198016  1
  Cs  Cs11  1  0.32979216  0.00200327  0.66963646  1
  Cs  Cs12  1  0.33448175  0.33298204  -0.00331833  1
  Cs  Cs13  1  0.32883085  0.33108515  0.33518427  1
  Cs  Cs14  1  0.33569693  0.33498262  0.66897992  1
  Cs  Cs15  1  0.33356875  0.67083060  0.00364609  1
  Cs  Cs16  1  0.34102819  0.66947942  0.33371504  1
  Cs  Cs17  1  0.33552384  0.66150867  0.66296657  1
  Cs  Cs18  1  0.67015518  0.00029825  -0.00136222  1
  Cs  Cs19  1  0.66562516  0.00090270  0.33493854  1
  Cs  Cs20  1  0.66844360  -0.00172857  0.66612390  1
  Cs  Cs21  1  0.66576330  0.33610267  0.00007017  1
  Cs  Cs22  1  0.66836998  0.33261236  0.32901900  1
  Cs  Cs23  1  0.66216935  0.33226431  0.67104221  1
  Cs  Cs24  1  0.66603619  0.66499796  0.00033392  1
  Cs  Cs25  1  0.65947403  0.66257627  0.33844301  1
  Cs  Cs26  1  0.66483955  0.67091207  0.66249878  1
  Sn  Sn27  1  0.83370039  0.16688357  0.83352493  1
  Sn  Sn28  1  0.83328834  0.16664021  0.49983723  1
  Sn  Sn29  1  0.16661607  0.49955598  0.16569870  1
  Sn  Sn30  1  0.50049084  0.83371010  0.83359698  1
  Sn  Sn31  1  0.49985059  0.16639434  0.16686630  1
  Sn  Sn32  1  0.16598991  0.49994555  0.83455648  1
  Sn  Sn33  1  0.83342377  0.83335654  0.16699472  1
  Sn  Sn34  1  0.16669234  0.16555428  0.49952682  1
  Sn  Sn35  1  0.83264190  0.83304505  0.83409215  1
  Sn  Sn36  1  0.49986185  0.16630453  0.49937827  1
  Sn  Sn37  1  0.83338223  0.16582716  0.16658744  1
  Sn  Sn38  1  0.16675300  0.16710743  0.16681477  1
  Sn  Sn39  1  0.16628816  0.83404047  0.49975927  1
  Sn  Sn40  1  0.83405920  0.50016585  0.83334443  1
  Pb  Pb41  1  0.83476389  0.83509904  0.49957478  1
  Pb  Pb42  1  0.83484690  0.50022626  0.16503166  1
  Pb  Pb43  1  0.50018835  0.49665281  0.49978898  1
  Pb  Pb44  1  0.16602579  0.83071166  0.83131494  1
  Pb  Pb45  1  0.50298065  0.83594273  0.16498671  1
  Pb  Pb46  1  0.49764954  0.83619566  0.50202843  1
  Pb  Pb47  1  0.83300962  0.49684990  0.50274335  1
  Pb  Pb48  1  0.16673178  0.49944412  0.49959709  1
  Pb  Pb49  1  0.16449853  0.16830427  0.83350526  1
  Pb  Pb50  1  0.49692919  0.49728949  0.16653345  1
  Pb  Pb51  1  0.16425098  0.83322858  0.16880389  1
  Pb  Pb52  1  0.50024250  0.50281670  0.83358508  1
  Pb  Pb53  1  0.50235160  0.16480490  0.83375973  1
  I  I54  1  0.16757882  0.00337151  0.16933882  1
  I  I55  1  0.16595817  0.00260127  0.49561602  1
  I  I56  1  0.16603701  -0.00008055  0.83473991  1
  I  I57  1  0.16393803  0.33119152  0.16903968  1
  I  I58  1  0.16610249  0.32959445  0.49873080  1
  I  I59  1  0.16108008  0.33611144  0.83235104  1
  I  I60  1  0.16290562  0.66426298  0.16319080  1
  I  I61  1  0.16467770  0.66890314  0.50191867  1
  I  I62  1  0.16067054  0.66309936  0.83753965  1
  I  I63  1  0.49495406  0.00420433  0.17057758  1
  I  I64  1  0.50293162  0.00424395  0.49623554  1
  I  I65  1  0.50594729  -0.00267336  0.83282313  1
  I  I66  1  0.50668876  0.32861808  0.16924844  1
  I  I67  1  0.49656903  0.32797126  0.49880980  1
  I  I68  1  0.50090489  0.33306752  0.83210485  1
  I  I69  1  0.49966839  0.66702576  0.16494619  1
  I  I70  1  0.49740785  0.66723332  0.50170241  1
  I  I71  1  0.50578805  0.67040996  0.83305074  1
  I  I72  1  0.83575595  0.00221475  0.16122346  1
  I  I73  1  0.83234924  0.00396668  0.50455551  1
  I  I74  1  0.82897366  0.00037278  0.83368815  1
  I  I75  1  0.83201436  0.32964754  0.16657195  1
  I  I76  1  0.83774143  0.32793150  0.49771210  1
  I  I77  1  0.83846294  0.33248406  0.83253738  1
  I  I78  1  0.83725188  0.66933906  0.15983529  1
  I  I79  1  0.83730810  0.66677536  0.50020648  1
  I  I80  1  0.83430596  0.66737622  0.83927360  1
  I  I81  1  0.16662896  0.16907922  0.00300821  1
  I  I82  1  0.16241357  0.16902186  0.33293782  1
  I  I83  1  0.16633065  0.16450523  0.66399232  1
  I  I84  1  0.16209580  0.49379204  0.00015292  1
  I  I85  1  0.16553133  0.49637305  0.33053490  1
  I  I86  1  0.16218789  0.50019883  0.66920393  1
  I  I87  1  0.16820836  0.83551290  0.00003267  1
  I  I88  1  0.16447102  0.83510932  0.33631557  1
  I  I89  1  0.16465652  0.84044327  0.66380983  1
  I  I90  1  0.49970273  0.16572067  0.00288535  1
  I  I91  1  0.50417210  0.16640017  0.33324285  1
  I  I92  1  0.49969231  0.16527204  0.66418845  1
  I  I93  1  0.50108083  0.49577433  -0.00008673  1
  I  I94  1  0.49872500  0.50455721  0.33304901  1
  I  I95  1  0.49674065  0.49664645  0.66703511  1
  I  I96  1  0.50066190  0.83599948  -0.00289906  1
  I  I97  1  0.50030046  0.83180490  0.33335946  1
  I  I98  1  0.50786886  0.83522465  0.66970219  1
  I  I99  1  0.83358426  0.16595671  0.00031090  1
  I  I100  1  0.83375302  0.16161968  0.33260929  1
  I  I101  1  0.83396407  0.16675016  0.66686362  1
  I  I102  1  0.83582675  0.49486865  -0.00329415  1
  I  I103  1  0.83610600  0.50013315  0.33319835  1
  I  I104  1  0.84123004  0.50077265  0.67134601  1
  I  I105  1  0.83157447  0.83958580  -0.00102595  1
  I  I106  1  0.83725849  0.84053205  0.33059725  1
  I  I107  1  0.83136240  0.83471014  0.66967152  1
  I  I108  1  -0.00029292  0.16727877  0.16910246  1
  I  I109  1  0.00012498  0.16320516  0.49792664  1
  I  I110  1  -0.00389441  0.16179479  0.83314662  1
  I  I111  1  0.00282186  0.49292161  0.16503670  1
  I  I112  1  0.00002414  0.49784109  0.49941839  1
  I  I113  1  -0.00077213  0.50080314  0.83673417  1
  I  I114  1  -0.00334361  0.84112002  0.15860850  1
  I  I115  1  0.00249940  0.84044665  0.50230841  1
  I  I116  1  -0.00333468  0.83596292  0.83567559  1
  I  I117  1  0.33251357  0.17174144  0.17427118  1
  I  I118  1  0.33254879  0.16314059  0.49271683  1
  I  I119  1  0.33329979  0.16669240  0.83272471  1
  I  I120  1  0.32864913  0.49506044  0.16006845  1
  I  I121  1  0.33295964  0.49839626  0.50409811  1
  I  I122  1  0.33042428  0.50002506  0.83554764  1
  I  I123  1  0.33321861  0.83387396  0.16508237  1
  I  I124  1  0.32989940  0.83896591  0.50140955  1
  I  I125  1  0.33502872  0.83330605  0.83095105  1
  I  I126  1  0.66781930  0.16186762  0.16945950  1
  I  I127  1  0.66734835  0.16765576  0.49792861  1
  I  I128  1  0.67085014  0.17093803  0.83311780  1
  I  I129  1  0.66674917  0.49837661  0.16454918  1
  I  I130  1  0.66683634  0.50032475  0.50213772  1
  I  I131  1  0.67007564  0.49608360  0.83318380  1
  I  I132  1  0.67100464  0.84005651  0.16452482  1
  I  I133  1  0.66666568  0.83498244  0.49992290  1
  I  I134  1  0.66903255  0.83309374  0.83615270  1
