# generated using pymatgen
data_Cs27Sn13Pb14I81
_symmetry_space_group_name_H-M   'P 1'
_cell_length_a   18.97933540
_cell_length_b   18.98022811
_cell_length_c   18.97151959
_cell_angle_alpha   90.00030345
_cell_angle_beta   89.99901976
_cell_angle_gamma   90.00051391
_symmetry_Int_Tables_number   1
_chemical_formula_structural   Cs27Sn13Pb14I81
_chemical_formula_sum   'Cs27 Sn13 Pb14 I81'
_cell_volume   6834.15062837
_cell_formula_units_Z   1
loop_
 _symmetry_equiv_pos_site_id
 _symmetry_equiv_pos_as_xyz
  1  'x, y, z'
loop_
 _atom_site_type_symbol
 _atom_site_label
 _atom_site_symmetry_multiplicity
 _atom_site_fract_x
 _atom_site_fract_y
 _atom_site_fract_z
 _atom_site_occupancy
  Cs  Cs0  1  -0.00219334  -0.00206672  -0.00105933  1
  Cs  Cs1  1  -0.00053654  -0.00240437  0.33281485  1
  Cs  Cs2  1  0.00048414  0.00200032  0.66798073  1
  Cs  Cs3  1  0.00081096  0.33400113  -0.00241432  1
  Cs  Cs4  1  0.00184626  0.33327252  0.33395987  1
  Cs  Cs5  1  0.00077387  0.33158302  0.66934758  1
  Cs  Cs6  1  -0.00021137  0.66784754  0.00099542  1
  Cs  Cs7  1  0.00065381  0.66904862  0.33310977  1
  Cs  Cs8  1  -0.00285763  0.66586030  0.66546570  1
  Cs  Cs9  1  0.33325881  -0.00231556  -0.00201698  1
  Cs  Cs10  1  0.33266222  0.00237238  0.33425848  1
  Cs  Cs11  1  0.33440643  -0.00099865  0.66725823  1
  Cs  Cs12  1  0.33019244  0.33389046  -0.00063498  1
  Cs  Cs13  1  0.33333639  0.33291363  0.33334284  1
  Cs  Cs14  1  0.33143891  0.33389120  0.66765086  1
  Cs  Cs15  1  0.33658346  0.66725939  0.00172369  1
  Cs  Cs16  1  0.33005762  0.66500387  0.32914835  1
  Cs  Cs17  1  0.34018016  0.66903811  0.66917991  1
  Cs  Cs18  1  0.66887402  0.00311936  -0.00060146  1
  Cs  Cs19  1  0.66803543  0.00274813  0.33416649  1
  Cs  Cs20  1  0.66566153  -0.00187378  0.66827571  1
  Cs  Cs21  1  0.66852904  0.33104868  0.00270072  1
  Cs  Cs22  1  0.66238555  0.33049256  0.33159771  1
  Cs  Cs23  1  0.66801202  0.33857126  0.66478121  1
  Cs  Cs24  1  0.66078855  0.66471581  -0.00220530  1
  Cs  Cs25  1  0.66898948  0.66700206  0.33975752  1
  Cs  Cs26  1  0.66222092  0.66263132  0.66113920  1
  Sn  Sn27  1  0.83360425  0.83319629  0.83317814  1
  Sn  Sn28  1  0.16622463  0.49909153  0.16722161  1
  Sn  Sn29  1  0.16660306  0.83326392  0.50115943  1
  Sn  Sn30  1  0.50045362  0.83339668  0.16728837  1
  Sn  Sn31  1  0.16632872  0.16695826  0.16707157  1
  Sn  Sn32  1  0.83358790  0.50011462  0.16673652  1
  Sn  Sn33  1  0.50005983  0.50081479  0.16683491  1
  Sn  Sn34  1  0.50102728  0.16703033  0.83313359  1
  Sn  Sn35  1  0.83239067  0.16611593  0.83233894  1
  Sn  Sn36  1  0.83401918  0.16667927  0.50059480  1
  Sn  Sn37  1  0.16578808  0.16669873  0.49927289  1
  Sn  Sn38  1  0.16655696  0.49997760  0.49974991  1
  Sn  Sn39  1  0.16590626  0.83308641  0.83250586  1
  Pb  Pb40  1  0.83338445  0.50008938  0.83495943  1
  Pb  Pb41  1  0.49726863  0.49988234  0.49735605  1
  Pb  Pb42  1  0.16663718  0.50324427  0.83323571  1
  Pb  Pb43  1  0.49997489  0.49711574  0.83549139  1
  Pb  Pb44  1  0.16613923  0.16499716  0.83313907  1
  Pb  Pb45  1  0.16761571  0.83327939  0.16674016  1
  Pb  Pb46  1  0.83056954  0.83103689  0.16451182  1
  Pb  Pb47  1  0.83577055  0.16812929  0.16660951  1
  Pb  Pb48  1  0.50060163  0.83478546  0.83478591  1
  Pb  Pb49  1  0.49750105  0.16677325  0.16495238  1
  Pb  Pb50  1  0.83531664  0.83539413  0.50224590  1
  Pb  Pb51  1  0.49759168  0.83350825  0.49720799  1
  Pb  Pb52  1  0.83567380  0.49742201  0.49766730  1
  Pb  Pb53  1  0.49980976  0.16669074  0.50249860  1
  I  I54  1  0.16915374  0.00219111  0.16933734  1
  I  I55  1  0.16341919  0.00075827  0.49914974  1
  I  I56  1  0.16618894  -0.00275155  0.83126565  1
  I  I57  1  0.16904882  0.33407550  0.17314348  1
  I  I58  1  0.16350064  0.33276053  0.49392772  1
  I  I59  1  0.16673771  0.33328996  0.83257673  1
  I  I60  1  0.16603102  0.66377010  0.16934907  1
  I  I61  1  0.16757693  0.66648632  0.49770299  1
  I  I62  1  0.16155647  0.67119557  0.83134015  1
  I  I63  1  0.49591955  -0.00188011  0.16405639  1
  I  I64  1  0.49606749  0.00019437  0.49603775  1
  I  I65  1  0.50016921  0.00258635  0.83738758  1
  I  I66  1  0.50019106  0.33615561  0.16497247  1
  I  I67  1  0.49740509  0.33319676  0.49816335  1
  I  I68  1  0.50443991  0.32922556  0.83518678  1
  I  I69  1  0.49542768  0.66557519  0.16447633  1
  I  I70  1  0.49911725  0.66666026  0.50300791  1
  I  I71  1  0.49918159  0.66668825  0.83424647  1
  I  I72  1  0.83353483  0.00011199  0.16753944  1
  I  I73  1  0.84000225  0.00354276  0.49977633  1
  I  I74  1  0.83431573  0.00090953  0.83126955  1
  I  I75  1  0.82983870  0.33610786  0.16475584  1
  I  I76  1  0.83988811  0.32956108  0.50673140  1
  I  I77  1  0.83025717  0.32995426  0.83121284  1
  I  I78  1  0.84037776  0.66314297  0.16517886  1
  I  I79  1  0.83510117  0.66651746  0.50044867  1
  I  I80  1  0.83948057  0.66963390  0.83725427  1
  I  I81  1  0.16751376  0.17036361  0.00221875  1
  I  I82  1  0.16267514  0.16541483  0.33416666  1
  I  I83  1  0.16584466  0.16917418  0.66377077  1
  I  I84  1  0.16731937  0.49570009  0.00357729  1
  I  I85  1  0.16722117  0.50063972  0.33240507  1
  I  I86  1  0.16534197  0.49525636  0.66339764  1
  I  I87  1  0.16512473  0.83485770  -0.00212686  1
  I  I88  1  0.16932154  0.83386489  0.33585430  1
  I  I89  1  0.16332858  0.83518746  0.66625096  1
  I  I90  1  0.50433120  0.16647929  -0.00272378  1
  I  I91  1  0.50154537  0.16694964  0.33316168  1
  I  I92  1  0.49808315  0.16377142  0.67032460  1
  I  I93  1  0.49564155  0.50399739  0.00403439  1
  I  I94  1  0.50115396  0.50186920  0.32894979  1
  I  I95  1  0.49823906  0.49967027  0.66645471  1
  I  I96  1  0.49563089  0.82917206  0.00260065  1
  I  I97  1  0.49722239  0.82967433  0.32926933  1
  I  I98  1  0.49967178  0.83519034  0.66670908  1
  I  I99  1  0.83144820  0.16447444  -0.00272415  1
  I  I100  1  0.83702962  0.16891296  0.33575582  1
  I  I101  1  0.83688335  0.16326619  0.66708032  1
  I  I102  1  0.83693145  0.49742384  0.00338997  1
  I  I103  1  0.83188215  0.49859126  0.32958546  1
  I  I104  1  0.83579978  0.50068531  0.66629149  1
  I  I105  1  0.84149323  0.84108676  -0.00336028  1
  I  I106  1  0.83411798  0.83431077  0.33337083  1
  I  I107  1  0.83548882  0.83552434  0.67041175  1
  I  I108  1  0.00378386  0.17146646  0.16602649  1
  I  I109  1  0.00142047  0.16696635  0.50224758  1
  I  I110  1  -0.00250487  0.16430470  0.83263139  1
  I  I111  1  0.00152570  0.49489496  0.16963833  1
  I  I112  1  0.00392059  0.50200041  0.49308900  1
  I  I113  1  0.00020309  0.49587792  0.83772285  1
  I  I114  1  -0.00004794  0.83245683  0.16703347  1
  I  I115  1  0.00393624  0.83175777  0.49935658  1
  I  I116  1  0.00031059  0.83997178  0.83160810  1
  I  I117  1  0.32955374  0.17128980  0.17040081  1
  I  I118  1  0.32953401  0.16700636  0.49704059  1
  I  I119  1  0.33456549  0.16487752  0.83529497  1
  I  I120  1  0.33230996  0.50012863  0.17044813  1
  I  I121  1  0.32867196  0.49651197  0.49433064  1
  I  I122  1  0.33307826  0.49890687  0.83592240  1
  I  I123  1  0.33517493  0.82834312  0.16423796  1
  I  I124  1  0.32862667  0.83640293  0.50649295  1
  I  I125  1  0.33092267  0.83551761  0.83109941  1
  I  I126  1  0.66679107  0.16828548  0.16822980  1
  I  I127  1  0.66974982  0.16638741  0.50145588  1
  I  I128  1  0.66826169  0.16016917  0.83068018  1
  I  I129  1  0.66625706  0.50384215  0.16290425  1
  I  I130  1  0.66690863  0.49844043  0.49849974  1
  I  I131  1  0.66670492  0.50354757  0.83615463  1
  I  I132  1  0.66296762  0.82926709  0.16325462  1
  I  I133  1  0.66690959  0.83513688  0.50030010  1
  I  I134  1  0.66946248  0.83764802  0.83809761  1
