# generated using pymatgen
data_Cs27Sn14Pb13I81
_symmetry_space_group_name_H-M   'P 1'
_cell_length_a   18.95893947
_cell_length_b   18.96336360
_cell_length_c   18.95938925
_cell_angle_alpha   89.99998177
_cell_angle_beta   90.00034765
_cell_angle_gamma   89.99993304
_symmetry_Int_Tables_number   1
_chemical_formula_structural   Cs27Sn14Pb13I81
_chemical_formula_sum   'Cs27 Sn14 Pb13 I81'
_cell_volume   6816.37940245
_cell_formula_units_Z   1
loop_
 _symmetry_equiv_pos_site_id
 _symmetry_equiv_pos_as_xyz
  1  'x, y, z'
loop_
 _atom_site_type_symbol
 _atom_site_label
 _atom_site_symmetry_multiplicity
 _atom_site_fract_x
 _atom_site_fract_y
 _atom_site_fract_z
 _atom_site_occupancy
  Cs  Cs0  1  0.00073863  0.00232250  -0.00115745  1
  Cs  Cs1  1  -0.00050224  -0.00174811  0.33690582  1
  Cs  Cs2  1  -0.00127666  -0.00364562  0.66448173  1
  Cs  Cs3  1  -0.00010059  0.33587934  -0.00101677  1
  Cs  Cs4  1  -0.00401732  0.33351873  0.33166604  1
  Cs  Cs5  1  0.00284721  0.33507623  0.66989222  1
  Cs  Cs6  1  0.00338049  0.66269132  0.00400991  1
  Cs  Cs7  1  0.00429150  0.66800850  0.33255527  1
  Cs  Cs8  1  -0.00253861  0.66764523  0.66421037  1
  Cs  Cs9  1  0.33499562  0.00190281  0.00054736  1
  Cs  Cs10  1  0.33237277  -0.00120894  0.33201663  1
  Cs  Cs11  1  0.33206799  0.00075344  0.66884200  1
  Cs  Cs12  1  0.33186419  0.33133367  -0.00215016  1
  Cs  Cs13  1  0.33644710  0.33107744  0.33732797  1
  Cs  Cs14  1  0.33215382  0.33325126  0.66589975  1
  Cs  Cs15  1  0.33325401  0.66687974  0.00102817  1
  Cs  Cs16  1  0.33278246  0.66920619  0.33292390  1
  Cs  Cs17  1  0.33447713  0.66621517  0.66564385  1
  Cs  Cs18  1  0.66479826  -0.00206010  -0.00072754  1
  Cs  Cs19  1  0.66830245  0.00282543  0.33294312  1
  Cs  Cs20  1  0.67087627  -0.00237856  0.66761089  1
  Cs  Cs21  1  0.66783423  0.33345220  0.00108613  1
  Cs  Cs22  1  0.66784208  0.33088614  0.33505222  1
  Cs  Cs23  1  0.66607378  0.33491984  0.66466119  1
  Cs  Cs24  1  0.66557862  0.66832967  -0.00177366  1
  Cs  Cs25  1  0.66298546  0.66507864  0.33067878  1
  Cs  Cs26  1  0.66843393  0.66622845  0.66974588  1
  Sn  Sn27  1  0.16584057  0.49928130  0.49976107  1
  Sn  Sn28  1  0.49942616  0.16700953  0.16603676  1
  Sn  Sn29  1  0.16660248  0.83296291  0.83355075  1
  Sn  Sn30  1  0.83228363  0.16729286  0.83340540  1
  Sn  Sn31  1  0.50084705  0.83356749  0.16767542  1
  Sn  Sn32  1  0.49992225  0.49948821  0.16580832  1
  Sn  Sn33  1  0.83248162  0.49908584  0.83279856  1
  Sn  Sn34  1  0.83300038  0.83334630  0.16669919  1
  Sn  Sn35  1  0.50047215  0.83366511  0.49957406  1
  Sn  Sn36  1  0.16666465  0.16737399  0.49899848  1
  Sn  Sn37  1  0.50109459  0.16753982  0.83378001  1
  Sn  Sn38  1  0.16704661  0.16694495  0.16773143  1
  Sn  Sn39  1  0.83406941  0.49990265  0.50024279  1
  Sn  Sn40  1  0.50054347  0.49896807  0.83425392  1
  Pb  Pb41  1  0.83087370  0.83076971  0.49754711  1
  Pb  Pb42  1  0.16715329  0.83546747  0.16500619  1
  Pb  Pb43  1  0.49867088  0.16446005  0.50048637  1
  Pb  Pb44  1  0.16952105  0.49729620  0.16922201  1
  Pb  Pb45  1  0.50017024  0.50139824  0.50031113  1
  Pb  Pb46  1  0.16838226  0.83338067  0.50160289  1
  Pb  Pb47  1  0.16674513  0.16546323  0.83329039  1
  Pb  Pb48  1  0.83129176  0.50173658  0.16642427  1
  Pb  Pb49  1  0.16688835  0.50207168  0.83162760  1
  Pb  Pb50  1  0.83583677  0.16875117  0.50265672  1
  Pb  Pb51  1  0.83302020  0.16499634  0.16475023  1
  Pb  Pb52  1  0.49880696  0.83337828  0.83387371  1
  Pb  Pb53  1  0.83561647  0.83266426  0.83536120  1
  I  I54  1  0.17248220  0.00332259  0.17084512  1
  I  I55  1  0.16985818  0.00249578  0.49817929  1
  I  I56  1  0.16802417  -0.00196425  0.83200211  1
  I  I57  1  0.17112698  0.32933358  0.16567812  1
  I  I58  1  0.16551658  0.33330019  0.49806384  1
  I  I59  1  0.16674654  0.33343144  0.83394035  1
  I  I60  1  0.16753992  0.66650203  0.16671434  1
  I  I61  1  0.16477826  0.66420407  0.50312770  1
  I  I62  1  0.16811201  0.66932126  0.83222694  1
  I  I63  1  0.49923181  0.00045666  0.16583876  1
  I  I64  1  0.49677541  -0.00312351  0.49639145  1
  I  I65  1  0.50142437  0.00271132  0.83615233  1
  I  I66  1  0.49524400  0.33275812  0.16181403  1
  I  I67  1  0.50036317  0.33329013  0.49764480  1
  I  I68  1  0.50246932  0.33332682  0.84029659  1
  I  I69  1  0.50477939  0.66683395  0.16649493  1
  I  I70  1  0.49750006  0.66912409  0.49605273  1
  I  I71  1  0.50238212  0.66397110  0.83535932  1
  I  I72  1  0.82756624  -0.00274103  0.16398565  1
  I  I73  1  0.83450956  -0.00004291  0.50148887  1
  I  I74  1  0.83020200  0.00231877  0.83611741  1
  I  I75  1  0.83277768  0.33343034  0.16786971  1
  I  I76  1  0.83256202  0.33684557  0.50014904  1
  I  I77  1  0.83019362  0.33395551  0.83090612  1
  I  I78  1  0.82726150  0.66952193  0.16445880  1
  I  I79  1  0.83912856  0.66296985  0.50741940  1
  I  I80  1  0.82930878  0.66342728  0.83050151  1
  I  I81  1  0.16917121  0.16288793  0.00209626  1
  I  I82  1  0.17349388  0.16897895  0.33294903  1
  I  I83  1  0.16732689  0.16863217  0.66452233  1
  I  I84  1  0.16446490  0.50006380  0.00017714  1
  I  I85  1  0.16222991  0.50057423  0.33714470  1
  I  I86  1  0.16867943  0.49438656  0.66372034  1
  I  I87  1  0.16887508  0.83519904  -0.00244452  1
  I  I88  1  0.16611646  0.83240920  0.33318971  1
  I  I89  1  0.16925462  0.83605347  0.66911847  1
  I  I90  1  0.49729595  0.16481670  0.00052210  1
  I  I91  1  0.49709470  0.16835753  0.33037046  1
  I  I92  1  0.50085228  0.16992978  0.66980424  1
  I  I93  1  0.50510179  0.50196676  -0.00050780  1
  I  I94  1  0.49957901  0.49905069  0.33080432  1
  I  I95  1  0.50031171  0.49766684  0.66950434  1
  I  I96  1  0.50189436  0.83356160  0.00296343  1
  I  I97  1  0.50172989  0.83198129  0.33148928  1
  I  I98  1  0.49596506  0.83227290  0.66515306  1
  I  I99  1  0.83460814  0.17234498  -0.00330194  1
  I  I100  1  0.83161945  0.16712669  0.33339493  1
  I  I101  1  0.82823110  0.16643425  0.67072970  1
  I  I102  1  0.83084548  0.49788905  -0.00296625  1
  I  I103  1  0.83560554  0.50272405  0.33560886  1
  I  I104  1  0.83092646  0.49720444  0.66777562  1
  I  I105  1  0.82576338  0.83237005  0.00287253  1
  I  I106  1  0.83206860  0.83309676  0.32977695  1
  I  I107  1  0.83290395  0.83482966  0.66670604  1
  I  I108  1  0.00232946  0.16340800  0.16823562  1
  I  I109  1  0.00391074  0.16649362  0.49544880  1
  I  I110  1  -0.00223950  0.16916097  0.83366493  1
  I  I111  1  0.00011969  0.50126158  0.16451721  1
  I  I112  1  -0.00013413  0.49693126  0.50640910  1
  I  I113  1  -0.00276549  0.49716962  0.83105663  1
  I  I114  1  -0.00194106  0.83431716  0.16322392  1
  I  I115  1  -0.00015742  0.83441995  0.49968060  1
  I  I116  1  0.00279212  0.83533140  0.83415037  1
  I  I117  1  0.33502034  0.16435768  0.16418723  1
  I  I118  1  0.33060218  0.17234450  0.50130498  1
  I  I119  1  0.33616860  0.16888764  0.83472595  1
  I  I120  1  0.33775433  0.50564199  0.16190601  1
  I  I121  1  0.33136940  0.49812480  0.50015248  1
  I  I122  1  0.33644029  0.49724507  0.83544922  1
  I  I123  1  0.33667378  0.83205111  0.16872731  1
  I  I124  1  0.33616763  0.83063253  0.49433796  1
  I  I125  1  0.33136473  0.83434005  0.83419674  1
  I  I126  1  0.66323727  0.16738029  0.16405264  1
  I  I127  1  0.66679689  0.16735299  0.49778396  1
  I  I128  1  0.66542484  0.16921563  0.83907004  1
  I  I129  1  0.66284010  0.49623626  0.16785332  1
  I  I130  1  0.66876153  0.50302212  0.50185427  1
  I  I131  1  0.66626158  0.49746580  0.83093589  1
  I  I132  1  0.66441396  0.83504680  0.16900537  1
  I  I133  1  0.66301368  0.83211061  0.49981092  1
  I  I134  1  0.66666613  0.83355695  0.83198634  1
