# generated using pymatgen
data_Cs27Sn14Pb13I81
_symmetry_space_group_name_H-M   'P 1'
_cell_length_a   18.98257611
_cell_length_b   18.96723425
_cell_length_c   18.97843811
_cell_angle_alpha   89.99982279
_cell_angle_beta   90.00135399
_cell_angle_gamma   89.99947373
_symmetry_Int_Tables_number   1
_chemical_formula_structural   Cs27Sn14Pb13I81
_chemical_formula_sum   'Cs27 Sn14 Pb13 I81'
_cell_volume   6833.12909282
_cell_formula_units_Z   1
loop_
 _symmetry_equiv_pos_site_id
 _symmetry_equiv_pos_as_xyz
  1  'x, y, z'
loop_
 _atom_site_type_symbol
 _atom_site_label
 _atom_site_symmetry_multiplicity
 _atom_site_fract_x
 _atom_site_fract_y
 _atom_site_fract_z
 _atom_site_occupancy
  Cs  Cs0  1  -0.00050285  -0.00478895  -0.00192961  1
  Cs  Cs1  1  -0.00024961  0.00533853  0.33836829  1
  Cs  Cs2  1  -0.00142683  0.00274000  0.66472396  1
  Cs  Cs3  1  -0.00272830  0.33282543  0.00705825  1
  Cs  Cs4  1  0.00858608  0.32736632  0.32727652  1
  Cs  Cs5  1  0.00125983  0.33178893  0.66452286  1
  Cs  Cs6  1  -0.00150389  0.66807349  -0.00040817  1
  Cs  Cs7  1  0.00134411  0.66429508  0.32984143  1
  Cs  Cs8  1  -0.00064144  0.66627684  0.67054539  1
  Cs  Cs9  1  0.33413073  -0.00086403  0.00032362  1
  Cs  Cs10  1  0.33338935  -0.00026578  0.33211238  1
  Cs  Cs11  1  0.33251091  -0.00215948  0.66812109  1
  Cs  Cs12  1  0.33571113  0.32932977  -0.00023874  1
  Cs  Cs13  1  0.32650480  0.33072329  0.33519711  1
  Cs  Cs14  1  0.33349396  0.33456440  0.66542527  1
  Cs  Cs15  1  0.33443417  0.66848269  -0.00196002  1
  Cs  Cs16  1  0.33469840  0.66704609  0.33367954  1
  Cs  Cs17  1  0.33384079  0.66572712  0.66856358  1
  Cs  Cs18  1  0.66566079  0.00561700  -0.00027085  1
  Cs  Cs19  1  0.66904841  -0.00192651  0.33821146  1
  Cs  Cs20  1  0.67011143  0.00274450  0.66229067  1
  Cs  Cs21  1  0.66698073  0.32729092  -0.00006113  1
  Cs  Cs22  1  0.66665865  0.33434737  0.33038260  1
  Cs  Cs23  1  0.66487996  0.33605260  0.66875186  1
  Cs  Cs24  1  0.66706927  0.66588884  -0.00006701  1
  Cs  Cs25  1  0.66540759  0.66837617  0.33426038  1
  Cs  Cs26  1  0.66577015  0.66512800  0.66540880  1
  Sn  Sn27  1  0.83317676  0.50060779  0.83276003  1
  Sn  Sn28  1  0.49980785  0.50054786  0.16635545  1
  Sn  Sn29  1  0.16651769  0.83259389  0.49918288  1
  Sn  Sn30  1  0.50013652  0.16782340  0.50014684  1
  Sn  Sn31  1  0.16646053  0.49860077  0.83365148  1
  Sn  Sn32  1  0.50026826  0.50060532  0.83387697  1
  Sn  Sn33  1  0.16664558  0.16804353  0.83357641  1
  Sn  Sn34  1  0.16669944  0.83290622  0.16808023  1
  Sn  Sn35  1  0.83338311  0.50004884  0.49994684  1
  Sn  Sn36  1  0.50051135  0.83247019  0.16574641  1
  Sn  Sn37  1  0.50060286  0.49893216  0.49977403  1
  Sn  Sn38  1  0.83275271  0.83297374  0.16605993  1
  Sn  Sn39  1  0.50155600  0.83287784  0.83385309  1
  Sn  Sn40  1  0.83158388  0.83264339  0.83389058  1
  Pb  Pb41  1  0.83123397  0.50161593  0.16658061  1
  Pb  Pb42  1  0.83564629  0.16706421  0.83328742  1
  Pb  Pb43  1  0.16685305  0.16366901  0.16393605  1
  Pb  Pb44  1  0.49864170  0.16646512  0.83159002  1
  Pb  Pb45  1  0.49998322  0.16633314  0.16928925  1
  Pb  Pb46  1  0.83313517  0.16325336  0.16672702  1
  Pb  Pb47  1  0.49886175  0.83252420  0.50030486  1
  Pb  Pb48  1  0.16934071  0.50209918  0.16370915  1
  Pb  Pb49  1  0.16651511  0.50159081  0.50171609  1
  Pb  Pb50  1  0.16877075  0.16433535  0.50205855  1
  Pb  Pb51  1  0.16654245  0.83275780  0.83368510  1
  Pb  Pb52  1  0.83570526  0.83095147  0.50029994  1
  Pb  Pb53  1  0.83112240  0.17068778  0.50015255  1
  I  I54  1  0.17040398  -0.00480405  0.16734494  1
  I  I55  1  0.16876018  -0.00361133  0.49921562  1
  I  I56  1  0.16803295  0.00114862  0.83323194  1
  I  I57  1  0.16811485  0.33359623  0.16783472  1
  I  I58  1  0.16544774  0.33354308  0.50045636  1
  I  I59  1  0.16878027  0.33510256  0.83059552  1
  I  I60  1  0.16533149  0.67038597  0.16750479  1
  I  I61  1  0.17032077  0.66937242  0.49934254  1
  I  I62  1  0.16769567  0.66424785  0.83284530  1
  I  I63  1  0.49900943  -0.00396675  0.16259147  1
  I  I64  1  0.49563429  0.00124779  0.50067844  1
  I  I65  1  0.50051168  -0.00337111  0.83649178  1
  I  I66  1  0.50089923  0.33670292  0.16254675  1
  I  I67  1  0.50299474  0.33578092  0.50207759  1
  I  I68  1  0.50205222  0.33694781  0.83550418  1
  I  I69  1  0.49953118  0.66750855  0.16760526  1
  I  I70  1  0.50209567  0.66350280  0.50084437  1
  I  I71  1  0.49747075  0.66592708  0.83165144  1
  I  I72  1  0.83032864  -0.00570918  0.15964794  1
  I  I73  1  0.83300698  -0.00019573  0.49992887  1
  I  I74  1  0.83124982  -0.00352802  0.83822044  1
  I  I75  1  0.83130043  0.33381277  0.16578312  1
  I  I76  1  0.83180149  0.33864104  0.50914188  1
  I  I77  1  0.82970606  0.33724913  0.82862882  1
  I  I78  1  0.83530450  0.67004905  0.16456423  1
  I  I79  1  0.82498284  0.66342566  0.50272852  1
  I  I80  1  0.83498218  0.66641504  0.83327761  1
  I  I81  1  0.16913100  0.16920477  -0.00374392  1
  I  I82  1  0.16731796  0.16655044  0.33332905  1
  I  I83  1  0.16778621  0.16691447  0.66970392  1
  I  I84  1  0.16556973  0.49986637  -0.00452249  1
  I  I85  1  0.16673920  0.50083213  0.33299069  1
  I  I86  1  0.17165434  0.50139815  0.66997951  1
  I  I87  1  0.16732675  0.83327677  0.00215749  1
  I  I88  1  0.16869262  0.83244919  0.33240279  1
  I  I89  1  0.16844848  0.83320717  0.66550102  1
  I  I90  1  0.49837264  0.16801357  -0.00006655  1
  I  I91  1  0.49893881  0.17014328  0.33697952  1
  I  I92  1  0.49817512  0.17025775  0.66394739  1
  I  I93  1  0.49873111  0.50649516  -0.00111149  1
  I  I94  1  0.50543050  0.50202519  0.33363721  1
  I  I95  1  0.50013768  0.50063840  0.66763928  1
  I  I96  1  0.49707136  0.82600065  -0.00028918  1
  I  I97  1  0.50110511  0.83043349  0.33062598  1
  I  I98  1  0.50082795  0.83008038  0.66961541  1
  I  I99  1  0.83267925  0.17110016  -0.00026808  1
  I  I100  1  0.83319490  0.16567314  0.33365141  1
  I  I101  1  0.83429246  0.15930776  0.66672736  1
  I  I102  1  0.83374362  0.50305906  -0.00329100  1
  I  I103  1  0.82637899  0.50335834  0.33564929  1
  I  I104  1  0.82830545  0.50643030  0.66830103  1
  I  I105  1  0.83599061  0.82715990  -0.00097239  1
  I  I106  1  0.82996710  0.83164748  0.33069541  1
  I  I107  1  0.83062495  0.83103353  0.66986032  1
  I  I108  1  0.00024347  0.16700750  0.16731834  1
  I  I109  1  0.00015924  0.16553742  0.50109755  1
  I  I110  1  0.00348923  0.16781908  0.83196568  1
  I  I111  1  0.00004580  0.50236863  0.16652966  1
  I  I112  1  -0.00251692  0.50556010  0.50698823  1
  I  I113  1  -0.00084496  0.50248396  0.82736232  1
  I  I114  1  -0.00026163  0.83356475  0.16402666  1
  I  I115  1  0.00322463  0.83158973  0.49825896  1
  I  I116  1  -0.00222278  0.83001838  0.83615460  1
  I  I117  1  0.33345522  0.16358083  0.16631078  1
  I  I118  1  0.33634789  0.17414630  0.50090375  1
  I  I119  1  0.33085582  0.16896480  0.83178994  1
  I  I120  1  0.33749170  0.50691434  0.16776482  1
  I  I121  1  0.33650608  0.49858489  0.50154461  1
  I  I122  1  0.33475013  0.50190931  0.83255643  1
  I  I123  1  0.33435719  0.82971425  0.16556799  1
  I  I124  1  0.33113129  0.83163193  0.49809832  1
  I  I125  1  0.33570518  0.83029825  0.83526603  1
  I  I126  1  0.66621464  0.16509213  0.16529791  1
  I  I127  1  0.66314195  0.16433696  0.50185682  1
  I  I128  1  0.66668225  0.16733894  0.83229995  1
  I  I129  1  0.66302205  0.50639314  0.16398195  1
  I  I130  1  0.66525604  0.49800800  0.50584905  1
  I  I131  1  0.66588808  0.50593616  0.83149779  1
  I  I132  1  0.66575019  0.82867575  0.16192728  1
  I  I133  1  0.66677125  0.83593790  0.49785930  1
  I  I134  1  0.66608033  0.82556744  0.84014457  1
