# generated using pymatgen
data_Cs27Sn14Pb13I81
_symmetry_space_group_name_H-M   'P 1'
_cell_length_a   18.97320703
_cell_length_b   18.97396725
_cell_length_c   18.97936357
_cell_angle_alpha   90.00202184
_cell_angle_beta   89.99887791
_cell_angle_gamma   89.99714425
_symmetry_Int_Tables_number   1
_chemical_formula_structural   Cs27Sn14Pb13I81
_chemical_formula_sum   'Cs27 Sn14 Pb13 I81'
_cell_volume   6832.51410315
_cell_formula_units_Z   1
loop_
 _symmetry_equiv_pos_site_id
 _symmetry_equiv_pos_as_xyz
  1  'x, y, z'
loop_
 _atom_site_type_symbol
 _atom_site_label
 _atom_site_symmetry_multiplicity
 _atom_site_fract_x
 _atom_site_fract_y
 _atom_site_fract_z
 _atom_site_occupancy
  Cs  Cs0  1  0.00072305  -0.00113317  -0.00260847  1
  Cs  Cs1  1  0.00012446  0.00068096  0.33483390  1
  Cs  Cs2  1  0.00026354  -0.00001130  0.66704196  1
  Cs  Cs3  1  -0.00027710  0.33444696  0.00394262  1
  Cs  Cs4  1  0.00162658  0.33316008  0.32882348  1
  Cs  Cs5  1  0.00351048  0.32792587  0.66672139  1
  Cs  Cs6  1  -0.00241840  0.66562682  -0.00190814  1
  Cs  Cs7  1  -0.00128579  0.66532854  0.33201280  1
  Cs  Cs8  1  -0.00702483  0.67073673  0.67014554  1
  Cs  Cs9  1  0.33685583  -0.00213028  0.00012212  1
  Cs  Cs10  1  0.33364082  -0.00146016  0.33465581  1
  Cs  Cs11  1  0.33175919  0.00047633  0.66550016  1
  Cs  Cs12  1  0.33407210  0.33443327  -0.00302170  1
  Cs  Cs13  1  0.32934122  0.33670984  0.33688000  1
  Cs  Cs14  1  0.33423856  0.33319291  0.66652419  1
  Cs  Cs15  1  0.33232529  0.66949933  0.00390093  1
  Cs  Cs16  1  0.33366328  0.66740001  0.33149413  1
  Cs  Cs17  1  0.33341300  0.66725055  0.66646524  1
  Cs  Cs18  1  0.65952166  0.00352421  0.00740396  1
  Cs  Cs19  1  0.66546763  -0.00070000  0.32967896  1
  Cs  Cs20  1  0.66833566  -0.00049213  0.66540323  1
  Cs  Cs21  1  0.66689336  0.33262321  -0.00155016  1
  Cs  Cs22  1  0.67175994  0.33570574  0.33202176  1
  Cs  Cs23  1  0.66344798  0.34029862  0.66928556  1
  Cs  Cs24  1  0.66619103  0.66498623  -0.00292491  1
  Cs  Cs25  1  0.66633522  0.66634472  0.33750229  1
  Cs  Cs26  1  0.67303422  0.66000249  0.66786118  1
  Sn  Sn27  1  0.16649822  0.50071375  0.50128038  1
  Sn  Sn28  1  0.83444024  0.83353975  0.16679808  1
  Sn  Sn29  1  0.83370611  0.16619675  0.83277651  1
  Sn  Sn30  1  0.50022813  0.16623763  0.49998622  1
  Sn  Sn31  1  0.16713000  0.16557042  0.16642423  1
  Sn  Sn32  1  0.16678303  0.49966735  0.83236477  1
  Sn  Sn33  1  0.83313584  0.16658953  0.50079505  1
  Sn  Sn34  1  0.49949687  0.83385329  0.50147014  1
  Sn  Sn35  1  0.16621858  0.16729815  0.83350390  1
  Sn  Sn36  1  0.49976868  0.49950095  0.16686391  1
  Sn  Sn37  1  0.16541836  0.83420151  0.16745227  1
  Sn  Sn38  1  0.50000021  0.83347285  0.83161126  1
  Sn  Sn39  1  0.16702591  0.83295115  0.49936658  1
  Sn  Sn40  1  0.16675685  0.16641233  0.50000608  1
  Pb  Pb41  1  0.83552623  0.16511765  0.16655326  1
  Pb  Pb42  1  0.83331704  0.83537757  0.49868865  1
  Pb  Pb43  1  0.16756774  0.50035409  0.16650739  1
  Pb  Pb44  1  0.49809517  0.50030912  0.49885070  1
  Pb  Pb45  1  0.83636502  0.49694186  0.83325016  1
  Pb  Pb46  1  0.83027224  0.83639343  0.83571022  1
  Pb  Pb47  1  0.49961104  0.83203969  0.16767440  1
  Pb  Pb48  1  0.49973460  0.16519909  0.83102941  1
  Pb  Pb49  1  0.49742669  0.50236758  0.83499981  1
  Pb  Pb50  1  0.49714815  0.16911870  0.16963493  1
  Pb  Pb51  1  0.16762868  0.83368324  0.83310222  1
  Pb  Pb52  1  0.83047317  0.50276918  0.16666920  1
  Pb  Pb53  1  0.83686060  0.49674439  0.50013676  1
  I  I54  1  0.16410468  -0.00012742  0.17015452  1
  I  I55  1  0.16752015  0.00086348  0.49913910  1
  I  I56  1  0.16428617  0.00306502  0.83098555  1
  I  I57  1  0.16871936  0.33072969  0.16989003  1
  I  I58  1  0.16711525  0.33163436  0.49965064  1
  I  I59  1  0.16425588  0.33177574  0.83051775  1
  I  I60  1  0.16623240  0.66957168  0.16997551  1
  I  I61  1  0.17383225  0.66779231  0.49804951  1
  I  I62  1  0.17106193  0.66470612  0.83123155  1
  I  I63  1  0.50133898  0.00012299  0.16479274  1
  I  I64  1  0.49353591  -0.00020159  0.50256592  1
  I  I65  1  0.49651166  -0.00265732  0.83388048  1
  I  I66  1  0.49656252  0.33610287  0.16761807  1
  I  I67  1  0.49756250  0.33049803  0.49772937  1
  I  I68  1  0.50140058  0.33319497  0.83357664  1
  I  I69  1  0.49583575  0.66486688  0.16828022  1
  I  I70  1  0.49362839  0.66983545  0.50003775  1
  I  I71  1  0.49732821  0.67024801  0.82818095  1
  I  I72  1  0.83389324  -0.00266355  0.16724997  1
  I  I73  1  0.83932066  0.00343880  0.50281808  1
  I  I74  1  0.84304206  0.00376728  0.82843926  1
  I  I75  1  0.83406627  0.33299184  0.16703872  1
  I  I76  1  0.83196517  0.32836999  0.50240927  1
  I  I77  1  0.83360710  0.32885941  0.82984704  1
  I  I78  1  0.84163464  0.67066796  0.16735732  1
  I  I79  1  0.83296174  0.66675882  0.49747796  1
  I  I80  1  0.83377485  0.66696391  0.83534823  1
  I  I81  1  0.16144276  0.16741071  -0.00043940  1
  I  I82  1  0.16679648  0.16669907  0.33481162  1
  I  I83  1  0.16622667  0.16715149  0.66550911  1
  I  I84  1  0.16906063  0.49609527  -0.00226168  1
  I  I85  1  0.16892243  0.49692492  0.33591535  1
  I  I86  1  0.16902575  0.49509461  0.66588377  1
  I  I87  1  0.16635995  0.83610777  0.00245099  1
  I  I88  1  0.16945278  0.83657774  0.33427258  1
  I  I89  1  0.17000392  0.83605851  0.66357340  1
  I  I90  1  0.49981794  0.16498797  0.00006099  1
  I  I91  1  0.49969737  0.15882570  0.33760726  1
  I  I92  1  0.49383122  0.16541171  0.66297111  1
  I  I93  1  0.49587329  0.50302749  0.00258735  1
  I  I94  1  0.49506790  0.50277284  0.33134215  1
  I  I95  1  0.49976433  0.49869898  0.66659937  1
  I  I96  1  0.49894843  0.83155919  -0.00132091  1
  I  I97  1  0.49782171  0.83618032  0.33640386  1
  I  I98  1  0.49178821  0.83780713  0.66485178  1
  I  I99  1  0.83917225  0.16507438  -0.00255860  1
  I  I100  1  0.83473860  0.16512570  0.33616727  1
  I  I101  1  0.84060936  0.16473083  0.66592077  1
  I  I102  1  0.83587427  0.49793071  -0.00006370  1
  I  I103  1  0.83585500  0.49676243  0.33345574  1
  I  I104  1  0.82906734  0.50476953  0.66662960  1
  I  I105  1  0.83966761  0.83516386  0.00327005  1
  I  I106  1  0.83327406  0.83673644  0.33084174  1
  I  I107  1  0.83555797  0.83322489  0.66672548  1
  I  I108  1  0.00393389  0.16657533  0.17173775  1
  I  I109  1  0.00194732  0.16668123  0.50056002  1
  I  I110  1  0.00193423  0.16915765  0.82837845  1
  I  I111  1  0.00018554  0.49848693  0.16683324  1
  I  I112  1  0.00527506  0.50140327  0.50155973  1
  I  I113  1  0.00450534  0.50063993  0.83077057  1
  I  I114  1  0.00230229  0.83719176  0.17242289  1
  I  I115  1  0.00342729  0.83457357  0.49740701  1
  I  I116  1  -0.00005027  0.83132321  0.83217793  1
  I  I117  1  0.32886324  0.15951754  0.16581365  1
  I  I118  1  0.33154927  0.16585519  0.49963038  1
  I  I119  1  0.32995004  0.16914227  0.83247905  1
  I  I120  1  0.33479458  0.50301563  0.16748682  1
  I  I121  1  0.32974137  0.49463100  0.50198852  1
  I  I122  1  0.32965208  0.49194837  0.82977950  1
  I  I123  1  0.33046041  0.83546275  0.16789766  1
  I  I124  1  0.33203711  0.83832013  0.49756573  1
  I  I125  1  0.33538483  0.83553591  0.83464203  1
  I  I126  1  0.66656942  0.16544609  0.16658524  1
  I  I127  1  0.66646280  0.16020376  0.50389146  1
  I  I128  1  0.66902893  0.16290943  0.82927382  1
  I  I129  1  0.66290805  0.50177853  0.16804587  1
  I  I130  1  0.66674180  0.49998748  0.49693595  1
  I  I131  1  0.66658715  0.49955132  0.83595691  1
  I  I132  1  0.66829763  0.83197148  0.16612179  1
  I  I133  1  0.66377250  0.83893142  0.50000208  1
  I  I134  1  0.66275014  0.83462552  0.82889242  1
