# generated using pymatgen
data_Cs27Sn13Pb14I81
_symmetry_space_group_name_H-M   'P 1'
_cell_length_a   18.97997565
_cell_length_b   18.97039198
_cell_length_c   18.97988118
_cell_angle_alpha   90.00065224
_cell_angle_beta   90.00071064
_cell_angle_gamma   89.99813490
_symmetry_Int_Tables_number   1
_chemical_formula_structural   Cs27Sn13Pb14I81
_chemical_formula_sum   'Cs27 Sn13 Pb14 I81'
_cell_volume   6833.85004012
_cell_formula_units_Z   1
loop_
 _symmetry_equiv_pos_site_id
 _symmetry_equiv_pos_as_xyz
  1  'x, y, z'
loop_
 _atom_site_type_symbol
 _atom_site_label
 _atom_site_symmetry_multiplicity
 _atom_site_fract_x
 _atom_site_fract_y
 _atom_site_fract_z
 _atom_site_occupancy
  Cs  Cs0  1  0.00443079  -0.00057512  -0.00301157  1
  Cs  Cs1  1  -0.00096725  -0.00119133  0.33387227  1
  Cs  Cs2  1  0.00312759  -0.00033163  0.66885379  1
  Cs  Cs3  1  0.00164104  0.33209494  0.00064934  1
  Cs  Cs4  1  0.00017707  0.33233881  0.33493863  1
  Cs  Cs5  1  -0.00083175  0.33453406  0.66427352  1
  Cs  Cs6  1  -0.00297915  0.66901616  0.00122439  1
  Cs  Cs7  1  0.00064432  0.66759557  0.33448186  1
  Cs  Cs8  1  -0.00628552  0.66581267  0.66294559  1
  Cs  Cs9  1  0.32946418  -0.00822612  -0.00010614  1
  Cs  Cs10  1  0.33800877  -0.00226024  0.33365585  1
  Cs  Cs11  1  0.33261241  -0.00100059  0.66740529  1
  Cs  Cs12  1  0.33310129  0.33405383  -0.00227342  1
  Cs  Cs13  1  0.33182125  0.33519948  0.33331598  1
  Cs  Cs14  1  0.33230223  0.33437831  0.66983043  1
  Cs  Cs15  1  0.33339096  0.66736208  0.00268552  1
  Cs  Cs16  1  0.33251345  0.66642548  0.33214381  1
  Cs  Cs17  1  0.33739138  0.66419701  0.66442964  1
  Cs  Cs18  1  0.66521894  0.00213575  0.00099507  1
  Cs  Cs19  1  0.66302921  0.00758192  0.33460666  1
  Cs  Cs20  1  0.66334854  -0.00148203  0.66506340  1
  Cs  Cs21  1  0.66619165  0.33333344  0.00006883  1
  Cs  Cs22  1  0.66766918  0.32502116  0.33275160  1
  Cs  Cs23  1  0.66839204  0.33267405  0.66755538  1
  Cs  Cs24  1  0.66903539  0.66608811  -0.00280468  1
  Cs  Cs25  1  0.66750112  0.66753198  0.33217304  1
  Cs  Cs26  1  0.66864461  0.66828608  0.67026532  1
  Sn  Sn27  1  0.83255172  0.16673782  0.83338485  1
  Sn  Sn28  1  0.83344524  0.50020103  0.16694782  1
  Sn  Sn29  1  0.16668511  0.50027301  0.83397464  1
  Sn  Sn30  1  0.50055133  0.16720672  0.83366104  1
  Sn  Sn31  1  0.16636125  0.49938853  0.16578496  1
  Sn  Sn32  1  0.16689875  0.16703475  0.16752362  1
  Sn  Sn33  1  0.49931404  0.49929449  0.83342577  1
  Sn  Sn34  1  0.50020857  0.49965746  0.16681398  1
  Sn  Sn35  1  0.16683756  0.16590151  0.49899682  1
  Sn  Sn36  1  0.83373591  0.83363774  0.49888534  1
  Sn  Sn37  1  0.16622703  0.83402758  0.49983203  1
  Sn  Sn38  1  0.50061448  0.49958922  0.49989040  1
  Sn  Sn39  1  0.83324222  0.83327538  0.16766824  1
  Pb  Pb40  1  0.16782132  0.50015436  0.49979064  1
  Pb  Pb41  1  0.50303728  0.83105514  0.16670230  1
  Pb  Pb42  1  0.83330680  0.83613995  0.83359342  1
  Pb  Pb43  1  0.83332741  0.49839832  0.83540773  1
  Pb  Pb44  1  0.16492280  0.83292751  0.16851189  1
  Pb  Pb45  1  0.49983472  0.83300396  0.83354601  1
  Pb  Pb46  1  0.16723907  0.16830350  0.83341270  1
  Pb  Pb47  1  0.83049316  0.50151547  0.49727252  1
  Pb  Pb48  1  0.16653863  0.82929250  0.83030064  1
  Pb  Pb49  1  0.50023491  0.83134758  0.49983989  1
  Pb  Pb50  1  0.83538465  0.16422289  0.50214923  1
  Pb  Pb51  1  0.49740579  0.16902806  0.50216452  1
  Pb  Pb52  1  0.83541340  0.16649902  0.16511195  1
  Pb  Pb53  1  0.49700559  0.16875833  0.16433341  1
  I  I54  1  0.16380638  0.00241275  0.16748919  1
  I  I55  1  0.16261196  0.00037961  0.49542984  1
  I  I56  1  0.16719206  0.00001528  0.83584589  1
  I  I57  1  0.16465989  0.33488531  0.16868767  1
  I  I58  1  0.16924157  0.33143583  0.49940027  1
  I  I59  1  0.16848446  0.33630771  0.83300241  1
  I  I60  1  0.16891852  0.66322700  0.16448086  1
  I  I61  1  0.16423870  0.66881142  0.50048749  1
  I  I62  1  0.17285286  0.66144125  0.83947225  1
  I  I63  1  0.49974934  0.00039792  0.16481739  1
  I  I64  1  0.50093364  0.00030892  0.50242191  1
  I  I65  1  0.50424303  0.00329211  0.83224597  1
  I  I66  1  0.50481532  0.33754106  0.16839706  1
  I  I67  1  0.49755578  0.33712398  0.49762044  1
  I  I68  1  0.49954722  0.33501683  0.83355697  1
  I  I69  1  0.49381808  0.66187857  0.16417170  1
  I  I70  1  0.49670022  0.66293703  0.50238917  1
  I  I71  1  0.49587794  0.66240847  0.83328259  1
  I  I72  1  0.83655208  -0.00256230  0.16882231  1
  I  I73  1  0.83433835  -0.00368745  0.49314824  1
  I  I74  1  0.82850648  0.00388131  0.83521253  1
  I  I75  1  0.83189321  0.33623798  0.16381577  1
  I  I76  1  0.83451122  0.33318556  0.49979548  1
  I  I77  1  0.83261352  0.33077425  0.83522888  1
  I  I78  1  0.83512448  0.66545747  0.16903351  1
  I  I79  1  0.84054241  0.66948060  0.49956145  1
  I  I80  1  0.83341644  0.66659288  0.83202499  1
  I  I81  1  0.16569002  0.17090143  0.00225577  1
  I  I82  1  0.16493197  0.17068462  0.33290707  1
  I  I83  1  0.16663885  0.16458306  0.66457668  1
  I  I84  1  0.17104083  0.49384724  0.00126627  1
  I  I85  1  0.16799935  0.49932812  0.33041554  1
  I  I86  1  0.17250516  0.49924397  0.66880957  1
  I  I87  1  0.16509604  0.83628667  0.00016857  1
  I  I88  1  0.16430620  0.83153971  0.33632443  1
  I  I89  1  0.16063010  0.83916946  0.66250219  1
  I  I90  1  0.50239144  0.17389289  -0.00344893  1
  I  I91  1  0.50075439  0.16867083  0.33321453  1
  I  I92  1  0.50175592  0.17365852  0.66999459  1
  I  I93  1  0.49876031  0.49614472  0.00000715  1
  I  I94  1  0.49795686  0.50276609  0.33229169  1
  I  I95  1  0.49321045  0.49714732  0.66780625  1
  I  I96  1  0.50114200  0.83141384  0.00019906  1
  I  I97  1  0.49775474  0.83002160  0.33329558  1
  I  I98  1  0.50204731  0.82932987  0.66654644  1
  I  I99  1  0.83209065  0.16645790  -0.00260226  1
  I  I100  1  0.83349310  0.16843139  0.33326809  1
  I  I101  1  0.83181827  0.16713783  0.66984941  1
  I  I102  1  0.83045728  0.50546593  0.00359568  1
  I  I103  1  0.83568590  0.50103571  0.32907015  1
  I  I104  1  0.83389527  0.50109017  0.66661184  1
  I  I105  1  0.83287529  0.82845300  0.00304269  1
  I  I106  1  0.83851696  0.82736352  0.33314437  1
  I  I107  1  0.83752494  0.83412241  0.66375794  1
  I  I108  1  0.00319379  0.17335097  0.16703051  1
  I  I109  1  0.00340840  0.16791224  0.49943265  1
  I  I110  1  -0.00130976  0.16779058  0.83384372  1
  I  I111  1  0.00083845  0.50016083  0.16165238  1
  I  I112  1  -0.00012930  0.49899319  0.50094018  1
  I  I113  1  0.00248530  0.49747186  0.83762025  1
  I  I114  1  -0.00285540  0.82672642  0.16855529  1
  I  I115  1  0.00018077  0.83532276  0.49628096  1
  I  I116  1  0.00000921  0.83466808  0.83492549  1
  I  I117  1  0.32913453  0.17274142  0.16869980  1
  I  I118  1  0.32949609  0.16102205  0.49809006  1
  I  I119  1  0.33569146  0.17187501  0.83239760  1
  I  I120  1  0.33303560  0.49503873  0.16573775  1
  I  I121  1  0.33573685  0.50153477  0.49719811  1
  I  I122  1  0.33412040  0.49399656  0.83693985  1
  I  I123  1  0.33312458  0.83270674  0.16773584  1
  I  I124  1  0.33048587  0.83564282  0.50087154  1
  I  I125  1  0.33299043  0.83806168  0.83168895  1
  I  I126  1  0.66654029  0.16736147  0.16652499  1
  I  I127  1  0.66649788  0.16603136  0.49959209  1
  I  I128  1  0.66587968  0.17335377  0.83395751  1
  I  I129  1  0.66643374  0.50606503  0.16572767  1
  I  I130  1  0.66269055  0.50236210  0.50263564  1
  I  I131  1  0.66372416  0.49811980  0.83415689  1
  I  I132  1  0.67115587  0.82827720  0.17229944  1
  I  I133  1  0.66969130  0.82999242  0.49691682  1
  I  I134  1  0.66680202  0.82858529  0.83091967  1
