# generated using pymatgen
data_Cs27Sn14Pb13I81
_symmetry_space_group_name_H-M   'P 1'
_cell_length_a   18.97219721
_cell_length_b   18.96767758
_cell_length_c   18.98781637
_cell_angle_alpha   90.00027018
_cell_angle_beta   90.00139592
_cell_angle_gamma   90.00001284
_symmetry_Int_Tables_number   1
_chemical_formula_structural   Cs27Sn14Pb13I81
_chemical_formula_sum   'Cs27 Sn14 Pb13 I81'
_cell_volume   6832.92749014
_cell_formula_units_Z   1
loop_
 _symmetry_equiv_pos_site_id
 _symmetry_equiv_pos_as_xyz
  1  'x, y, z'
loop_
 _atom_site_type_symbol
 _atom_site_label
 _atom_site_symmetry_multiplicity
 _atom_site_fract_x
 _atom_site_fract_y
 _atom_site_fract_z
 _atom_site_occupancy
  Cs  Cs0  1  0.00080843  -0.00926455  0.00178382  1
  Cs  Cs1  1  -0.00268753  -0.00316500  0.33243420  1
  Cs  Cs2  1  -0.00830654  -0.00499257  0.66770461  1
  Cs  Cs3  1  0.00152605  0.33505113  0.00195455  1
  Cs  Cs4  1  0.00196231  0.33281472  0.33379429  1
  Cs  Cs5  1  0.00255027  0.33312594  0.66435409  1
  Cs  Cs6  1  -0.00894133  0.67350439  0.00125597  1
  Cs  Cs7  1  -0.00187839  0.67116946  0.32848890  1
  Cs  Cs8  1  0.00024122  0.67161130  0.67131681  1
  Cs  Cs9  1  0.33503304  0.00143262  0.00015584  1
  Cs  Cs10  1  0.33318667  -0.00050057  0.33367637  1
  Cs  Cs11  1  0.33233810  -0.00273425  0.66558987  1
  Cs  Cs12  1  0.33295042  0.33235793  0.00036982  1
  Cs  Cs13  1  0.33172395  0.33445286  0.33333238  1
  Cs  Cs14  1  0.33107378  0.33581595  0.66566739  1
  Cs  Cs15  1  0.33444526  0.66609698  -0.00105670  1
  Cs  Cs16  1  0.33509611  0.66537469  0.33447546  1
  Cs  Cs17  1  0.33521750  0.66532067  0.66677093  1
  Cs  Cs18  1  0.66200013  0.00590809  -0.00354607  1
  Cs  Cs19  1  0.66822105  -0.00012201  0.33766952  1
  Cs  Cs20  1  0.67606117  0.00239688  0.66428075  1
  Cs  Cs21  1  0.66762945  0.33097970  -0.00197838  1
  Cs  Cs22  1  0.66650082  0.33391969  0.33342540  1
  Cs  Cs23  1  0.66951355  0.33185697  0.66687810  1
  Cs  Cs24  1  0.66951917  0.66498200  0.00103607  1
  Cs  Cs25  1  0.66528644  0.66727187  0.33178309  1
  Cs  Cs26  1  0.66267282  0.66665864  0.66721651  1
  Sn  Sn27  1  0.16739540  0.16682631  0.50027504  1
  Sn  Sn28  1  0.16719445  0.49941421  0.83382546  1
  Sn  Sn29  1  0.49939009  0.50035565  0.16635715  1
  Sn  Sn30  1  0.49931464  0.50019599  0.83363853  1
  Sn  Sn31  1  0.16627274  0.49995683  0.49984760  1
  Sn  Sn32  1  0.49951685  0.83284344  0.83411974  1
  Sn  Sn33  1  0.49941555  0.83254500  0.16576167  1
  Sn  Sn34  1  0.83454143  0.16732110  0.16646906  1
  Sn  Sn35  1  0.50011153  0.49881133  0.50003670  1
  Sn  Sn36  1  0.16670267  0.16707218  0.83307543  1
  Sn  Sn37  1  0.16563106  0.16728069  0.16673347  1
  Sn  Sn38  1  0.16716905  0.49970801  0.16637131  1
  Sn  Sn39  1  0.83388133  0.50003848  0.50005259  1
  Sn  Sn40  1  0.49906739  0.16766855  0.50018273  1
  Pb  Pb41  1  0.49919348  0.16718641  0.16866512  1
  Pb  Pb42  1  0.83329786  0.82957620  0.49974397  1
  Pb  Pb43  1  0.16884276  0.83281195  0.83340772  1
  Pb  Pb44  1  0.49798346  0.16710601  0.83033801  1
  Pb  Pb45  1  0.16910735  0.83295788  0.16670348  1
  Pb  Pb46  1  0.49985484  0.83327913  0.50028189  1
  Pb  Pb47  1  0.83427486  0.16860169  0.49835563  1
  Pb  Pb48  1  0.82951385  0.83651676  0.16663573  1
  Pb  Pb49  1  0.83340225  0.49848885  0.16843381  1
  Pb  Pb50  1  0.83376493  0.49970252  0.83099296  1
  Pb  Pb51  1  0.16669021  0.83313430  0.49997677  1
  Pb  Pb52  1  0.83734010  0.16723139  0.83608079  1
  Pb  Pb53  1  0.82935237  0.83317184  0.83354508  1
  I  I54  1  0.16445796  0.00339587  0.16727509  1
  I  I55  1  0.17333497  0.00399049  0.49901248  1
  I  I56  1  0.16876584  0.00303739  0.83360026  1
  I  I57  1  0.16925672  0.33399604  0.16732309  1
  I  I58  1  0.16819435  0.33421888  0.49968991  1
  I  I59  1  0.17295575  0.33450169  0.83310688  1
  I  I60  1  0.16941705  0.66278412  0.16817053  1
  I  I61  1  0.16922190  0.66188148  0.50014532  1
  I  I62  1  0.16927841  0.66271957  0.83133676  1
  I  I63  1  0.50020583  -0.00179379  0.16354748  1
  I  I64  1  0.49472575  0.00307066  0.49823593  1
  I  I65  1  0.49766773  -0.00195979  0.83836461  1
  I  I66  1  0.49888805  0.33661379  0.16492812  1
  I  I67  1  0.49878846  0.33527788  0.49898295  1
  I  I68  1  0.49811526  0.33677202  0.83626473  1
  I  I69  1  0.49482877  0.66429688  0.16917469  1
  I  I70  1  0.49872037  0.66279433  0.49987621  1
  I  I71  1  0.49413569  0.66440676  0.83109241  1
  I  I72  1  0.84067062  0.00412323  0.16875931  1
  I  I73  1  0.83152085  0.00032413  0.49909040  1
  I  I74  1  0.83278181  0.00029605  0.83215577  1
  I  I75  1  0.83287830  0.33072152  0.16821118  1
  I  I76  1  0.83195334  0.33638487  0.49901776  1
  I  I77  1  0.82564320  0.33336323  0.83369217  1
  I  I78  1  0.83574753  0.66669351  0.16853580  1
  I  I79  1  0.83201654  0.66148308  0.49838666  1
  I  I80  1  0.83900788  0.66634614  0.83288570  1
  I  I81  1  0.16327505  0.17359781  0.00044516  1
  I  I82  1  0.16749969  0.17326250  0.33344559  1
  I  I83  1  0.17390447  0.17446907  0.66599201  1
  I  I84  1  0.17567022  0.49214223  0.00030512  1
  I  I85  1  0.17058709  0.49381953  0.33334463  1
  I  I86  1  0.17037226  0.49388382  0.66638623  1
  I  I87  1  0.16683358  0.83488656  0.00008991  1
  I  I88  1  0.17010339  0.83302071  0.33319623  1
  I  I89  1  0.17027353  0.83299196  0.66675783  1
  I  I90  1  0.50040610  0.16769305  -0.00007570  1
  I  I91  1  0.49531691  0.17084521  0.33635464  1
  I  I92  1  0.49503760  0.17096127  0.66263338  1
  I  I93  1  0.49300337  0.50485649  0.00020377  1
  I  I94  1  0.49745082  0.50027801  0.33346263  1
  I  I95  1  0.49735532  0.50109156  0.66640854  1
  I  I96  1  0.49882935  0.82561806  0.00015133  1
  I  I97  1  0.49983512  0.82960804  0.33083690  1
  I  I98  1  0.49818536  0.82825777  0.66936529  1
  I  I99  1  0.83471956  0.16868505  0.00390053  1
  I  I100  1  0.83796275  0.16842263  0.33076949  1
  I  I101  1  0.83223967  0.16640634  0.66654493  1
  I  I102  1  0.83277270  0.49932518  0.00015955  1
  I  I103  1  0.83222350  0.49755287  0.33625441  1
  I  I104  1  0.83211669  0.49787028  0.66294078  1
  I  I105  1  0.83617202  0.83177903  0.00032629  1
  I  I106  1  0.83056438  0.83397446  0.33298689  1
  I  I107  1  0.83181031  0.83536407  0.66662832  1
  I  I108  1  0.00256640  0.17384793  0.16912599  1
  I  I109  1  0.00374562  0.17227721  0.50115911  1
  I  I110  1  0.00546273  0.17480588  0.82634217  1
  I  I111  1  0.00344427  0.49650506  0.16751253  1
  I  I112  1  0.00178733  0.49425195  0.49969305  1
  I  I113  1  0.00398191  0.49439271  0.83280048  1
  I  I114  1  -0.00012176  0.83080723  0.16703097  1
  I  I115  1  -0.00000946  0.83453754  0.49995580  1
  I  I116  1  0.00003289  0.83313003  0.83251125  1
  I  I117  1  0.33014730  0.16781393  0.16557511  1
  I  I118  1  0.33238591  0.17434881  0.49715433  1
  I  I119  1  0.32995195  0.16861804  0.83923443  1
  I  I120  1  0.33335321  0.49796627  0.17050187  1
  I  I121  1  0.33340074  0.49643744  0.49977695  1
  I  I122  1  0.33351843  0.50018472  0.82953861  1
  I  I123  1  0.33699619  0.83364464  0.16362212  1
  I  I124  1  0.33361157  0.83089948  0.49948540  1
  I  I125  1  0.33676318  0.83075135  0.83699068  1
  I  I126  1  0.66780701  0.16617070  0.17040590  1
  I  I127  1  0.66433658  0.17055026  0.49740306  1
  I  I128  1  0.66654886  0.16548194  0.83345547  1
  I  I129  1  0.66340407  0.50197935  0.16769867  1
  I  I130  1  0.66481140  0.49635896  0.49940573  1
  I  I131  1  0.66309130  0.50491517  0.83328389  1
  I  I132  1  0.66182133  0.82652760  0.16370039  1
  I  I133  1  0.66618820  0.83521959  0.50005592  1
  I  I134  1  0.66130663  0.82604639  0.83716225  1
