# generated using pymatgen
data_Cs27Sn13Pb14I81
_symmetry_space_group_name_H-M   'P 1'
_cell_length_a   18.97707898
_cell_length_b   18.97650890
_cell_length_c   18.98171684
_cell_angle_alpha   89.99969373
_cell_angle_beta   90.00052313
_cell_angle_gamma   89.99927712
_symmetry_Int_Tables_number   1
_chemical_formula_structural   Cs27Sn13Pb14I81
_chemical_formula_sum   'Cs27 Sn13 Pb14 I81'
_cell_volume   6835.67134662
_cell_formula_units_Z   1
loop_
 _symmetry_equiv_pos_site_id
 _symmetry_equiv_pos_as_xyz
  1  'x, y, z'
loop_
 _atom_site_type_symbol
 _atom_site_label
 _atom_site_symmetry_multiplicity
 _atom_site_fract_x
 _atom_site_fract_y
 _atom_site_fract_z
 _atom_site_occupancy
  Cs  Cs0  1  0.00185127  0.00126212  0.00251811  1
  Cs  Cs1  1  -0.00081699  -0.00006833  0.33035411  1
  Cs  Cs2  1  0.00203973  0.00029106  0.66691859  1
  Cs  Cs3  1  0.00016462  0.33262489  0.00688175  1
  Cs  Cs4  1  0.00041412  0.33971594  0.32559277  1
  Cs  Cs5  1  0.00063491  0.33345702  0.66671646  1
  Cs  Cs6  1  -0.00557979  0.66634041  -0.00209726  1
  Cs  Cs7  1  -0.00532867  0.65892617  0.33514602  1
  Cs  Cs8  1  -0.00455054  0.66448245  0.66533832  1
  Cs  Cs9  1  0.33170379  -0.00131851  -0.00046012  1
  Cs  Cs10  1  0.33346030  0.00023310  0.33592675  1
  Cs  Cs11  1  0.33244197  0.00112630  0.66553977  1
  Cs  Cs12  1  0.33306922  0.33478476  0.00122668  1
  Cs  Cs13  1  0.33275540  0.33535591  0.33347715  1
  Cs  Cs14  1  0.33361594  0.33170214  0.66592836  1
  Cs  Cs15  1  0.34022474  0.66760914  0.00079472  1
  Cs  Cs16  1  0.33311567  0.66545042  0.33268355  1
  Cs  Cs17  1  0.33229709  0.66749085  0.66680067  1
  Cs  Cs18  1  0.66721140  -0.00564338  0.00274523  1
  Cs  Cs19  1  0.66740489  -0.00079367  0.33342739  1
  Cs  Cs20  1  0.66679945  0.00215176  0.66577000  1
  Cs  Cs21  1  0.66716789  0.33894764  0.00055126  1
  Cs  Cs22  1  0.66563545  0.33237759  0.33244938  1
  Cs  Cs23  1  0.66551267  0.33075177  0.66714277  1
  Cs  Cs24  1  0.66646349  0.66502739  -0.00014094  1
  Cs  Cs25  1  0.67334649  0.66799649  0.32779989  1
  Cs  Cs26  1  0.67504578  0.66558047  0.67303360  1
  Sn  Sn27  1  0.16668973  0.83316006  0.16727922  1
  Sn  Sn28  1  0.49960131  0.16641729  0.16650752  1
  Sn  Sn29  1  0.50005740  0.16634013  0.83381446  1
  Sn  Sn30  1  0.16705967  0.49988018  0.83315552  1
  Sn  Sn31  1  0.16602905  0.16642679  0.50009898  1
  Sn  Sn32  1  0.16700901  0.83306525  0.83313093  1
  Sn  Sn33  1  0.50022443  0.50091010  0.50040888  1
  Sn  Sn34  1  0.83356772  0.16637905  0.83276048  1
  Sn  Sn35  1  0.83413142  0.16659535  0.50033804  1
  Sn  Sn36  1  0.49984675  0.16646251  0.49998866  1
  Sn  Sn37  1  0.49975283  0.83269668  0.50051027  1
  Sn  Sn38  1  0.16653449  0.16683153  0.83276888  1
  Sn  Sn39  1  0.16730781  0.83380598  0.49963050  1
  Pb  Pb40  1  0.16817053  0.50004315  0.50153970  1
  Pb  Pb41  1  0.83017537  0.49678587  0.50023087  1
  Pb  Pb42  1  0.83580779  0.83603840  0.83320176  1
  Pb  Pb43  1  0.49821751  0.83522687  0.16915730  1
  Pb  Pb44  1  0.16857297  0.16542221  0.16694925  1
  Pb  Pb45  1  0.83048519  0.16648001  0.16640718  1
  Pb  Pb46  1  0.49818052  0.49806348  0.83117084  1
  Pb  Pb47  1  0.16709128  0.50359551  0.16350344  1
  Pb  Pb48  1  0.83596367  0.83369982  0.16669989  1
  Pb  Pb49  1  0.83308201  0.49989881  0.16643878  1
  Pb  Pb50  1  0.83580669  0.49697186  0.83313183  1
  Pb  Pb51  1  0.49838122  0.83521254  0.83102085  1
  Pb  Pb52  1  0.49973266  0.49805682  0.16918905  1
  Pb  Pb53  1  0.83368759  0.83558295  0.50009401  1
  I  I54  1  0.16849299  -0.00235458  0.16296787  1
  I  I55  1  0.17151284  0.00101895  0.50456959  1
  I  I56  1  0.16690541  0.00111409  0.83221210  1
  I  I57  1  0.16703213  0.33345773  0.16677692  1
  I  I58  1  0.16861672  0.32976381  0.50533621  1
  I  I59  1  0.16732394  0.33106487  0.82731715  1
  I  I60  1  0.16843768  0.67139507  0.17006971  1
  I  I61  1  0.17262669  0.66994758  0.50142518  1
  I  I62  1  0.16807142  0.66760321  0.83222831  1
  I  I63  1  0.49874520  0.00353234  0.16874997  1
  I  I64  1  0.49834211  0.00182698  0.50018800  1
  I  I65  1  0.49721697  0.00442246  0.83024063  1
  I  I66  1  0.49842225  0.32922088  0.16879871  1
  I  I67  1  0.49965376  0.33076030  0.50044758  1
  I  I68  1  0.49701623  0.32873080  0.82991176  1
  I  I69  1  0.49819710  0.66699313  0.16845930  1
  I  I70  1  0.49018010  0.66758372  0.49980806  1
  I  I71  1  0.49639525  0.66680444  0.83102512  1
  I  I72  1  0.83331743  0.00052882  0.16688983  1
  I  I73  1  0.82912201  0.00410165  0.50417361  1
  I  I74  1  0.83476024  0.00450881  0.82822129  1
  I  I75  1  0.83506620  0.33252045  0.16730507  1
  I  I76  1  0.83401705  0.32826994  0.50488367  1
  I  I77  1  0.83436646  0.32850700  0.82791532  1
  I  I78  1  0.83361240  0.66690194  0.16748880  1
  I  I79  1  0.83387801  0.66656281  0.49880566  1
  I  I80  1  0.83525412  0.66662188  0.83385028  1
  I  I81  1  0.16674887  0.16544054  -0.00335293  1
  I  I82  1  0.16791981  0.16185850  0.33680106  1
  I  I83  1  0.17043300  0.16294263  0.66673801  1
  I  I84  1  0.16724535  0.49464157  -0.00444598  1
  I  I85  1  0.16751205  0.49890722  0.33338040  1
  I  I86  1  0.16843489  0.50126585  0.66942331  1
  I  I87  1  0.16549025  0.83620648  -0.00115480  1
  I  I88  1  0.17191526  0.84107049  0.33504154  1
  I  I89  1  0.17107205  0.83650961  0.66627691  1
  I  I90  1  0.49784212  0.16656654  -0.00108236  1
  I  I91  1  0.49959915  0.16658544  0.33553609  1
  I  I92  1  0.49927345  0.16681722  0.66572818  1
  I  I93  1  0.49849656  0.49712766  -0.00029544  1
  I  I94  1  0.49692385  0.49546697  0.33754310  1
  I  I95  1  0.49744831  0.49537337  0.66322337  1
  I  I96  1  0.49657049  0.83706714  -0.00015483  1
  I  I97  1  0.49296103  0.83798061  0.33756510  1
  I  I98  1  0.49319895  0.83769284  0.66265235  1
  I  I99  1  0.83597307  0.16661842  -0.00346010  1
  I  I100  1  0.83256513  0.16573417  0.33659458  1
  I  I101  1  0.82981668  0.16620323  0.66628364  1
  I  I102  1  0.83425733  0.49643475  -0.00056948  1
  I  I103  1  0.83496765  0.49707438  0.33384502  1
  I  I104  1  0.83388833  0.50146601  0.66661922  1
  I  I105  1  0.83555917  0.83744818  -0.00022446  1
  I  I106  1  0.83500725  0.83716571  0.33370957  1
  I  I107  1  0.83519709  0.83254638  0.66659260  1
  I  I108  1  0.00016727  0.16527518  0.16683040  1
  I  I109  1  0.00134290  0.16057593  0.50851147  1
  I  I110  1  0.00154691  0.16590981  0.82569168  1
  I  I111  1  0.00059503  0.49830282  0.16806276  1
  I  I112  1  -0.00005559  0.50000276  0.50076970  1
  I  I113  1  0.00413977  0.49925404  0.83095969  1
  I  I114  1  0.00475786  0.83751045  0.16838965  1
  I  I115  1  0.00405969  0.83891888  0.50101095  1
  I  I116  1  0.00506814  0.83591845  0.82994083  1
  I  I117  1  0.33634476  0.16548023  0.16796168  1
  I  I118  1  0.33358227  0.16574492  0.50274156  1
  I  I119  1  0.33256006  0.16626995  0.82983520  1
  I  I120  1  0.33327023  0.49827125  0.16681453  1
  I  I121  1  0.33595419  0.49327692  0.50137698  1
  I  I122  1  0.33005336  0.49685157  0.83183050  1
  I  I123  1  0.33009841  0.83562268  0.16412796  1
  I  I124  1  0.33231277  0.83970783  0.50075608  1
  I  I125  1  0.32934493  0.83706243  0.83439816  1
  I  I126  1  0.66253182  0.16614436  0.16909828  1
  I  I127  1  0.66521040  0.16682127  0.50299730  1
  I  I128  1  0.66586720  0.16707865  0.82806533  1
  I  I129  1  0.66612892  0.49849314  0.16687632  1
  I  I130  1  0.66207025  0.49843851  0.50072654  1
  I  I131  1  0.66659121  0.49772930  0.83220620  1
  I  I132  1  0.66623334  0.83540152  0.16903074  1
  I  I133  1  0.66351906  0.83686711  0.49922899  1
  I  I134  1  0.66653802  0.83553789  0.83168907  1
