# generated using pymatgen
data_Cs27Sn13Pb14I81
_symmetry_space_group_name_H-M   'P 1'
_cell_length_a   18.97538514
_cell_length_b   18.97588263
_cell_length_c   18.97979828
_cell_angle_alpha   90.00118589
_cell_angle_beta   90.00051148
_cell_angle_gamma   90.00099617
_symmetry_Int_Tables_number   1
_chemical_formula_structural   Cs27Sn13Pb14I81
_chemical_formula_sum   'Cs27 Sn13 Pb14 I81'
_cell_volume   6834.14481306
_cell_formula_units_Z   1
loop_
 _symmetry_equiv_pos_site_id
 _symmetry_equiv_pos_as_xyz
  1  'x, y, z'
loop_
 _atom_site_type_symbol
 _atom_site_label
 _atom_site_symmetry_multiplicity
 _atom_site_fract_x
 _atom_site_fract_y
 _atom_site_fract_z
 _atom_site_occupancy
  Cs  Cs0  1  0.00057523  -0.00031293  0.00103394  1
  Cs  Cs1  1  -0.00329543  0.00259092  0.33234304  1
  Cs  Cs2  1  -0.00182850  0.00283890  0.66503429  1
  Cs  Cs3  1  0.00030164  0.33311202  0.00067359  1
  Cs  Cs4  1  -0.00143639  0.33600002  0.33321301  1
  Cs  Cs5  1  0.00392990  0.33296705  0.66532168  1
  Cs  Cs6  1  -0.00032522  0.66681909  0.00195354  1
  Cs  Cs7  1  0.00254764  0.66419789  0.33128521  1
  Cs  Cs8  1  -0.00217996  0.66567018  0.66604274  1
  Cs  Cs9  1  0.33281463  -0.00360798  -0.00213979  1
  Cs  Cs10  1  0.33520541  -0.00167257  0.33506445  1
  Cs  Cs11  1  0.33268240  0.00286462  0.66903129  1
  Cs  Cs12  1  0.33458106  0.33320686  -0.00013640  1
  Cs  Cs13  1  0.34015919  0.33251502  0.33322419  1
  Cs  Cs14  1  0.33077458  0.33106578  0.66551177  1
  Cs  Cs15  1  0.33267309  0.66979238  0.00084428  1
  Cs  Cs16  1  0.33130489  0.66687261  0.33406263  1
  Cs  Cs17  1  0.33385931  0.66638116  0.66533438  1
  Cs  Cs18  1  0.66588934  0.00151320  -0.00020559  1
  Cs  Cs19  1  0.66788388  0.00616844  0.33929162  1
  Cs  Cs20  1  0.66887472  -0.00411546  0.66261017  1
  Cs  Cs21  1  0.66375489  0.33238888  0.00039264  1
  Cs  Cs22  1  0.66170739  0.32596703  0.33038109  1
  Cs  Cs23  1  0.66272527  0.33753279  0.67131446  1
  Cs  Cs24  1  0.66781851  0.66579136  -0.00280848  1
  Cs  Cs25  1  0.66558694  0.66725717  0.33597731  1
  Cs  Cs26  1  0.66841806  0.66837257  0.66692773  1
  Sn  Sn27  1  0.50183056  0.83304059  0.16621998  1
  Sn  Sn28  1  0.16679254  0.83248800  0.83214516  1
  Sn  Sn29  1  0.83374139  0.49974143  0.49892651  1
  Sn  Sn30  1  0.16607043  0.50092159  0.49975693  1
  Sn  Sn31  1  0.50117943  0.16557237  0.83360015  1
  Sn  Sn32  1  0.83355744  0.50067814  0.16757413  1
  Sn  Sn33  1  0.83177060  0.83279897  0.16660659  1
  Sn  Sn34  1  0.83251417  0.16669228  0.83337745  1
  Sn  Sn35  1  0.16669000  0.16776079  0.16682039  1
  Sn  Sn36  1  0.16664757  0.50102611  0.83357403  1
  Sn  Sn37  1  0.16629487  0.49872957  0.16670916  1
  Sn  Sn38  1  0.16632092  0.83290824  0.50123203  1
  Sn  Sn39  1  0.49956723  0.83392822  0.83409110  1
  Pb  Pb40  1  0.83364338  0.83480343  0.83497673  1
  Pb  Pb41  1  0.50003363  0.16650391  0.50340630  1
  Pb  Pb42  1  0.83464602  0.16721464  0.16521938  1
  Pb  Pb43  1  0.83341433  0.17021567  0.50281111  1
  Pb  Pb44  1  0.50007450  0.50007545  0.49981447  1
  Pb  Pb45  1  0.16652403  0.83291553  0.16674354  1
  Pb  Pb46  1  0.49782969  0.83322451  0.50048866  1
  Pb  Pb47  1  0.50034098  0.50241346  0.16662805  1
  Pb  Pb48  1  0.49720256  0.50074488  0.83342019  1
  Pb  Pb49  1  0.83598842  0.83131088  0.49715836  1
  Pb  Pb50  1  0.16661641  0.16698661  0.49695396  1
  Pb  Pb51  1  0.83568766  0.49815061  0.83369188  1
  Pb  Pb52  1  0.16687836  0.16632817  0.83483758  1
  Pb  Pb53  1  0.49753708  0.16379389  0.16470303  1
  I  I54  1  0.16665461  0.00126145  0.16446417  1
  I  I55  1  0.16858537  -0.00291932  0.50362624  1
  I  I56  1  0.16805722  -0.00291224  0.83208990  1
  I  I57  1  0.16055408  0.33549301  0.16475946  1
  I  I58  1  0.16266211  0.33711605  0.50389771  1
  I  I59  1  0.16595816  0.33592550  0.83160929  1
  I  I60  1  0.16566809  0.66393316  0.16620296  1
  I  I61  1  0.16406865  0.66569028  0.49864380  1
  I  I62  1  0.17130029  0.66702301  0.83549345  1
  I  I63  1  0.50220033  -0.00404945  0.16379829  1
  I  I64  1  0.49715844  -0.00040815  0.49674693  1
  I  I65  1  0.49599544  -0.00122966  0.83842458  1
  I  I66  1  0.50098738  0.33311559  0.16523616  1
  I  I67  1  0.49678830  0.33336212  0.50147829  1
  I  I68  1  0.50244393  0.33076470  0.83288574  1
  I  I69  1  0.49761222  0.67033450  0.15933710  1
  I  I70  1  0.50061563  0.66684044  0.50289665  1
  I  I71  1  0.49651831  0.67021157  0.83718713  1
  I  I72  1  0.83366024  -0.00239890  0.16316325  1
  I  I73  1  0.83496859  -0.00004195  0.49885243  1
  I  I74  1  0.83565810  0.00257978  0.83706002  1
  I  I75  1  0.83826145  0.33664726  0.16886696  1
  I  I76  1  0.84332219  0.33801947  0.49280270  1
  I  I77  1  0.82938517  0.33043840  0.83547374  1
  I  I78  1  0.83734439  0.66590606  0.16783212  1
  I  I79  1  0.83646165  0.66327854  0.50032755  1
  I  I80  1  0.83150890  0.66647224  0.83249863  1
  I  I81  1  0.16609034  0.17035053  0.00248716  1
  I  I82  1  0.16491031  0.16855321  0.32912330  1
  I  I83  1  0.16759751  0.16912537  0.66677620  1
  I  I84  1  0.16318497  0.50038285  0.00045089  1
  I  I85  1  0.16206439  0.50156936  0.33310296  1
  I  I86  1  0.16319671  0.50448955  0.66657758  1
  I  I87  1  0.16809872  0.83084043  -0.00228521  1
  I  I88  1  0.16666396  0.83001406  0.33514699  1
  I  I89  1  0.17215456  0.82612825  0.66791908  1
  I  I90  1  0.50240279  0.16491596  -0.00317803  1
  I  I91  1  0.49821564  0.16589673  0.33295191  1
  I  I92  1  0.50106855  0.16020686  0.67168486  1
  I  I93  1  0.49912128  0.49860024  -0.00007927  1
  I  I94  1  0.49411280  0.50272244  0.33304479  1
  I  I95  1  0.50053556  0.50092409  0.66689803  1
  I  I96  1  0.49574000  0.83630259  -0.00088697  1
  I  I97  1  0.50042114  0.83122290  0.33051854  1
  I  I98  1  0.49646795  0.83750573  0.67024642  1
  I  I99  1  0.83159354  0.16853243  -0.00257132  1
  I  I100  1  0.83590410  0.16432616  0.33323135  1
  I  I101  1  0.83152177  0.16603850  0.67064965  1
  I  I102  1  0.83892425  0.50258452  0.00303334  1
  I  I103  1  0.84414698  0.50517092  0.33227331  1
  I  I104  1  0.83871834  0.49729319  0.66439624  1
  I  I105  1  0.83594173  0.82734018  0.00297517  1
  I  I106  1  0.83030246  0.83276051  0.32909996  1
  I  I107  1  0.83134250  0.83281170  0.66653412  1
  I  I108  1  0.00261104  0.16503579  0.16223989  1
  I  I109  1  0.00017622  0.16353852  0.50413313  1
  I  I110  1  -0.00145304  0.16741075  0.83569494  1
  I  I111  1  0.00097180  0.50278108  0.16666061  1
  I  I112  1  0.00161338  0.50422303  0.49911286  1
  I  I113  1  0.00397480  0.50389271  0.83417562  1
  I  I114  1  -0.00177559  0.83207506  0.16604179  1
  I  I115  1  0.00403074  0.83105621  0.50516009  1
  I  I116  1  0.00315900  0.83107268  0.83248496  1
  I  I117  1  0.32974605  0.17213095  0.16414594  1
  I  I118  1  0.33292195  0.16894990  0.50150484  1
  I  I119  1  0.33537858  0.16490707  0.83563498  1
  I  I120  1  0.32983603  0.49790917  0.16686575  1
  I  I121  1  0.32924787  0.50382596  0.49958638  1
  I  I122  1  0.32865288  0.49902530  0.83365500  1
  I  I123  1  0.33490293  0.83409417  0.16460319  1
  I  I124  1  0.32950463  0.82625026  0.49795127  1
  I  I125  1  0.33275166  0.83523990  0.83655114  1
  I  I126  1  0.66642880  0.16904445  0.16597730  1
  I  I127  1  0.66692088  0.16800741  0.49609482  1
  I  I128  1  0.66595850  0.16214183  0.83527974  1
  I  I129  1  0.67020142  0.50242129  0.17083222  1
  I  I130  1  0.67026304  0.49926283  0.49538301  1
  I  I131  1  0.66683027  0.50089175  0.83285560  1
  I  I132  1  0.66685571  0.82730329  0.15926662  1
  I  I133  1  0.66701280  0.83116098  0.50244496  1
  I  I134  1  0.66403891  0.83614000  0.83682139  1
