# generated using pymatgen
data_Cs27Sn14Pb13I81
_symmetry_space_group_name_H-M   'P 1'
_cell_length_a   18.97541380
_cell_length_b   18.97148081
_cell_length_c   18.97592126
_cell_angle_alpha   90.00289640
_cell_angle_beta   89.99716168
_cell_angle_gamma   89.99788100
_symmetry_Int_Tables_number   1
_chemical_formula_structural   Cs27Sn14Pb13I81
_chemical_formula_sum   'Cs27 Sn14 Pb13 I81'
_cell_volume   6831.17411031
_cell_formula_units_Z   1
loop_
 _symmetry_equiv_pos_site_id
 _symmetry_equiv_pos_as_xyz
  1  'x, y, z'
loop_
 _atom_site_type_symbol
 _atom_site_label
 _atom_site_symmetry_multiplicity
 _atom_site_fract_x
 _atom_site_fract_y
 _atom_site_fract_z
 _atom_site_occupancy
  Cs  Cs0  1  0.00080993  0.00364574  0.00212816  1
  Cs  Cs1  1  -0.00267141  -0.00241186  0.33478478  1
  Cs  Cs2  1  0.00620924  -0.00742937  0.66185772  1
  Cs  Cs3  1  -0.00082384  0.33282152  -0.00226223  1
  Cs  Cs4  1  -0.00137854  0.33427753  0.33295797  1
  Cs  Cs5  1  -0.00449372  0.33528987  0.66652295  1
  Cs  Cs6  1  0.00810149  0.66187638  -0.00725050  1
  Cs  Cs7  1  -0.00279106  0.66518697  0.33596506  1
  Cs  Cs8  1  0.00151153  0.67084519  0.66980859  1
  Cs  Cs9  1  0.33229132  0.00043295  0.00157209  1
  Cs  Cs10  1  0.33132778  0.00351089  0.33124226  1
  Cs  Cs11  1  0.33096380  0.00355604  0.66513108  1
  Cs  Cs12  1  0.33151150  0.33215032  0.00305198  1
  Cs  Cs13  1  0.33240221  0.33357647  0.33287802  1
  Cs  Cs14  1  0.33780717  0.32783135  0.66153441  1
  Cs  Cs15  1  0.33244370  0.66746157  -0.00012850  1
  Cs  Cs16  1  0.33778352  0.66244487  0.33056369  1
  Cs  Cs17  1  0.33551824  0.66790382  0.66901935  1
  Cs  Cs18  1  0.67036903  0.00057652  0.00164163  1
  Cs  Cs19  1  0.67165334  -0.00555479  0.32838811  1
  Cs  Cs20  1  0.66430544  0.00065176  0.66969289  1
  Cs  Cs21  1  0.66955545  0.33076118  -0.00229899  1
  Cs  Cs22  1  0.66754675  0.33506614  0.33454977  1
  Cs  Cs23  1  0.66653226  0.33220114  0.66809811  1
  Cs  Cs24  1  0.66404297  0.66885335  -0.00102674  1
  Cs  Cs25  1  0.66544238  0.66710972  0.33425349  1
  Cs  Cs26  1  0.66608341  0.66562929  0.66654594  1
  Sn  Sn27  1  0.50003865  0.16743123  0.16685266  1
  Sn  Sn28  1  0.49976723  0.83316971  0.50054259  1
  Sn  Sn29  1  0.50014376  0.50054280  0.50024824  1
  Sn  Sn30  1  0.50071673  0.83304424  0.83256373  1
  Sn  Sn31  1  0.50109847  0.49887679  0.16624117  1
  Sn  Sn32  1  0.16660501  0.83363392  0.16711374  1
  Sn  Sn33  1  0.83275966  0.83334672  0.83362719  1
  Sn  Sn34  1  0.83321529  0.49935455  0.49952909  1
  Sn  Sn35  1  0.16675559  0.16705036  0.83339618  1
  Sn  Sn36  1  0.49992171  0.50003953  0.83341706  1
  Sn  Sn37  1  0.16704070  0.16598725  0.16614880  1
  Sn  Sn38  1  0.83299180  0.16668542  0.50007704  1
  Sn  Sn39  1  0.83248499  0.50036368  0.16655935  1
  Sn  Sn40  1  0.16677808  0.50018560  0.50042669  1
  Pb  Pb41  1  0.16659405  0.49943289  0.16807040  1
  Pb  Pb42  1  0.83105137  0.83251191  0.50165267  1
  Pb  Pb43  1  0.49887905  0.83312691  0.16639578  1
  Pb  Pb44  1  0.16773503  0.83521067  0.83501946  1
  Pb  Pb45  1  0.50210203  0.16634207  0.49734398  1
  Pb  Pb46  1  0.83122701  0.50152150  0.83305163  1
  Pb  Pb47  1  0.83580503  0.16409119  0.83066577  1
  Pb  Pb48  1  0.16982729  0.49746256  0.83033675  1
  Pb  Pb49  1  0.16454483  0.16863858  0.49920989  1
  Pb  Pb50  1  0.16967125  0.83080330  0.49752712  1
  Pb  Pb51  1  0.83617591  0.82977157  0.16411070  1
  Pb  Pb52  1  0.49869340  0.16632091  0.83564536  1
  Pb  Pb53  1  0.83360649  0.16867191  0.16821457  1
  I  I54  1  0.17358228  0.00135508  0.16330886  1
  I  I55  1  0.16600125  -0.00003607  0.50146582  1
  I  I56  1  0.16839381  0.00291845  0.83460079  1
  I  I57  1  0.16880552  0.33081157  0.16473516  1
  I  I58  1  0.17271800  0.33656354  0.49755694  1
  I  I59  1  0.16731073  0.33026455  0.84194887  1
  I  I60  1  0.16758205  0.66806960  0.16817085  1
  I  I61  1  0.16165147  0.66290925  0.49786724  1
  I  I62  1  0.16498539  0.66653169  0.83470530  1
  I  I63  1  0.49621315  0.00216034  0.16712720  1
  I  I64  1  0.50165481  -0.00252005  0.50418881  1
  I  I65  1  0.50180741  -0.00293707  0.82950910  1
  I  I66  1  0.49670589  0.33480902  0.16749728  1
  I  I67  1  0.49847192  0.33667178  0.50194641  1
  I  I68  1  0.49802308  0.33611675  0.83013204  1
  I  I69  1  0.50130173  0.66356458  0.16786792  1
  I  I70  1  0.50176408  0.66465858  0.49798925  1
  I  I71  1  0.50293726  0.66627280  0.83414697  1
  I  I72  1  0.83108768  -0.00019514  0.16838156  1
  I  I73  1  0.83259521  0.00175200  0.50118933  1
  I  I74  1  0.82498771  -0.00340116  0.83243204  1
  I  I75  1  0.83351474  0.33681755  0.16858967  1
  I  I76  1  0.83174871  0.33562507  0.49655849  1
  I  I77  1  0.83306562  0.33343721  0.83441228  1
  I  I78  1  0.82684210  0.66227152  0.17513883  1
  I  I79  1  0.83402068  0.66317445  0.49661018  1
  I  I80  1  0.83253032  0.66932167  0.83183082  1
  I  I81  1  0.17080031  0.16327392  0.00150596  1
  I  I82  1  0.17044784  0.16481072  0.33032096  1
  I  I83  1  0.16599722  0.16809633  0.66834677  1
  I  I84  1  0.16635542  0.50183295  -0.00015941  1
  I  I85  1  0.17127674  0.49834545  0.33591993  1
  I  I86  1  0.16481685  0.49896934  0.66263556  1
  I  I87  1  0.16902095  0.83320455  0.00280613  1
  I  I88  1  0.16824589  0.84053603  0.33008386  1
  I  I89  1  0.16510192  0.83457996  0.66656212  1
  I  I90  1  0.49818861  0.17093981  0.00360124  1
  I  I91  1  0.49288913  0.17107294  0.32964847  1
  I  I92  1  0.49845022  0.16880409  0.66650666  1
  I  I93  1  0.50420755  0.50080237  0.00072113  1
  I  I94  1  0.49994632  0.50068844  0.33373236  1
  I  I95  1  0.49958785  0.50512975  0.66578434  1
  I  I96  1  0.50129918  0.82948242  -0.00259554  1
  I  I97  1  0.49823384  0.82903283  0.33538570  1
  I  I98  1  0.50315147  0.82444891  0.66695329  1
  I  I99  1  0.83236711  0.16761833  0.00001971  1
  I  I100  1  0.83462099  0.16884916  0.33608194  1
  I  I101  1  0.83319112  0.17558303  0.66320183  1
  I  I102  1  0.82899391  0.50166805  0.00238509  1
  I  I103  1  0.82924858  0.49691556  0.33434599  1
  I  I104  1  0.83231691  0.49716986  0.66353604  1
  I  I105  1  0.82464679  0.83289613  -0.00316966  1
  I  I106  1  0.83274570  0.83499121  0.33328913  1
  I  I107  1  0.83253230  0.83149845  0.66940563  1
  I  I108  1  0.00278799  0.16453312  0.16422260  1
  I  I109  1  -0.00309952  0.17308277  0.49864196  1
  I  I110  1  0.00332540  0.16622873  0.84125416  1
  I  I111  1  -0.00225094  0.50094656  0.17277465  1
  I  I112  1  -0.00111046  0.49449399  0.49337975  1
  I  I113  1  0.00016925  0.50174535  0.83359877  1
  I  I114  1  0.00347852  0.83938920  0.16584681  1
  I  I115  1  0.00003829  0.83232027  0.50162198  1
  I  I116  1  -0.00158214  0.83422804  0.83445073  1
  I  I117  1  0.33324207  0.16900347  0.16422226  1
  I  I118  1  0.33346193  0.16776786  0.50102402  1
  I  I119  1  0.33083102  0.16547863  0.83431749  1
  I  I120  1  0.33625771  0.49952260  0.16846518  1
  I  I121  1  0.33504009  0.50405804  0.49879218  1
  I  I122  1  0.33783699  0.50744543  0.83563372  1
  I  I123  1  0.33115466  0.83246649  0.16508547  1
  I  I124  1  0.33746526  0.82816332  0.50643788  1
  I  I125  1  0.33659928  0.82940144  0.83104555  1
  I  I126  1  0.66429153  0.16942718  0.16863803  1
  I  I127  1  0.66947507  0.17362165  0.49887241  1
  I  I128  1  0.66661335  0.16777611  0.83413806  1
  I  I129  1  0.66502451  0.49522693  0.17191096  1
  I  I130  1  0.66593654  0.50017823  0.49846323  1
  I  I131  1  0.66292213  0.50092778  0.82963258  1
  I  I132  1  0.66670272  0.83598537  0.16800257  1
  I  I133  1  0.66320068  0.82735360  0.49969922  1
  I  I134  1  0.66492048  0.82911739  0.82985588  1
