# generated using pymatgen
data_Cs27Sn13Pb14I81
_symmetry_space_group_name_H-M   'P 1'
_cell_length_a   18.97436738
_cell_length_b   18.97868513
_cell_length_c   18.97726807
_cell_angle_alpha   90.00137079
_cell_angle_beta   90.00027661
_cell_angle_gamma   90.00166500
_symmetry_Int_Tables_number   1
_chemical_formula_structural   Cs27Sn13Pb14I81
_chemical_formula_sum   'Cs27 Sn13 Pb14 I81'
_cell_volume   6833.87636978
_cell_formula_units_Z   1
loop_
 _symmetry_equiv_pos_site_id
 _symmetry_equiv_pos_as_xyz
  1  'x, y, z'
loop_
 _atom_site_type_symbol
 _atom_site_label
 _atom_site_symmetry_multiplicity
 _atom_site_fract_x
 _atom_site_fract_y
 _atom_site_fract_z
 _atom_site_occupancy
  Cs  Cs0  1  0.00492215  -0.00244274  0.00039413  1
  Cs  Cs1  1  -0.00007851  0.00102542  0.33493380  1
  Cs  Cs2  1  -0.00079967  0.00158061  0.66593150  1
  Cs  Cs3  1  -0.00171907  0.33402204  0.00491052  1
  Cs  Cs4  1  -0.00032295  0.33684301  0.32682719  1
  Cs  Cs5  1  0.00188004  0.33329096  0.66577383  1
  Cs  Cs6  1  -0.00069914  0.66827894  0.00030150  1
  Cs  Cs7  1  0.00019730  0.66392586  0.33299333  1
  Cs  Cs8  1  -0.00071251  0.66526166  0.66687355  1
  Cs  Cs9  1  0.33006018  0.00065304  0.00104273  1
  Cs  Cs10  1  0.33399740  0.00125011  0.33344201  1
  Cs  Cs11  1  0.33226615  -0.00302406  0.66522540  1
  Cs  Cs12  1  0.33808719  0.32804067  -0.00154298  1
  Cs  Cs13  1  0.33207643  0.33433361  0.33438599  1
  Cs  Cs14  1  0.33050922  0.33476192  0.66566009  1
  Cs  Cs15  1  0.33351135  0.67102473  -0.00376230  1
  Cs  Cs16  1  0.33452865  0.66446123  0.33441934  1
  Cs  Cs17  1  0.33562698  0.66780275  0.66756638  1
  Cs  Cs18  1  0.66567627  0.00827713  0.00105064  1
  Cs  Cs19  1  0.66641287  -0.00178538  0.33508534  1
  Cs  Cs20  1  0.66731491  0.00064555  0.66604221  1
  Cs  Cs21  1  0.66417518  0.32659134  0.00077710  1
  Cs  Cs22  1  0.66727567  0.33341108  0.33252337  1
  Cs  Cs23  1  0.66752424  0.33287671  0.66848581  1
  Cs  Cs24  1  0.66858710  0.66469676  0.00183829  1
  Cs  Cs25  1  0.66647331  0.66770198  0.33310348  1
  Cs  Cs26  1  0.66597138  0.66646840  0.66561352  1
  Sn  Sn27  1  0.83245680  0.83319704  0.16670426  1
  Sn  Sn28  1  0.16620053  0.16772206  0.83241423  1
  Sn  Sn29  1  0.49944327  0.16772036  0.50026645  1
  Sn  Sn30  1  0.50069360  0.83250270  0.16659295  1
  Sn  Sn31  1  0.16721913  0.16620267  0.50052282  1
  Sn  Sn32  1  0.83258112  0.50063855  0.50069115  1
  Sn  Sn33  1  0.49991036  0.50093767  0.16715268  1
  Sn  Sn34  1  0.16591388  0.49925979  0.83333333  1
  Sn  Sn35  1  0.50094513  0.49915775  0.49947497  1
  Sn  Sn36  1  0.16584441  0.83366973  0.49991750  1
  Sn  Sn37  1  0.83406459  0.50046986  0.83265383  1
  Sn  Sn38  1  0.83294994  0.83279834  0.83315610  1
  Sn  Sn39  1  0.83421073  0.83238634  0.50023470  1
  Pb  Pb40  1  0.50031458  0.83299766  0.49873116  1
  Pb  Pb41  1  0.83384534  0.16735649  0.49995891  1
  Pb  Pb42  1  0.50325235  0.83342131  0.83644661  1
  Pb  Pb43  1  0.49726589  0.16645222  0.83011061  1
  Pb  Pb44  1  0.16670771  0.16683385  0.16716366  1
  Pb  Pb45  1  0.16663214  0.83304786  0.16956328  1
  Pb  Pb46  1  0.83145063  0.50164558  0.16635585  1
  Pb  Pb47  1  0.49991711  0.16656163  0.16941162  1
  Pb  Pb48  1  0.83583905  0.16714557  0.83318535  1
  Pb  Pb49  1  0.16648011  0.49992845  0.50122913  1
  Pb  Pb50  1  0.50061865  0.50005336  0.83323358  1
  Pb  Pb51  1  0.83339798  0.16331985  0.16673685  1
  Pb  Pb52  1  0.16462779  0.83314495  0.83098953  1
  Pb  Pb53  1  0.16996401  0.50020154  0.16296557  1
  I  I54  1  0.16806144  -0.00027525  0.16236490  1
  I  I55  1  0.16720131  0.00026001  0.50529830  1
  I  I56  1  0.16578639  0.00218410  0.83049089  1
  I  I57  1  0.16750111  0.33363811  0.17187762  1
  I  I58  1  0.16857725  0.33101043  0.50338616  1
  I  I59  1  0.16191841  0.33355663  0.82597625  1
  I  I60  1  0.16585338  0.66668470  0.16742560  1
  I  I61  1  0.16547782  0.66885633  0.50106317  1
  I  I62  1  0.16475048  0.66415812  0.83185565  1
  I  I63  1  0.50508840  -0.00295736  0.16814514  1
  I  I64  1  0.49861699  0.00179425  0.49857699  1
  I  I65  1  0.50024990  -0.00008886  0.83309761  1
  I  I66  1  0.49940077  0.33625836  0.16840879  1
  I  I67  1  0.49945842  0.33446139  0.49475061  1
  I  I68  1  0.50461876  0.33345675  0.83835628  1
  I  I69  1  0.50394106  0.66654444  0.17357183  1
  I  I70  1  0.50068104  0.66400661  0.49796271  1
  I  I71  1  0.49361981  0.66658976  0.82846253  1
  I  I72  1  0.82656271  -0.00549929  0.16774909  1
  I  I73  1  0.83375074  -0.00319058  0.50017333  1
  I  I74  1  0.83387784  -0.00322349  0.83239194  1
  I  I75  1  0.83216858  0.33379680  0.16713964  1
  I  I76  1  0.83184538  0.33690398  0.50551632  1
  I  I77  1  0.83484062  0.33691838  0.82688084  1
  I  I78  1  0.83091890  0.66986957  0.16743071  1
  I  I79  1  0.83325206  0.66708567  0.50064851  1
  I  I80  1  0.83941948  0.66631407  0.83207410  1
  I  I81  1  0.16500189  0.17012037  -0.00331842  1
  I  I82  1  0.17071421  0.16151499  0.33729243  1
  I  I83  1  0.17064774  0.16650193  0.66564155  1
  I  I84  1  0.16010085  0.49520990  -0.00498595  1
  I  I85  1  0.16427001  0.49949089  0.33344404  1
  I  I86  1  0.16676874  0.49915588  0.66908187  1
  I  I87  1  0.16622780  0.83446999  -0.00021999  1
  I  I88  1  0.16146242  0.83909636  0.33767332  1
  I  I89  1  0.16239508  0.83478209  0.66304404  1
  I  I90  1  0.49916120  0.16707114  0.00007427  1
  I  I91  1  0.49322192  0.16780172  0.33726559  1
  I  I92  1  0.49938778  0.17235892  0.66213146  1
  I  I93  1  0.49925064  0.50546756  0.00268500  1
  I  I94  1  0.50527672  0.50020305  0.33485295  1
  I  I95  1  0.50108239  0.49621888  0.66349133  1
  I  I96  1  0.50329577  0.82603425  0.00459366  1
  I  I97  1  0.50564214  0.83231319  0.33096390  1
  I  I98  1  0.50007013  0.83304001  0.66641887  1
  I  I99  1  0.83460171  0.16763014  -0.00023958  1
  I  I100  1  0.83579663  0.16701609  0.33379011  1
  I  I101  1  0.83038148  0.16136660  0.66642657  1
  I  I102  1  0.83676435  0.50476459  -0.00288032  1
  I  I103  1  0.83144227  0.50364288  0.33627783  1
  I  I104  1  0.83131356  0.50803070  0.66595097  1
  I  I105  1  0.82924426  0.82854864  -0.00031981  1
  I  I106  1  0.83294794  0.83011231  0.33434402  1
  I  I107  1  0.83854936  0.82938943  0.66579026  1
  I  I108  1  0.00012844  0.16579798  0.16968404  1
  I  I109  1  0.00312943  0.16396792  0.50490040  1
  I  I110  1  0.00357034  0.16714268  0.82426867  1
  I  I111  1  -0.00020041  0.50091210  0.16970754  1
  I  I112  1  -0.00276141  0.50177869  0.50279132  1
  I  I113  1  -0.00108372  0.50051712  0.82632213  1
  I  I114  1  -0.00336779  0.83380320  0.16491633  1
  I  I115  1  -0.00135710  0.83379169  0.49840475  1
  I  I116  1  -0.00355567  0.83201643  0.83746372  1
  I  I117  1  0.33350555  0.16360235  0.16436160  1
  I  I118  1  0.33288215  0.16613560  0.50346186  1
  I  I119  1  0.32920068  0.17334618  0.83197981  1
  I  I120  1  0.33782232  0.50632545  0.17422008  1
  I  I121  1  0.33570180  0.49966159  0.49790054  1
  I  I122  1  0.33078565  0.49538381  0.83280102  1
  I  I123  1  0.33629957  0.83017874  0.16940701  1
  I  I124  1  0.33131537  0.83441461  0.49851826  1
  I  I125  1  0.33305405  0.83274822  0.83310441  1
  I  I126  1  0.66638902  0.16828755  0.16746528  1
  I  I127  1  0.66421002  0.16692700  0.49772727  1
  I  I128  1  0.66681861  0.16672678  0.83338201  1
  I  I129  1  0.66362768  0.50287620  0.16754320  1
  I  I130  1  0.66717859  0.50098925  0.50194961  1
  I  I131  1  0.67004429  0.50616896  0.83120886  1
  I  I132  1  0.66740555  0.82862041  0.16971123  1
  I  I133  1  0.66972628  0.83272775  0.50125050  1
  I  I134  1  0.67158369  0.82593914  0.82611061  1
