# generated using pymatgen
data_Cs27Sn14Pb13I81
_symmetry_space_group_name_H-M   'P 1'
_cell_length_a   18.97313766
_cell_length_b   18.98235609
_cell_length_c   18.97469311
_cell_angle_alpha   90.00013309
_cell_angle_beta   89.99755149
_cell_angle_gamma   89.99979682
_symmetry_Int_Tables_number   1
_chemical_formula_structural   Cs27Sn14Pb13I81
_chemical_formula_sum   'Cs27 Sn14 Pb13 I81'
_cell_volume   6833.82784283
_cell_formula_units_Z   1
loop_
 _symmetry_equiv_pos_site_id
 _symmetry_equiv_pos_as_xyz
  1  'x, y, z'
loop_
 _atom_site_type_symbol
 _atom_site_label
 _atom_site_symmetry_multiplicity
 _atom_site_fract_x
 _atom_site_fract_y
 _atom_site_fract_z
 _atom_site_occupancy
  Cs  Cs0  1  0.00284581  0.00023110  0.00007450  1
  Cs  Cs1  1  -0.00136174  -0.00200393  0.33403550  1
  Cs  Cs2  1  -0.00190579  0.00007469  0.66501375  1
  Cs  Cs3  1  0.00078195  0.33325290  0.00085821  1
  Cs  Cs4  1  0.00049079  0.33331002  0.33079598  1
  Cs  Cs5  1  0.00257524  0.33410521  0.66702058  1
  Cs  Cs6  1  0.00183125  0.66795738  0.00337849  1
  Cs  Cs7  1  -0.00316086  0.67048062  0.33149397  1
  Cs  Cs8  1  -0.00033224  0.66626825  0.66545875  1
  Cs  Cs9  1  0.33265910  -0.00646326  -0.00086812  1
  Cs  Cs10  1  0.33710646  -0.00014472  0.33436251  1
  Cs  Cs11  1  0.33156869  -0.00150916  0.66546058  1
  Cs  Cs12  1  0.33663060  0.33383593  0.00225590  1
  Cs  Cs13  1  0.33365767  0.33380948  0.33476014  1
  Cs  Cs14  1  0.32487799  0.33536874  0.65965193  1
  Cs  Cs15  1  0.33245637  0.67266222  -0.00184957  1
  Cs  Cs16  1  0.33704744  0.66628292  0.33510139  1
  Cs  Cs17  1  0.33256692  0.66555558  0.66646123  1
  Cs  Cs18  1  0.66492875  0.00393887  -0.00232590  1
  Cs  Cs19  1  0.66520036  0.00058458  0.33389256  1
  Cs  Cs20  1  0.66881074  -0.00039244  0.66746196  1
  Cs  Cs21  1  0.66512694  0.33326767  -0.00106710  1
  Cs  Cs22  1  0.66551605  0.33287484  0.33121901  1
  Cs  Cs23  1  0.66768239  0.33377676  0.67056398  1
  Cs  Cs24  1  0.66647645  0.66346907  0.00070081  1
  Cs  Cs25  1  0.66697220  0.66770401  0.33178302  1
  Cs  Cs26  1  0.66700257  0.66613328  0.66730384  1
  Sn  Sn27  1  0.83314297  0.16691781  0.83338776  1
  Sn  Sn28  1  0.50015670  0.16792599  0.83352502  1
  Sn  Sn29  1  0.83331085  0.83318467  0.83310814  1
  Sn  Sn30  1  0.49895853  0.49922427  0.16568728  1
  Sn  Sn31  1  0.83311659  0.49973230  0.50057246  1
  Sn  Sn32  1  0.83322581  0.16714229  0.50026359  1
  Sn  Sn33  1  0.16607468  0.83330511  0.49989871  1
  Sn  Sn34  1  0.16710112  0.16722617  0.16645968  1
  Sn  Sn35  1  0.83367084  0.83324690  0.50094384  1
  Sn  Sn36  1  0.83304936  0.49989294  0.83279215  1
  Sn  Sn37  1  0.49966107  0.16753111  0.16568750  1
  Sn  Sn38  1  0.50030885  0.49861294  0.83386028  1
  Sn  Sn39  1  0.16783987  0.49953795  0.16643225  1
  Sn  Sn40  1  0.83330938  0.16670378  0.16633370  1
  Pb  Pb41  1  0.83303932  0.83649016  0.16634603  1
  Pb  Pb42  1  0.50082793  0.83329495  0.50036779  1
  Pb  Pb43  1  0.83293306  0.49806887  0.16619280  1
  Pb  Pb44  1  0.50019615  0.83332238  0.16641424  1
  Pb  Pb45  1  0.16413120  0.16504723  0.49739415  1
  Pb  Pb46  1  0.16671025  0.83333010  0.16889687  1
  Pb  Pb47  1  0.50233904  0.49972919  0.50041006  1
  Pb  Pb48  1  0.16729633  0.16688132  0.83547093  1
  Pb  Pb49  1  0.50240747  0.83328996  0.83327986  1
  Pb  Pb50  1  0.16691770  0.49977105  0.83557511  1
  Pb  Pb51  1  0.16379427  0.50187317  0.49715786  1
  Pb  Pb52  1  0.50208347  0.16691389  0.50081672  1
  Pb  Pb53  1  0.16377562  0.83332384  0.83076180  1
  I  I54  1  0.16550211  0.00326323  0.16741431  1
  I  I55  1  0.15902122  -0.00271478  0.49819412  1
  I  I56  1  0.16687635  0.00012011  0.83695367  1
  I  I57  1  0.16589902  0.33250767  0.16719178  1
  I  I58  1  0.16506340  0.33340583  0.50075609  1
  I  I59  1  0.15950747  0.33331755  0.82997270  1
  I  I60  1  0.17040796  0.66362772  0.16731762  1
  I  I61  1  0.15859760  0.66953122  0.49771255  1
  I  I62  1  0.16661893  0.66653635  0.83726131  1
  I  I63  1  0.50042156  0.00405033  0.16310848  1
  I  I64  1  0.50260757  0.00028283  0.49810851  1
  I  I65  1  0.50529513  0.00351651  0.83883890  1
  I  I66  1  0.50040182  0.33251978  0.16275051  1
  I  I67  1  0.50185247  0.33330952  0.49850455  1
  I  I68  1  0.51208771  0.33316151  0.83999694  1
  I  I69  1  0.49567306  0.66283779  0.16302320  1
  I  I70  1  0.50314840  0.66636758  0.49817691  1
  I  I71  1  0.50481808  0.66316335  0.83795591  1
  I  I72  1  0.83352952  0.00506620  0.16717082  1
  I  I73  1  0.83699446  0.00027328  0.50187931  1
  I  I74  1  0.82996552  0.00112022  0.83098231  1
  I  I75  1  0.83384244  0.32982156  0.16797978  1
  I  I76  1  0.83145596  0.33295404  0.50184393  1
  I  I77  1  0.82941057  0.33299019  0.83099573  1
  I  I78  1  0.83392957  0.66650102  0.16743689  1
  I  I79  1  0.83683033  0.66675829  0.50659058  1
  I  I80  1  0.82964266  0.66587965  0.82569840  1
  I  I81  1  0.15964935  0.16977506  0.00380890  1
  I  I82  1  0.16670505  0.17025856  0.32917510  1
  I  I83  1  0.16695600  0.16461422  0.66644246  1
  I  I84  1  0.16341224  0.49576914  0.00360702  1
  I  I85  1  0.17127471  0.49496257  0.32940901  1
  I  I86  1  0.16916136  0.50205207  0.66642728  1
  I  I87  1  0.16538930  0.83343280  0.00016489  1
  I  I88  1  0.15575982  0.83362905  0.33635507  1
  I  I89  1  0.16374465  0.83366118  0.66295534  1
  I  I90  1  0.50703361  0.17061096  0.00046654  1
  I  I91  1  0.50131018  0.17013745  0.32998100  1
  I  I92  1  0.50716918  0.16972138  0.67054409  1
  I  I93  1  0.50390862  0.49564578  -0.00006861  1
  I  I94  1  0.49766578  0.49564222  0.33011367  1
  I  I95  1  0.50433127  0.49642553  0.67031237  1
  I  I96  1  0.50195974  0.83363427  -0.00025293  1
  I  I97  1  0.50315889  0.83360230  0.33335305  1
  I  I98  1  0.49769573  0.83391441  0.66697139  1
  I  I99  1  0.83285388  0.16682046  -0.00044077  1
  I  I100  1  0.83387586  0.16645884  0.33312621  1
  I  I101  1  0.82824816  0.16551427  0.66735855  1
  I  I102  1  0.83282352  0.50045657  -0.00299570  1
  I  I103  1  0.83417231  0.50055724  0.33548637  1
  I  I104  1  0.82826437  0.49680942  0.66757864  1
  I  I105  1  0.83157557  0.83229943  -0.00334112  1
  I  I106  1  0.83748945  0.83265043  0.33653900  1
  I  I107  1  0.83674144  0.83790448  0.66645313  1
  I  I108  1  -0.00071455  0.17030828  0.16751610  1
  I  I109  1  -0.00468330  0.16832756  0.50099492  1
  I  I110  1  -0.00370566  0.16655617  0.83382689  1
  I  I111  1  0.00151642  0.49552764  0.16767424  1
  I  I112  1  -0.00450595  0.49709064  0.50482319  1
  I  I113  1  -0.00360335  0.49934449  0.83050079  1
  I  I114  1  -0.00028393  0.83260083  0.16448629  1
  I  I115  1  -0.00256150  0.83398484  0.50324429  1
  I  I116  1  -0.00483557  0.83421331  0.83245767  1
  I  I117  1  0.33427934  0.17066120  0.16222076  1
  I  I118  1  0.33313823  0.16320477  0.50008569  1
  I  I119  1  0.33715934  0.17158087  0.83865202  1
  I  I120  1  0.33436341  0.49147343  0.16220312  1
  I  I121  1  0.33314285  0.50324451  0.50237180  1
  I  I122  1  0.33694211  0.49445302  0.83594432  1
  I  I123  1  0.33328649  0.83802535  0.16996767  1
  I  I124  1  0.33049058  0.83382857  0.49647986  1
  I  I125  1  0.33342339  0.83377966  0.83208492  1
  I  I126  1  0.66672890  0.17005582  0.16671202  1
  I  I127  1  0.67108585  0.16317741  0.49475060  1
  I  I128  1  0.66837536  0.16661406  0.83788295  1
  I  I129  1  0.66413613  0.49592219  0.16625532  1
  I  I130  1  0.67094146  0.50281527  0.49822200  1
  I  I131  1  0.66784057  0.49965979  0.83575829  1
  I  I132  1  0.66696049  0.83201184  0.17120514  1
  I  I133  1  0.67115604  0.83404019  0.50371436  1
  I  I134  1  0.67076543  0.83441873  0.82558459  1
