# generated using pymatgen
data_Cs27Sn13Pb14I81
_symmetry_space_group_name_H-M   'P 1'
_cell_length_a   18.97907892
_cell_length_b   18.96845342
_cell_length_c   18.98311929
_cell_angle_alpha   90.00023809
_cell_angle_beta   90.00053481
_cell_angle_gamma   90.00009555
_symmetry_Int_Tables_number   1
_chemical_formula_structural   Cs27Sn13Pb14I81
_chemical_formula_sum   'Cs27 Sn13 Pb14 I81'
_cell_volume   6833.99459147
_cell_formula_units_Z   1
loop_
 _symmetry_equiv_pos_site_id
 _symmetry_equiv_pos_as_xyz
  1  'x, y, z'
loop_
 _atom_site_type_symbol
 _atom_site_label
 _atom_site_symmetry_multiplicity
 _atom_site_fract_x
 _atom_site_fract_y
 _atom_site_fract_z
 _atom_site_occupancy
  Cs  Cs0  1  0.00067378  0.00024285  -0.00016151  1
  Cs  Cs1  1  -0.00196604  -0.00189629  0.33254562  1
  Cs  Cs2  1  0.00357457  -0.00206050  0.66766125  1
  Cs  Cs3  1  0.00156901  0.33254566  0.00104943  1
  Cs  Cs4  1  0.00672249  0.32668039  0.33999698  1
  Cs  Cs5  1  0.00101798  0.33283603  0.66134407  1
  Cs  Cs6  1  -0.00225167  0.66725020  0.00188409  1
  Cs  Cs7  1  0.00145446  0.66724244  0.33367098  1
  Cs  Cs8  1  -0.00154321  0.66770938  0.66427558  1
  Cs  Cs9  1  0.33227388  -0.00075549  -0.00147816  1
  Cs  Cs10  1  0.34381454  0.00422017  0.33418198  1
  Cs  Cs11  1  0.33147138  -0.00063844  0.66747437  1
  Cs  Cs12  1  0.33109892  0.33505001  0.00044123  1
  Cs  Cs13  1  0.32581651  0.32920113  0.33329481  1
  Cs  Cs14  1  0.33322536  0.33249044  0.66692131  1
  Cs  Cs15  1  0.33435260  0.66653571  -0.00047337  1
  Cs  Cs16  1  0.33100490  0.66624833  0.33237709  1
  Cs  Cs17  1  0.33591449  0.66827570  0.66881207  1
  Cs  Cs18  1  0.66711550  0.00118956  0.00231276  1
  Cs  Cs19  1  0.65989406  0.00720577  0.33291513  1
  Cs  Cs20  1  0.66496602  0.00037534  0.66561702  1
  Cs  Cs21  1  0.66659309  0.33605045  -0.00292715  1
  Cs  Cs22  1  0.66825533  0.32688856  0.33526674  1
  Cs  Cs23  1  0.66721413  0.33566061  0.66897257  1
  Cs  Cs24  1  0.66785041  0.66487161  0.00042515  1
  Cs  Cs25  1  0.66766414  0.66697244  0.33155226  1
  Cs  Cs26  1  0.66715414  0.66524040  0.66711285  1
  Sn  Sn27  1  0.83390693  0.49985916  0.83385956  1
  Sn  Sn28  1  0.83317422  0.83349489  0.83343013  1
  Sn  Sn29  1  0.50080501  0.50010743  0.16721990  1
  Sn  Sn30  1  0.50072020  0.16739229  0.83359939  1
  Sn  Sn31  1  0.16648078  0.83295482  0.49871426  1
  Sn  Sn32  1  0.50023545  0.50017559  0.49937077  1
  Sn  Sn33  1  0.83374163  0.83272429  0.16708116  1
  Sn  Sn34  1  0.83339918  0.83310645  0.49947281  1
  Sn  Sn35  1  0.83315317  0.49992465  0.16676495  1
  Sn  Sn36  1  0.49994472  0.49934883  0.83351998  1
  Sn  Sn37  1  0.83272622  0.16696484  0.83339220  1
  Sn  Sn38  1  0.16602246  0.50042288  0.83325782  1
  Sn  Sn39  1  0.16626557  0.83315021  0.16756072  1
  Pb  Pb40  1  0.16897714  0.50221917  0.50231501  1
  Pb  Pb41  1  0.50010215  0.16987386  0.50287543  1
  Pb  Pb42  1  0.83199675  0.50148265  0.49922867  1
  Pb  Pb43  1  0.16639373  0.16928323  0.83339679  1
  Pb  Pb44  1  0.16587230  0.50154501  0.16513069  1
  Pb  Pb45  1  0.50015466  0.83144031  0.49996497  1
  Pb  Pb46  1  0.16434973  0.83129422  0.83358487  1
  Pb  Pb47  1  0.16673494  0.16302700  0.50010514  1
  Pb  Pb48  1  0.83353660  0.16717407  0.16465918  1
  Pb  Pb49  1  0.16655184  0.16294401  0.16650270  1
  Pb  Pb50  1  0.50261060  0.83326057  0.83349152  1
  Pb  Pb51  1  0.50010974  0.17033956  0.16373421  1
  Pb  Pb52  1  0.83336018  0.16342923  0.50287298  1
  Pb  Pb53  1  0.50045306  0.83145029  0.16658687  1
  I  I54  1  0.15859814  -0.00551405  0.16757653  1
  I  I55  1  0.16179046  -0.00523227  0.49935064  1
  I  I56  1  0.16734856  -0.00031413  0.83290671  1
  I  I57  1  0.16686002  0.33367818  0.16446196  1
  I  I58  1  0.16765318  0.33362647  0.50149471  1
  I  I59  1  0.16363358  0.33751352  0.83421312  1
  I  I60  1  0.16440188  0.66962025  0.16909374  1
  I  I61  1  0.16195087  0.67003068  0.49719691  1
  I  I62  1  0.16876723  0.66332411  0.83329293  1
  I  I63  1  0.49952665  0.00026072  0.16563499  1
  I  I64  1  0.49939091  0.00015090  0.50182563  1
  I  I65  1  0.50461773  0.00282577  0.83266791  1
  I  I66  1  0.50708586  0.33863991  0.16729453  1
  I  I67  1  0.50165781  0.33797382  0.49933545  1
  I  I68  1  0.50539574  0.33545862  0.83305441  1
  I  I69  1  0.50166864  0.66294207  0.16144028  1
  I  I70  1  0.50067919  0.66334653  0.50554814  1
  I  I71  1  0.50061120  0.66279316  0.83324590  1
  I  I72  1  0.83848454  -0.00345455  0.16461944  1
  I  I73  1  0.83686251  -0.00513645  0.49979832  1
  I  I74  1  0.82887807  -0.00068086  0.83300285  1
  I  I75  1  0.82733252  0.33718877  0.15984955  1
  I  I76  1  0.83137899  0.33335289  0.50050308  1
  I  I77  1  0.83136481  0.33496849  0.83830638  1
  I  I78  1  0.83264517  0.66685914  0.16085465  1
  I  I79  1  0.83558143  0.66982479  0.50543211  1
  I  I80  1  0.83301327  0.66599853  0.83378704  1
  I  I81  1  0.16702645  0.16396988  -0.00049346  1
  I  I82  1  0.16637576  0.17213969  0.33338042  1
  I  I83  1  0.16690791  0.16431857  0.66711220  1
  I  I84  1  0.17052241  0.50293241  -0.00294750  1
  I  I85  1  0.16807182  0.50024218  0.33333812  1
  I  I86  1  0.16542484  0.50251567  0.67038299  1
  I  I87  1  0.16248744  0.83123374  0.00240710  1
  I  I88  1  0.15669265  0.83056047  0.33310528  1
  I  I89  1  0.16212512  0.83132318  0.66467215  1
  I  I90  1  0.50504903  0.17172183  -0.00422109  1
  I  I91  1  0.49945212  0.16686083  0.33329989  1
  I  I92  1  0.50485117  0.17247055  0.67086151  1
  I  I93  1  0.50136878  0.49712199  -0.00116211  1
  I  I94  1  0.50565195  0.50532167  0.33246450  1
  I  I95  1  0.50047720  0.49736388  0.66847604  1
  I  I96  1  0.49834172  0.83109600  -0.00008858  1
  I  I97  1  0.50384882  0.83003549  0.33324931  1
  I  I98  1  0.50012374  0.82989211  0.66688427  1
  I  I99  1  0.82916813  0.16287430  -0.00393704  1
  I  I100  1  0.83363916  0.16707880  0.33340150  1
  I  I101  1  0.82903433  0.16927365  0.67142839  1
  I  I102  1  0.82859902  0.50527252  -0.00139926  1
  I  I103  1  0.82722534  0.50737931  0.33004749  1
  I  I104  1  0.83168228  0.50146278  0.66994965  1
  I  I105  1  0.83667135  0.83165491  -0.00006959  1
  I  I106  1  0.83856226  0.82580895  0.33248025  1
  I  I107  1  0.83664076  0.83245459  0.66734192  1
  I  I108  1  -0.00024410  0.17179699  0.16258592  1
  I  I109  1  -0.00016988  0.17116358  0.50345377  1
  I  I110  1  -0.00352249  0.16641308  0.83398335  1
  I  I111  1  -0.00342865  0.50416968  0.15891151  1
  I  I112  1  0.00006735  0.50010253  0.50178074  1
  I  I113  1  -0.00177423  0.50131372  0.83834671  1
  I  I114  1  -0.00180612  0.82707630  0.16638644  1
  I  I115  1  -0.00117317  0.83135651  0.50078252  1
  I  I116  1  -0.00407881  0.83291959  0.83319649  1
  I  I117  1  0.33353697  0.16660304  0.16340441  1
  I  I118  1  0.33360956  0.16439231  0.50340517  1
  I  I119  1  0.33635926  0.17241807  0.83320053  1
  I  I120  1  0.33577736  0.50219791  0.16346591  1
  I  I121  1  0.33694969  0.50317705  0.50133718  1
  I  I122  1  0.33471507  0.49615308  0.83346896  1
  I  I123  1  0.33057521  0.83094417  0.17100305  1
  I  I124  1  0.33044765  0.83058853  0.49609967  1
  I  I125  1  0.33317178  0.83256621  0.83263679  1
  I  I126  1  0.66676942  0.16063335  0.16797094  1
  I  I127  1  0.66668234  0.16295832  0.49885118  1
  I  I128  1  0.66737537  0.17174976  0.83328702  1
  I  I129  1  0.66747451  0.50727460  0.15994536  1
  I  I130  1  0.66406204  0.50373388  0.50603449  1
  I  I131  1  0.66706458  0.50001945  0.83363790  1
  I  I132  1  0.67044929  0.83039887  0.16549169  1
  I  I133  1  0.66995863  0.83110076  0.50152690  1
  I  I134  1  0.67124113  0.82833172  0.83329525  1
