# generated using pymatgen
data_Cs27Sn14Pb13I81
_symmetry_space_group_name_H-M   'P 1'
_cell_length_a   18.96329312
_cell_length_b   18.95945197
_cell_length_c   18.96267870
_cell_angle_alpha   90.00051197
_cell_angle_beta   90.00026169
_cell_angle_gamma   89.99822158
_symmetry_Int_Tables_number   1
_chemical_formula_structural   Cs27Sn14Pb13I81
_chemical_formula_sum   'Cs27 Sn14 Pb13 I81'
_cell_volume   6817.72099012
_cell_formula_units_Z   1
loop_
 _symmetry_equiv_pos_site_id
 _symmetry_equiv_pos_as_xyz
  1  'x, y, z'
loop_
 _atom_site_type_symbol
 _atom_site_label
 _atom_site_symmetry_multiplicity
 _atom_site_fract_x
 _atom_site_fract_y
 _atom_site_fract_z
 _atom_site_occupancy
  Cs  Cs0  1  0.00160627  0.00072512  -0.00270592  1
  Cs  Cs1  1  -0.00184286  0.00255437  0.33541425  1
  Cs  Cs2  1  0.00139448  0.00541398  0.66775177  1
  Cs  Cs3  1  -0.00059027  0.33413363  0.00055520  1
  Cs  Cs4  1  0.00072120  0.33303179  0.33289820  1
  Cs  Cs5  1  0.00045750  0.32929690  0.66648542  1
  Cs  Cs6  1  0.00113849  0.66555527  0.00062289  1
  Cs  Cs7  1  -0.00085994  0.66526975  0.33411393  1
  Cs  Cs8  1  -0.00010931  0.66737474  0.66634609  1
  Cs  Cs9  1  0.33268690  -0.00240580  0.00185587  1
  Cs  Cs10  1  0.33649516  0.00018574  0.33190328  1
  Cs  Cs11  1  0.33259000  0.00019494  0.66695477  1
  Cs  Cs12  1  0.33852662  0.33537743  0.00357741  1
  Cs  Cs13  1  0.33570573  0.33273091  0.33132829  1
  Cs  Cs14  1  0.33396721  0.33583020  0.66631257  1
  Cs  Cs15  1  0.32835884  0.66801213  0.00603153  1
  Cs  Cs16  1  0.33107089  0.66673664  0.33149379  1
  Cs  Cs17  1  0.33360672  0.66502927  0.66600993  1
  Cs  Cs18  1  0.66595203  0.00036802  -0.00009368  1
  Cs  Cs19  1  0.66579443  -0.00040183  0.33336510  1
  Cs  Cs20  1  0.66762503  -0.00073717  0.66664508  1
  Cs  Cs21  1  0.66467761  0.33468006  0.00147694  1
  Cs  Cs22  1  0.66438132  0.33468030  0.32982941  1
  Cs  Cs23  1  0.66536076  0.33383767  0.66813936  1
  Cs  Cs24  1  0.66919030  0.66587945  -0.00323569  1
  Cs  Cs25  1  0.66964251  0.66775187  0.33570090  1
  Cs  Cs26  1  0.66680572  0.66769565  0.66654666  1
  Sn  Sn27  1  0.50023353  0.16598199  0.50118336  1
  Sn  Sn28  1  0.83426543  0.16582133  0.16659372  1
  Sn  Sn29  1  0.16579414  0.16630925  0.16658100  1
  Sn  Sn30  1  0.16559844  0.50062950  0.50101715  1
  Sn  Sn31  1  0.16637515  0.83303853  0.50036435  1
  Sn  Sn32  1  0.83376349  0.83312327  0.50049098  1
  Sn  Sn33  1  0.83439763  0.50062321  0.83198691  1
  Sn  Sn34  1  0.50007338  0.16565970  0.83223297  1
  Sn  Sn35  1  0.83423245  0.50036935  0.50124139  1
  Sn  Sn36  1  0.83349363  0.83431624  0.16647654  1
  Sn  Sn37  1  0.83309209  0.83300265  0.83305912  1
  Sn  Sn38  1  0.16583575  0.50006244  0.83254221  1
  Sn  Sn39  1  0.49989760  0.83412395  0.50095479  1
  Sn  Sn40  1  0.50035843  0.83401525  0.83256807  1
  Pb  Pb41  1  0.50004981  0.50119746  0.83328100  1
  Pb  Pb42  1  0.50041872  0.16630792  0.16648761  1
  Pb  Pb43  1  0.16376598  0.83539377  0.16949367  1
  Pb  Pb44  1  0.50017606  0.50083198  0.49992055  1
  Pb  Pb45  1  0.83122861  0.16709359  0.49836606  1
  Pb  Pb46  1  0.50243005  0.83302458  0.16655232  1
  Pb  Pb47  1  0.16898207  0.16701685  0.49867713  1
  Pb  Pb48  1  0.50010185  0.50084303  0.16673632  1
  Pb  Pb49  1  0.83339379  0.50037548  0.16670130  1
  Pb  Pb50  1  0.16635281  0.49798310  0.16720470  1
  Pb  Pb51  1  0.83162016  0.16683834  0.83529623  1
  Pb  Pb52  1  0.16954076  0.16945510  0.83541296  1
  Pb  Pb53  1  0.16664475  0.83168886  0.83139815  1
  I  I54  1  0.16547487  0.00298538  0.16797234  1
  I  I55  1  0.16415667  -0.00283009  0.49790577  1
  I  I56  1  0.16466590  -0.00002433  0.83274759  1
  I  I57  1  0.16090597  0.33021105  0.16858989  1
  I  I58  1  0.16323772  0.33637111  0.50168284  1
  I  I59  1  0.16127221  0.33732472  0.82692459  1
  I  I60  1  0.16675357  0.66687232  0.16539224  1
  I  I61  1  0.16790009  0.66680784  0.50287161  1
  I  I62  1  0.16729325  0.66354896  0.83212251  1
  I  I63  1  0.49857406  -0.00012728  0.16729633  1
  I  I64  1  0.50043486  -0.00146504  0.50279014  1
  I  I65  1  0.50593823  -0.00119841  0.82956762  1
  I  I66  1  0.50231039  0.33270862  0.16684223  1
  I  I67  1  0.49997951  0.33088220  0.50251689  1
  I  I68  1  0.49994302  0.33108390  0.83063662  1
  I  I69  1  0.50103642  0.66754491  0.16668344  1
  I  I70  1  0.50107055  0.67038708  0.50468102  1
  I  I71  1  0.50293775  0.67028022  0.82760388  1
  I  I72  1  0.83615276  -0.00093765  0.16777434  1
  I  I73  1  0.83511290  -0.00327998  0.50174336  1
  I  I74  1  0.83060498  -0.00317960  0.83099321  1
  I  I75  1  0.83555027  0.33081565  0.16704063  1
  I  I76  1  0.83645242  0.33635672  0.50252183  1
  I  I77  1  0.83488246  0.33624736  0.83061700  1
  I  I78  1  0.83139562  0.66987406  0.16746818  1
  I  I79  1  0.83137782  0.66797651  0.49791112  1
  I  I80  1  0.83040974  0.66768455  0.83479189  1
  I  I81  1  0.16397066  0.16761453  0.00309024  1
  I  I82  1  0.16470397  0.16804444  0.33089771  1
  I  I83  1  0.16667567  0.16593497  0.66665873  1
  I  I84  1  0.16318144  0.49866180  -0.00281177  1
  I  I85  1  0.16262164  0.50316276  0.33700562  1
  I  I86  1  0.16289643  0.50305374  0.66570226  1
  I  I87  1  0.16770929  0.83201161  -0.00001677  1
  I  I88  1  0.16837767  0.82710529  0.33784390  1
  I  I89  1  0.16333056  0.83261804  0.66296625  1
  I  I90  1  0.50043893  0.16349824  -0.00281264  1
  I  I91  1  0.50009418  0.16291224  0.33599928  1
  I  I92  1  0.50043531  0.16253800  0.66645754  1
  I  I93  1  0.50058420  0.49740099  -0.00078440  1
  I  I94  1  0.50050344  0.49755982  0.33416210  1
  I  I95  1  0.49962719  0.49745097  0.66658837  1
  I  I96  1  0.50471294  0.83740872  -0.00358604  1
  I  I97  1  0.50080228  0.83739600  0.33698800  1
  I  I98  1  0.50536243  0.83763771  0.66601829  1
  I  I99  1  0.83400963  0.16308470  0.00319797  1
  I  I100  1  0.83383968  0.16292861  0.33046554  1
  I  I101  1  0.83319485  0.16516959  0.66670888  1
  I  I102  1  0.83598952  0.50314094  -0.00322922  1
  I  I103  1  0.83654116  0.50323749  0.33665630  1
  I  I104  1  0.83643087  0.50769982  0.66643613  1
  I  I105  1  0.82772867  0.83284711  -0.00117273  1
  I  I106  1  0.83281195  0.83296286  0.33478878  1
  I  I107  1  0.83101156  0.82791040  0.66626238  1
  I  I108  1  -0.00103244  0.16333432  0.16793255  1
  I  I109  1  -0.00009921  0.16442528  0.49888754  1
  I  I110  1  -0.00000387  0.16493161  0.83385023  1
  I  I111  1  -0.00024451  0.50034871  0.16642309  1
  I  I112  1  -0.00058929  0.50778651  0.50284803  1
  I  I113  1  -0.00128154  0.50529882  0.83022724  1
  I  I114  1  -0.00438247  0.83451559  0.16567189  1
  I  I115  1  -0.00107029  0.82812436  0.49864220  1
  I  I116  1  -0.00327176  0.83067875  0.83329392  1
  I  I117  1  0.33139143  0.16942986  0.16758809  1
  I  I118  1  0.33688480  0.16307997  0.50044766  1
  I  I119  1  0.33736751  0.16159488  0.83153443  1
  I  I120  1  0.33270593  0.49653682  0.16614740  1
  I  I121  1  0.33036242  0.50237800  0.50362294  1
  I  I122  1  0.33068109  0.49850385  0.82874100  1
  I  I123  1  0.33297021  0.83466241  0.16644631  1
  I  I124  1  0.33386844  0.83329838  0.50452937  1
  I  I125  1  0.33606205  0.83580019  0.82843222  1
  I  I126  1  0.66937774  0.16316495  0.16713902  1
  I  I127  1  0.66334618  0.16274333  0.50095923  1
  I  I128  1  0.66366153  0.16729243  0.83191765  1
  I  I129  1  0.66751170  0.49554854  0.16692193  1
  I  I130  1  0.67000253  0.50306268  0.50346253  1
  I  I131  1  0.66991037  0.50122820  0.82964980  1
  I  I132  1  0.67078436  0.83960928  0.17106794  1
  I  I133  1  0.66750271  0.83315006  0.49959623  1
  I  I134  1  0.66770439  0.83163227  0.82970585  1
