# generated using pymatgen
data_Cs27Sn14Pb13I81
_symmetry_space_group_name_H-M   'P 1'
_cell_length_a   18.97632687
_cell_length_b   18.96991220
_cell_length_c   18.97947459
_cell_angle_alpha   90.00158229
_cell_angle_beta   89.99947147
_cell_angle_gamma   89.99947239
_symmetry_Int_Tables_number   1
_chemical_formula_structural   Cs27Sn14Pb13I81
_chemical_formula_sum   'Cs27 Sn14 Pb13 I81'
_cell_volume   6832.21711471
_cell_formula_units_Z   1
loop_
 _symmetry_equiv_pos_site_id
 _symmetry_equiv_pos_as_xyz
  1  'x, y, z'
loop_
 _atom_site_type_symbol
 _atom_site_label
 _atom_site_symmetry_multiplicity
 _atom_site_fract_x
 _atom_site_fract_y
 _atom_site_fract_z
 _atom_site_occupancy
  Cs  Cs0  1  0.00309130  0.00019946  -0.00063582  1
  Cs  Cs1  1  -0.00171478  0.00154828  0.33270796  1
  Cs  Cs2  1  -0.00236379  -0.00619483  0.66947525  1
  Cs  Cs3  1  -0.00162878  0.33316878  0.00101677  1
  Cs  Cs4  1  0.00057977  0.33322960  0.33323115  1
  Cs  Cs5  1  0.00107139  0.33360852  0.66563881  1
  Cs  Cs6  1  -0.00238870  0.66932824  -0.00036132  1
  Cs  Cs7  1  0.00592643  0.66544096  0.33205313  1
  Cs  Cs8  1  -0.00086154  0.67409970  0.66786061  1
  Cs  Cs9  1  0.33146855  0.00176081  -0.00443062  1
  Cs  Cs10  1  0.33491744  -0.00226695  0.33547810  1
  Cs  Cs11  1  0.33488087  0.00098789  0.67162549  1
  Cs  Cs12  1  0.33377861  0.33233335  -0.00090682  1
  Cs  Cs13  1  0.33023033  0.33509575  0.33226300  1
  Cs  Cs14  1  0.33061189  0.33359290  0.67066771  1
  Cs  Cs15  1  0.33667781  0.66596840  0.00103300  1
  Cs  Cs16  1  0.33153356  0.66610735  0.33499553  1
  Cs  Cs17  1  0.33456673  0.66473325  0.66146238  1
  Cs  Cs18  1  0.66536762  0.00103392  0.00261621  1
  Cs  Cs19  1  0.66628432  0.00184782  0.34009017  1
  Cs  Cs20  1  0.66729455  0.00004706  0.65271094  1
  Cs  Cs21  1  0.66742014  0.33457518  0.00145124  1
  Cs  Cs22  1  0.66775243  0.33297086  0.33186684  1
  Cs  Cs23  1  0.66795196  0.33303044  0.66531502  1
  Cs  Cs24  1  0.66639451  0.66520337  -0.00020222  1
  Cs  Cs25  1  0.66523092  0.66465465  0.33030881  1
  Cs  Cs26  1  0.66710119  0.66776818  0.67044024  1
  Sn  Sn27  1  0.83247313  0.83337335  0.16672160  1
  Sn  Sn28  1  0.50054885  0.83274614  0.83424129  1
  Sn  Sn29  1  0.49923542  0.50045343  0.83351091  1
  Sn  Sn30  1  0.16615652  0.16737184  0.16764008  1
  Sn  Sn31  1  0.16682436  0.50026708  0.83438383  1
  Sn  Sn32  1  0.50102680  0.49962008  0.49983523  1
  Sn  Sn33  1  0.83299737  0.50020211  0.49933910  1
  Sn  Sn34  1  0.50081832  0.83266829  0.16569124  1
  Sn  Sn35  1  0.83395278  0.16648921  0.16564379  1
  Sn  Sn36  1  0.16663462  0.49926374  0.16533146  1
  Sn  Sn37  1  0.49987470  0.50043147  0.16660360  1
  Sn  Sn38  1  0.83352393  0.50011776  0.16746724  1
  Sn  Sn39  1  0.16664618  0.16649177  0.49941705  1
  Sn  Sn40  1  0.83269526  0.16656042  0.83386013  1
  Pb  Pb41  1  0.16638345  0.49913818  0.50010618  1
  Pb  Pb42  1  0.49976550  0.16641797  0.16672258  1
  Pb  Pb43  1  0.83339538  0.82993583  0.49669554  1
  Pb  Pb44  1  0.49707527  0.16977208  0.49991775  1
  Pb  Pb45  1  0.83039376  0.83630911  0.83577967  1
  Pb  Pb46  1  0.83321331  0.49905432  0.83347446  1
  Pb  Pb47  1  0.50284536  0.16670941  0.83334230  1
  Pb  Pb48  1  0.16456761  0.16858202  0.83390706  1
  Pb  Pb49  1  0.83516815  0.16875883  0.49941004  1
  Pb  Pb50  1  0.16941586  0.83008004  0.83368184  1
  Pb  Pb51  1  0.49996237  0.83074267  0.49959231  1
  Pb  Pb52  1  0.16673148  0.83701764  0.49996596  1
  Pb  Pb53  1  0.16721510  0.83348572  0.16666608  1
  I  I54  1  0.16297470  0.00321065  0.17134470  1
  I  I55  1  0.16531068  0.00503906  0.49127648  1
  I  I56  1  0.16776134  0.00009385  0.83276314  1
  I  I57  1  0.16401093  0.33462324  0.16696158  1
  I  I58  1  0.16658852  0.33153633  0.49712109  1
  I  I59  1  0.17376434  0.33660311  0.83520730  1
  I  I60  1  0.16421844  0.66310045  0.16325567  1
  I  I61  1  0.16706563  0.66626101  0.49970815  1
  I  I62  1  0.16576108  0.66179601  0.83970922  1
  I  I63  1  0.50262590  -0.00322498  0.16123824  1
  I  I64  1  0.49846994  -0.00007453  0.50045170  1
  I  I65  1  0.50088437  -0.00297325  0.84056278  1
  I  I66  1  0.50215366  0.33691916  0.16580581  1
  I  I67  1  0.50452955  0.33809911  0.49865288  1
  I  I68  1  0.49691350  0.33701140  0.83495852  1
  I  I69  1  0.50310967  0.66480656  0.16601164  1
  I  I70  1  0.50208394  0.66230923  0.49931334  1
  I  I71  1  0.49683522  0.66474627  0.83500345  1
  I  I72  1  0.83401977  0.00061378  0.16064024  1
  I  I73  1  0.83499447  0.00004966  0.50018933  1
  I  I74  1  0.83450911  0.00387193  0.83954803  1
  I  I75  1  0.83360375  0.33424743  0.16672178  1
  I  I76  1  0.82950285  0.33662715  0.49378260  1
  I  I77  1  0.83188151  0.33141482  0.84004510  1
  I  I78  1  0.83258494  0.66536468  0.17123208  1
  I  I79  1  0.83003714  0.66181171  0.49660947  1
  I  I80  1  0.83571555  0.66682100  0.83279235  1
  I  I81  1  0.16418060  0.16936674  0.00320541  1
  I  I82  1  0.16089555  0.17453022  0.33108613  1
  I  I83  1  0.16598667  0.17094842  0.66495183  1
  I  I84  1  0.16986042  0.49390994  0.00176743  1
  I  I85  1  0.16850070  0.49818532  0.33011409  1
  I  I86  1  0.17062211  0.49698184  0.66890420  1
  I  I87  1  0.16447670  0.83838870  0.00030702  1
  I  I88  1  0.16941144  0.82718728  0.33277261  1
  I  I89  1  0.16800305  0.83251417  0.66701950  1
  I  I90  1  0.49631076  0.17121270  0.00016156  1
  I  I91  1  0.50438744  0.16618920  0.33309774  1
  I  I92  1  0.50043017  0.16705820  0.66672168  1
  I  I93  1  0.49959956  0.50356687  0.00091372  1
  I  I94  1  0.50023498  0.50309951  0.33182761  1
  I  I95  1  0.49926866  0.50294979  0.66729679  1
  I  I96  1  0.50369638  0.82370277  0.00116426  1
  I  I97  1  0.50340005  0.82960292  0.32974016  1
  I  I98  1  0.49830009  0.82855401  0.66950118  1
  I  I99  1  0.83847577  0.17026715  0.00265608  1
  I  I100  1  0.83540677  0.16590691  0.32972990  1
  I  I101  1  0.83393443  0.17107191  0.66847948  1
  I  I102  1  0.83142306  0.50061171  0.00347679  1
  I  I103  1  0.83013348  0.49762076  0.33108325  1
  I  I104  1  0.83040021  0.49503582  0.66464991  1
  I  I105  1  0.83178553  0.82653268  0.00397778  1
  I  I106  1  0.82603832  0.83935366  0.32842631  1
  I  I107  1  0.83268844  0.83436259  0.66672266  1
  I  I108  1  -0.00058801  0.17089098  0.16674746  1
  I  I109  1  0.00264519  0.17272261  0.49710982  1
  I  I110  1  -0.00305280  0.17068806  0.83624215  1
  I  I111  1  -0.00043702  0.49906308  0.16752458  1
  I  I112  1  -0.00236616  0.49699434  0.49553859  1
  I  I113  1  0.00217655  0.49520343  0.83646824  1
  I  I114  1  -0.00286290  0.83032594  0.16799861  1
  I  I115  1  -0.00027585  0.82852022  0.49900406  1
  I  I116  1  -0.00036892  0.83270858  0.83343431  1
  I  I117  1  0.33028327  0.17129695  0.17038571  1
  I  I118  1  0.32944278  0.16971584  0.49253738  1
  I  I119  1  0.33335557  0.16543649  0.83325825  1
  I  I120  1  0.33372688  0.49983593  0.16667823  1
  I  I121  1  0.33585349  0.49886721  0.49772790  1
  I  I122  1  0.33428004  0.50166628  0.83619406  1
  I  I123  1  0.33673245  0.82919697  0.16367162  1
  I  I124  1  0.33370104  0.82991608  0.49637933  1
  I  I125  1  0.33747373  0.83365428  0.84160319  1
  I  I126  1  0.66981203  0.17036983  0.16232735  1
  I  I127  1  0.66685974  0.16584830  0.50024382  1
  I  I128  1  0.67034752  0.17096361  0.84177775  1
  I  I129  1  0.66669736  0.49986140  0.16703419  1
  I  I130  1  0.66633657  0.49893966  0.49625495  1
  I  I131  1  0.66371137  0.50201761  0.83554525  1
  I  I132  1  0.66645685  0.82874228  0.16235042  1
  I  I133  1  0.66669643  0.83769428  0.50197141  1
  I  I134  1  0.66288543  0.82350976  0.83660975  1
