# generated using pymatgen
data_Cs27Sn14Pb13I81
_symmetry_space_group_name_H-M   'P 1'
_cell_length_a   18.97068593
_cell_length_b   18.97954199
_cell_length_c   18.97998846
_cell_angle_alpha   90.00037705
_cell_angle_beta   90.00121447
_cell_angle_gamma   89.99871506
_symmetry_Int_Tables_number   1
_chemical_formula_structural   Cs27Sn14Pb13I81
_chemical_formula_sum   'Cs27 Sn14 Pb13 I81'
_cell_volume   6833.83841375
_cell_formula_units_Z   1
loop_
 _symmetry_equiv_pos_site_id
 _symmetry_equiv_pos_as_xyz
  1  'x, y, z'
loop_
 _atom_site_type_symbol
 _atom_site_label
 _atom_site_symmetry_multiplicity
 _atom_site_fract_x
 _atom_site_fract_y
 _atom_site_fract_z
 _atom_site_occupancy
  Cs  Cs0  1  0.00087280  0.00063934  0.00161277  1
  Cs  Cs1  1  0.00167843  0.00084195  0.33220393  1
  Cs  Cs2  1  0.00168131  0.00155643  0.66683538  1
  Cs  Cs3  1  -0.00019316  0.33321379  -0.00663972  1
  Cs  Cs4  1  -0.00310303  0.33183625  0.33330870  1
  Cs  Cs5  1  -0.00046006  0.33440444  0.67195968  1
  Cs  Cs6  1  -0.00244906  0.66631508  -0.00214787  1
  Cs  Cs7  1  -0.00106806  0.66587371  0.33372968  1
  Cs  Cs8  1  -0.00152366  0.66372944  0.66816894  1
  Cs  Cs9  1  0.33346188  -0.00052861  0.00021106  1
  Cs  Cs10  1  0.33057757  0.00065454  0.33182574  1
  Cs  Cs11  1  0.33390338  -0.00099659  0.66663955  1
  Cs  Cs12  1  0.33389945  0.33458723  0.00053329  1
  Cs  Cs13  1  0.33410919  0.33943649  0.33381620  1
  Cs  Cs14  1  0.33241091  0.33600285  0.66535970  1
  Cs  Cs15  1  0.33522695  0.66894917  0.00139452  1
  Cs  Cs16  1  0.33299113  0.65907031  0.33290030  1
  Cs  Cs17  1  0.33311366  0.66782241  0.66525004  1
  Cs  Cs18  1  0.66432978  0.00033855  0.00057231  1
  Cs  Cs19  1  0.66788863  0.00083256  0.33477870  1
  Cs  Cs20  1  0.66533924  -0.00261920  0.66442819  1
  Cs  Cs21  1  0.66589049  0.33268099  0.00103073  1
  Cs  Cs22  1  0.66917519  0.33276481  0.33266455  1
  Cs  Cs23  1  0.66756249  0.33230936  0.66552702  1
  Cs  Cs24  1  0.66550394  0.66828202  -0.00173356  1
  Cs  Cs25  1  0.66996663  0.66574846  0.33675838  1
  Cs  Cs26  1  0.66799709  0.67111217  0.66732095  1
  Sn  Sn27  1  0.83442536  0.16722418  0.49933801  1
  Sn  Sn28  1  0.16672212  0.83394872  0.49944538  1
  Sn  Sn29  1  0.83345723  0.49895909  0.49937631  1
  Sn  Sn30  1  0.16599732  0.16622377  0.49916789  1
  Sn  Sn31  1  0.16760269  0.83375666  0.16684748  1
  Sn  Sn32  1  0.16718957  0.83358780  0.83375288  1
  Sn  Sn33  1  0.49891368  0.83364967  0.83415158  1
  Sn  Sn34  1  0.49928948  0.83408136  0.16669150  1
  Sn  Sn35  1  0.83360718  0.16740636  0.16708635  1
  Sn  Sn36  1  0.49977589  0.16658456  0.83385848  1
  Sn  Sn37  1  0.83343219  0.49920400  0.16689823  1
  Sn  Sn38  1  0.49987923  0.50006780  0.83329937  1
  Sn  Sn39  1  0.49957373  0.16606155  0.16624631  1
  Sn  Sn40  1  0.16686518  0.16650881  0.16736785  1
  Pb  Pb41  1  0.49726425  0.83346333  0.49890167  1
  Pb  Pb42  1  0.83319576  0.83395006  0.16665965  1
  Pb  Pb43  1  0.16905507  0.16499447  0.83339933  1
  Pb  Pb44  1  0.50298771  0.50001633  0.50253194  1
  Pb  Pb45  1  0.83618987  0.83421258  0.49985296  1
  Pb  Pb46  1  0.16407883  0.49968788  0.16655813  1
  Pb  Pb47  1  0.49952043  0.16660122  0.49908001  1
  Pb  Pb48  1  0.83111210  0.49981104  0.83346254  1
  Pb  Pb49  1  0.83086180  0.16636952  0.83328931  1
  Pb  Pb50  1  0.16938466  0.50298065  0.83358366  1
  Pb  Pb51  1  0.16431477  0.49916436  0.49987134  1
  Pb  Pb52  1  0.50220550  0.50020457  0.16540156  1
  Pb  Pb53  1  0.83308666  0.83375068  0.83347641  1
  I  I54  1  0.16517409  0.00030094  0.16705417  1
  I  I55  1  0.16065470  0.00054405  0.49929740  1
  I  I56  1  0.17289852  -0.00315187  0.83309939  1
  I  I57  1  0.17049931  0.32946422  0.17267441  1
  I  I58  1  0.16595100  0.32957222  0.49443780  1
  I  I59  1  0.16848212  0.33310304  0.83260170  1
  I  I60  1  0.17078518  0.67019545  0.16673250  1
  I  I61  1  0.16670377  0.66967380  0.50037813  1
  I  I62  1  0.17138103  0.67151996  0.83349044  1
  I  I63  1  0.50141868  0.00068238  0.15854300  1
  I  I64  1  0.50652316  0.00013434  0.50586705  1
  I  I65  1  0.49665791  -0.00059829  0.83790937  1
  I  I66  1  0.49790187  0.33010495  0.16225655  1
  I  I67  1  0.49456213  0.33309205  0.50164140  1
  I  I68  1  0.50268092  0.33239967  0.83765313  1
  I  I69  1  0.49625410  0.66974239  0.16189496  1
  I  I70  1  0.50036256  0.66684878  0.50001010  1
  I  I71  1  0.49681584  0.66820049  0.83750516  1
  I  I72  1  0.83291465  0.00359374  0.17107480  1
  I  I73  1  0.83424831  0.00359494  0.49500048  1
  I  I74  1  0.83002902  0.00025785  0.83278713  1
  I  I75  1  0.83192260  0.33158068  0.17123453  1
  I  I76  1  0.83815503  0.33195919  0.49549118  1
  I  I77  1  0.83108234  0.33306773  0.83334496  1
  I  I78  1  0.83286732  0.66425465  0.17055009  1
  I  I79  1  0.83316418  0.66413262  0.49609450  1
  I  I80  1  0.83128911  0.66658469  0.83299569  1
  I  I81  1  0.16366900  0.16288292  0.00332816  1
  I  I82  1  0.16702174  0.15790866  0.33241323  1
  I  I83  1  0.16292735  0.16251292  0.66397002  1
  I  I84  1  0.16192843  0.49877329  0.00011282  1
  I  I85  1  0.17044281  0.50626222  0.33319944  1
  I  I86  1  0.16415346  0.49983333  0.66669394  1
  I  I87  1  0.17118529  0.83717082  0.00085046  1
  I  I88  1  0.16952239  0.83842936  0.33237933  1
  I  I89  1  0.17038835  0.83713700  0.66668017  1
  I  I90  1  0.50070477  0.16565171  0.00121798  1
  I  I91  1  0.50101403  0.16097550  0.32951456  1
  I  I92  1  0.50062437  0.16547778  0.66936409  1
  I  I93  1  0.50334028  0.50060060  -0.00261970  1
  I  I94  1  0.49912348  0.50035413  0.33316505  1
  I  I95  1  0.50127766  0.50048896  0.67081659  1
  I  I96  1  0.49280302  0.83394526  0.00001249  1
  I  I97  1  0.49744368  0.83976191  0.32951632  1
  I  I98  1  0.49690323  0.83376904  0.66972344  1
  I  I99  1  0.83610604  0.17077238  0.00360321  1
  I  I100  1  0.83175654  0.17067050  0.33240304  1
  I  I101  1  0.83735172  0.17108694  0.66335385  1
  I  I102  1  0.83266570  0.49565015  0.00290158  1
  I  I103  1  0.83249828  0.49566905  0.33308452  1
  I  I104  1  0.83263944  0.49554909  0.66374716  1
  I  I105  1  0.83825191  0.83195650  0.00037324  1
  I  I106  1  0.83101320  0.83144206  0.33318894  1
  I  I107  1  0.83231396  0.83234388  0.66642920  1
  I  I108  1  0.00035100  0.16532630  0.17197785  1
  I  I109  1  0.00014997  0.16554001  0.49186992  1
  I  I110  1  0.00033403  0.16487693  0.83560918  1
  I  I111  1  -0.00392778  0.49721096  0.17079234  1
  I  I112  1  -0.00354477  0.49965914  0.49602044  1
  I  I113  1  -0.00013760  0.50226143  0.83280426  1
  I  I114  1  0.00340631  0.83626478  0.16618156  1
  I  I115  1  0.00435774  0.83451991  0.49907132  1
  I  I116  1  0.00369461  0.83369520  0.83447676  1
  I  I117  1  0.33323304  0.16074028  0.16616406  1
  I  I118  1  0.33005193  0.16061984  0.49798615  1
  I  I119  1  0.33720739  0.16791073  0.83694828  1
  I  I120  1  0.33348666  0.49801777  0.16480026  1
  I  I121  1  0.33318596  0.49981380  0.50188206  1
  I  I122  1  0.33740124  0.49684875  0.83458441  1
  I  I123  1  0.33306036  0.84133239  0.16487654  1
  I  I124  1  0.32918903  0.84099016  0.50130493  1
  I  I125  1  0.33405931  0.83345279  0.83400929  1
  I  I126  1  0.66647267  0.16657910  0.16601298  1
  I  I127  1  0.66945878  0.17182593  0.49759809  1
  I  I128  1  0.66249678  0.16355372  0.83740765  1
  I  I129  1  0.66997007  0.49564475  0.16986250  1
  I  I130  1  0.67087448  0.49303756  0.49541898  1
  I  I131  1  0.66318819  0.50341490  0.83361662  1
  I  I132  1  0.66348703  0.83616754  0.15947525  1
  I  I133  1  0.66676740  0.83276284  0.50167403  1
  I  I134  1  0.66250530  0.83267294  0.83862586  1
