# generated using pymatgen
data_Cs27Sn14Pb13I81
_symmetry_space_group_name_H-M   'P 1'
_cell_length_a   19.05307149
_cell_length_b   19.04410751
_cell_length_c   19.04227044
_cell_angle_alpha   89.99703922
_cell_angle_beta   90.00046361
_cell_angle_gamma   90.00094780
_symmetry_Int_Tables_number   1
_chemical_formula_structural   Cs27Sn14Pb13I81
_chemical_formula_sum   'Cs27 Sn14 Pb13 I81'
_cell_volume   6909.46386133
_cell_formula_units_Z   1
loop_
 _symmetry_equiv_pos_site_id
 _symmetry_equiv_pos_as_xyz
  1  'x, y, z'
loop_
 _atom_site_type_symbol
 _atom_site_label
 _atom_site_symmetry_multiplicity
 _atom_site_fract_x
 _atom_site_fract_y
 _atom_site_fract_z
 _atom_site_occupancy
  Cs  Cs0  1  -0.00400173  0.00366441  -0.00147037  1
  Cs  Cs1  1  -0.00623240  -0.00404915  0.33195660  1
  Cs  Cs2  1  -0.00205355  0.00500336  0.67068307  1
  Cs  Cs3  1  0.00333172  0.33299649  0.00120052  1
  Cs  Cs4  1  -0.00607279  0.33617916  0.33091910  1
  Cs  Cs5  1  0.00689789  0.33455253  0.66744773  1
  Cs  Cs6  1  0.00421346  0.66376173  -0.00442265  1
  Cs  Cs7  1  -0.00407183  0.66993525  0.34172958  1
  Cs  Cs8  1  0.00494936  0.66311771  0.66647097  1
  Cs  Cs9  1  0.33690123  -0.00768313  0.00355188  1
  Cs  Cs10  1  0.32865765  -0.00487611  0.33248155  1
  Cs  Cs11  1  0.33325172  0.02121851  0.66321521  1
  Cs  Cs12  1  0.33022828  0.33780036  0.00396182  1
  Cs  Cs13  1  0.33672736  0.33101508  0.32874535  1
  Cs  Cs14  1  0.33384230  0.32365491  0.66396188  1
  Cs  Cs15  1  0.33180386  0.66598594  -0.00138034  1
  Cs  Cs16  1  0.33192669  0.67415757  0.33441292  1
  Cs  Cs17  1  0.33054826  0.66392956  0.66767533  1
  Cs  Cs18  1  0.66873695  -0.00648852  -0.00924865  1
  Cs  Cs19  1  0.67154012  -0.00019900  0.33424110  1
  Cs  Cs20  1  0.66789716  -0.00180447  0.67160832  1
  Cs  Cs21  1  0.66634591  0.33659917  0.00564411  1
  Cs  Cs22  1  0.66843963  0.33166110  0.33084560  1
  Cs  Cs23  1  0.66021055  0.33184491  0.66688234  1
  Cs  Cs24  1  0.66372334  0.66683472  -0.00423018  1
  Cs  Cs25  1  0.66919545  0.66781128  0.33825726  1
  Cs  Cs26  1  0.66487938  0.66875090  0.66511801  1
  Sn  Sn27  1  0.83305722  0.16641710  0.49960711  1
  Sn  Sn28  1  0.83315228  0.83306889  0.16637198  1
  Sn  Sn29  1  0.16661171  0.16710565  0.16679165  1
  Sn  Sn30  1  0.49904725  0.50039208  0.16721225  1
  Sn  Sn31  1  0.16741743  0.50058297  0.83414398  1
  Sn  Sn32  1  0.50043150  0.16632907  0.16649736  1
  Sn  Sn33  1  0.16723704  0.83343988  0.83277089  1
  Sn  Sn34  1  0.49949318  0.49989943  0.83344754  1
  Sn  Sn35  1  0.50004804  0.83323597  0.50048744  1
  Sn  Sn36  1  0.83315798  0.49968664  0.83328919  1
  Sn  Sn37  1  0.83246332  0.83434014  0.50008014  1
  Sn  Sn38  1  0.83278236  0.16536134  0.16698769  1
  Sn  Sn39  1  0.49976395  0.50079367  0.49922676  1
  Sn  Sn40  1  0.16748689  0.50011070  0.16715757  1
  Pb  Pb41  1  0.50225583  0.16637161  0.49696191  1
  Pb  Pb42  1  0.16684626  0.16704905  0.83651590  1
  Pb  Pb43  1  0.16400265  0.83260298  0.16508990  1
  Pb  Pb44  1  0.83303699  0.16963784  0.83357656  1
  Pb  Pb45  1  0.49713797  0.83125269  0.83007032  1
  Pb  Pb46  1  0.50009383  0.16936847  0.83705740  1
  Pb  Pb47  1  0.83339409  0.50052629  0.16524068  1
  Pb  Pb48  1  0.16648006  0.83363683  0.50309424  1
  Pb  Pb49  1  0.16335065  0.16674409  0.49583349  1
  Pb  Pb50  1  0.50234064  0.83269658  0.16845886  1
  Pb  Pb51  1  0.83109709  0.49968471  0.50254332  1
  Pb  Pb52  1  0.83526885  0.83075676  0.83266913  1
  Pb  Pb53  1  0.16972745  0.49979364  0.49904883  1
  I  I54  1  0.17077468  0.00259421  0.16500823  1
  I  I55  1  0.17684450  0.00001046  0.50263427  1
  I  I56  1  0.16253565  -0.00231603  0.83319764  1
  I  I57  1  0.16460077  0.33411619  0.15874324  1
  I  I58  1  0.16568823  0.33341633  0.50992397  1
  I  I59  1  0.16652265  0.33690098  0.83504005  1
  I  I60  1  0.17291010  0.66338209  0.16285511  1
  I  I61  1  0.15894148  0.66657753  0.49279290  1
  I  I62  1  0.16612370  0.66413016  0.84148590  1
  I  I63  1  0.49459854  0.00263797  0.17092890  1
  I  I64  1  0.50169365  -0.00267148  0.49774116  1
  I  I65  1  0.49832927  -0.00008489  0.83305099  1
  I  I66  1  0.50270896  0.33454381  0.16842191  1
  I  I67  1  0.50092827  0.33608432  0.50476632  1
  I  I68  1  0.49578934  0.33803909  0.82297582  1
  I  I69  1  0.49515871  0.66306689  0.16274399  1
  I  I70  1  0.50901277  0.66587486  0.49718792  1
  I  I71  1  0.50342894  0.66284686  0.84247325  1
  I  I72  1  0.83480805  0.00098548  0.17176412  1
  I  I73  1  0.82590770  -0.00051549  0.49405206  1
  I  I74  1  0.83722342  0.00005272  0.83385012  1
  I  I75  1  0.83336611  0.33090963  0.17079745  1
  I  I76  1  0.83265784  0.33089095  0.49297903  1
  I  I77  1  0.83687861  0.33707821  0.83431004  1
  I  I78  1  0.83334966  0.66912828  0.17165285  1
  I  I79  1  0.83149686  0.66909174  0.49414610  1
  I  I80  1  0.83005519  0.66341379  0.83538589  1
  I  I81  1  0.16111564  0.16979977  0.00384262  1
  I  I82  1  0.17175906  0.17533745  0.32837796  1
  I  I83  1  0.16475479  0.16673004  0.66667757  1
  I  I84  1  0.17206888  0.49950644  0.00013543  1
  I  I85  1  0.17127079  0.49299327  0.32968113  1
  I  I86  1  0.16449115  0.50695683  0.66946706  1
  I  I87  1  0.16432037  0.82981957  -0.00235230  1
  I  I88  1  0.16862985  0.83343823  0.33364862  1
  I  I89  1  0.16336134  0.81891165  0.67033278  1
  I  I90  1  0.50411358  0.17316821  0.00496689  1
  I  I91  1  0.49750907  0.17687936  0.32975547  1
  I  I92  1  0.50168965  0.16716936  0.66654998  1
  I  I93  1  0.49988084  0.49217300  0.00017760  1
  I  I94  1  0.49461697  0.49838840  0.33245990  1
  I  I95  1  0.50302806  0.50865329  0.66684208  1
  I  I96  1  0.50183082  0.83509296  -0.00020871  1
  I  I97  1  0.50097685  0.82435648  0.33590730  1
  I  I98  1  0.51170856  0.82510328  0.66280288  1
  I  I99  1  0.83429161  0.16163912  0.00368140  1
  I  I100  1  0.83394274  0.16283961  0.33177560  1
  I  I101  1  0.83153916  0.16042645  0.66396860  1
  I  I102  1  0.82768574  0.50033838  -0.00239010  1
  I  I103  1  0.83469857  0.50035146  0.33349754  1
  I  I104  1  0.83561137  0.50090927  0.67012208  1
  I  I105  1  0.83526207  0.83997761  0.00224941  1
  I  I106  1  0.83086536  0.83703405  0.33341999  1
  I  I107  1  0.82837005  0.83857933  0.66363576  1
  I  I108  1  -0.00043207  0.16797572  0.17068219  1
  I  I109  1  -0.00436374  0.15783935  0.49477608  1
  I  I110  1  -0.00008185  0.17092753  0.83486919  1
  I  I111  1  0.00231880  0.49580757  0.15825750  1
  I  I112  1  0.00013999  0.50037575  0.50081237  1
  I  I113  1  0.00113918  0.50424808  0.84031916  1
  I  I114  1  -0.00336402  0.83758860  0.17467764  1
  I  I115  1  -0.00314726  0.83861483  0.49471002  1
  I  I116  1  0.00221677  0.82248527  0.83224152  1
  I  I117  1  0.33356141  0.17594667  0.16402410  1
  I  I118  1  0.33340145  0.16639871  0.50213363  1
  I  I119  1  0.33330578  0.16648822  0.82993721  1
  I  I120  1  0.33381067  0.48910057  0.16037282  1
  I  I121  1  0.33757492  0.50795609  0.50537092  1
  I  I122  1  0.33331305  0.50672632  0.83585659  1
  I  I123  1  0.33330529  0.83805615  0.16803184  1
  I  I124  1  0.33624107  0.82404934  0.49978046  1
  I  I125  1  0.33016419  0.82357969  0.83645919  1
  I  I126  1  0.66698705  0.17066379  0.17278122  1
  I  I127  1  0.66948388  0.16749375  0.49066966  1
  I  I128  1  0.66671489  0.16914165  0.83675377  1
  I  I129  1  0.66397891  0.49606663  0.16502574  1
  I  I130  1  0.66360542  0.50054758  0.49798435  1
  I  I131  1  0.66555642  0.49776888  0.83496657  1
  I  I132  1  0.66990546  0.83782067  0.16715478  1
  I  I133  1  0.66738380  0.83146587  0.49455346  1
  I  I134  1  0.66655551  0.83184989  0.83637417  1
