# generated using pymatgen
data_Cs27Sn14Pb13I81
_symmetry_space_group_name_H-M   'P 1'
_cell_length_a   18.95710611
_cell_length_b   18.96044551
_cell_length_c   18.96488964
_cell_angle_alpha   89.99903317
_cell_angle_beta   90.00030201
_cell_angle_gamma   89.99883461
_symmetry_Int_Tables_number   1
_chemical_formula_structural   Cs27Sn14Pb13I81
_chemical_formula_sum   'Cs27 Sn14 Pb13 I81'
_cell_volume   6816.64847089
_cell_formula_units_Z   1
loop_
 _symmetry_equiv_pos_site_id
 _symmetry_equiv_pos_as_xyz
  1  'x, y, z'
loop_
 _atom_site_type_symbol
 _atom_site_label
 _atom_site_symmetry_multiplicity
 _atom_site_fract_x
 _atom_site_fract_y
 _atom_site_fract_z
 _atom_site_occupancy
  Cs  Cs0  1  0.00162790  -0.00270562  0.00090843  1
  Cs  Cs1  1  0.00070414  0.00084450  0.33361690  1
  Cs  Cs2  1  -0.00044462  0.00176403  0.66673347  1
  Cs  Cs3  1  0.00123803  0.33322267  -0.00100698  1
  Cs  Cs4  1  -0.00124854  0.33298051  0.33304904  1
  Cs  Cs5  1  -0.00022550  0.33148882  0.66741299  1
  Cs  Cs6  1  0.00791407  0.67239527  0.01052695  1
  Cs  Cs7  1  -0.00609337  0.66706446  0.32814821  1
  Cs  Cs8  1  -0.00322625  0.66912809  0.66396366  1
  Cs  Cs9  1  0.33142759  -0.00332935  -0.00207126  1
  Cs  Cs10  1  0.33465961  0.00092752  0.33488972  1
  Cs  Cs11  1  0.33208720  -0.00220466  0.66490199  1
  Cs  Cs12  1  0.33247233  0.33521401  -0.00215417  1
  Cs  Cs13  1  0.33569674  0.33185552  0.33500879  1
  Cs  Cs14  1  0.33276276  0.33461785  0.66602050  1
  Cs  Cs15  1  0.33032891  0.66744210  0.00093169  1
  Cs  Cs16  1  0.33331670  0.66735964  0.33468137  1
  Cs  Cs17  1  0.33496842  0.66560134  0.66533844  1
  Cs  Cs18  1  0.66677527  0.00029344  -0.00288024  1
  Cs  Cs19  1  0.66409229  0.00290872  0.33246966  1
  Cs  Cs20  1  0.66797854  -0.00049459  0.66924875  1
  Cs  Cs21  1  0.66638184  0.33247007  -0.00259748  1
  Cs  Cs22  1  0.66537001  0.33219880  0.33205329  1
  Cs  Cs23  1  0.66697025  0.33371690  0.66870957  1
  Cs  Cs24  1  0.66516751  0.66792856  -0.00103589  1
  Cs  Cs25  1  0.66982828  0.66557123  0.33325622  1
  Cs  Cs26  1  0.66646184  0.66696341  0.66678885  1
  Sn  Sn27  1  0.16706180  0.83296840  0.49977647  1
  Sn  Sn28  1  0.83251953  0.16751482  0.83356293  1
  Sn  Sn29  1  0.16580690  0.16689031  0.49923108  1
  Sn  Sn30  1  0.16668651  0.50023395  0.49999607  1
  Sn  Sn31  1  0.50015374  0.83247786  0.16760566  1
  Sn  Sn32  1  0.16625783  0.16714625  0.16735509  1
  Sn  Sn33  1  0.83335588  0.49990070  0.83384379  1
  Sn  Sn34  1  0.50062482  0.49906856  0.83333659  1
  Sn  Sn35  1  0.49965347  0.50068915  0.49983011  1
  Sn  Sn36  1  0.50003200  0.50073727  0.16673923  1
  Sn  Sn37  1  0.49966721  0.83241133  0.49910084  1
  Sn  Sn38  1  0.83404679  0.16694060  0.16636970  1
  Sn  Sn39  1  0.83387025  0.16696538  0.49996875  1
  Sn  Sn40  1  0.50014719  0.16724546  0.83303861  1
  Pb  Pb41  1  0.83055920  0.83595049  0.16674225  1
  Pb  Pb42  1  0.83281222  0.83588521  0.49986876  1
  Pb  Pb43  1  0.16634339  0.16664935  0.83320000  1
  Pb  Pb44  1  0.49958970  0.16663588  0.16424325  1
  Pb  Pb45  1  0.49980684  0.16667697  0.50213089  1
  Pb  Pb46  1  0.49996420  0.83256556  0.83294999  1
  Pb  Pb47  1  0.83359499  0.83267777  0.83359864  1
  Pb  Pb48  1  0.16889954  0.49781379  0.16934263  1
  Pb  Pb49  1  0.83117767  0.49792015  0.16382215  1
  Pb  Pb50  1  0.16906436  0.83570386  0.16937641  1
  Pb  Pb51  1  0.83300746  0.49790921  0.50154263  1
  Pb  Pb52  1  0.16624298  0.50031675  0.83121701  1
  Pb  Pb53  1  0.16652676  0.83292229  0.83045655  1
  I  I54  1  0.16542394  0.00371528  0.17180001  1
  I  I55  1  0.16770979  0.00061714  0.49674987  1
  I  I56  1  0.16816721  0.00039013  0.83102484  1
  I  I57  1  0.16566896  0.32974431  0.17252594  1
  I  I58  1  0.16814166  0.33285249  0.49729792  1
  I  I59  1  0.16859870  0.33326208  0.83003201  1
  I  I60  1  0.16600978  0.66668238  0.16667366  1
  I  I61  1  0.17419946  0.66644222  0.50341407  1
  I  I62  1  0.16767020  0.66631119  0.83242466  1
  I  I63  1  0.49995989  -0.00194362  0.17101472  1
  I  I64  1  0.49742861  -0.00216206  0.49694442  1
  I  I65  1  0.50436270  0.00255311  0.83334809  1
  I  I66  1  0.49999390  0.33576997  0.16951432  1
  I  I67  1  0.49715356  0.33595036  0.49822859  1
  I  I68  1  0.50393501  0.33414902  0.83291690  1
  I  I69  1  0.49970247  0.66592239  0.16548777  1
  I  I70  1  0.49258576  0.66581432  0.50181108  1
  I  I71  1  0.50444237  0.66299619  0.83225775  1
  I  I72  1  0.83460272  0.00462542  0.16480595  1
  I  I73  1  0.83615243  0.00448561  0.50274931  1
  I  I74  1  0.82839880  0.00391058  0.83254364  1
  I  I75  1  0.83386075  0.32942125  0.16908684  1
  I  I76  1  0.83639049  0.32948003  0.49912679  1
  I  I77  1  0.82757696  0.33190276  0.83246228  1
  I  I78  1  0.83411662  0.66638366  0.16518533  1
  I  I79  1  0.83566181  0.66638490  0.50300533  1
  I  I80  1  0.82576236  0.66293036  0.82955796  1
  I  I81  1  0.16507331  0.16684403  0.00262593  1
  I  I82  1  0.15998048  0.16663423  0.33482549  1
  I  I83  1  0.16453678  0.16636817  0.66318077  1
  I  I84  1  0.16822072  0.49686764  0.00038239  1
  I  I85  1  0.17229472  0.50038421  0.33771320  1
  I  I86  1  0.17306858  0.49617948  0.66254753  1
  I  I87  1  0.16796842  0.83598476  0.00079113  1
  I  I88  1  0.17000376  0.83282489  0.33747959  1
  I  I89  1  0.17409622  0.83739711  0.66158373  1
  I  I90  1  0.50376954  0.17005479  -0.00334856  1
  I  I91  1  0.50276329  0.16856060  0.33339755  1
  I  I92  1  0.50359470  0.17021053  0.66977225  1
  I  I93  1  0.50510498  0.49867201  -0.00051008  1
  I  I94  1  0.49521790  0.50334739  0.33415770  1
  I  I95  1  0.49941876  0.49943112  0.66621639  1
  I  I96  1  0.50142293  0.83210728  0.00250955  1
  I  I97  1  0.49652233  0.82783226  0.33443750  1
  I  I98  1  0.49569536  0.83144175  0.66339748  1
  I  I99  1  0.83197336  0.17033970  -0.00054871  1
  I  I100  1  0.83752823  0.16559737  0.33355537  1
  I  I101  1  0.83340869  0.16955346  0.66690787  1
  I  I102  1  0.82621409  0.49225856  -0.00414557  1
  I  I103  1  0.83197275  0.49743299  0.33318592  1
  I  I104  1  0.82725414  0.49246767  0.66949394  1
  I  I105  1  0.83033903  0.83670970  0.00020828  1
  I  I106  1  0.83369118  0.83491934  0.33347497  1
  I  I107  1  0.83170693  0.83705024  0.66645206  1
  I  I108  1  -0.00033766  0.16703512  0.16624265  1
  I  I109  1  0.00064423  0.16656782  0.50173358  1
  I  I110  1  -0.00335085  0.17122476  0.83227452  1
  I  I111  1  0.00002180  0.50006427  0.16648904  1
  I  I112  1  0.00256663  0.50080595  0.50306495  1
  I  I113  1  -0.00321877  0.49185163  0.82935614  1
  I  I114  1  0.00030288  0.83292912  0.16732039  1
  I  I115  1  0.00308943  0.83186905  0.50191565  1
  I  I116  1  -0.00003756  0.83517068  0.83077609  1
  I  I117  1  0.33117662  0.16658766  0.17202545  1
  I  I118  1  0.33073840  0.16660030  0.49675966  1
  I  I119  1  0.33600173  0.17090970  0.83319909  1
  I  I120  1  0.33737556  0.50041829  0.16189981  1
  I  I121  1  0.33443461  0.49775845  0.50196723  1
  I  I122  1  0.33690414  0.49514690  0.83392891  1
  I  I123  1  0.33701870  0.83246621  0.16819687  1
  I  I124  1  0.33393218  0.83582625  0.49690993  1
  I  I125  1  0.33381335  0.83613676  0.83517788  1
  I  I126  1  0.66894266  0.16652398  0.16891252  1
  I  I127  1  0.66890933  0.16678771  0.49838030  1
  I  I128  1  0.66722405  0.17013544  0.83295340  1
  I  I129  1  0.66263228  0.50037827  0.17222139  1
  I  I130  1  0.66326320  0.50267705  0.49934816  1
  I  I131  1  0.66504263  0.49444332  0.83086047  1
  I  I132  1  0.66242187  0.83189654  0.17316270  1
  I  I133  1  0.66310874  0.82990771  0.49771296  1
  I  I134  1  0.66639655  0.83577778  0.83031801  1
