# generated using pymatgen
data_Cs27Sn14Pb13I81
_symmetry_space_group_name_H-M   'P 1'
_cell_length_a   18.97105249
_cell_length_b   18.98111908
_cell_length_c   18.97597201
_cell_angle_alpha   90.00042321
_cell_angle_beta   90.00144046
_cell_angle_gamma   89.99998454
_symmetry_Int_Tables_number   1
_chemical_formula_structural   Cs27Sn14Pb13I81
_chemical_formula_sum   'Cs27 Sn14 Pb13 I81'
_cell_volume   6833.09203946
_cell_formula_units_Z   1
loop_
 _symmetry_equiv_pos_site_id
 _symmetry_equiv_pos_as_xyz
  1  'x, y, z'
loop_
 _atom_site_type_symbol
 _atom_site_label
 _atom_site_symmetry_multiplicity
 _atom_site_fract_x
 _atom_site_fract_y
 _atom_site_fract_z
 _atom_site_occupancy
  Cs  Cs0  1  0.00387428  -0.00118038  0.00198754  1
  Cs  Cs1  1  -0.00049371  0.00100147  0.33271483  1
  Cs  Cs2  1  -0.00378426  -0.00122330  0.66569991  1
  Cs  Cs3  1  -0.00341118  0.33952522  0.00115107  1
  Cs  Cs4  1  -0.00112144  0.33364572  0.33218306  1
  Cs  Cs5  1  0.00464874  0.33255569  0.66970615  1
  Cs  Cs6  1  -0.00512866  0.66247456  -0.00090309  1
  Cs  Cs7  1  -0.00136064  0.66533449  0.33204107  1
  Cs  Cs8  1  0.00367316  0.66886243  0.67171097  1
  Cs  Cs9  1  0.33207796  0.00114001  0.00464304  1
  Cs  Cs10  1  0.33180717  -0.00066923  0.32891379  1
  Cs  Cs11  1  0.33258590  -0.00134642  0.66700506  1
  Cs  Cs12  1  0.33481451  0.32880107  0.00004609  1
  Cs  Cs13  1  0.33250812  0.33299774  0.33526496  1
  Cs  Cs14  1  0.33187103  0.33393175  0.66563511  1
  Cs  Cs15  1  0.33421057  0.67003050  -0.00131018  1
  Cs  Cs16  1  0.33442948  0.66791739  0.33451113  1
  Cs  Cs17  1  0.33284948  0.66650556  0.66626631  1
  Cs  Cs18  1  0.66479131  0.00467137  -0.00131631  1
  Cs  Cs19  1  0.66908792  -0.00076544  0.33401392  1
  Cs  Cs20  1  0.67325040  0.00091744  0.66667565  1
  Cs  Cs21  1  0.66872633  0.33214331  -0.00242441  1
  Cs  Cs22  1  0.66793936  0.33731729  0.33437304  1
  Cs  Cs23  1  0.66478675  0.32743299  0.66495805  1
  Cs  Cs24  1  0.66917487  0.66503119  0.00102133  1
  Cs  Cs25  1  0.66543483  0.66420338  0.33301891  1
  Cs  Cs26  1  0.66270923  0.67052960  0.66451963  1
  Sn  Sn27  1  0.16687529  0.16575867  0.83266476  1
  Sn  Sn28  1  0.83306812  0.50028685  0.50090980  1
  Sn  Sn29  1  0.49920175  0.16602347  0.49974902  1
  Sn  Sn30  1  0.49984823  0.50048128  0.83300052  1
  Sn  Sn31  1  0.50078538  0.49995909  0.50031353  1
  Sn  Sn32  1  0.16767797  0.83432668  0.83258053  1
  Sn  Sn33  1  0.83314169  0.16549776  0.16675910  1
  Sn  Sn34  1  0.49875372  0.49993883  0.16644538  1
  Sn  Sn35  1  0.49921021  0.83394699  0.50056706  1
  Sn  Sn36  1  0.83301069  0.83456939  0.16670339  1
  Sn  Sn37  1  0.49925160  0.83297229  0.83257278  1
  Sn  Sn38  1  0.16816498  0.50024145  0.16668783  1
  Sn  Sn39  1  0.16746646  0.16561352  0.50062131  1
  Sn  Sn40  1  0.16736911  0.83417403  0.50036272  1
  Pb  Pb41  1  0.49811338  0.16591021  0.83105628  1
  Pb  Pb42  1  0.83400637  0.16857934  0.49884815  1
  Pb  Pb43  1  0.16910711  0.50035550  0.83566718  1
  Pb  Pb44  1  0.82994181  0.50014004  0.82957778  1
  Pb  Pb45  1  0.16714412  0.50030687  0.49888874  1
  Pb  Pb46  1  0.83262851  0.49995264  0.16798904  1
  Pb  Pb47  1  0.16508451  0.83124324  0.16659626  1
  Pb  Pb48  1  0.83672350  0.16655227  0.83570219  1
  Pb  Pb49  1  0.83303678  0.83341264  0.83560696  1
  Pb  Pb50  1  0.50196677  0.16920883  0.16941244  1
  Pb  Pb51  1  0.83357798  0.83141062  0.49865985  1
  Pb  Pb52  1  0.50179865  0.83159692  0.16657717  1
  Pb  Pb53  1  0.16522684  0.16874373  0.16696100  1
  I  I54  1  0.16532989  -0.00008535  0.16665903  1
  I  I55  1  0.17375836  -0.00028951  0.50219005  1
  I  I56  1  0.17227556  -0.00100934  0.83065347  1
  I  I57  1  0.16763352  0.33645638  0.16796197  1
  I  I58  1  0.16926726  0.33097429  0.50208977  1
  I  I59  1  0.16758931  0.33114779  0.82946011  1
  I  I60  1  0.16769380  0.66363517  0.16842938  1
  I  I61  1  0.16928703  0.66947495  0.50252647  1
  I  I62  1  0.16856708  0.66966691  0.82907576  1
  I  I63  1  0.50061677  0.00008639  0.16664925  1
  I  I64  1  0.49578904  -0.00083438  0.50433084  1
  I  I65  1  0.49862177  -0.00328644  0.82927187  1
  I  I66  1  0.49887108  0.33746530  0.16651586  1
  I  I67  1  0.50043348  0.33407697  0.49902028  1
  I  I68  1  0.49890098  0.33574960  0.83286814  1
  I  I69  1  0.49960489  0.66345801  0.17206286  1
  I  I70  1  0.50030758  0.66658280  0.49996156  1
  I  I71  1  0.49428610  0.66698593  0.82861246  1
  I  I72  1  0.83481592  -0.00010227  0.16926841  1
  I  I73  1  0.83041715  -0.00006801  0.49856733  1
  I  I74  1  0.82757398  -0.00005587  0.83127985  1
  I  I75  1  0.83428139  0.33180323  0.16926060  1
  I  I76  1  0.82811163  0.33633288  0.49491589  1
  I  I77  1  0.83399959  0.33347878  0.83770804  1
  I  I78  1  0.83377713  0.66813949  0.16828087  1
  I  I79  1  0.82828437  0.66375764  0.49467446  1
  I  I80  1  0.83937309  0.66665883  0.83806488  1
  I  I81  1  0.16529678  0.16314945  -0.00245137  1
  I  I82  1  0.16934781  0.16401869  0.33647153  1
  I  I83  1  0.17025740  0.16497543  0.66547112  1
  I  I84  1  0.16999104  0.49970837  0.00331861  1
  I  I85  1  0.17101825  0.49984331  0.33111821  1
  I  I86  1  0.16535510  0.49926931  0.66687543  1
  I  I87  1  0.17075595  0.83680071  -0.00298175  1
  I  I88  1  0.17041719  0.83588285  0.33636908  1
  I  I89  1  0.16993683  0.83550774  0.66609819  1
  I  I90  1  0.49977299  0.16764058  -0.00004368  1
  I  I91  1  0.49346558  0.16632547  0.33772549  1
  I  I92  1  0.49910139  0.17300830  0.66287211  1
  I  I93  1  0.49457822  0.50555214  -0.00011997  1
  I  I94  1  0.50096011  0.50003770  0.33446265  1
  I  I95  1  0.50509486  0.50121960  0.66569448  1
  I  I96  1  0.49676853  0.82765512  -0.00300238  1
  I  I97  1  0.49698002  0.83158997  0.33669765  1
  I  I98  1  0.49627147  0.82681155  0.66565910  1
  I  I99  1  0.83346764  0.16502875  0.00368096  1
  I  I100  1  0.83535274  0.16485684  0.33104337  1
  I  I101  1  0.83151755  0.16900881  0.66651588  1
  I  I102  1  0.83339038  0.49966100  -0.00017923  1
  I  I103  1  0.82721605  0.50024164  0.33558914  1
  I  I104  1  0.82987318  0.49997244  0.66199561  1
  I  I105  1  0.83400288  0.83463264  0.00348220  1
  I  I106  1  0.83354377  0.83482003  0.33086958  1
  I  I107  1  0.83344489  0.83095306  0.66663306  1
  I  I108  1  -0.00246172  0.16668725  0.16926219  1
  I  I109  1  0.00338028  0.16402301  0.50168565  1
  I  I110  1  0.00481199  0.16117955  0.82563914  1
  I  I111  1  0.00152709  0.49981228  0.16939180  1
  I  I112  1  -0.00140459  0.49949141  0.49314582  1
  I  I113  1  0.00029082  0.50008820  0.83549256  1
  I  I114  1  -0.00259886  0.83299883  0.16802990  1
  I  I115  1  0.00324330  0.83605131  0.50246845  1
  I  I116  1  0.00343568  0.83725913  0.82927692  1
  I  I117  1  0.33341157  0.16754921  0.16571814  1
  I  I118  1  0.33328543  0.16997952  0.50267862  1
  I  I119  1  0.33021026  0.16650660  0.83271663  1
  I  I120  1  0.33465788  0.50030850  0.17068011  1
  I  I121  1  0.33669351  0.49990510  0.50087247  1
  I  I122  1  0.33702392  0.50145577  0.82686590  1
  I  I123  1  0.33347710  0.83247986  0.16704194  1
  I  I124  1  0.33402673  0.83058244  0.50271127  1
  I  I125  1  0.33347653  0.83175244  0.82939371  1
  I  I126  1  0.66963307  0.16504747  0.16877671  1
  I  I127  1  0.66380477  0.16603666  0.49794086  1
  I  I128  1  0.66638398  0.16726712  0.83314094  1
  I  I129  1  0.66362630  0.50053380  0.16673108  1
  I  I130  1  0.66395014  0.50016915  0.49598021  1
  I  I131  1  0.66165114  0.50599634  0.84015677  1
  I  I132  1  0.66944571  0.83351990  0.16817665  1
  I  I133  1  0.66324738  0.83433846  0.50288280  1
  I  I134  1  0.66299122  0.82762053  0.82933083  1
