# generated using pymatgen
data_Cs27Sn14Pb13I81
_symmetry_space_group_name_H-M   'P 1'
_cell_length_a   18.96993444
_cell_length_b   18.97899958
_cell_length_c   18.98003638
_cell_angle_alpha   90.00016053
_cell_angle_beta   90.00030341
_cell_angle_gamma   90.00043212
_symmetry_Int_Tables_number   1
_chemical_formula_structural   Cs27Sn14Pb13I81
_chemical_formula_sum   'Cs27 Sn14 Pb13 I81'
_cell_volume   6833.38966654
_cell_formula_units_Z   1
loop_
 _symmetry_equiv_pos_site_id
 _symmetry_equiv_pos_as_xyz
  1  'x, y, z'
loop_
 _atom_site_type_symbol
 _atom_site_label
 _atom_site_symmetry_multiplicity
 _atom_site_fract_x
 _atom_site_fract_y
 _atom_site_fract_z
 _atom_site_occupancy
  Cs  Cs0  1  0.00089049  0.00238947  -0.00114507  1
  Cs  Cs1  1  -0.00086900  0.00267622  0.33468845  1
  Cs  Cs2  1  -0.00034611  -0.00067337  0.66592586  1
  Cs  Cs3  1  0.00240921  0.33497939  -0.00005575  1
  Cs  Cs4  1  0.00307834  0.33146482  0.33373280  1
  Cs  Cs5  1  -0.00094525  0.33323259  0.66704133  1
  Cs  Cs6  1  -0.00286081  0.66294992  0.00250655  1
  Cs  Cs7  1  -0.00049077  0.66648327  0.33177999  1
  Cs  Cs8  1  0.00128480  0.66722155  0.66686935  1
  Cs  Cs9  1  0.33511728  -0.00347789  -0.00316862  1
  Cs  Cs10  1  0.33288681  -0.00522054  0.33334852  1
  Cs  Cs11  1  0.33733595  -0.00761476  0.67006114  1
  Cs  Cs12  1  0.33190594  0.33393294  0.00152333  1
  Cs  Cs13  1  0.33191060  0.33430057  0.33135962  1
  Cs  Cs14  1  0.33477573  0.33430085  0.66756598  1
  Cs  Cs15  1  0.33398666  0.66797427  -0.00186250  1
  Cs  Cs16  1  0.33636584  0.66959071  0.33662147  1
  Cs  Cs17  1  0.33103995  0.67121252  0.66604514  1
  Cs  Cs18  1  0.66435114  -0.00133505  0.00115112  1
  Cs  Cs19  1  0.66737399  -0.00103091  0.33078647  1
  Cs  Cs20  1  0.66710140  0.00447063  0.66899445  1
  Cs  Cs21  1  0.66582402  0.33461845  -0.00142118  1
  Cs  Cs22  1  0.66389038  0.33108807  0.33627698  1
  Cs  Cs23  1  0.66544874  0.33222552  0.66603380  1
  Cs  Cs24  1  0.66894702  0.66564959  0.00527084  1
  Cs  Cs25  1  0.66390272  0.67042157  0.33037080  1
  Cs  Cs26  1  0.66976304  0.66197843  0.66384237  1
  Sn  Sn27  1  0.49910656  0.49977608  0.83394157  1
  Sn  Sn28  1  0.16628674  0.16721911  0.83198489  1
  Sn  Sn29  1  0.83351456  0.83400998  0.83285165  1
  Sn  Sn30  1  0.16610721  0.83332202  0.16645915  1
  Sn  Sn31  1  0.83403708  0.16683570  0.50014205  1
  Sn  Sn32  1  0.16578620  0.49902906  0.50090870  1
  Sn  Sn33  1  0.83362969  0.83368124  0.50082147  1
  Sn  Sn34  1  0.83405606  0.16611687  0.83348801  1
  Sn  Sn35  1  0.16653019  0.16715084  0.50145078  1
  Sn  Sn36  1  0.16742912  0.49915679  0.83252641  1
  Sn  Sn37  1  0.50040689  0.16751577  0.16664371  1
  Sn  Sn38  1  0.83431128  0.49961451  0.49968957  1
  Sn  Sn39  1  0.83268464  0.16726618  0.16634052  1
  Sn  Sn40  1  0.49983249  0.49895865  0.16590048  1
  Pb  Pb41  1  0.49912779  0.16656958  0.49795659  1
  Pb  Pb42  1  0.49968000  0.16830577  0.83513512  1
  Pb  Pb43  1  0.16867980  0.50194244  0.16696498  1
  Pb  Pb44  1  0.16435560  0.83320801  0.83489023  1
  Pb  Pb45  1  0.50359911  0.82998167  0.83322288  1
  Pb  Pb46  1  0.49923482  0.49978573  0.50019897  1
  Pb  Pb47  1  0.83497836  0.83570571  0.16649227  1
  Pb  Pb48  1  0.83130266  0.49721963  0.16979492  1
  Pb  Pb49  1  0.49776724  0.83357172  0.16644257  1
  Pb  Pb50  1  0.16691317  0.16537039  0.16651738  1
  Pb  Pb51  1  0.50362676  0.83364938  0.50047817  1
  Pb  Pb52  1  0.16455356  0.83358118  0.49863742  1
  Pb  Pb53  1  0.83372443  0.49953314  0.83175095  1
  I  I54  1  0.16709580  -0.00193395  0.16744021  1
  I  I55  1  0.16189343  0.00323522  0.50140526  1
  I  I56  1  0.16348015  0.00312619  0.83096696  1
  I  I57  1  0.16563122  0.33330473  0.16691603  1
  I  I58  1  0.15794506  0.33314686  0.50218358  1
  I  I59  1  0.16384046  0.33296654  0.83099385  1
  I  I60  1  0.16698920  0.66926033  0.16682060  1
  I  I61  1  0.16309123  0.66372321  0.50244877  1
  I  I62  1  0.16941315  0.66359499  0.83030856  1
  I  I63  1  0.50407123  0.00298855  0.16796265  1
  I  I64  1  0.49810823  0.00031616  0.49661487  1
  I  I65  1  0.49741864  0.00007340  0.83536531  1
  I  I66  1  0.50356466  0.33322905  0.16347587  1
  I  I67  1  0.50645428  0.33333401  0.50052519  1
  I  I68  1  0.50135361  0.33626960  0.83534480  1
  I  I69  1  0.49841168  0.66378878  0.16356032  1
  I  I70  1  0.50027287  0.66634147  0.49643484  1
  I  I71  1  0.49430743  0.66204008  0.83964773  1
  I  I72  1  0.82830139  0.00383012  0.17108581  1
  I  I73  1  0.83732021  0.00142270  0.49977696  1
  I  I74  1  0.83877304  0.00189661  0.82890616  1
  I  I75  1  0.83369052  0.32910660  0.16489662  1
  I  I76  1  0.83663870  0.33237470  0.49995432  1
  I  I77  1  0.83369594  0.33027059  0.83286222  1
  I  I78  1  0.83245135  0.66649139  0.16660189  1
  I  I79  1  0.83672693  0.66639032  0.50597756  1
  I  I80  1  0.83304070  0.66840602  0.82809651  1
  I  I81  1  0.16259730  0.16978199  -0.00280558  1
  I  I82  1  0.16265228  0.16985027  0.33603187  1
  I  I83  1  0.15710933  0.17107302  0.66672836  1
  I  I84  1  0.16837541  0.49646096  -0.00282697  1
  I  I85  1  0.16333536  0.49619841  0.33640099  1
  I  I86  1  0.16830947  0.49661043  0.66676235  1
  I  I87  1  0.16412163  0.83479750  0.00226482  1
  I  I88  1  0.16471768  0.83427391  0.33112193  1
  I  I89  1  0.16739402  0.83270252  0.66669786  1
  I  I90  1  0.50426762  0.16907894  0.00309567  1
  I  I91  1  0.50449004  0.17338725  0.32979949  1
  I  I92  1  0.50375247  0.16906365  0.66693568  1
  I  I93  1  0.49473161  0.49552880  -0.00031200  1
  I  I94  1  0.50109809  0.49632956  0.33086825  1
  I  I95  1  0.50004269  0.50006573  0.66929755  1
  I  I96  1  0.50211224  0.83489366  -0.00010303  1
  I  I97  1  0.50098336  0.83043106  0.33307632  1
  I  I98  1  0.49479018  0.83164603  0.66706754  1
  I  I99  1  0.83392006  0.16130954  -0.00096481  1
  I  I100  1  0.83354184  0.16670813  0.33446919  1
  I  I101  1  0.83779516  0.16562921  0.66641656  1
  I  I102  1  0.83523479  0.50095028  0.00010808  1
  I  I103  1  0.83853683  0.50108754  0.33786692  1
  I  I104  1  0.83162075  0.49642071  0.66368372  1
  I  I105  1  0.83511214  0.83777506  -0.00258098  1
  I  I106  1  0.83523054  0.83395225  0.33602802  1
  I  I107  1  0.83467720  0.83812404  0.66613461  1
  I  I108  1  -0.00255934  0.16351899  0.16759409  1
  I  I109  1  -0.00120642  0.16750118  0.49772231  1
  I  I110  1  -0.00059015  0.16891342  0.83514088  1
  I  I111  1  0.00001828  0.50027596  0.16410937  1
  I  I112  1  0.00025294  0.49892789  0.50573077  1
  I  I113  1  0.00267806  0.49911676  0.83086223  1
  I  I114  1  0.00226058  0.83456633  0.16694484  1
  I  I115  1  -0.00353949  0.83400828  0.50297897  1
  I  I116  1  -0.00339513  0.83340350  0.82962202  1
  I  I117  1  0.33562691  0.16950159  0.16691986  1
  I  I118  1  0.32943498  0.17372909  0.50209362  1
  I  I119  1  0.33009491  0.16945716  0.83086785  1
  I  I120  1  0.33639321  0.49280183  0.16729726  1
  I  I121  1  0.32979611  0.49418438  0.49987525  1
  I  I122  1  0.33190481  0.49359499  0.83197134  1
  I  I123  1  0.33022353  0.83621392  0.16724859  1
  I  I124  1  0.33282698  0.83270211  0.49667635  1
  I  I125  1  0.33315107  0.83618430  0.83597062  1
  I  I126  1  0.66785342  0.16951527  0.16745939  1
  I  I127  1  0.67033575  0.16741101  0.50234445  1
  I  I128  1  0.66987487  0.16466123  0.83075360  1
  I  I129  1  0.66348922  0.49990560  0.16069177  1
  I  I130  1  0.66960543  0.49969860  0.50047897  1
  I  I131  1  0.66494546  0.50060089  0.83589572  1
  I  I132  1  0.66688458  0.83168180  0.16759771  1
  I  I133  1  0.67227417  0.83271752  0.50142997  1
  I  I134  1  0.67149395  0.84019562  0.83011166  1
