# generated using pymatgen
data_Cs27Sn13Pb14I81
_symmetry_space_group_name_H-M   'P 1'
_cell_length_a   18.98465775
_cell_length_b   18.98874061
_cell_length_c   18.99956827
_cell_angle_alpha   89.99944704
_cell_angle_beta   89.99940314
_cell_angle_gamma   89.99732161
_symmetry_Int_Tables_number   1
_chemical_formula_structural   Cs27Sn13Pb14I81
_chemical_formula_sum   'Cs27 Sn13 Pb14 I81'
_cell_volume   6849.24444591
_cell_formula_units_Z   1
loop_
 _symmetry_equiv_pos_site_id
 _symmetry_equiv_pos_as_xyz
  1  'x, y, z'
loop_
 _atom_site_type_symbol
 _atom_site_label
 _atom_site_symmetry_multiplicity
 _atom_site_fract_x
 _atom_site_fract_y
 _atom_site_fract_z
 _atom_site_occupancy
  Cs  Cs0  1  -0.00186912  0.00452402  -0.00775890  1
  Cs  Cs1  1  -0.00047087  0.00202606  0.33910399  1
  Cs  Cs2  1  0.00212601  -0.00259077  0.66762397  1
  Cs  Cs3  1  0.00222079  0.33302072  0.00046074  1
  Cs  Cs4  1  -0.00080271  0.33529617  0.33273901  1
  Cs  Cs5  1  0.00090941  0.33561975  0.66646734  1
  Cs  Cs6  1  0.00182243  0.66568093  -0.00133901  1
  Cs  Cs7  1  -0.00231878  0.66327547  0.33312532  1
  Cs  Cs8  1  -0.00110587  0.66687972  0.66769490  1
  Cs  Cs9  1  0.33532616  -0.00319922  0.00549409  1
  Cs  Cs10  1  0.33406914  -0.00011047  0.33417072  1
  Cs  Cs11  1  0.32900694  -0.00041838  0.66146541  1
  Cs  Cs12  1  0.32862868  0.33392607  -0.00328185  1
  Cs  Cs13  1  0.33254421  0.33072700  0.33748569  1
  Cs  Cs14  1  0.33922072  0.33222484  0.66704575  1
  Cs  Cs15  1  0.33233618  0.66911150  0.00616340  1
  Cs  Cs16  1  0.33230193  0.66928874  0.32565929  1
  Cs  Cs17  1  0.33779311  0.66661760  0.66783348  1
  Cs  Cs18  1  0.66632011  0.00845033  0.00081179  1
  Cs  Cs19  1  0.66606029  -0.00225477  0.32919481  1
  Cs  Cs20  1  0.66807025  -0.00339744  0.67054985  1
  Cs  Cs21  1  0.66475566  0.32655244  -0.00115690  1
  Cs  Cs22  1  0.66715992  0.33280626  0.33327202  1
  Cs  Cs23  1  0.65769107  0.33479305  0.66764474  1
  Cs  Cs24  1  0.66649214  0.66640682  0.00162989  1
  Cs  Cs25  1  0.66812447  0.66711813  0.33445831  1
  Cs  Cs26  1  0.66556110  0.66667590  0.66593345  1
  Sn  Sn27  1  0.16675380  0.16731666  0.83382185  1
  Sn  Sn28  1  0.16644848  0.50048026  0.50102514  1
  Sn  Sn29  1  0.50106233  0.49940881  0.16667445  1
  Sn  Sn30  1  0.16613666  0.49959933  0.83206202  1
  Sn  Sn31  1  0.83363192  0.49969689  0.50046183  1
  Sn  Sn32  1  0.83262894  0.83327026  0.49931085  1
  Sn  Sn33  1  0.83216715  0.50043933  0.16633993  1
  Sn  Sn34  1  0.83292242  0.16698373  0.50050088  1
  Sn  Sn35  1  0.83394854  0.83303480  0.16670616  1
  Sn  Sn36  1  0.50077664  0.83298902  0.50057938  1
  Sn  Sn37  1  0.50022133  0.83323742  0.83298160  1
  Sn  Sn38  1  0.83340415  0.49984851  0.83329904  1
  Sn  Sn39  1  0.16626065  0.16659075  0.16628245  1
  Pb  Pb40  1  0.16484648  0.16911749  0.50053766  1
  Pb  Pb41  1  0.83506819  0.16695066  0.16836378  1
  Pb  Pb42  1  0.50003214  0.50199772  0.49794947  1
  Pb  Pb43  1  0.49683666  0.16374944  0.83318953  1
  Pb  Pb44  1  0.49738342  0.16966140  0.16678297  1
  Pb  Pb45  1  0.16600340  0.49883893  0.16661745  1
  Pb  Pb46  1  0.49967446  0.50149975  0.83550726  1
  Pb  Pb47  1  0.83179597  0.83126292  0.83352780  1
  Pb  Pb48  1  0.83508794  0.16969741  0.83045382  1
  Pb  Pb49  1  0.16613249  0.83022401  0.49984889  1
  Pb  Pb50  1  0.16268451  0.83637314  0.16669378  1
  Pb  Pb51  1  0.16901454  0.83272315  0.83335128  1
  Pb  Pb52  1  0.50252778  0.83194708  0.16690817  1
  Pb  Pb53  1  0.50315114  0.16350457  0.49999143  1
  I  I54  1  0.16631756  0.00399350  0.16027241  1
  I  I55  1  0.16542428  -0.00001287  0.50054075  1
  I  I56  1  0.16785432  0.00277534  0.83788557  1
  I  I57  1  0.16422611  0.33134757  0.16548645  1
  I  I58  1  0.16003819  0.33698555  0.49963717  1
  I  I59  1  0.16188138  0.33477966  0.83438263  1
  I  I60  1  0.16919598  0.66648609  0.16654605  1
  I  I61  1  0.16005638  0.66233320  0.50523267  1
  I  I62  1  0.16270028  0.66303089  0.82906688  1
  I  I63  1  0.50021094  -0.00012535  0.16645994  1
  I  I64  1  0.50384622  -0.00457272  0.50277323  1
  I  I65  1  0.50117899  -0.00398352  0.82977756  1
  I  I66  1  0.50905058  0.33750022  0.16656546  1
  I  I67  1  0.50034661  0.33360278  0.49845964  1
  I  I68  1  0.50182540  0.33347842  0.83489306  1
  I  I69  1  0.50011848  0.66397192  0.16686168  1
  I  I70  1  0.50647234  0.66955838  0.50328387  1
  I  I71  1  0.49896328  0.66901292  0.82891033  1
  I  I72  1  0.83491280  -0.00260233  0.17283263  1
  I  I73  1  0.82921378  -0.00111746  0.49361319  1
  I  I74  1  0.83421600  0.00012088  0.83336170  1
  I  I75  1  0.83172687  0.33674186  0.16843339  1
  I  I76  1  0.84021561  0.33513290  0.49838234  1
  I  I77  1  0.83476333  0.33792832  0.83518997  1
  I  I78  1  0.83024151  0.66521954  0.17227059  1
  I  I79  1  0.83335086  0.66597104  0.49879019  1
  I  I80  1  0.83936658  0.66298471  0.82966429  1
  I  I81  1  0.16508481  0.17442588  -0.00079972  1
  I  I82  1  0.16456179  0.16902633  0.33173433  1
  I  I83  1  0.16490252  0.16914097  0.66931569  1
  I  I84  1  0.16356897  0.49761791  -0.00255440  1
  I  I85  1  0.16281308  0.49859491  0.33546224  1
  I  I86  1  0.15755511  0.49497563  0.66707263  1
  I  I87  1  0.16855652  0.82763924  0.00005271  1
  I  I88  1  0.17247346  0.83346447  0.33333721  1
  I  I89  1  0.16262694  0.83803813  0.66655087  1
  I  I90  1  0.50378957  0.16318250  -0.00001706  1
  I  I91  1  0.49550673  0.16477504  0.33340833  1
  I  I92  1  0.49763283  0.17079283  0.66654745  1
  I  I93  1  0.50397871  0.50423531  0.00299088  1
  I  I94  1  0.50364832  0.50313414  0.33041377  1
  I  I95  1  0.50171972  0.50027542  0.66659411  1
  I  I96  1  0.49926396  0.83024014  -0.00181096  1
  I  I97  1  0.50319096  0.83139002  0.33592170  1
  I  I98  1  0.50651695  0.83109999  0.66559958  1
  I  I99  1  0.83327216  0.16563788  -0.00031698  1
  I  I100  1  0.83760124  0.17094036  0.33611870  1
  I  I101  1  0.83676760  0.16418118  0.66284504  1
  I  I102  1  0.83449258  0.50631789  0.00038179  1
  I  I103  1  0.83430560  0.50116742  0.33400824  1
  I  I104  1  0.83957858  0.50084651  0.66587733  1
  I  I105  1  0.83242745  0.82707188  0.00259325  1
  I  I106  1  0.82779578  0.82816646  0.33465044  1
  I  I107  1  0.83133699  0.83213313  0.66359688  1
  I  I108  1  0.00261541  0.16985690  0.16303677  1
  I  I109  1  -0.00307128  0.16211833  0.49919784  1
  I  I110  1  0.00292674  0.16747349  0.83754602  1
  I  I111  1  -0.00324938  0.50232378  0.16788227  1
  I  I112  1  -0.00191397  0.50201272  0.49804973  1
  I  I113  1  -0.00036400  0.49794089  0.83440934  1
  I  I114  1  -0.00488857  0.82369192  0.17372058  1
  I  I115  1  -0.00383384  0.83459910  0.49566542  1
  I  I116  1  -0.00007667  0.83473119  0.83320992  1
  I  I117  1  0.32951655  0.16897549  0.16328187  1
  I  I118  1  0.33316087  0.16688924  0.49939778  1
  I  I119  1  0.32902989  0.17607469  0.83587633  1
  I  I120  1  0.33492261  0.49924572  0.16671249  1
  I  I121  1  0.33075750  0.50050990  0.50305552  1
  I  I122  1  0.33015391  0.49680303  0.82985628  1
  I  I123  1  0.33342986  0.83145426  0.16704887  1
  I  I124  1  0.33596636  0.83133525  0.50462347  1
  I  I125  1  0.33678558  0.83110865  0.82668200  1
  I  I126  1  0.66698741  0.16488050  0.16805928  1
  I  I127  1  0.67119029  0.17458247  0.49852448  1
  I  I128  1  0.66675663  0.16754052  0.83266128  1
  I  I129  1  0.66903096  0.50461900  0.16779415  1
  I  I130  1  0.67029648  0.49901252  0.50223181  1
  I  I131  1  0.66956986  0.50319986  0.82978720  1
  I  I132  1  0.67032716  0.83073676  0.16946312  1
  I  I133  1  0.66846903  0.83038657  0.50017652  1
  I  I134  1  0.66424553  0.82935030  0.83064183  1
