# generated using pymatgen
data_Cs27Sn14Pb13I81
_symmetry_space_group_name_H-M   'P 1'
_cell_length_a   18.97200631
_cell_length_b   18.98009548
_cell_length_c   18.97408622
_cell_angle_alpha   90.00181761
_cell_angle_beta   90.00161365
_cell_angle_gamma   90.00180698
_symmetry_Int_Tables_number   1
_chemical_formula_structural   Cs27Sn14Pb13I81
_chemical_formula_sum   'Cs27 Sn14 Pb13 I81'
_cell_volume   6832.38802089
_cell_formula_units_Z   1
loop_
 _symmetry_equiv_pos_site_id
 _symmetry_equiv_pos_as_xyz
  1  'x, y, z'
loop_
 _atom_site_type_symbol
 _atom_site_label
 _atom_site_symmetry_multiplicity
 _atom_site_fract_x
 _atom_site_fract_y
 _atom_site_fract_z
 _atom_site_occupancy
  Cs  Cs0  1  -0.01324397  -0.00262656  0.00028290  1
  Cs  Cs1  1  -0.00144829  0.00010062  0.33653228  1
  Cs  Cs2  1  0.00252566  -0.00049356  0.66548315  1
  Cs  Cs3  1  -0.00336789  0.33464324  0.00681699  1
  Cs  Cs4  1  0.00437857  0.33709678  0.32744674  1
  Cs  Cs5  1  0.00213928  0.33127287  0.66678979  1
  Cs  Cs6  1  -0.00992277  0.66849283  0.00252279  1
  Cs  Cs7  1  -0.00008585  0.66463995  0.32918640  1
  Cs  Cs8  1  0.00372404  0.66848980  0.67019619  1
  Cs  Cs9  1  0.33526212  0.00029613  0.00018392  1
  Cs  Cs10  1  0.33429738  -0.00030877  0.33329433  1
  Cs  Cs11  1  0.33207468  0.00032350  0.66659039  1
  Cs  Cs12  1  0.33275767  0.33451760  -0.00082660  1
  Cs  Cs13  1  0.33095514  0.33260939  0.33117691  1
  Cs  Cs14  1  0.33311422  0.33315192  0.66781253  1
  Cs  Cs15  1  0.33439811  0.66569294  -0.00025206  1
  Cs  Cs16  1  0.33415126  0.66800590  0.33166667  1
  Cs  Cs17  1  0.33240433  0.66635507  0.66822160  1
  Cs  Cs18  1  0.67041060  0.00067761  0.00224912  1
  Cs  Cs19  1  0.66542277  0.00024371  0.33443015  1
  Cs  Cs20  1  0.66503512  0.00220916  0.66398646  1
  Cs  Cs21  1  0.67071896  0.32949344  -0.00185268  1
  Cs  Cs22  1  0.66742472  0.33440756  0.33776186  1
  Cs  Cs23  1  0.66775064  0.33498315  0.66481717  1
  Cs  Cs24  1  0.66693153  0.66860454  -0.00012229  1
  Cs  Cs25  1  0.66646095  0.66572272  0.33539749  1
  Cs  Cs26  1  0.66484693  0.66096218  0.66440999  1
  Sn  Sn27  1  0.49932958  0.49963013  0.83436214  1
  Sn  Sn28  1  0.83349523  0.16625224  0.50030980  1
  Sn  Sn29  1  0.16716615  0.49925795  0.83299921  1
  Sn  Sn30  1  0.16735844  0.83399064  0.16606402  1
  Sn  Sn31  1  0.16722987  0.16710406  0.83334781  1
  Sn  Sn32  1  0.49964963  0.16610160  0.50076505  1
  Sn  Sn33  1  0.49886861  0.83256716  0.16661062  1
  Sn  Sn34  1  0.49966501  0.50028097  0.16569411  1
  Sn  Sn35  1  0.83251004  0.83344444  0.50042501  1
  Sn  Sn36  1  0.16727938  0.49951200  0.50072247  1
  Sn  Sn37  1  0.49904183  0.16672456  0.83246764  1
  Sn  Sn38  1  0.49964870  0.83357781  0.83309373  1
  Sn  Sn39  1  0.50049891  0.83392995  0.50027326  1
  Sn  Sn40  1  0.16694906  0.16760161  0.50055018  1
  Pb  Pb41  1  0.16827274  0.83372774  0.83604398  1
  Pb  Pb42  1  0.49800435  0.49978975  0.50024935  1
  Pb  Pb43  1  0.83215385  0.83334670  0.16949141  1
  Pb  Pb44  1  0.16709671  0.83343612  0.49869255  1
  Pb  Pb45  1  0.49989956  0.16670622  0.16641752  1
  Pb  Pb46  1  0.83331087  0.16675894  0.17017206  1
  Pb  Pb47  1  0.83377827  0.49979855  0.83304628  1
  Pb  Pb48  1  0.16679700  0.16391873  0.16555475  1
  Pb  Pb49  1  0.83362112  0.16681746  0.83094212  1
  Pb  Pb50  1  0.16849112  0.50202868  0.16554105  1
  Pb  Pb51  1  0.82982653  0.83331033  0.82990470  1
  Pb  Pb52  1  0.83694652  0.50004956  0.50035898  1
  Pb  Pb53  1  0.82926207  0.50007180  0.16677516  1
  I  I54  1  0.17559726  -0.00360265  0.16917408  1
  I  I55  1  0.16683536  0.00297528  0.50297925  1
  I  I56  1  0.17227457  0.00307358  0.82753063  1
  I  I57  1  0.16785506  0.33340627  0.16874428  1
  I  I58  1  0.16754747  0.33208175  0.50276956  1
  I  I59  1  0.17653015  0.33309914  0.82731344  1
  I  I60  1  0.17072878  0.66962815  0.16960310  1
  I  I61  1  0.16785156  0.66454030  0.50299476  1
  I  I62  1  0.17241178  0.66397025  0.82800948  1
  I  I63  1  0.49704959  -0.00319812  0.16573266  1
  I  I64  1  0.49881698  0.00018012  0.50198080  1
  I  I65  1  0.49564858  0.00035146  0.83178893  1
  I  I66  1  0.49923479  0.33606820  0.16439283  1
  I  I67  1  0.50277691  0.33034521  0.50212684  1
  I  I68  1  0.49614006  0.33310141  0.83296701  1
  I  I69  1  0.49583669  0.66785997  0.16469461  1
  I  I70  1  0.50291983  0.66931021  0.50152443  1
  I  I71  1  0.49637062  0.66660830  0.83328045  1
  I  I72  1  0.83150356  -0.00027479  0.16419591  1
  I  I73  1  0.83377686  0.00048850  0.49975932  1
  I  I74  1  0.83484482  -0.00000705  0.83541201  1
  I  I75  1  0.83338728  0.33346946  0.16897987  1
  I  I76  1  0.82799452  0.33007034  0.50088468  1
  I  I77  1  0.82674947  0.33316643  0.82979228  1
  I  I78  1  0.83661181  0.66698522  0.17031920  1
  I  I79  1  0.82713937  0.66954086  0.49887205  1
  I  I80  1  0.83446372  0.66677871  0.83055475  1
  I  I81  1  0.17541039  0.17117824  -0.00393283  1
  I  I82  1  0.16729460  0.16972511  0.33669375  1
  I  I83  1  0.16795588  0.16970149  0.66574522  1
  I  I84  1  0.17092425  0.49542351  -0.00345630  1
  I  I85  1  0.16761107  0.49650058  0.33537237  1
  I  I86  1  0.17290305  0.49746975  0.66717663  1
  I  I87  1  0.17532587  0.83282612  0.00336638  1
  I  I88  1  0.17323283  0.83287003  0.33114915  1
  I  I89  1  0.16650177  0.83248725  0.66688571  1
  I  I90  1  0.49397530  0.16464060  -0.00360339  1
  I  I91  1  0.50011507  0.16335181  0.33683475  1
  I  I92  1  0.49955647  0.16345638  0.66611555  1
  I  I93  1  0.49366244  0.50380875  -0.00136750  1
  I  I94  1  0.49819811  0.50404499  0.33163142  1
  I  I95  1  0.49820017  0.50283613  0.66949427  1
  I  I96  1  0.49345865  0.83229786  -0.00017695  1
  I  I97  1  0.50004884  0.83320950  0.33396830  1
  I  I98  1  0.50446457  0.83391873  0.66639752  1
  I  I99  1  0.83320937  0.16686626  -0.00032007  1
  I  I100  1  0.83150983  0.16135083  0.33872097  1
  I  I101  1  0.83239118  0.16192241  0.66280645  1
  I  I102  1  0.83864714  0.50053585  -0.00001044  1
  I  I103  1  0.83359232  0.49961294  0.33380993  1
  I  I104  1  0.82633527  0.50118805  0.66636046  1
  I  I105  1  0.83395769  0.83260662  0.00000925  1
  I  I106  1  0.82752417  0.83851940  0.33714763  1
  I  I107  1  0.83016218  0.83820223  0.66214101  1
  I  I108  1  0.00031737  0.16415738  0.16623708  1
  I  I109  1  0.00092424  0.16486194  0.50404358  1
  I  I110  1  0.00365534  0.17158223  0.82860889  1
  I  I111  1  0.00028567  0.50228107  0.16740848  1
  I  I112  1  0.00491022  0.49715258  0.50549059  1
  I  I113  1  0.00404055  0.49516613  0.82746855  1
  I  I114  1  0.00213662  0.83373040  0.16872718  1
  I  I115  1  -0.00176822  0.83665268  0.49657876  1
  I  I116  1  0.00001845  0.83277411  0.83466475  1
  I  I117  1  0.33348058  0.16670989  0.17367089  1
  I  I118  1  0.33374772  0.16544218  0.50362072  1
  I  I119  1  0.33439523  0.16713341  0.82464042  1
  I  I120  1  0.33647696  0.50325285  0.16584829  1
  I  I121  1  0.33033137  0.49693299  0.50102106  1
  I  I122  1  0.33442866  0.49929376  0.83263827  1
  I  I123  1  0.33588536  0.83013273  0.17060006  1
  I  I124  1  0.33663366  0.83633039  0.50097259  1
  I  I125  1  0.33707692  0.83320817  0.82732989  1
  I  I126  1  0.66621575  0.16519064  0.16552802  1
  I  I127  1  0.66532867  0.16132302  0.50290414  1
  I  I128  1  0.66294356  0.16681261  0.83032747  1
  I  I129  1  0.66109595  0.50744033  0.16224449  1
  I  I130  1  0.66635931  0.49791353  0.49891345  1
  I  I131  1  0.66254376  0.50021184  0.83728286  1
  I  I132  1  0.66259029  0.82953976  0.16472694  1
  I  I133  1  0.66456158  0.84098190  0.49824232  1
  I  I134  1  0.66105145  0.83392411  0.83984660  1
