# generated using pymatgen
data_Cs27Sn14Pb13I81
_symmetry_space_group_name_H-M   'P 1'
_cell_length_a   18.98383320
_cell_length_b   18.96397769
_cell_length_c   18.98013440
_cell_angle_alpha   90.00167599
_cell_angle_beta   90.00061588
_cell_angle_gamma   89.99912763
_symmetry_Int_Tables_number   1
_chemical_formula_structural   Cs27Sn14Pb13I81
_chemical_formula_sum   'Cs27 Sn14 Pb13 I81'
_cell_volume   6833.01899592
_cell_formula_units_Z   1
loop_
 _symmetry_equiv_pos_site_id
 _symmetry_equiv_pos_as_xyz
  1  'x, y, z'
loop_
 _atom_site_type_symbol
 _atom_site_label
 _atom_site_symmetry_multiplicity
 _atom_site_fract_x
 _atom_site_fract_y
 _atom_site_fract_z
 _atom_site_occupancy
  Cs  Cs0  1  0.00016836  0.00093391  -0.00094511  1
  Cs  Cs1  1  0.00163373  -0.00514004  0.33476306  1
  Cs  Cs2  1  0.00493299  -0.00118800  0.66707185  1
  Cs  Cs3  1  -0.00260226  0.33130282  0.00180544  1
  Cs  Cs4  1  -0.00098355  0.33340793  0.33557571  1
  Cs  Cs5  1  -0.00380172  0.33324854  0.66272565  1
  Cs  Cs6  1  0.00748830  0.66884756  0.00018603  1
  Cs  Cs7  1  -0.00287140  0.67111218  0.33086550  1
  Cs  Cs8  1  0.00075398  0.66729625  0.66807516  1
  Cs  Cs9  1  0.33314213  0.00187231  -0.00190321  1
  Cs  Cs10  1  0.33368401  -0.00148958  0.33685580  1
  Cs  Cs11  1  0.33192929  -0.00074676  0.66599871  1
  Cs  Cs12  1  0.33382299  0.33667460  0.00110931  1
  Cs  Cs13  1  0.33272976  0.33168379  0.33450582  1
  Cs  Cs14  1  0.33445987  0.33368125  0.66474269  1
  Cs  Cs15  1  0.32501599  0.65935692  0.00431392  1
  Cs  Cs16  1  0.33580300  0.67226299  0.32370992  1
  Cs  Cs17  1  0.33076058  0.66739387  0.67115523  1
  Cs  Cs18  1  0.66733861  0.00225271  -0.00305829  1
  Cs  Cs19  1  0.66577034  -0.00495426  0.33254690  1
  Cs  Cs20  1  0.66583041  -0.00038611  0.67047592  1
  Cs  Cs21  1  0.66733767  0.33200100  0.00016953  1
  Cs  Cs22  1  0.66817486  0.33337753  0.33515199  1
  Cs  Cs23  1  0.66787161  0.33378422  0.66583836  1
  Cs  Cs24  1  0.66447783  0.66670173  0.00010676  1
  Cs  Cs25  1  0.66710898  0.67476000  0.33335838  1
  Cs  Cs26  1  0.66720037  0.66603040  0.66601583  1
  Sn  Sn27  1  0.16647959  0.16709442  0.16613636  1
  Sn  Sn28  1  0.50126619  0.16725109  0.49996273  1
  Sn  Sn29  1  0.50038523  0.83325957  0.83371364  1
  Sn  Sn30  1  0.16696276  0.50020850  0.49964017  1
  Sn  Sn31  1  0.83253620  0.83210826  0.83332101  1
  Sn  Sn32  1  0.50017995  0.16699701  0.16692445  1
  Sn  Sn33  1  0.83291089  0.49940600  0.16693100  1
  Sn  Sn34  1  0.16782341  0.16751486  0.83374317  1
  Sn  Sn35  1  0.49895568  0.16647026  0.83318190  1
  Sn  Sn36  1  0.83314324  0.50118486  0.83365684  1
  Sn  Sn37  1  0.83239888  0.16668234  0.49900085  1
  Sn  Sn38  1  0.83300686  0.49948341  0.49949855  1
  Sn  Sn39  1  0.49991006  0.49973675  0.49987910  1
  Sn  Sn40  1  0.83330333  0.16718069  0.16820790  1
  Pb  Pb41  1  0.50001323  0.83340732  0.50238335  1
  Pb  Pb42  1  0.83327554  0.83365399  0.50249016  1
  Pb  Pb43  1  0.50163056  0.49963863  0.83176694  1
  Pb  Pb44  1  0.83321530  0.83372425  0.16373947  1
  Pb  Pb45  1  0.16664152  0.16771171  0.49975778  1
  Pb  Pb46  1  0.16690842  0.82929296  0.50000007  1
  Pb  Pb47  1  0.50243340  0.49779720  0.16937967  1
  Pb  Pb48  1  0.16721929  0.83557898  0.83340763  1
  Pb  Pb49  1  0.16396574  0.49699883  0.83164092  1
  Pb  Pb50  1  0.83313058  0.16696002  0.83297153  1
  Pb  Pb51  1  0.50005697  0.83596204  0.16318194  1
  Pb  Pb52  1  0.16670814  0.83648720  0.16661614  1
  Pb  Pb53  1  0.16412805  0.49747060  0.16920109  1
  I  I54  1  0.16279011  0.00534553  0.16322382  1
  I  I55  1  0.16586606  0.00029429  0.50032708  1
  I  I56  1  0.16426984  0.00393884  0.83574187  1
  I  I57  1  0.16865536  0.32931410  0.16232126  1
  I  I58  1  0.16474083  0.33551355  0.50083101  1
  I  I59  1  0.17211199  0.32917950  0.83723077  1
  I  I60  1  0.16516129  0.66605664  0.16789505  1
  I  I61  1  0.16374020  0.66116378  0.50275973  1
  I  I62  1  0.16842903  0.66624283  0.83095143  1
  I  I63  1  0.50325566  0.00510356  0.17235295  1
  I  I64  1  0.50464077  0.00393754  0.49795136  1
  I  I65  1  0.50347866  0.00208252  0.83179995  1
  I  I66  1  0.49847827  0.32903985  0.16035936  1
  I  I67  1  0.50189063  0.33191409  0.50304045  1
  I  I68  1  0.49828842  0.32980285  0.83444530  1
  I  I69  1  0.50197681  0.66641186  0.16771923  1
  I  I70  1  0.50259441  0.66336959  0.50285213  1
  I  I71  1  0.50503788  0.66876198  0.82869248  1
  I  I72  1  0.83332075  0.00401902  0.16948009  1
  I  I73  1  0.82858939  0.00361573  0.49666992  1
  I  I74  1  0.83236449  -0.00139624  0.83343462  1
  I  I75  1  0.83331411  0.33213561  0.16494126  1
  I  I76  1  0.83270370  0.33366872  0.50236149  1
  I  I77  1  0.83364374  0.33556142  0.83205323  1
  I  I78  1  0.83317210  0.66349050  0.17117288  1
  I  I79  1  0.83269514  0.66292803  0.49754213  1
  I  I80  1  0.82717010  0.66578737  0.83127603  1
  I  I81  1  0.16809416  0.16627875  0.00013797  1
  I  I82  1  0.16807835  0.16937444  0.33082357  1
  I  I83  1  0.16871484  0.16764137  0.66875536  1
  I  I84  1  0.16501786  0.50110999  0.00026389  1
  I  I85  1  0.16452252  0.49463114  0.33690850  1
  I  I86  1  0.16389007  0.49567462  0.66376575  1
  I  I87  1  0.16550066  0.83082287  -0.00028212  1
  I  I88  1  0.16600224  0.83684224  0.33329307  1
  I  I89  1  0.16564648  0.83786465  0.66703292  1
  I  I90  1  0.50074863  0.16124245  -0.00018031  1
  I  I91  1  0.50041285  0.17286336  0.33378800  1
  I  I92  1  0.50072718  0.16667956  0.66651117  1
  I  I93  1  0.50288293  0.49899207  0.00015017  1
  I  I94  1  0.50163823  0.49291232  0.33764160  1
  I  I95  1  0.50359315  0.49337462  0.66351164  1
  I  I96  1  0.50650758  0.84022834  -0.00461598  1
  I  I97  1  0.49933660  0.83371605  0.33319154  1
  I  I98  1  0.50484693  0.84060204  0.67006989  1
  I  I99  1  0.83154669  0.16951281  0.00211322  1
  I  I100  1  0.83127014  0.17516315  0.33343168  1
  I  I101  1  0.83069799  0.17034032  0.66422994  1
  I  I102  1  0.83244959  0.49712778  0.00017336  1
  I  I103  1  0.83413842  0.49256553  0.33423788  1
  I  I104  1  0.83320951  0.49847145  0.66555464  1
  I  I105  1  0.82885577  0.83160300  -0.00403628  1
  I  I106  1  0.83425035  0.83164096  0.33321969  1
  I  I107  1  0.82925958  0.83075889  0.67022528  1
  I  I108  1  -0.00095109  0.17130848  0.16519720  1
  I  I109  1  -0.00282122  0.17155222  0.49880314  1
  I  I110  1  0.00151390  0.16744353  0.83585786  1
  I  I111  1  -0.00400755  0.49297180  0.16799708  1
  I  I112  1  -0.00198800  0.49409594  0.50100431  1
  I  I113  1  -0.00434319  0.50339589  0.83061399  1
  I  I114  1  -0.00036657  0.83563723  0.16417621  1
  I  I115  1  -0.00025083  0.83638733  0.50374482  1
  I  I116  1  -0.00269677  0.83074500  0.83278048  1
  I  I117  1  0.33391309  0.16514994  0.16590420  1
  I  I118  1  0.33620499  0.17092824  0.49875678  1
  I  I119  1  0.33482051  0.16069259  0.83494049  1
  I  I120  1  0.33336142  0.49912655  0.16788663  1
  I  I121  1  0.33423453  0.49248733  0.50243873  1
  I  I122  1  0.33327809  0.50241160  0.83040075  1
  I  I123  1  0.33354951  0.83330767  0.16480945  1
  I  I124  1  0.33360013  0.83620536  0.50385389  1
  I  I125  1  0.33648284  0.83865929  0.83100625  1
  I  I126  1  0.66700095  0.17060454  0.16598718  1
  I  I127  1  0.66664924  0.17448980  0.49898528  1
  I  I128  1  0.66433969  0.16586133  0.83479830  1
  I  I129  1  0.67059188  0.49277116  0.16728071  1
  I  I130  1  0.66772746  0.49413474  0.50149439  1
  I  I131  1  0.67003696  0.49747372  0.83030797  1
  I  I132  1  0.66671927  0.83574214  0.16800144  1
  I  I133  1  0.66672746  0.83009413  0.49968884  1
  I  I134  1  0.66668849  0.83766515  0.83238946  1
