# generated using pymatgen
data_Cs27Sn14Pb13I81
_symmetry_space_group_name_H-M   'P 1'
_cell_length_a   18.97760354
_cell_length_b   18.96566877
_cell_length_c   18.98690872
_cell_angle_alpha   89.99937753
_cell_angle_beta   89.99961933
_cell_angle_gamma   89.99947299
_symmetry_Int_Tables_number   1
_chemical_formula_structural   Cs27Sn14Pb13I81
_chemical_formula_sum   'Cs27 Sn14 Pb13 I81'
_cell_volume   6833.82405838
_cell_formula_units_Z   1
loop_
 _symmetry_equiv_pos_site_id
 _symmetry_equiv_pos_as_xyz
  1  'x, y, z'
loop_
 _atom_site_type_symbol
 _atom_site_label
 _atom_site_symmetry_multiplicity
 _atom_site_fract_x
 _atom_site_fract_y
 _atom_site_fract_z
 _atom_site_occupancy
  Cs  Cs0  1  0.00054803  0.00176012  -0.00057033  1
  Cs  Cs1  1  0.00065270  0.00168671  0.33266927  1
  Cs  Cs2  1  -0.00094543  0.00000350  0.66861584  1
  Cs  Cs3  1  -0.00218690  0.33387850  -0.00137244  1
  Cs  Cs4  1  0.00110122  0.33229230  0.33279604  1
  Cs  Cs5  1  -0.00212664  0.33866578  0.66931158  1
  Cs  Cs6  1  -0.00184471  0.66337697  -0.00146534  1
  Cs  Cs7  1  -0.00885654  0.66644946  0.33984983  1
  Cs  Cs8  1  0.00694086  0.66082146  0.66107001  1
  Cs  Cs9  1  0.33248393  -0.00031673  0.00063046  1
  Cs  Cs10  1  0.33255712  0.00247941  0.33211477  1
  Cs  Cs11  1  0.33284881  -0.00333152  0.66781059  1
  Cs  Cs12  1  0.33489335  0.33276995  0.00229330  1
  Cs  Cs13  1  0.33489443  0.33205495  0.33185502  1
  Cs  Cs14  1  0.33632254  0.33328552  0.66606864  1
  Cs  Cs15  1  0.33302937  0.66741229  -0.00192934  1
  Cs  Cs16  1  0.33322975  0.66581418  0.33347985  1
  Cs  Cs17  1  0.32543582  0.67319301  0.66852578  1
  Cs  Cs18  1  0.66806754  -0.00234309  -0.00176360  1
  Cs  Cs19  1  0.66773757  -0.00292410  0.33362815  1
  Cs  Cs20  1  0.66725067  -0.00045220  0.66803669  1
  Cs  Cs21  1  0.66521978  0.33364291  -0.00211290  1
  Cs  Cs22  1  0.66275685  0.33252938  0.33363363  1
  Cs  Cs23  1  0.66459578  0.33224971  0.66888317  1
  Cs  Cs24  1  0.66882432  0.67052052  0.00354245  1
  Cs  Cs25  1  0.67566934  0.67488771  0.33310478  1
  Cs  Cs26  1  0.66671393  0.67126380  0.66230690  1
  Sn  Sn27  1  0.49995512  0.16677739  0.49993544  1
  Sn  Sn28  1  0.49892124  0.16701620  0.83351914  1
  Sn  Sn29  1  0.83393474  0.83288555  0.83309681  1
  Sn  Sn30  1  0.83287564  0.16694952  0.16729538  1
  Sn  Sn31  1  0.16660055  0.16702870  0.16651850  1
  Sn  Sn32  1  0.16660618  0.83262538  0.16695268  1
  Sn  Sn33  1  0.49940782  0.49948264  0.16698221  1
  Sn  Sn34  1  0.83311398  0.16704705  0.49930127  1
  Sn  Sn35  1  0.16760941  0.16699800  0.83335884  1
  Sn  Sn36  1  0.50003267  0.49973821  0.83328327  1
  Sn  Sn37  1  0.16717211  0.50000481  0.16695873  1
  Sn  Sn38  1  0.50044994  0.16684396  0.16648746  1
  Sn  Sn39  1  0.49984762  0.49959616  0.49969882  1
  Sn  Sn40  1  0.16674257  0.16698495  0.50040314  1
  Pb  Pb41  1  0.49973350  0.83332722  0.49980507  1
  Pb  Pb42  1  0.83042475  0.49708568  0.49998935  1
  Pb  Pb43  1  0.16898110  0.49753082  0.83553258  1
  Pb  Pb44  1  0.16463911  0.83543562  0.83537419  1
  Pb  Pb45  1  0.83304065  0.16610639  0.83320260  1
  Pb  Pb46  1  0.83280186  0.49748220  0.16667199  1
  Pb  Pb47  1  0.50124210  0.83322143  0.83349010  1
  Pb  Pb48  1  0.49795900  0.83308715  0.16668496  1
  Pb  Pb49  1  0.16671550  0.83569565  0.49728919  1
  Pb  Pb50  1  0.83034900  0.50299347  0.83321016  1
  Pb  Pb51  1  0.83365098  0.83608378  0.50251879  1
  Pb  Pb52  1  0.83617616  0.83608447  0.16518227  1
  Pb  Pb53  1  0.16914702  0.49747685  0.49741907  1
  I  I54  1  0.16644526  0.00278933  0.16662947  1
  I  I55  1  0.17005063  0.00503276  0.49729223  1
  I  I56  1  0.17276424  0.00429188  0.83599629  1
  I  I57  1  0.16818711  0.33144284  0.16701595  1
  I  I58  1  0.16488638  0.32872118  0.49735242  1
  I  I59  1  0.16631476  0.32894092  0.83563129  1
  I  I60  1  0.17481269  0.66578182  0.16442415  1
  I  I61  1  0.16871722  0.66618138  0.49895234  1
  I  I62  1  0.16765902  0.66637392  0.83592075  1
  I  I63  1  0.49905385  0.00400508  0.16667800  1
  I  I64  1  0.50009758  0.00473459  0.49970588  1
  I  I65  1  0.49763807  0.00378380  0.83357449  1
  I  I66  1  0.49585892  0.33168425  0.16662481  1
  I  I67  1  0.50001454  0.33126437  0.49952837  1
  I  I68  1  0.49724578  0.33155132  0.83392215  1
  I  I69  1  0.49464296  0.66291376  0.16541809  1
  I  I70  1  0.49998465  0.66309077  0.49969497  1
  I  I71  1  0.50292078  0.66324924  0.83501525  1
  I  I72  1  0.83231825  0.00451559  0.16982755  1
  I  I73  1  0.83005215  0.00467824  0.49538651  1
  I  I74  1  0.83152883  -0.00111568  0.83421174  1
  I  I75  1  0.83779882  0.32895028  0.16865151  1
  I  I76  1  0.83588726  0.32863645  0.49681283  1
  I  I77  1  0.83499760  0.33325109  0.83355637  1
  I  I78  1  0.83268491  0.66678062  0.16471337  1
  I  I79  1  0.83088233  0.66658547  0.50055695  1
  I  I80  1  0.83130945  0.67043464  0.83687282  1
  I  I81  1  0.16869197  0.16595347  0.00131551  1
  I  I82  1  0.16851754  0.16614252  0.33225815  1
  I  I83  1  0.16943852  0.16546614  0.66661015  1
  I  I84  1  0.17240004  0.49655897  0.00368996  1
  I  I85  1  0.17298126  0.49613611  0.32931958  1
  I  I86  1  0.16735321  0.49892304  0.66654932  1
  I  I87  1  0.16718148  0.83836712  0.00327364  1
  I  I88  1  0.16747382  0.83779207  0.32921671  1
  I  I89  1  0.16603245  0.83549231  0.66672279  1
  I  I90  1  0.49770903  0.17139172  0.00051154  1
  I  I91  1  0.49778362  0.17155086  0.33291008  1
  I  I92  1  0.49859665  0.17178140  0.66661541  1
  I  I93  1  0.49602002  0.49220303  0.00070573  1
  I  I94  1  0.49452059  0.49045179  0.33259349  1
  I  I95  1  0.50312292  0.49049786  0.66660404  1
  I  I96  1  0.50079807  0.83519702  0.00013794  1
  I  I97  1  0.50047670  0.83519691  0.33313742  1
  I  I98  1  0.50112803  0.83508476  0.66671367  1
  I  I99  1  0.83405411  0.16480532  0.00255536  1
  I  I100  1  0.83352988  0.16634532  0.33279543  1
  I  I101  1  0.83270570  0.16404195  0.66407953  1
  I  I102  1  0.83127472  0.49676820  0.00009521  1
  I  I103  1  0.83175982  0.50293623  0.33321765  1
  I  I104  1  0.83205125  0.49662010  0.66661213  1
  I  I105  1  0.83195619  0.83809060  -0.00209894  1
  I  I106  1  0.83357918  0.83253569  0.33332463  1
  I  I107  1  0.83090741  0.83849475  0.66970433  1
  I  I108  1  0.00137832  0.16596217  0.16872909  1
  I  I109  1  0.00051342  0.16372137  0.49554518  1
  I  I110  1  0.00249604  0.16302596  0.83491276  1
  I  I111  1  0.00302770  0.49726860  0.16541626  1
  I  I112  1  0.00027359  0.49896374  0.49874438  1
  I  I113  1  0.00033732  0.49858738  0.83577977  1
  I  I114  1  0.00391551  0.83593814  0.16507484  1
  I  I115  1  0.00011638  0.83578713  0.49962360  1
  I  I116  1  -0.00262045  0.83969969  0.83596943  1
  I  I117  1  0.33312564  0.16659781  0.16811346  1
  I  I118  1  0.33384890  0.16991970  0.49695852  1
  I  I119  1  0.33410437  0.16906157  0.83459283  1
  I  I120  1  0.33423951  0.49380393  0.16655619  1
  I  I121  1  0.33721594  0.49213233  0.50114142  1
  I  I122  1  0.33727957  0.49778130  0.83181623  1
  I  I123  1  0.33021968  0.84087577  0.16525688  1
  I  I124  1  0.33314478  0.83705306  0.50146340  1
  I  I125  1  0.33303026  0.83292742  0.83393063  1
  I  I126  1  0.66545576  0.17121830  0.16837259  1
  I  I127  1  0.66557355  0.17007559  0.49763521  1
  I  I128  1  0.66341938  0.16865537  0.83376824  1
  I  I129  1  0.66268866  0.49378336  0.16578393  1
  I  I130  1  0.66199007  0.49290042  0.49748826  1
  I  I131  1  0.66180849  0.49004036  0.83700941  1
  I  I132  1  0.66703943  0.83379481  0.16582480  1
  I  I133  1  0.66678631  0.83579508  0.49938353  1
  I  I134  1  0.66884985  0.83799471  0.83479735  1
