# generated using pymatgen
data_Cs27Sn14Pb13I81
_symmetry_space_group_name_H-M   'P 1'
_cell_length_a   18.96808701
_cell_length_b   18.97899761
_cell_length_c   18.97970147
_cell_angle_alpha   90.00069158
_cell_angle_beta   89.99832824
_cell_angle_gamma   90.00068390
_symmetry_Int_Tables_number   1
_chemical_formula_structural   Cs27Sn14Pb13I81
_chemical_formula_sum   'Cs27 Sn14 Pb13 I81'
_cell_volume   6832.60290533
_cell_formula_units_Z   1
loop_
 _symmetry_equiv_pos_site_id
 _symmetry_equiv_pos_as_xyz
  1  'x, y, z'
loop_
 _atom_site_type_symbol
 _atom_site_label
 _atom_site_symmetry_multiplicity
 _atom_site_fract_x
 _atom_site_fract_y
 _atom_site_fract_z
 _atom_site_occupancy
  Cs  Cs0  1  0.00019282  0.00142130  -0.00035327  1
  Cs  Cs1  1  -0.00270565  -0.00099860  0.33236122  1
  Cs  Cs2  1  -0.00161955  -0.00160488  0.66763283  1
  Cs  Cs3  1  0.00048403  0.34222411  0.00263179  1
  Cs  Cs4  1  0.00013075  0.34415763  0.33118392  1
  Cs  Cs5  1  0.00481245  0.34005871  0.66522522  1
  Cs  Cs6  1  0.00327268  0.65562133  -0.00067050  1
  Cs  Cs7  1  0.00081846  0.66060403  0.33354450  1
  Cs  Cs8  1  -0.00135912  0.66400979  0.66693318  1
  Cs  Cs9  1  0.33182420  0.00024143  0.00052466  1
  Cs  Cs10  1  0.33296871  -0.00000795  0.33347425  1
  Cs  Cs11  1  0.33058659  0.00111322  0.66599389  1
  Cs  Cs12  1  0.33508500  0.33198833  0.00147590  1
  Cs  Cs13  1  0.33252719  0.33114635  0.33437073  1
  Cs  Cs14  1  0.33120608  0.32742089  0.66307128  1
  Cs  Cs15  1  0.33483316  0.66687476  -0.00008385  1
  Cs  Cs16  1  0.33441980  0.66850701  0.33232163  1
  Cs  Cs17  1  0.33604490  0.66992679  0.66803867  1
  Cs  Cs18  1  0.66755769  0.00077323  0.00035386  1
  Cs  Cs19  1  0.66953088  -0.00146527  0.33343818  1
  Cs  Cs20  1  0.66771203  0.00036940  0.66642009  1
  Cs  Cs21  1  0.66541308  0.33052677  -0.00218381  1
  Cs  Cs22  1  0.66680688  0.33093278  0.33336206  1
  Cs  Cs23  1  0.66568377  0.33206985  0.66834385  1
  Cs  Cs24  1  0.66448984  0.66896443  -0.00044200  1
  Cs  Cs25  1  0.66614328  0.67055255  0.33421544  1
  Cs  Cs26  1  0.66610348  0.66733199  0.66627571  1
  Sn  Sn27  1  0.50074877  0.83401249  0.83247052  1
  Sn  Sn28  1  0.50000884  0.83310736  0.50072165  1
  Sn  Sn29  1  0.49946370  0.16684974  0.16617673  1
  Sn  Sn30  1  0.50016093  0.50051780  0.50001254  1
  Sn  Sn31  1  0.50015839  0.49972232  0.83296344  1
  Sn  Sn32  1  0.16645568  0.83378687  0.49918117  1
  Sn  Sn33  1  0.83266905  0.83404038  0.83303868  1
  Sn  Sn34  1  0.50036557  0.16608936  0.83393309  1
  Sn  Sn35  1  0.83358480  0.83414733  0.50079608  1
  Sn  Sn36  1  0.83308796  0.16614164  0.83224159  1
  Sn  Sn37  1  0.16640439  0.83419362  0.16711814  1
  Sn  Sn38  1  0.83379140  0.16644132  0.50090026  1
  Sn  Sn39  1  0.50011301  0.49909341  0.16695976  1
  Sn  Sn40  1  0.16692693  0.16570402  0.16674965  1
  Pb  Pb41  1  0.49872211  0.83397037  0.16646711  1
  Pb  Pb42  1  0.17025634  0.49980284  0.83294221  1
  Pb  Pb43  1  0.82953188  0.50018346  0.16663700  1
  Pb  Pb44  1  0.16580437  0.16661029  0.83541595  1
  Pb  Pb45  1  0.16995382  0.50298030  0.50016421  1
  Pb  Pb46  1  0.50133243  0.16598518  0.49998796  1
  Pb  Pb47  1  0.16959915  0.50001778  0.16682793  1
  Pb  Pb48  1  0.16604731  0.83347165  0.83329538  1
  Pb  Pb49  1  0.16302388  0.16455844  0.49754202  1
  Pb  Pb50  1  0.83351248  0.16661103  0.16623299  1
  Pb  Pb51  1  0.83652774  0.83314006  0.16586224  1
  Pb  Pb52  1  0.83068612  0.50033922  0.50014744  1
  Pb  Pb53  1  0.83095986  0.49995028  0.83315753  1
  I  I54  1  0.17440913  0.00005316  0.16979699  1
  I  I55  1  0.17391918  -0.00365832  0.49829235  1
  I  I56  1  0.17339681  -0.00013913  0.83313330  1
  I  I57  1  0.16891099  0.33051819  0.16492725  1
  I  I58  1  0.16669127  0.33320780  0.49875789  1
  I  I59  1  0.16571403  0.33305741  0.83577267  1
  I  I60  1  0.16752948  0.66945945  0.17064044  1
  I  I61  1  0.16168226  0.67141707  0.49310589  1
  I  I62  1  0.16646358  0.66705530  0.83671907  1
  I  I63  1  0.49770866  0.00270059  0.16337661  1
  I  I64  1  0.49847839  -0.00332415  0.50213210  1
  I  I65  1  0.50357646  -0.00013580  0.83404046  1
  I  I66  1  0.49490766  0.33259405  0.16374555  1
  I  I67  1  0.50285339  0.33530036  0.50169943  1
  I  I68  1  0.50390607  0.33268322  0.83503714  1
  I  I69  1  0.49831291  0.66478976  0.16435859  1
  I  I70  1  0.50129956  0.66805290  0.50212169  1
  I  I71  1  0.50301711  0.66745552  0.83322796  1
  I  I72  1  0.82791798  -0.00011425  0.16754957  1
  I  I73  1  0.82981061  -0.00142274  0.50332740  1
  I  I74  1  0.82381303  -0.00030857  0.82912577  1
  I  I75  1  0.83871311  0.33302394  0.16766775  1
  I  I76  1  0.82981627  0.33046100  0.50311155  1
  I  I77  1  0.82794130  0.32993692  0.83042339  1
  I  I78  1  0.83367725  0.66700756  0.16694262  1
  I  I79  1  0.83482811  0.67049761  0.50418482  1
  I  I80  1  0.82938009  0.67013087  0.82861779  1
  I  I81  1  0.16834638  0.15919751  0.00348047  1
  I  I82  1  0.17462082  0.16403956  0.32985836  1
  I  I83  1  0.17065059  0.16526415  0.66642444  1
  I  I84  1  0.16757214  0.50328195  0.00029140  1
  I  I85  1  0.16931444  0.49835871  0.33340556  1
  I  I86  1  0.16817966  0.50139581  0.66631121  1
  I  I87  1  0.16911983  0.83709663  0.00261780  1
  I  I88  1  0.16897562  0.83751097  0.33408857  1
  I  I89  1  0.16838321  0.83245997  0.66367203  1
  I  I90  1  0.50177949  0.16943160  -0.00077836  1
  I  I91  1  0.49797484  0.16990259  0.33097618  1
  I  I92  1  0.50261705  0.16911917  0.66944052  1
  I  I93  1  0.49990866  0.49998564  -0.00045832  1
  I  I94  1  0.49972225  0.50082335  0.33348925  1
  I  I95  1  0.50086486  0.50217909  0.66699606  1
  I  I96  1  0.50267094  0.83088063  -0.00293118  1
  I  I97  1  0.50198529  0.83017731  0.33608679  1
  I  I98  1  0.49846806  0.82989614  0.66654444  1
  I  I99  1  0.83034911  0.16116796  -0.00337989  1
  I  I100  1  0.83132957  0.16079941  0.33594858  1
  I  I101  1  0.82488105  0.16106253  0.66745418  1
  I  I102  1  0.83230017  0.50050061  -0.00034419  1
  I  I103  1  0.83033008  0.49944361  0.33367469  1
  I  I104  1  0.83072117  0.49959099  0.66665273  1
  I  I105  1  0.82685884  0.83859894  -0.00376759  1
  I  I106  1  0.82891101  0.83775762  0.33665489  1
  I  I107  1  0.83318378  0.83761793  0.66620969  1
  I  I108  1  0.00269822  0.15957007  0.16725476  1
  I  I109  1  -0.00476239  0.15973729  0.50563406  1
  I  I110  1  -0.00380867  0.15829146  0.83070630  1
  I  I111  1  0.00041701  0.49930392  0.16642956  1
  I  I112  1  -0.00000716  0.49985694  0.49854569  1
  I  I113  1  -0.00028688  0.50054698  0.83493519  1
  I  I114  1  0.00438415  0.84167938  0.17070668  1
  I  I115  1  -0.00086565  0.84013985  0.49996874  1
  I  I116  1  -0.00353676  0.84041639  0.83023290  1
  I  I117  1  0.33496841  0.16684644  0.16133476  1
  I  I118  1  0.33327767  0.16654872  0.50183567  1
  I  I119  1  0.33685546  0.16668868  0.83570251  1
  I  I120  1  0.33765497  0.49922674  0.16568874  1
  I  I121  1  0.33831430  0.50423029  0.50015222  1
  I  I122  1  0.33917590  0.50199455  0.83450525  1
  I  I123  1  0.33094827  0.83412611  0.17078877  1
  I  I124  1  0.33438867  0.82782324  0.49987724  1
  I  I125  1  0.33673348  0.83265617  0.83059701  1
  I  I126  1  0.66359915  0.17170783  0.16504764  1
  I  I127  1  0.66909633  0.16113681  0.49862988  1
  I  I128  1  0.66516196  0.16618583  0.83591239  1
  I  I129  1  0.66117934  0.49389026  0.16619011  1
  I  I130  1  0.66242585  0.50648593  0.50010500  1
  I  I131  1  0.66234451  0.50035072  0.83348757  1
  I  I132  1  0.66656277  0.83284038  0.16945432  1
  I  I133  1  0.66621385  0.83237045  0.50414021  1
  I  I134  1  0.66531327  0.83327999  0.82627979  1
