# generated using pymatgen
data_Cs27Sn13Pb14I81
_symmetry_space_group_name_H-M   'P 1'
_cell_length_a   18.97763361
_cell_length_b   18.98100512
_cell_length_c   18.97172024
_cell_angle_alpha   90.00050929
_cell_angle_beta   90.00098439
_cell_angle_gamma   90.00004811
_symmetry_Int_Tables_number   1
_chemical_formula_structural   Cs27Sn13Pb14I81
_chemical_formula_sum   'Cs27 Sn13 Pb14 I81'
_cell_volume   6833.88987373
_cell_formula_units_Z   1
loop_
 _symmetry_equiv_pos_site_id
 _symmetry_equiv_pos_as_xyz
  1  'x, y, z'
loop_
 _atom_site_type_symbol
 _atom_site_label
 _atom_site_symmetry_multiplicity
 _atom_site_fract_x
 _atom_site_fract_y
 _atom_site_fract_z
 _atom_site_occupancy
  Cs  Cs0  1  0.00092889  -0.00111416  -0.00234258  1
  Cs  Cs1  1  0.00035739  0.00322599  0.33527310  1
  Cs  Cs2  1  -0.00154878  0.00012379  0.66689098  1
  Cs  Cs3  1  0.00254603  0.33233713  -0.00071606  1
  Cs  Cs4  1  -0.00261114  0.32983917  0.33393704  1
  Cs  Cs5  1  0.00064734  0.33534279  0.66678871  1
  Cs  Cs6  1  -0.00273489  0.66823316  -0.00020667  1
  Cs  Cs7  1  -0.00370027  0.66363945  0.33586738  1
  Cs  Cs8  1  0.00384099  0.66245997  0.66422043  1
  Cs  Cs9  1  0.33100397  -0.00223625  0.00224697  1
  Cs  Cs10  1  0.33318727  -0.00158326  0.33323180  1
  Cs  Cs11  1  0.33423989  -0.00174833  0.66372292  1
  Cs  Cs12  1  0.33240072  0.33605074  0.00144746  1
  Cs  Cs13  1  0.33489234  0.33036862  0.32765287  1
  Cs  Cs14  1  0.34013823  0.34019094  0.66977148  1
  Cs  Cs15  1  0.33353003  0.66732762  -0.00058262  1
  Cs  Cs16  1  0.33313849  0.67036416  0.33562396  1
  Cs  Cs17  1  0.33115884  0.66279805  0.66260402  1
  Cs  Cs18  1  0.66848516  -0.00247647  -0.00322461  1
  Cs  Cs19  1  0.66669296  0.00071889  0.33452278  1
  Cs  Cs20  1  0.66780185  0.00362909  0.66784932  1
  Cs  Cs21  1  0.66558313  0.33252086  -0.00261324  1
  Cs  Cs22  1  0.66920566  0.33433373  0.33450245  1
  Cs  Cs23  1  0.65819297  0.33262197  0.66963424  1
  Cs  Cs24  1  0.66923958  0.67014966  0.00268468  1
  Cs  Cs25  1  0.67021968  0.66270415  0.33216473  1
  Cs  Cs26  1  0.66547134  0.66325681  0.66373347  1
  Sn  Sn27  1  0.49948846  0.83330225  0.16602964  1
  Sn  Sn28  1  0.49914509  0.83348215  0.83366692  1
  Sn  Sn29  1  0.50151008  0.16609196  0.16642719  1
  Sn  Sn30  1  0.16680326  0.83221616  0.16634198  1
  Sn  Sn31  1  0.16687087  0.50152444  0.16677234  1
  Sn  Sn32  1  0.83238754  0.16608283  0.16656161  1
  Sn  Sn33  1  0.16760140  0.83404055  0.83368121  1
  Sn  Sn34  1  0.83336343  0.49990675  0.83356348  1
  Sn  Sn35  1  0.83340040  0.83398093  0.49998324  1
  Sn  Sn36  1  0.16707681  0.16622724  0.83171061  1
  Sn  Sn37  1  0.83396563  0.16578689  0.49967827  1
  Sn  Sn38  1  0.16665851  0.16678999  0.50175954  1
  Sn  Sn39  1  0.49930673  0.50053918  0.16640855  1
  Pb  Pb40  1  0.83340590  0.49744734  0.16514289  1
  Pb  Pb41  1  0.50187758  0.50301908  0.83595872  1
  Pb  Pb42  1  0.16682468  0.49658168  0.49671146  1
  Pb  Pb43  1  0.83364328  0.83552324  0.16830186  1
  Pb  Pb44  1  0.83510452  0.16823056  0.83284440  1
  Pb  Pb45  1  0.83365749  0.83169575  0.83081701  1
  Pb  Pb46  1  0.49991108  0.16663092  0.49802907  1
  Pb  Pb47  1  0.49693024  0.16438173  0.83596658  1
  Pb  Pb48  1  0.16496612  0.83494785  0.49988371  1
  Pb  Pb49  1  0.49975296  0.50010940  0.49686095  1
  Pb  Pb50  1  0.50242498  0.83340169  0.49975755  1
  Pb  Pb51  1  0.16672516  0.16608757  0.16656873  1
  Pb  Pb52  1  0.16565666  0.50057767  0.83531368  1
  Pb  Pb53  1  0.83329863  0.49867688  0.50258089  1
  I  I54  1  0.16965818  -0.00255114  0.16574661  1
  I  I55  1  0.16371289  0.00296951  0.49760872  1
  I  I56  1  0.16797842  -0.00078828  0.83733648  1
  I  I57  1  0.16954836  0.33475826  0.16671565  1
  I  I58  1  0.15850419  0.32857596  0.50314758  1
  I  I59  1  0.16251383  0.33102624  0.83259237  1
  I  I60  1  0.17354651  0.66789775  0.16097973  1
  I  I61  1  0.16410936  0.66670871  0.50177709  1
  I  I62  1  0.16843000  0.66998578  0.83664907  1
  I  I63  1  0.49879488  -0.00071539  0.16396117  1
  I  I64  1  0.49898738  0.00003007  0.49605001  1
  I  I65  1  0.50045445  -0.00340165  0.84004535  1
  I  I66  1  0.49857318  0.33322601  0.16883271  1
  I  I67  1  0.50237070  0.33310060  0.49874746  1
  I  I68  1  0.50029392  0.33337062  0.83447022  1
  I  I69  1  0.49531529  0.66748151  0.16256781  1
  I  I70  1  0.50308502  0.66703413  0.49833065  1
  I  I71  1  0.49451669  0.67074351  0.83922651  1
  I  I72  1  0.83084656  0.00348587  0.16773329  1
  I  I73  1  0.83700056  0.00142135  0.49610948  1
  I  I74  1  0.83244434  -0.00004726  0.83467095  1
  I  I75  1  0.83135405  0.32958631  0.17225592  1
  I  I76  1  0.83813933  0.32955465  0.49483378  1
  I  I77  1  0.83606223  0.33570199  0.83428419  1
  I  I78  1  0.83149119  0.66677447  0.16823633  1
  I  I79  1  0.83276417  0.66877118  0.50055389  1
  I  I80  1  0.83477835  0.66438170  0.83393485  1
  I  I81  1  0.16622153  0.16555339  -0.00175726  1
  I  I82  1  0.16468827  0.16714388  0.33492236  1
  I  I83  1  0.15877980  0.15989865  0.66691049  1
  I  I84  1  0.16965587  0.49747461  0.00337276  1
  I  I85  1  0.16959303  0.50498475  0.32852738  1
  I  I86  1  0.16392106  0.50197011  0.66677299  1
  I  I87  1  0.16946311  0.83633578  0.00042348  1
  I  I88  1  0.17069468  0.83214967  0.33018086  1
  I  I89  1  0.16926147  0.83638561  0.66962095  1
  I  I90  1  0.50460520  0.16873319  0.00432082  1
  I  I91  1  0.49826244  0.16435539  0.32915819  1
  I  I92  1  0.50288966  0.16489597  0.66713669  1
  I  I93  1  0.49626780  0.49682575  0.00405390  1
  I  I94  1  0.49797503  0.50237618  0.32804909  1
  I  I95  1  0.50234315  0.50066155  0.66731209  1
  I  I96  1  0.49675632  0.83374916  0.00151463  1
  I  I97  1  0.49571013  0.83378730  0.32941159  1
  I  I98  1  0.49649720  0.83399157  0.66973776  1
  I  I99  1  0.83153324  0.16872729  0.00235903  1
  I  I100  1  0.83627405  0.16406898  0.33334568  1
  I  I101  1  0.83724139  0.16351783  0.66374991  1
  I  I102  1  0.83395625  0.49940648  -0.00218388  1
  I  I103  1  0.83275258  0.50087838  0.33322236  1
  I  I104  1  0.83547295  0.50013192  0.66994826  1
  I  I105  1  0.83339195  0.83395817  -0.00003939  1
  I  I106  1  0.83365773  0.83534664  0.33601315  1
  I  I107  1  0.83323992  0.84041029  0.66342677  1
  I  I108  1  -0.00174806  0.16719917  0.16819088  1
  I  I109  1  -0.00061834  0.16270600  0.49584218  1
  I  I110  1  0.00305281  0.16099274  0.83646114  1
  I  I111  1  0.00255940  0.50271158  0.16462105  1
  I  I112  1  0.00000201  0.50214340  0.49712079  1
  I  I113  1  -0.00195161  0.50136107  0.83670987  1
  I  I114  1  0.00305969  0.83103295  0.16279446  1
  I  I115  1  -0.00278817  0.83659784  0.49940639  1
  I  I116  1  0.00320240  0.83603843  0.83794360  1
  I  I117  1  0.33550572  0.16710872  0.16661667  1
  I  I118  1  0.33034740  0.16587746  0.50057073  1
  I  I119  1  0.32896857  0.16622685  0.82972095  1
  I  I120  1  0.33359370  0.49670449  0.16541813  1
  I  I121  1  0.33302757  0.49931327  0.50390158  1
  I  I122  1  0.33350284  0.49743263  0.83328350  1
  I  I123  1  0.33336045  0.83521430  0.16352890  1
  I  I124  1  0.33319852  0.83536634  0.49900271  1
  I  I125  1  0.33244619  0.83769497  0.83900760  1
  I  I126  1  0.66642693  0.16710514  0.17238972  1
  I  I127  1  0.66982239  0.16309227  0.49637669  1
  I  I128  1  0.66634502  0.16658185  0.83193022  1
  I  I129  1  0.66388263  0.50268318  0.16507659  1
  I  I130  1  0.66689802  0.49922790  0.49830844  1
  I  I131  1  0.66932730  0.49969262  0.83492806  1
  I  I132  1  0.66373153  0.83151724  0.16359136  1
  I  I133  1  0.67018133  0.84020821  0.49971974  1
  I  I134  1  0.66421876  0.83100743  0.83862243  1
