# generated using pymatgen
data_Cs27Sn14Pb13I81
_symmetry_space_group_name_H-M   'P 1'
_cell_length_a   18.96185195
_cell_length_b   18.95739129
_cell_length_c   18.96582456
_cell_angle_alpha   90.00024372
_cell_angle_beta   89.99912421
_cell_angle_gamma   89.99867833
_symmetry_Int_Tables_number   1
_chemical_formula_structural   Cs27Sn14Pb13I81
_chemical_formula_sum   'Cs27 Sn14 Pb13 I81'
_cell_volume   6817.59273801
_cell_formula_units_Z   1
loop_
 _symmetry_equiv_pos_site_id
 _symmetry_equiv_pos_as_xyz
  1  'x, y, z'
loop_
 _atom_site_type_symbol
 _atom_site_label
 _atom_site_symmetry_multiplicity
 _atom_site_fract_x
 _atom_site_fract_y
 _atom_site_fract_z
 _atom_site_occupancy
  Cs  Cs0  1  -0.00050228  0.00052807  -0.00049440  1
  Cs  Cs1  1  0.00071048  0.00008479  0.33461022  1
  Cs  Cs2  1  0.00042315  -0.00068678  0.66656984  1
  Cs  Cs3  1  -0.00345122  0.33286021  0.00159589  1
  Cs  Cs4  1  -0.00084307  0.33467536  0.33344499  1
  Cs  Cs5  1  0.00135175  0.33311299  0.66538150  1
  Cs  Cs6  1  0.00041790  0.66650593  0.00432919  1
  Cs  Cs7  1  0.00100669  0.66582918  0.32736634  1
  Cs  Cs8  1  -0.00039622  0.66705227  0.66691963  1
  Cs  Cs9  1  0.33692342  -0.00112428  0.00328087  1
  Cs  Cs10  1  0.33355060  -0.00119450  0.33140331  1
  Cs  Cs11  1  0.33079184  0.00104242  0.66645866  1
  Cs  Cs12  1  0.33590080  0.33205404  -0.00300065  1
  Cs  Cs13  1  0.33272380  0.33415852  0.33716112  1
  Cs  Cs14  1  0.33269008  0.33425243  0.66519125  1
  Cs  Cs15  1  0.33284889  0.66833254  0.00179687  1
  Cs  Cs16  1  0.33190602  0.66765421  0.32905023  1
  Cs  Cs17  1  0.33315756  0.66420378  0.66736524  1
  Cs  Cs18  1  0.66300080  0.00542573  -0.00440848  1
  Cs  Cs19  1  0.66443288  -0.00328640  0.33369309  1
  Cs  Cs20  1  0.66861453  -0.00841009  0.67068738  1
  Cs  Cs21  1  0.66808750  0.32955669  0.00275711  1
  Cs  Cs22  1  0.66754918  0.33309467  0.33301442  1
  Cs  Cs23  1  0.66595512  0.33462450  0.66554663  1
  Cs  Cs24  1  0.66695570  0.66509670  -0.00134403  1
  Cs  Cs25  1  0.66690739  0.66854646  0.33527751  1
  Cs  Cs26  1  0.66784306  0.66923577  0.66602945  1
  Sn  Sn27  1  0.16631444  0.50004128  0.83323578  1
  Sn  Sn28  1  0.83282107  0.49934470  0.50065074  1
  Sn  Sn29  1  0.83281413  0.83395600  0.16641169  1
  Sn  Sn30  1  0.83295371  0.16690586  0.50033623  1
  Sn  Sn31  1  0.16668470  0.83329578  0.83260668  1
  Sn  Sn32  1  0.50074808  0.49939310  0.49983556  1
  Sn  Sn33  1  0.16662955  0.16594521  0.49989545  1
  Sn  Sn34  1  0.50039591  0.16683437  0.50050578  1
  Sn  Sn35  1  0.49995363  0.49976406  0.16701901  1
  Sn  Sn36  1  0.16668840  0.83370242  0.50041803  1
  Sn  Sn37  1  0.83345429  0.49969231  0.83256559  1
  Sn  Sn38  1  0.16659256  0.16718069  0.16681781  1
  Sn  Sn39  1  0.50033628  0.49977211  0.83333980  1
  Sn  Sn40  1  0.16664809  0.16655322  0.83363346  1
  Pb  Pb41  1  0.16869054  0.49755160  0.16351054  1
  Pb  Pb42  1  0.49814225  0.16857616  0.83075398  1
  Pb  Pb43  1  0.83568774  0.83287040  0.49882677  1
  Pb  Pb44  1  0.83522463  0.16868206  0.83097338  1
  Pb  Pb45  1  0.50282734  0.83141498  0.16658442  1
  Pb  Pb46  1  0.16650027  0.50009821  0.50126076  1
  Pb  Pb47  1  0.16551512  0.83554212  0.16640577  1
  Pb  Pb48  1  0.49729949  0.83300244  0.50011968  1
  Pb  Pb49  1  0.83123886  0.50103584  0.16704521  1
  Pb  Pb50  1  0.49806346  0.16865485  0.16914362  1
  Pb  Pb51  1  0.49751145  0.83100751  0.83322006  1
  Pb  Pb52  1  0.83557801  0.83106348  0.83544084  1
  Pb  Pb53  1  0.83484253  0.16449315  0.16914041  1
  I  I54  1  0.16599996  0.00340542  0.16439354  1
  I  I55  1  0.16626179  0.00181624  0.50443828  1
  I  I56  1  0.16569162  0.00069032  0.83110868  1
  I  I57  1  0.16599092  0.32973726  0.17023146  1
  I  I58  1  0.16698740  0.33045183  0.50100478  1
  I  I59  1  0.16755186  0.33343711  0.83194829  1
  I  I60  1  0.16684161  0.66654204  0.16724235  1
  I  I61  1  0.16642259  0.66871987  0.50500480  1
  I  I62  1  0.16729698  0.66609021  0.82779984  1
  I  I63  1  0.49899132  0.00041995  0.16875320  1
  I  I64  1  0.50078680  0.00318236  0.49883608  1
  I  I65  1  0.49830974  0.00028687  0.83236164  1
  I  I66  1  0.50024068  0.33689253  0.16412230  1
  I  I67  1  0.49718003  0.33420173  0.50048833  1
  I  I68  1  0.49661261  0.33737934  0.83421067  1
  I  I69  1  0.49792761  0.66274580  0.16925109  1
  I  I70  1  0.50333587  0.66279240  0.50094943  1
  I  I71  1  0.49741403  0.66190812  0.82994310  1
  I  I72  1  0.83669070  -0.00285552  0.16918949  1
  I  I73  1  0.83305527  0.00272471  0.49701325  1
  I  I74  1  0.83586978  0.00008357  0.83262317  1
  I  I75  1  0.83395329  0.33323295  0.16548258  1
  I  I76  1  0.83576556  0.33378369  0.50273198  1
  I  I77  1  0.83583681  0.33732994  0.83273432  1
  I  I78  1  0.83557752  0.66858544  0.16874041  1
  I  I79  1  0.82988589  0.66340009  0.50273819  1
  I  I80  1  0.83492201  0.66244929  0.82710501  1
  I  I81  1  0.16643262  0.16796250  -0.00109248  1
  I  I82  1  0.16696751  0.16184361  0.33522968  1
  I  I83  1  0.16697596  0.16657594  0.66603356  1
  I  I84  1  0.16579115  0.50136612  -0.00485393  1
  I  I85  1  0.16677217  0.50047808  0.33323435  1
  I  I86  1  0.17024271  0.49657445  0.66957716  1
  I  I87  1  0.16505470  0.83236016  -0.00302700  1
  I  I88  1  0.16539618  0.83788066  0.33578302  1
  I  I89  1  0.16594437  0.83757252  0.66691177  1
  I  I90  1  0.49684483  0.16903413  -0.00019932  1
  I  I91  1  0.49684339  0.17313181  0.33740642  1
  I  I92  1  0.49644451  0.17352759  0.66251415  1
  I  I93  1  0.49794453  0.50208835  -0.00107380  1
  I  I94  1  0.50444671  0.49600992  0.33490103  1
  I  I95  1  0.49922604  0.49599904  0.66636009  1
  I  I96  1  0.49675239  0.83058196  -0.00010969  1
  I  I97  1  0.49659684  0.82993675  0.33356397  1
  I  I98  1  0.50210387  0.83072065  0.66650670  1
  I  I99  1  0.83660466  0.16783037  -0.00017331  1
  I  I100  1  0.83700001  0.17359591  0.33755201  1
  I  I101  1  0.83656076  0.16834281  0.66254513  1
  I  I102  1  0.83415507  0.50283751  -0.00275542  1
  I  I103  1  0.82970531  0.49766768  0.33656387  1
  I  I104  1  0.83015580  0.49710068  0.66622413  1
  I  I105  1  0.83736157  0.82990500  0.00268843  1
  I  I106  1  0.83745926  0.83063455  0.33145202  1
  I  I107  1  0.83371913  0.83396322  0.66673964  1
  I  I108  1  0.00330197  0.16735533  0.16850192  1
  I  I109  1  0.00099730  0.16737500  0.50041045  1
  I  I110  1  0.00408816  0.16956674  0.83049203  1
  I  I111  1  -0.00000924  0.50062019  0.16675965  1
  I  I112  1  -0.00242501  0.49723151  0.50474898  1
  I  I113  1  0.00037892  0.49969216  0.82773234  1
  I  I114  1  -0.00187685  0.83092465  0.16758679  1
  I  I115  1  0.00363249  0.83740699  0.50351426  1
  I  I116  1  0.00404017  0.83135610  0.82947377  1
  I  I117  1  0.32975609  0.16644895  0.16811400  1
  I  I118  1  0.33241553  0.16820369  0.50051951  1
  I  I119  1  0.32925093  0.16962953  0.83038895  1
  I  I120  1  0.33655325  0.49987517  0.16945154  1
  I  I121  1  0.33582195  0.49708531  0.50136595  1
  I  I122  1  0.33310152  0.49959868  0.83232697  1
  I  I123  1  0.33321539  0.83285717  0.16683731  1
  I  I124  1  0.32909179  0.83673682  0.50297893  1
  I  I125  1  0.32877559  0.83147795  0.83016619  1
  I  I126  1  0.66650402  0.16657128  0.16801161  1
  I  I127  1  0.66667910  0.17418535  0.49829684  1
  I  I128  1  0.66668379  0.16837488  0.83313168  1
  I  I129  1  0.66342442  0.50062438  0.16298140  1
  I  I130  1  0.66644837  0.49295710  0.50396927  1
  I  I131  1  0.66648623  0.50058719  0.83210238  1
  I  I132  1  0.67026740  0.83184951  0.16977961  1
  I  I133  1  0.66686852  0.83549254  0.49774156  1
  I  I134  1  0.66691303  0.83136112  0.83428744  1
