# generated using pymatgen
data_Cs27Sn13Pb14I81
_symmetry_space_group_name_H-M   'P 1'
_cell_length_a   18.98953538
_cell_length_b   18.96856957
_cell_length_c   18.97402734
_cell_angle_alpha   89.99691264
_cell_angle_beta   89.99959908
_cell_angle_gamma   89.99945344
_symmetry_Int_Tables_number   1
_chemical_formula_structural   Cs27Sn13Pb14I81
_chemical_formula_sum   'Cs27 Sn13 Pb14 I81'
_cell_volume   6834.52666117
_cell_formula_units_Z   1
loop_
 _symmetry_equiv_pos_site_id
 _symmetry_equiv_pos_as_xyz
  1  'x, y, z'
loop_
 _atom_site_type_symbol
 _atom_site_label
 _atom_site_symmetry_multiplicity
 _atom_site_fract_x
 _atom_site_fract_y
 _atom_site_fract_z
 _atom_site_occupancy
  Cs  Cs0  1  -0.00239363  0.00049920  0.00110108  1
  Cs  Cs1  1  -0.00036576  0.00075756  0.33239578  1
  Cs  Cs2  1  0.00053003  -0.00094529  0.66651238  1
  Cs  Cs3  1  -0.00018291  0.33325615  -0.00149577  1
  Cs  Cs4  1  -0.00240289  0.33190052  0.33313704  1
  Cs  Cs5  1  0.00178693  0.33210389  0.66863871  1
  Cs  Cs6  1  0.00067025  0.66601897  0.00097236  1
  Cs  Cs7  1  0.00034613  0.66683542  0.33530194  1
  Cs  Cs8  1  -0.00067184  0.66761838  0.66467153  1
  Cs  Cs9  1  0.33494423  -0.00133972  0.00262685  1
  Cs  Cs10  1  0.33291541  0.00256999  0.33455259  1
  Cs  Cs11  1  0.33264157  0.00015308  0.66434698  1
  Cs  Cs12  1  0.33266495  0.34313218  -0.00501409  1
  Cs  Cs13  1  0.33643738  0.33055083  0.33450813  1
  Cs  Cs14  1  0.33850620  0.32881341  0.67268013  1
  Cs  Cs15  1  0.33208021  0.65811784  0.00499121  1
  Cs  Cs16  1  0.33164527  0.66458545  0.32690365  1
  Cs  Cs17  1  0.33140587  0.66977384  0.66855017  1
  Cs  Cs18  1  0.66815274  0.00051620  0.00091045  1
  Cs  Cs19  1  0.66826022  -0.00030674  0.33049614  1
  Cs  Cs20  1  0.66636319  -0.00194549  0.66888569  1
  Cs  Cs21  1  0.66797319  0.33091367  -0.00159810  1
  Cs  Cs22  1  0.66785917  0.33524711  0.33506671  1
  Cs  Cs23  1  0.66004314  0.33512028  0.66632185  1
  Cs  Cs24  1  0.66671135  0.66785748  0.00121501  1
  Cs  Cs25  1  0.66572871  0.66385863  0.33388689  1
  Cs  Cs26  1  0.66827022  0.66728876  0.66516369  1
  Sn  Sn27  1  0.83315281  0.83420921  0.50054513  1
  Sn  Sn28  1  0.83345600  0.16757948  0.16754141  1
  Sn  Sn29  1  0.83334018  0.16603643  0.49987095  1
  Sn  Sn30  1  0.16669103  0.83242640  0.50037780  1
  Sn  Sn31  1  0.83352896  0.83248921  0.83259448  1
  Sn  Sn32  1  0.83337217  0.50081536  0.83374542  1
  Sn  Sn33  1  0.49983511  0.83324186  0.83310049  1
  Sn  Sn34  1  0.16702700  0.49987557  0.50032834  1
  Sn  Sn35  1  0.16669534  0.16688789  0.16623590  1
  Sn  Sn36  1  0.50001804  0.83323855  0.50010968  1
  Sn  Sn37  1  0.83356200  0.49936256  0.16594836  1
  Sn  Sn38  1  0.16659657  0.83345232  0.83325086  1
  Sn  Sn39  1  0.50004483  0.16684300  0.16634602  1
  Pb  Pb40  1  0.16663932  0.83488737  0.16689016  1
  Pb  Pb41  1  0.16429780  0.49736621  0.16891884  1
  Pb  Pb42  1  0.49658702  0.50271418  0.50013344  1
  Pb  Pb43  1  0.50265503  0.16434086  0.49847770  1
  Pb  Pb44  1  0.50260734  0.50298027  0.83314897  1
  Pb  Pb45  1  0.16440420  0.50230201  0.83102680  1
  Pb  Pb46  1  0.83328168  0.16656025  0.83287453  1
  Pb  Pb47  1  0.16496023  0.16643782  0.49886059  1
  Pb  Pb48  1  0.49990437  0.16415445  0.83572317  1
  Pb  Pb49  1  0.49993131  0.83472880  0.16674649  1
  Pb  Pb50  1  0.83453222  0.49998404  0.50045621  1
  Pb  Pb51  1  0.50274101  0.49714182  0.16677408  1
  Pb  Pb52  1  0.16674631  0.16415170  0.83582242  1
  Pb  Pb53  1  0.83339868  0.83314622  0.16678774  1
  I  I54  1  0.16207907  0.00298061  0.16854052  1
  I  I55  1  0.16733601  -0.00355770  0.50233989  1
  I  I56  1  0.16260472  -0.00463335  0.82644590  1
  I  I57  1  0.16695787  0.32947997  0.16970120  1
  I  I58  1  0.16089523  0.33536533  0.49563611  1
  I  I59  1  0.16415502  0.33372837  0.83218961  1
  I  I60  1  0.16508205  0.66633675  0.16546641  1
  I  I61  1  0.16273291  0.66912610  0.50315206  1
  I  I62  1  0.16788259  0.67089558  0.83218797  1
  I  I63  1  0.50454440  0.00285082  0.16657743  1
  I  I64  1  0.49547920  -0.00406358  0.50347185  1
  I  I65  1  0.50414095  -0.00443376  0.82969394  1
  I  I66  1  0.49850727  0.32901702  0.16826836  1
  I  I67  1  0.50062033  0.33309266  0.49795266  1
  I  I68  1  0.50159932  0.33354895  0.83442199  1
  I  I69  1  0.50159807  0.66645864  0.16662253  1
  I  I70  1  0.50773273  0.67146506  0.50308116  1
  I  I71  1  0.49859836  0.67141021  0.82985508  1
  I  I72  1  0.83325799  0.00299939  0.16775888  1
  I  I73  1  0.83550559  -0.00146905  0.49888902  1
  I  I74  1  0.83325919  -0.00356328  0.83286766  1
  I  I75  1  0.83351874  0.33205336  0.16752315  1
  I  I76  1  0.83691993  0.33099464  0.49732980  1
  I  I77  1  0.83471318  0.33594687  0.83505090  1
  I  I78  1  0.83397034  0.66412856  0.16595626  1
  I  I79  1  0.83232708  0.66989247  0.50061101  1
  I  I80  1  0.83324550  0.66839911  0.83336084  1
  I  I81  1  0.16152551  0.16406098  0.00414376  1
  I  I82  1  0.16624329  0.16347080  0.33060520  1
  I  I83  1  0.16351375  0.16789910  0.66653310  1
  I  I84  1  0.16678972  0.50079934  -0.00003544  1
  I  I85  1  0.16301813  0.50918034  0.33636853  1
  I  I86  1  0.16174901  0.50249933  0.66334375  1
  I  I87  1  0.16500131  0.83694377  -0.00312350  1
  I  I88  1  0.16540747  0.83127634  0.33697297  1
  I  I89  1  0.16550805  0.83045761  0.66589540  1
  I  I90  1  0.50514929  0.16257817  0.00387481  1
  I  I91  1  0.49914218  0.16287031  0.33033613  1
  I  I92  1  0.50193176  0.16779330  0.66657025  1
  I  I93  1  0.49777295  0.50295410  0.00002034  1
  I  I94  1  0.50308477  0.50361031  0.33339256  1
  I  I95  1  0.50410500  0.49610715  0.66661345  1
  I  I96  1  0.50205162  0.83647117  -0.00321680  1
  I  I97  1  0.50091926  0.83544509  0.33665993  1
  I  I98  1  0.50112767  0.83401477  0.66643572  1
  I  I99  1  0.83320106  0.16661925  0.00309596  1
  I  I100  1  0.83371997  0.16573838  0.33248710  1
  I  I101  1  0.83513496  0.16405568  0.66370239  1
  I  I102  1  0.83394533  0.50025239  0.00005081  1
  I  I103  1  0.83511202  0.49818574  0.33130739  1
  I  I104  1  0.83541998  0.50285783  0.66909441  1
  I  I105  1  0.83325916  0.83322982  -0.00310037  1
  I  I106  1  0.83385404  0.83468291  0.33660351  1
  I  I107  1  0.83352288  0.83343958  0.66633402  1
  I  I108  1  -0.00152271  0.16906659  0.17088248  1
  I  I109  1  -0.00320018  0.16047851  0.49317444  1
  I  I110  1  -0.00030174  0.16357415  0.83619783  1
  I  I111  1  -0.00353180  0.49451823  0.16350507  1
  I  I112  1  0.00197105  0.50691149  0.49930073  1
  I  I113  1  -0.00348291  0.50595503  0.83692578  1
  I  I114  1  -0.00022244  0.83694732  0.16672334  1
  I  I115  1  -0.00045520  0.83364384  0.50510648  1
  I  I116  1  -0.00074662  0.83038013  0.82737056  1
  I  I117  1  0.33325352  0.16078003  0.16751011  1
  I  I118  1  0.33340281  0.16503394  0.49582475  1
  I  I119  1  0.33331180  0.16455872  0.83451451  1
  I  I120  1  0.33308401  0.49905279  0.16737798  1
  I  I121  1  0.32882672  0.50543123  0.49830059  1
  I  I122  1  0.33311072  0.50098779  0.83346877  1
  I  I123  1  0.33325291  0.83743673  0.16683494  1
  I  I124  1  0.33282374  0.82988064  0.50608826  1
  I  I125  1  0.33312625  0.83737370  0.82599869  1
  I  I126  1  0.66817641  0.16909417  0.17050237  1
  I  I127  1  0.67085211  0.16226066  0.49409342  1
  I  I128  1  0.66696547  0.16377936  0.83618711  1
  I  I129  1  0.67097120  0.49584608  0.16498716  1
  I  I130  1  0.66682340  0.50042475  0.49908082  1
  I  I131  1  0.67086449  0.50506933  0.83618778  1
  I  I132  1  0.66694964  0.83632983  0.16665949  1
  I  I133  1  0.66770431  0.83861027  0.50541096  1
  I  I134  1  0.66759342  0.83032590  0.82750296  1
