# generated using pymatgen
data_Cs27Sn14Pb13I81
_symmetry_space_group_name_H-M   'P 1'
_cell_length_a   18.97599927
_cell_length_b   18.97292380
_cell_length_c   18.97649460
_cell_angle_alpha   89.99960229
_cell_angle_beta   90.00084680
_cell_angle_gamma   89.99942652
_symmetry_Int_Tables_number   1
_chemical_formula_structural   Cs27Sn14Pb13I81
_chemical_formula_sum   'Cs27 Sn14 Pb13 I81'
_cell_volume   6832.11091885
_cell_formula_units_Z   1
loop_
 _symmetry_equiv_pos_site_id
 _symmetry_equiv_pos_as_xyz
  1  'x, y, z'
loop_
 _atom_site_type_symbol
 _atom_site_label
 _atom_site_symmetry_multiplicity
 _atom_site_fract_x
 _atom_site_fract_y
 _atom_site_fract_z
 _atom_site_occupancy
  Cs  Cs0  1  -0.00188480  0.00100962  0.00112563  1
  Cs  Cs1  1  0.00080064  -0.00043787  0.33261663  1
  Cs  Cs2  1  -0.00278309  -0.00050356  0.66697728  1
  Cs  Cs3  1  -0.00040195  0.33174021  -0.00299143  1
  Cs  Cs4  1  -0.00085793  0.33338413  0.33205733  1
  Cs  Cs5  1  -0.00157252  0.33320677  0.66981434  1
  Cs  Cs6  1  0.00482919  0.66910693  -0.00193451  1
  Cs  Cs7  1  0.00037758  0.66745920  0.33412005  1
  Cs  Cs8  1  0.00355648  0.66721727  0.66684036  1
  Cs  Cs9  1  0.34554100  0.00103570  0.00067397  1
  Cs  Cs10  1  0.33095102  0.00549054  0.33349405  1
  Cs  Cs11  1  0.33956000  0.00282793  0.66483985  1
  Cs  Cs12  1  0.33392217  0.33201126  0.00223453  1
  Cs  Cs13  1  0.33141690  0.32557638  0.33225034  1
  Cs  Cs14  1  0.33506560  0.33455269  0.66612580  1
  Cs  Cs15  1  0.33131608  0.66797033  -0.00022564  1
  Cs  Cs16  1  0.33182327  0.66749452  0.33522035  1
  Cs  Cs17  1  0.33035997  0.66425675  0.66546485  1
  Cs  Cs18  1  0.66349740  -0.00246684  -0.00246321  1
  Cs  Cs19  1  0.66913669  -0.00211293  0.33497076  1
  Cs  Cs20  1  0.66736713  0.00078756  0.66838543  1
  Cs  Cs21  1  0.66630348  0.33539024  0.00041230  1
  Cs  Cs22  1  0.66884084  0.33928820  0.33023975  1
  Cs  Cs23  1  0.66713484  0.33368743  0.66687966  1
  Cs  Cs24  1  0.66252307  0.66718904  0.00246386  1
  Cs  Cs25  1  0.66608663  0.66403661  0.33305639  1
  Cs  Cs26  1  0.66633036  0.66562499  0.66441144  1
  Sn  Sn27  1  0.50084951  0.50014461  0.83273331  1
  Sn  Sn28  1  0.49895225  0.50056897  0.50042896  1
  Sn  Sn29  1  0.49979762  0.83267528  0.49979786  1
  Sn  Sn30  1  0.16638131  0.16583457  0.83321571  1
  Sn  Sn31  1  0.83419990  0.16740059  0.83353787  1
  Sn  Sn32  1  0.83358136  0.16597614  0.16658003  1
  Sn  Sn33  1  0.83272889  0.50010561  0.83326361  1
  Sn  Sn34  1  0.16681942  0.83305483  0.49940961  1
  Sn  Sn35  1  0.83356182  0.16625661  0.49976594  1
  Sn  Sn36  1  0.83348761  0.83397431  0.49934809  1
  Sn  Sn37  1  0.16598747  0.83300229  0.16730901  1
  Sn  Sn38  1  0.16640521  0.50040975  0.16767518  1
  Sn  Sn39  1  0.83414176  0.83379266  0.16738965  1
  Sn  Sn40  1  0.16730619  0.50004863  0.49902205  1
  Pb  Pb41  1  0.49975527  0.83317001  0.16962022  1
  Pb  Pb42  1  0.49674479  0.50022374  0.16743506  1
  Pb  Pb43  1  0.83564776  0.50104906  0.16403732  1
  Pb  Pb44  1  0.16684816  0.49847714  0.83314175  1
  Pb  Pb45  1  0.50075012  0.16917198  0.83316959  1
  Pb  Pb46  1  0.16438791  0.16656165  0.50185094  1
  Pb  Pb47  1  0.16488255  0.16577632  0.16445025  1
  Pb  Pb48  1  0.50390036  0.16663259  0.16694079  1
  Pb  Pb49  1  0.83340138  0.83328932  0.83365179  1
  Pb  Pb50  1  0.16681794  0.83662298  0.83338573  1
  Pb  Pb51  1  0.50314153  0.16734931  0.49976994  1
  Pb  Pb52  1  0.49981678  0.83025562  0.83038814  1
  Pb  Pb53  1  0.83380038  0.50057991  0.50145925  1
  I  I54  1  0.16334357  -0.00325965  0.17182754  1
  I  I55  1  0.16870397  -0.00324684  0.49643184  1
  I  I56  1  0.15632588  0.00405738  0.83252092  1
  I  I57  1  0.16598480  0.33548046  0.16956274  1
  I  I58  1  0.17010867  0.33620769  0.49771070  1
  I  I59  1  0.16327259  0.33085588  0.83306373  1
  I  I60  1  0.16024675  0.66740991  0.16957235  1
  I  I61  1  0.16473447  0.66698371  0.49770146  1
  I  I62  1  0.16601753  0.66670223  0.83360005  1
  I  I63  1  0.49437373  -0.00028882  0.16758879  1
  I  I64  1  0.49714623  -0.00307035  0.49850950  1
  I  I65  1  0.50007750  0.00003732  0.83283421  1
  I  I66  1  0.49929211  0.33370761  0.16890261  1
  I  I67  1  0.49634340  0.33690607  0.50478708  1
  I  I68  1  0.50146990  0.33690206  0.82524169  1
  I  I69  1  0.50676537  0.66661676  0.16326722  1
  I  I70  1  0.50188500  0.66659657  0.50444858  1
  I  I71  1  0.50632594  0.66235626  0.83199988  1
  I  I72  1  0.83957132  -0.00049208  0.16641139  1
  I  I73  1  0.83362446  -0.00088771  0.50186311  1
  I  I74  1  0.83818320  0.00300619  0.83256854  1
  I  I75  1  0.83485295  0.33101546  0.16894747  1
  I  I76  1  0.83351275  0.33113762  0.49899974  1
  I  I77  1  0.83384390  0.33239181  0.83227281  1
  I  I78  1  0.83490220  0.66984484  0.17162080  1
  I  I79  1  0.83310440  0.66970632  0.49688920  1
  I  I80  1  0.82955765  0.66391738  0.83197884  1
  I  I81  1  0.15893715  0.16932569  -0.00301012  1
  I  I82  1  0.16536984  0.16810191  0.33329204  1
  I  I83  1  0.15881209  0.16805323  0.66937432  1
  I  I84  1  0.16493211  0.50326532  0.00213366  1
  I  I85  1  0.17081578  0.50351716  0.33452993  1
  I  I86  1  0.16709357  0.50377616  0.66386894  1
  I  I87  1  0.15902116  0.82818041  0.00341052  1
  I  I88  1  0.16491096  0.82896444  0.33431597  1
  I  I89  1  0.16486671  0.82859116  0.66296132  1
  I  I90  1  0.50012919  0.16857865  -0.00021474  1
  I  I91  1  0.49880825  0.16972357  0.33371735  1
  I  I92  1  0.50247689  0.16393113  0.66642374  1
  I  I93  1  0.50372374  0.49704065  -0.00255923  1
  I  I94  1  0.50002578  0.50487949  0.33700815  1
  I  I95  1  0.49810703  0.50372767  0.66561565  1
  I  I96  1  0.50050555  0.83328776  0.00019918  1
  I  I97  1  0.50211087  0.82523766  0.33764090  1
  I  I98  1  0.50066936  0.83292342  0.66200890  1
  I  I99  1  0.83844591  0.16725495  -0.00028537  1
  I  I100  1  0.83282735  0.16158434  0.33344456  1
  I  I101  1  0.83692099  0.16648446  0.66683557  1
  I  I102  1  0.82956715  0.49505174  -0.00370668  1
  I  I103  1  0.83071506  0.49606015  0.33328470  1
  I  I104  1  0.83437762  0.49546084  0.66927934  1
  I  I105  1  0.83936101  0.83591585  0.00324522  1
  I  I106  1  0.83422947  0.84111572  0.33426002  1
  I  I107  1  0.83397558  0.83614329  0.66334684  1
  I  I108  1  -0.00339644  0.16556724  0.16824308  1
  I  I109  1  -0.00379446  0.16340011  0.49905106  1
  I  I110  1  -0.00227108  0.17370508  0.83278840  1
  I  I111  1  0.00327864  0.50105754  0.17218814  1
  I  I112  1  0.00266241  0.50292370  0.49846867  1
  I  I113  1  -0.00211718  0.49635398  0.83283760  1
  I  I114  1  -0.00029909  0.83320171  0.17483788  1
  I  I115  1  0.00001793  0.83296577  0.49640604  1
  I  I116  1  -0.00000603  0.82793214  0.82804456  1
  I  I117  1  0.33295719  0.16679679  0.16345271  1
  I  I118  1  0.33318103  0.16443015  0.50330269  1
  I  I119  1  0.33105944  0.16770044  0.83280012  1
  I  I120  1  0.32884898  0.50672543  0.16438139  1
  I  I121  1  0.33298639  0.50836157  0.50350156  1
  I  I122  1  0.33544472  0.49847627  0.83113110  1
  I  I123  1  0.32981663  0.82797210  0.16926882  1
  I  I124  1  0.33246100  0.82729674  0.49745970  1
  I  I125  1  0.33319144  0.83440596  0.83472722  1
  I  I126  1  0.67244681  0.16116858  0.16382127  1
  I  I127  1  0.67139691  0.16257236  0.50333644  1
  I  I128  1  0.67045164  0.16862720  0.83301468  1
  I  I129  1  0.66689796  0.49870723  0.16794832  1
  I  I130  1  0.66475612  0.50232409  0.50376352  1
  I  I131  1  0.66708711  0.49409858  0.82742950  1
  I  I132  1  0.66995627  0.83846305  0.16966700  1
  I  I133  1  0.66753002  0.83335362  0.49721467  1
  I  I134  1  0.66681388  0.83741405  0.83353257  1
