# generated using pymatgen
data_Cs27Sn14Pb13I81
_symmetry_space_group_name_H-M   'P 1'
_cell_length_a   18.98060832
_cell_length_b   18.97783261
_cell_length_c   18.97041566
_cell_angle_alpha   89.99933228
_cell_angle_beta   89.99933424
_cell_angle_gamma   89.99987202
_symmetry_Int_Tables_number   1
_chemical_formula_structural   Cs27Sn14Pb13I81
_chemical_formula_sum   'Cs27 Sn14 Pb13 I81'
_cell_volume   6833.34874298
_cell_formula_units_Z   1
loop_
 _symmetry_equiv_pos_site_id
 _symmetry_equiv_pos_as_xyz
  1  'x, y, z'
loop_
 _atom_site_type_symbol
 _atom_site_label
 _atom_site_symmetry_multiplicity
 _atom_site_fract_x
 _atom_site_fract_y
 _atom_site_fract_z
 _atom_site_occupancy
  Cs  Cs0  1  -0.00284624  0.00142627  0.00100355  1
  Cs  Cs1  1  0.00075968  0.00198601  0.33436345  1
  Cs  Cs2  1  0.00112782  -0.00019423  0.66574792  1
  Cs  Cs3  1  0.00140873  0.33118575  -0.00147468  1
  Cs  Cs4  1  -0.00202479  0.33089282  0.33305828  1
  Cs  Cs5  1  0.00073797  0.33427467  0.66714353  1
  Cs  Cs6  1  -0.00090108  0.66856913  0.00741346  1
  Cs  Cs7  1  -0.00339062  0.66637360  0.32913818  1
  Cs  Cs8  1  0.00166803  0.66466940  0.66545955  1
  Cs  Cs9  1  0.33911358  -0.00302897  0.00172712  1
  Cs  Cs10  1  0.33455904  0.00119207  0.33537853  1
  Cs  Cs11  1  0.33181088  -0.00148849  0.66406409  1
  Cs  Cs12  1  0.33321187  0.33557540  0.00130144  1
  Cs  Cs13  1  0.33551390  0.33184613  0.33209637  1
  Cs  Cs14  1  0.33154926  0.33573332  0.66648171  1
  Cs  Cs15  1  0.33388769  0.66611795  0.00651302  1
  Cs  Cs16  1  0.33260030  0.66763789  0.33129180  1
  Cs  Cs17  1  0.33276472  0.66525028  0.66625427  1
  Cs  Cs18  1  0.66216838  -0.00816541  -0.00869747  1
  Cs  Cs19  1  0.66512896  0.00297151  0.33461975  1
  Cs  Cs20  1  0.66554253  0.00002200  0.67192881  1
  Cs  Cs21  1  0.66248455  0.33156551  -0.00153323  1
  Cs  Cs22  1  0.66765255  0.33339505  0.33065209  1
  Cs  Cs23  1  0.66547892  0.33498249  0.66820419  1
  Cs  Cs24  1  0.66670166  0.67564769  0.00569470  1
  Cs  Cs25  1  0.67086034  0.66402979  0.33048995  1
  Cs  Cs26  1  0.66514708  0.66493326  0.66583438  1
  Sn  Sn27  1  0.16669985  0.16623592  0.83339454  1
  Sn  Sn28  1  0.83401365  0.16605230  0.49978212  1
  Sn  Sn29  1  0.49908010  0.50078808  0.50047066  1
  Sn  Sn30  1  0.16631191  0.83287628  0.50057596  1
  Sn  Sn31  1  0.83354429  0.50037403  0.83363314  1
  Sn  Sn32  1  0.16656166  0.50066825  0.83279225  1
  Sn  Sn33  1  0.16615143  0.16665899  0.16678042  1
  Sn  Sn34  1  0.49971138  0.50042810  0.83266516  1
  Sn  Sn35  1  0.83363518  0.16647935  0.16663395  1
  Sn  Sn36  1  0.50016224  0.83227265  0.50038221  1
  Sn  Sn37  1  0.16719805  0.50008743  0.50011638  1
  Sn  Sn38  1  0.16590541  0.16696445  0.50013643  1
  Sn  Sn39  1  0.83341904  0.83410186  0.50049617  1
  Sn  Sn40  1  0.16637457  0.83290282  0.83283024  1
  Pb  Pb41  1  0.50021554  0.16713568  0.50018202  1
  Pb  Pb42  1  0.49679064  0.16888598  0.83301145  1
  Pb  Pb43  1  0.83502897  0.16800192  0.83290642  1
  Pb  Pb44  1  0.49722494  0.83060256  0.83090917  1
  Pb  Pb45  1  0.83346397  0.83659804  0.16946050  1
  Pb  Pb46  1  0.83341709  0.49711990  0.16310960  1
  Pb  Pb47  1  0.50059833  0.16649682  0.16650563  1
  Pb  Pb48  1  0.83347148  0.49959052  0.50111880  1
  Pb  Pb49  1  0.16664416  0.83627363  0.16709455  1
  Pb  Pb50  1  0.16650395  0.49761858  0.16709433  1
  Pb  Pb51  1  0.49995993  0.83338163  0.17017562  1
  Pb  Pb52  1  0.83592483  0.83086014  0.83077614  1
  Pb  Pb53  1  0.49998810  0.50002619  0.16710118  1
  I  I54  1  0.16213044  0.00429092  0.16766531  1
  I  I55  1  0.16660757  0.00009459  0.50245053  1
  I  I56  1  0.16520097  0.00029210  0.82880891  1
  I  I57  1  0.16291074  0.32955480  0.16714366  1
  I  I58  1  0.16653083  0.33311962  0.50282514  1
  I  I59  1  0.16656193  0.33385741  0.83033977  1
  I  I60  1  0.16780185  0.66682602  0.16648043  1
  I  I61  1  0.16737082  0.66673106  0.50775708  1
  I  I62  1  0.16681573  0.66573211  0.82397992  1
  I  I63  1  0.49798274  0.00001253  0.16860644  1
  I  I64  1  0.49636168  -0.00267523  0.49826727  1
  I  I65  1  0.49948068  -0.00055586  0.83314654  1
  I  I66  1  0.49935080  0.33328462  0.16937166  1
  I  I67  1  0.49596814  0.33664289  0.50388995  1
  I  I68  1  0.49820130  0.33728365  0.82594331  1
  I  I69  1  0.49953339  0.66662281  0.16443733  1
  I  I70  1  0.49615492  0.66621815  0.50483770  1
  I  I71  1  0.49748274  0.66263366  0.82960821  1
  I  I72  1  0.84104844  0.00435240  0.16813569  1
  I  I73  1  0.83763710  0.00046050  0.49626073  1
  I  I74  1  0.83489297  -0.00018350  0.83530712  1
  I  I75  1  0.83903503  0.32951090  0.17639998  1
  I  I76  1  0.83744395  0.33058171  0.49782435  1
  I  I77  1  0.83664602  0.33607196  0.83004578  1
  I  I78  1  0.83210408  0.66684974  0.16746923  1
  I  I79  1  0.83599667  0.66892886  0.50380553  1
  I  I80  1  0.83610637  0.66299177  0.82889459  1
  I  I81  1  0.16247662  0.16874840  -0.00065555  1
  I  I82  1  0.16308071  0.16669162  0.33494293  1
  I  I83  1  0.16304233  0.16750382  0.66576367  1
  I  I84  1  0.16793765  0.49959915  -0.00369763  1
  I  I85  1  0.17143987  0.50061364  0.33724789  1
  I  I86  1  0.16728343  0.49576425  0.66650721  1
  I  I87  1  0.16682045  0.83161846  -0.00315042  1
  I  I88  1  0.16716622  0.83286013  0.33754585  1
  I  I89  1  0.16674785  0.83728751  0.66516329  1
  I  I90  1  0.49933731  0.16987613  -0.00029940  1
  I  I91  1  0.49477279  0.16847190  0.33375310  1
  I  I92  1  0.50191639  0.16521365  0.66638308  1
  I  I93  1  0.49699807  0.49661334  -0.00346770  1
  I  I94  1  0.49444527  0.50337056  0.33737516  1
  I  I95  1  0.49780453  0.50289738  0.66592674  1
  I  I96  1  0.49873743  0.83267361  -0.00050612  1
  I  I97  1  0.49554046  0.82732541  0.33875842  1
  I  I98  1  0.50107811  0.83222276  0.66274047  1
  I  I99  1  0.84043123  0.17224561  0.00217972  1
  I  I100  1  0.84233098  0.16372982  0.33487287  1
  I  I101  1  0.83817130  0.16426342  0.66349305  1
  I  I102  1  0.83617766  0.49769832  -0.00494071  1
  I  I103  1  0.83303079  0.50193974  0.33346424  1
  I  I104  1  0.83502250  0.49696240  0.66893625  1
  I  I105  1  0.83447034  0.83293042  -0.00031492  1
  I  I106  1  0.83718593  0.83190339  0.33805554  1
  I  I107  1  0.83227998  0.84123132  0.66259685  1
  I  I108  1  0.00118208  0.16751038  0.16876127  1
  I  I109  1  0.00165740  0.16458595  0.49967309  1
  I  I110  1  0.00382202  0.17019201  0.83202538  1
  I  I111  1  0.00009779  0.50159180  0.16752816  1
  I  I112  1  0.00315381  0.50097616  0.50493887  1
  I  I113  1  0.00207139  0.49821929  0.82780980  1
  I  I114  1  0.00014981  0.83051600  0.16827584  1
  I  I115  1  0.00126783  0.83452925  0.50397466  1
  I  I116  1  0.00408971  0.83196142  0.82633384  1
  I  I117  1  0.32987853  0.16749598  0.16814114  1
  I  I118  1  0.32969789  0.16475361  0.50008365  1
  I  I119  1  0.32797326  0.16861802  0.83125425  1
  I  I120  1  0.33304631  0.49634061  0.16322706  1
  I  I121  1  0.33194658  0.50164634  0.50737587  1
  I  I122  1  0.33187971  0.49839281  0.82804158  1
  I  I123  1  0.33296062  0.83610263  0.16806339  1
  I  I124  1  0.33193820  0.83357025  0.50378687  1
  I  I125  1  0.32911347  0.83391217  0.82686901  1
  I  I126  1  0.67030799  0.16897153  0.17538723  1
  I  I127  1  0.66994438  0.16464125  0.49399728  1
  I  I128  1  0.66668199  0.16988248  0.83403770  1
  I  I129  1  0.66675185  0.49572057  0.16863951  1
  I  I130  1  0.66431093  0.50265847  0.50505691  1
  I  I131  1  0.66612005  0.49735105  0.82675744  1
  I  I132  1  0.66684459  0.83587067  0.16680810  1
  I  I133  1  0.66676700  0.83307586  0.49834122  1
  I  I134  1  0.66654429  0.83224407  0.83214503  1
