# generated using pymatgen
data_Cs27Sn13Pb14I81
_symmetry_space_group_name_H-M   'P 1'
_cell_length_a   18.98199164
_cell_length_b   18.97722011
_cell_length_c   18.97110515
_cell_angle_alpha   90.00066533
_cell_angle_beta   90.00078618
_cell_angle_gamma   90.00140777
_symmetry_Int_Tables_number   1
_chemical_formula_structural   Cs27Sn13Pb14I81
_chemical_formula_sum   'Cs27 Sn13 Pb14 I81'
_cell_volume   6833.87457024
_cell_formula_units_Z   1
loop_
 _symmetry_equiv_pos_site_id
 _symmetry_equiv_pos_as_xyz
  1  'x, y, z'
loop_
 _atom_site_type_symbol
 _atom_site_label
 _atom_site_symmetry_multiplicity
 _atom_site_fract_x
 _atom_site_fract_y
 _atom_site_fract_z
 _atom_site_occupancy
  Cs  Cs0  1  -0.00553672  -0.00321922  -0.00227434  1
  Cs  Cs1  1  -0.00680805  0.00434484  0.34180652  1
  Cs  Cs2  1  0.00172956  0.00426283  0.66454885  1
  Cs  Cs3  1  0.00097500  0.33535797  0.00029333  1
  Cs  Cs4  1  0.00503712  0.32902594  0.33607757  1
  Cs  Cs5  1  -0.00224952  0.33294259  0.66649409  1
  Cs  Cs6  1  0.00064732  0.66617437  -0.00000866  1
  Cs  Cs7  1  -0.00389705  0.66755596  0.33382477  1
  Cs  Cs8  1  0.00148169  0.66549028  0.66792829  1
  Cs  Cs9  1  0.33544786  -0.00277964  -0.00212466  1
  Cs  Cs10  1  0.33264122  0.00288431  0.33737351  1
  Cs  Cs11  1  0.33321295  -0.00050120  0.66617210  1
  Cs  Cs12  1  0.33361183  0.33429362  0.00218998  1
  Cs  Cs13  1  0.32840663  0.32855912  0.32622859  1
  Cs  Cs14  1  0.33537349  0.33432400  0.66836826  1
  Cs  Cs15  1  0.33307063  0.66716146  -0.00072141  1
  Cs  Cs16  1  0.33394806  0.66793011  0.33223603  1
  Cs  Cs17  1  0.33523895  0.66654263  0.66625498  1
  Cs  Cs18  1  0.66730502  0.00037649  0.00139510  1
  Cs  Cs19  1  0.67327137  -0.00175643  0.32898598  1
  Cs  Cs20  1  0.66489651  0.00250949  0.66728487  1
  Cs  Cs21  1  0.66593434  0.33261139  -0.00003474  1
  Cs  Cs22  1  0.66767556  0.33360360  0.33407412  1
  Cs  Cs23  1  0.66667407  0.33568209  0.66404304  1
  Cs  Cs24  1  0.66643148  0.66697440  -0.00032210  1
  Cs  Cs25  1  0.66890298  0.66692344  0.33845804  1
  Cs  Cs26  1  0.66382596  0.66266147  0.66115128  1
  Sn  Sn27  1  0.49908000  0.83229471  0.16592421  1
  Sn  Sn28  1  0.83299215  0.83215664  0.83321088  1
  Sn  Sn29  1  0.83378475  0.50099173  0.83417967  1
  Sn  Sn30  1  0.16714823  0.50053488  0.50076910  1
  Sn  Sn31  1  0.16612274  0.49999971  0.83255072  1
  Sn  Sn32  1  0.83255544  0.49990474  0.16573227  1
  Sn  Sn33  1  0.50027589  0.83381831  0.83377091  1
  Sn  Sn34  1  0.16660217  0.83342338  0.83399466  1
  Sn  Sn35  1  0.50090620  0.50100862  0.16631963  1
  Sn  Sn36  1  0.16757071  0.16662451  0.83401741  1
  Sn  Sn37  1  0.49913273  0.16605446  0.83260258  1
  Sn  Sn38  1  0.50003060  0.16655775  0.50056884  1
  Sn  Sn39  1  0.16692448  0.83373097  0.16634079  1
  Pb  Pb40  1  0.83334315  0.83152691  0.16487380  1
  Pb  Pb41  1  0.83367568  0.16996297  0.16628751  1
  Pb  Pb42  1  0.49991880  0.83528919  0.49965456  1
  Pb  Pb43  1  0.16675747  0.83158425  0.50018635  1
  Pb  Pb44  1  0.49996787  0.16578686  0.16610937  1
  Pb  Pb45  1  0.83330637  0.83314117  0.50382494  1
  Pb  Pb46  1  0.49996349  0.50007790  0.83459708  1
  Pb  Pb47  1  0.83034155  0.16689199  0.50034423  1
  Pb  Pb48  1  0.16653465  0.16254375  0.16377222  1
  Pb  Pb49  1  0.49735929  0.49774673  0.49644313  1
  Pb  Pb50  1  0.83560603  0.49998638  0.50015275  1
  Pb  Pb51  1  0.16643124  0.50182335  0.16620618  1
  Pb  Pb52  1  0.16857309  0.16887700  0.50271931  1
  Pb  Pb53  1  0.83301785  0.16706712  0.83344918  1
  I  I54  1  0.17520798  -0.00530096  0.16095059  1
  I  I55  1  0.16766581  0.00029545  0.50010411  1
  I  I56  1  0.16761749  -0.00093261  0.83820438  1
  I  I57  1  0.16715110  0.33343085  0.16619711  1
  I  I58  1  0.16700006  0.33677769  0.50400669  1
  I  I59  1  0.16669658  0.33400029  0.82866185  1
  I  I60  1  0.16875232  0.66949319  0.15959930  1
  I  I61  1  0.16717276  0.66369937  0.50709010  1
  I  I62  1  0.16611762  0.66693740  0.83352870  1
  I  I63  1  0.49525890  -0.00361325  0.16432413  1
  I  I64  1  0.49733265  0.00303568  0.50219250  1
  I  I65  1  0.49720869  -0.00104748  0.83486127  1
  I  I66  1  0.50382807  0.33581659  0.16590539  1
  I  I67  1  0.49962258  0.33034946  0.50814697  1
  I  I68  1  0.49688904  0.33108411  0.83206467  1
  I  I69  1  0.49900145  0.66749674  0.15968969  1
  I  I70  1  0.49966972  0.66645759  0.50243142  1
  I  I71  1  0.49743239  0.66949004  0.83663971  1
  I  I72  1  0.83191484  -0.00055500  0.16504586  1
  I  I73  1  0.83485032  0.00002090  0.50025006  1
  I  I74  1  0.83557466  -0.00308851  0.83364880  1
  I  I75  1  0.82699131  0.33848395  0.15871153  1
  I  I76  1  0.83345689  0.33372218  0.50238154  1
  I  I77  1  0.83685929  0.33676488  0.83675804  1
  I  I78  1  0.83250201  0.66359807  0.16294550  1
  I  I79  1  0.83224951  0.66629418  0.49846041  1
  I  I80  1  0.83743821  0.66635199  0.83781106  1
  I  I81  1  0.17391858  0.17348085  -0.00470678  1
  I  I82  1  0.16876004  0.16889349  0.33348497  1
  I  I83  1  0.16826287  0.16129700  0.67109969  1
  I  I84  1  0.16548900  0.49885072  -0.00329285  1
  I  I85  1  0.16799713  0.50179850  0.33492189  1
  I  I86  1  0.16178063  0.50161899  0.66960304  1
  I  I87  1  0.16835729  0.83054605  -0.00210293  1
  I  I88  1  0.17329529  0.82871377  0.33012912  1
  I  I89  1  0.16736261  0.83476863  0.67089032  1
  I  I90  1  0.49633778  0.16536677  -0.00336705  1
  I  I91  1  0.49994706  0.16882625  0.33550496  1
  I  I92  1  0.49584462  0.16136134  0.66905487  1
  I  I93  1  0.49861926  0.49938335  0.00246026  1
  I  I94  1  0.50460939  0.50515059  0.32872538  1
  I  I95  1  0.50195112  0.50180109  0.66677202  1
  I  I96  1  0.49869852  0.83519202  -0.00140214  1
  I  I97  1  0.49461539  0.83050004  0.32962664  1
  I  I98  1  0.49857824  0.83516433  0.67035716  1
  I  I99  1  0.83031852  0.16516458  -0.00066364  1
  I  I100  1  0.83160051  0.16729330  0.33337773  1
  I  I101  1  0.83530027  0.16820908  0.66737340  1
  I  I102  1  0.83597448  0.50365008  -0.00141993  1
  I  I103  1  0.82984359  0.50030090  0.33029758  1
  I  I104  1  0.83577363  0.50349737  0.67024402  1
  I  I105  1  0.83399238  0.83132014  -0.00364021  1
  I  I106  1  0.83316278  0.83200259  0.33294893  1
  I  I107  1  0.83384915  0.82653080  0.67255013  1
  I  I108  1  0.00034429  0.16770083  0.16478915  1
  I  I109  1  0.00037694  0.16760815  0.50044583  1
  I  I110  1  0.00305407  0.16456472  0.83440979  1
  I  I111  1  -0.00210883  0.50196384  0.16414510  1
  I  I112  1  0.00343034  0.49978943  0.50080959  1
  I  I113  1  0.00067247  0.50266326  0.83533316  1
  I  I114  1  0.00254356  0.83034986  0.16012131  1
  I  I115  1  0.00015305  0.83303476  0.49803904  1
  I  I116  1  0.00101493  0.83228306  0.83778940  1
  I  I117  1  0.33334913  0.17358049  0.16803521  1
  I  I118  1  0.33624075  0.16700178  0.50250217  1
  I  I119  1  0.33348742  0.16398896  0.82994817  1
  I  I120  1  0.33543165  0.50160261  0.16615412  1
  I  I121  1  0.33009043  0.50066668  0.50794525  1
  I  I122  1  0.33060320  0.50182295  0.83174689  1
  I  I123  1  0.33415246  0.82639066  0.15722334  1
  I  I124  1  0.33336980  0.83239013  0.50401128  1
  I  I125  1  0.33316729  0.83373745  0.83707992  1
  I  I126  1  0.66638462  0.16281526  0.16443797  1
  I  I127  1  0.66236266  0.16793897  0.50866830  1
  I  I128  1  0.66333036  0.16352193  0.83046629  1
  I  I129  1  0.66635550  0.50456018  0.16018833  1
  I  I130  1  0.66641114  0.49830977  0.50221711  1
  I  I131  1  0.66902087  0.50261074  0.83649965  1
  I  I132  1  0.66370258  0.83229421  0.16175906  1
  I  I133  1  0.66644050  0.83330667  0.49968700  1
  I  I134  1  0.66574554  0.83441530  0.83780390  1
