# generated using pymatgen
data_Cs27Sn14Pb13I81
_symmetry_space_group_name_H-M   'P 1'
_cell_length_a   19.04232889
_cell_length_b   19.05661116
_cell_length_c   19.04266669
_cell_angle_alpha   90.00295873
_cell_angle_beta   89.99938963
_cell_angle_gamma   90.00151360
_symmetry_Int_Tables_number   1
_chemical_formula_structural   Cs27Sn14Pb13I81
_chemical_formula_sum   'Cs27 Sn14 Pb13 I81'
_cell_volume   6910.24585764
_cell_formula_units_Z   1
loop_
 _symmetry_equiv_pos_site_id
 _symmetry_equiv_pos_as_xyz
  1  'x, y, z'
loop_
 _atom_site_type_symbol
 _atom_site_label
 _atom_site_symmetry_multiplicity
 _atom_site_fract_x
 _atom_site_fract_y
 _atom_site_fract_z
 _atom_site_occupancy
  Cs  Cs0  1  -0.01093085  0.00434956  0.00402764  1
  Cs  Cs1  1  0.00007792  -0.00134196  0.33391716  1
  Cs  Cs2  1  0.00174658  0.00027965  0.66488280  1
  Cs  Cs3  1  -0.00199723  0.32850908  0.00425364  1
  Cs  Cs4  1  0.00028670  0.33846104  0.33162259  1
  Cs  Cs5  1  -0.00208858  0.33377178  0.66594827  1
  Cs  Cs6  1  0.00324063  0.66728643  0.00764642  1
  Cs  Cs7  1  0.00102442  0.66367863  0.33408743  1
  Cs  Cs8  1  0.00225487  0.66391823  0.66377278  1
  Cs  Cs9  1  0.33327929  0.00163631  -0.00327919  1
  Cs  Cs10  1  0.33613559  0.00652785  0.33599949  1
  Cs  Cs11  1  0.33272873  0.00358849  0.66517789  1
  Cs  Cs12  1  0.33474547  0.33533989  0.00025892  1
  Cs  Cs13  1  0.33819689  0.33023190  0.33294388  1
  Cs  Cs14  1  0.33164284  0.32726553  0.66603845  1
  Cs  Cs15  1  0.33973528  0.66509996  -0.00008864  1
  Cs  Cs16  1  0.33072219  0.66613969  0.33596659  1
  Cs  Cs17  1  0.33022033  0.66877591  0.66538087  1
  Cs  Cs18  1  0.68557313  -0.01483968  0.00584299  1
  Cs  Cs19  1  0.66332613  0.00265856  0.32767620  1
  Cs  Cs20  1  0.66638642  0.00220950  0.66625316  1
  Cs  Cs21  1  0.66820181  0.33667987  -0.00404774  1
  Cs  Cs22  1  0.65506377  0.33249326  0.33254510  1
  Cs  Cs23  1  0.67404613  0.33436858  0.67078618  1
  Cs  Cs24  1  0.65026835  0.67787165  -0.00619628  1
  Cs  Cs25  1  0.66686569  0.66673885  0.33183676  1
  Cs  Cs26  1  0.66842668  0.66233200  0.67415117  1
  Sn  Sn27  1  0.16617515  0.49997024  0.83332942  1
  Sn  Sn28  1  0.16621831  0.50086012  0.16666265  1
  Sn  Sn29  1  0.16672921  0.83361627  0.49980523  1
  Sn  Sn30  1  0.16736986  0.83297777  0.16675838  1
  Sn  Sn31  1  0.16767157  0.49954671  0.50016804  1
  Sn  Sn32  1  0.16628788  0.83344582  0.83371065  1
  Sn  Sn33  1  0.49880113  0.50117733  0.50094232  1
  Sn  Sn34  1  0.49972177  0.16598790  0.83377515  1
  Sn  Sn35  1  0.83301675  0.83383996  0.50018497  1
  Sn  Sn36  1  0.83468522  0.16611382  0.49918064  1
  Sn  Sn37  1  0.50023526  0.83220636  0.50041941  1
  Sn  Sn38  1  0.83313524  0.50045113  0.16652307  1
  Sn  Sn39  1  0.16738606  0.16659091  0.83260785  1
  Sn  Sn40  1  0.16518041  0.16688422  0.50055993  1
  Pb  Pb41  1  0.83393423  0.16668844  0.83116037  1
  Pb  Pb42  1  0.83314611  0.50007271  0.49855341  1
  Pb  Pb43  1  0.49645545  0.83360626  0.16931415  1
  Pb  Pb44  1  0.83599528  0.83050296  0.16983606  1
  Pb  Pb45  1  0.83640588  0.50062971  0.83662362  1
  Pb  Pb46  1  0.49932767  0.50011047  0.16865471  1
  Pb  Pb47  1  0.50012658  0.16611666  0.16195373  1
  Pb  Pb48  1  0.83342373  0.16960279  0.17027062  1
  Pb  Pb49  1  0.50017548  0.16664584  0.50145148  1
  Pb  Pb50  1  0.49709588  0.83598435  0.83037342  1
  Pb  Pb51  1  0.83670492  0.83266779  0.83037772  1
  Pb  Pb52  1  0.16697924  0.16667429  0.16651700  1
  Pb  Pb53  1  0.49692573  0.49795473  0.83018886  1
  I  I54  1  0.16842012  -0.00288773  0.16917296  1
  I  I55  1  0.16655995  -0.00055490  0.50272611  1
  I  I56  1  0.17277868  -0.00005318  0.82673006  1
  I  I57  1  0.16205566  0.33630666  0.16780956  1
  I  I58  1  0.16659199  0.33353039  0.50306569  1
  I  I59  1  0.17143878  0.33327046  0.82834423  1
  I  I60  1  0.16080410  0.66620087  0.16912575  1
  I  I61  1  0.16675966  0.66698963  0.50241675  1
  I  I62  1  0.16347791  0.66671016  0.82755201  1
  I  I63  1  0.49640572  -0.00015126  0.17487982  1
  I  I64  1  0.49515402  -0.00240046  0.50173056  1
  I  I65  1  0.48786057  0.00297135  0.82679920  1
  I  I66  1  0.49666018  0.33352690  0.17429556  1
  I  I67  1  0.49521186  0.33546925  0.49937444  1
  I  I68  1  0.49101340  0.33078930  0.82852568  1
  I  I69  1  0.50416529  0.66663905  0.16130901  1
  I  I70  1  0.49319645  0.66680144  0.49871796  1
  I  I71  1  0.50180017  0.66689787  0.83679292  1
  I  I72  1  0.83315272  -0.00018906  0.16281308  1
  I  I73  1  0.84006151  -0.00025314  0.50141976  1
  I  I74  1  0.83545639  -0.00005473  0.83862415  1
  I  I75  1  0.84650296  0.33680248  0.16930762  1
  I  I76  1  0.83856768  0.33125159  0.49969675  1
  I  I77  1  0.83518376  0.33344626  0.82858323  1
  I  I78  1  0.84038146  0.66356094  0.17322404  1
  I  I79  1  0.83827014  0.66913789  0.49766392  1
  I  I80  1  0.83421881  0.66653417  0.82615462  1
  I  I81  1  0.17399503  0.16727575  -0.00320164  1
  I  I82  1  0.16157279  0.16595954  0.33659335  1
  I  I83  1  0.16679969  0.16688806  0.66538406  1
  I  I84  1  0.15880645  0.50288400  -0.00004761  1
  I  I85  1  0.16565690  0.50402402  0.33439084  1
  I  I86  1  0.17310939  0.50286970  0.66561757  1
  I  I87  1  0.16724204  0.82868913  -0.00027278  1
  I  I88  1  0.16572278  0.82888277  0.33523643  1
  I  I89  1  0.16672479  0.83077322  0.66506961  1
  I  I90  1  0.48337380  0.17048820  -0.00540941  1
  I  I91  1  0.50100736  0.16743962  0.33364333  1
  I  I92  1  0.49472669  0.16643130  0.66840286  1
  I  I93  1  0.50085337  0.49598567  -0.00028383  1
  I  I94  1  0.49184468  0.50186970  0.33672921  1
  I  I95  1  0.49394528  0.50608068  0.66277408  1
  I  I96  1  0.49971438  0.83489741  -0.00030021  1
  I  I97  1  0.49703089  0.82973270  0.33769587  1
  I  I98  1  0.49602569  0.82826509  0.66281470  1
  I  I99  1  0.83273160  0.16822768  0.00017187  1
  I  I100  1  0.84291106  0.16011316  0.33796656  1
  I  I101  1  0.83629063  0.16410448  0.66332618  1
  I  I102  1  0.84435096  0.49651213  0.00418330  1
  I  I103  1  0.84450404  0.50052098  0.33158298  1
  I  I104  1  0.83167601  0.49888880  0.66657117  1
  I  I105  1  0.83428383  0.83410802  0.00030652  1
  I  I106  1  0.83743487  0.83833616  0.33727593  1
  I  I107  1  0.83694279  0.83708271  0.66229513  1
  I  I108  1  0.00057053  0.16351030  0.15906285  1
  I  I109  1  0.00221338  0.16323652  0.50738543  1
  I  I110  1  0.00382407  0.16667299  0.83149602  1
  I  I111  1  0.00309383  0.50451601  0.17147722  1
  I  I112  1  0.00373433  0.50252741  0.50293243  1
  I  I113  1  0.00516435  0.49658950  0.82183906  1
  I  I114  1  0.00382898  0.83157774  0.16901044  1
  I  I115  1  0.00250792  0.83388863  0.50024979  1
  I  I116  1  0.00524190  0.83787215  0.82974932  1
  I  I117  1  0.33290558  0.16959103  0.17726992  1
  I  I118  1  0.33012300  0.16408160  0.50128716  1
  I  I119  1  0.33015135  0.16654572  0.82300692  1
  I  I120  1  0.32957894  0.50518589  0.16351833  1
  I  I121  1  0.33064220  0.50349322  0.49718270  1
  I  I122  1  0.32867565  0.50407881  0.84086414  1
  I  I123  1  0.32856353  0.82255519  0.16874862  1
  I  I124  1  0.33091595  0.83240146  0.50002061  1
  I  I125  1  0.32892841  0.82882737  0.82998930  1
  I  I126  1  0.66686864  0.17149700  0.17098768  1
  I  I127  1  0.66906045  0.16353797  0.50180838  1
  I  I128  1  0.66411487  0.17073953  0.82695440  1
  I  I129  1  0.66901486  0.49484535  0.17507316  1
  I  I130  1  0.66408802  0.50244309  0.49536091  1
  I  I131  1  0.66639759  0.49466636  0.83235151  1
  I  I132  1  0.66673752  0.83262538  0.16725605  1
  I  I133  1  0.66658087  0.83402580  0.49939711  1
  I  I134  1  0.66655633  0.83588903  0.83304168  1
