# generated using pymatgen
data_Cs27Sn13Pb14I81
_symmetry_space_group_name_H-M   'P 1'
_cell_length_a   18.98171763
_cell_length_b   18.97675544
_cell_length_c   18.97068559
_cell_angle_alpha   89.99999631
_cell_angle_beta   89.99839725
_cell_angle_gamma   89.99907094
_symmetry_Int_Tables_number   1
_chemical_formula_structural   Cs27Sn13Pb14I81
_chemical_formula_sum   'Cs27 Sn13 Pb14 I81'
_cell_volume   6833.45746456
_cell_formula_units_Z   1
loop_
 _symmetry_equiv_pos_site_id
 _symmetry_equiv_pos_as_xyz
  1  'x, y, z'
loop_
 _atom_site_type_symbol
 _atom_site_label
 _atom_site_symmetry_multiplicity
 _atom_site_fract_x
 _atom_site_fract_y
 _atom_site_fract_z
 _atom_site_occupancy
  Cs  Cs0  1  -0.00066845  -0.00298424  0.00364407  1
  Cs  Cs1  1  0.00140074  -0.00024313  0.33274180  1
  Cs  Cs2  1  -0.00027457  0.00043398  0.66719502  1
  Cs  Cs3  1  0.00019546  0.34290445  0.00389901  1
  Cs  Cs4  1  -0.00188000  0.33267663  0.33312831  1
  Cs  Cs5  1  0.00266611  0.32951761  0.66553433  1
  Cs  Cs6  1  -0.00072756  0.66442648  -0.00211633  1
  Cs  Cs7  1  0.00196399  0.66789502  0.33465705  1
  Cs  Cs8  1  -0.00248658  0.66850934  0.66660973  1
  Cs  Cs9  1  0.33474392  0.00130164  -0.00074284  1
  Cs  Cs10  1  0.33148808  -0.00328785  0.33245409  1
  Cs  Cs11  1  0.33251215  0.00137151  0.66827129  1
  Cs  Cs12  1  0.33919905  0.34000618  -0.00865461  1
  Cs  Cs13  1  0.33188220  0.33556459  0.33503183  1
  Cs  Cs14  1  0.33286176  0.32912835  0.67140901  1
  Cs  Cs15  1  0.33335483  0.66142214  0.00152398  1
  Cs  Cs16  1  0.33434689  0.66887041  0.33291266  1
  Cs  Cs17  1  0.33413736  0.66887721  0.66476459  1
  Cs  Cs18  1  0.66564738  0.00382794  0.00175999  1
  Cs  Cs19  1  0.66481699  0.00045589  0.33175833  1
  Cs  Cs20  1  0.66895778  -0.00038161  0.66625581  1
  Cs  Cs21  1  0.66020890  0.33558692  0.00674103  1
  Cs  Cs22  1  0.66911002  0.33103517  0.33155285  1
  Cs  Cs23  1  0.66517677  0.33207776  0.66516227  1
  Cs  Cs24  1  0.66731316  0.65912208  -0.00437114  1
  Cs  Cs25  1  0.66181195  0.66858290  0.33598939  1
  Cs  Cs26  1  0.66929482  0.66747175  0.66593142  1
  Sn  Sn27  1  0.16753948  0.83360754  0.83347794  1
  Sn  Sn28  1  0.83417138  0.83359648  0.49894933  1
  Sn  Sn29  1  0.49985123  0.49876418  0.50021328  1
  Sn  Sn30  1  0.16591199  0.83285305  0.50015203  1
  Sn  Sn31  1  0.16704845  0.16672148  0.16597099  1
  Sn  Sn32  1  0.16664676  0.50067256  0.50018639  1
  Sn  Sn33  1  0.83355484  0.83324080  0.16739406  1
  Sn  Sn34  1  0.49957447  0.83349345  0.83334706  1
  Sn  Sn35  1  0.83371431  0.16704159  0.83370771  1
  Sn  Sn36  1  0.83259672  0.16636995  0.50077274  1
  Sn  Sn37  1  0.50038690  0.16698757  0.49981346  1
  Sn  Sn38  1  0.83341335  0.49998061  0.50006497  1
  Sn  Sn39  1  0.16579696  0.83422948  0.16641958  1
  Pb  Pb40  1  0.83498146  0.16505458  0.16687305  1
  Pb  Pb41  1  0.49997801  0.50006208  0.16943174  1
  Pb  Pb42  1  0.50006951  0.83368669  0.50129340  1
  Pb  Pb43  1  0.50012206  0.83323148  0.16362959  1
  Pb  Pb44  1  0.83330691  0.50325051  0.16937766  1
  Pb  Pb45  1  0.16429618  0.16477700  0.83657913  1
  Pb  Pb46  1  0.50015823  0.50228301  0.83039475  1
  Pb  Pb47  1  0.50216022  0.16482010  0.83129397  1
  Pb  Pb48  1  0.83348290  0.83461331  0.83359275  1
  Pb  Pb49  1  0.16639060  0.50260747  0.83031162  1
  Pb  Pb50  1  0.83327785  0.49642340  0.83093729  1
  Pb  Pb51  1  0.16677094  0.50049102  0.16885425  1
  Pb  Pb52  1  0.16646838  0.16635574  0.49882087  1
  Pb  Pb53  1  0.49678305  0.16655383  0.16914257  1
  I  I54  1  0.16262842  -0.00233088  0.17085723  1
  I  I55  1  0.16387087  -0.00327232  0.50089915  1
  I  I56  1  0.16899857  -0.00380850  0.82638506  1
  I  I57  1  0.16518926  0.33098887  0.17197078  1
  I  I58  1  0.16433184  0.33554619  0.49648914  1
  I  I59  1  0.16566819  0.33321415  0.83300120  1
  I  I60  1  0.16297291  0.67057875  0.16593491  1
  I  I61  1  0.16430315  0.66810476  0.49860745  1
  I  I62  1  0.16844356  0.67135168  0.83752589  1
  I  I63  1  0.50147941  -0.00021384  0.17062540  1
  I  I64  1  0.50362565  0.00225594  0.50191380  1
  I  I65  1  0.49603687  -0.00294166  0.82918286  1
  I  I66  1  0.49875216  0.33310582  0.16507681  1
  I  I67  1  0.50300802  0.33352142  0.49974378  1
  I  I68  1  0.50067485  0.33326024  0.83336483  1
  I  I69  1  0.49799782  0.66703502  0.16992570  1
  I  I70  1  0.50208541  0.66457491  0.50193535  1
  I  I71  1  0.49697241  0.67026664  0.83087221  1
  I  I72  1  0.83653550  -0.00319718  0.17311768  1
  I  I73  1  0.83353794  -0.00049213  0.50055178  1
  I  I74  1  0.83357461  0.00200828  0.82496485  1
  I  I75  1  0.83591549  0.33331457  0.16777347  1
  I  I76  1  0.83314739  0.33302670  0.50512463  1
  I  I77  1  0.83413445  0.32872239  0.82607274  1
  I  I78  1  0.84076968  0.67154737  0.17032430  1
  I  I79  1  0.83391805  0.66747318  0.49575625  1
  I  I80  1  0.83322245  0.66678930  0.83270073  1
  I  I81  1  0.16361222  0.15781943  0.00397365  1
  I  I82  1  0.16505924  0.15990163  0.33135336  1
  I  I83  1  0.16789042  0.16580129  0.66658240  1
  I  I84  1  0.16675714  0.50045582  -0.00005285  1
  I  I85  1  0.16642832  0.50597461  0.33763669  1
  I  I86  1  0.16590944  0.50440477  0.66172478  1
  I  I87  1  0.16571078  0.83971792  0.00061450  1
  I  I88  1  0.16204665  0.83323895  0.33426538  1
  I  I89  1  0.16606515  0.82869131  0.66544571  1
  I  I90  1  0.50211307  0.16432053  -0.00018095  1
  I  I91  1  0.50768546  0.16863125  0.33765137  1
  I  I92  1  0.50043016  0.16976256  0.66281928  1
  I  I93  1  0.49982570  0.50113310  -0.00049467  1
  I  I94  1  0.49997633  0.49927161  0.33848720  1
  I  I95  1  0.50014365  0.49705649  0.66195288  1
  I  I96  1  0.49663365  0.83534414  -0.00399664  1
  I  I97  1  0.49801745  0.83269543  0.33356884  1
  I  I98  1  0.49596547  0.83324095  0.66878728  1
  I  I99  1  0.83612080  0.15998591  -0.00206328  1
  I  I100  1  0.83106541  0.16818413  0.33697301  1
  I  I101  1  0.83074858  0.16341765  0.66386372  1
  I  I102  1  0.83347762  0.50059452  0.00011317  1
  I  I103  1  0.83425318  0.49462084  0.33832502  1
  I  I104  1  0.83331667  0.50753930  0.66176258  1
  I  I105  1  0.83728533  0.83770741  0.00246030  1
  I  I106  1  0.84084266  0.83484887  0.33532297  1
  I  I107  1  0.83606946  0.83185040  0.66338493  1
  I  I108  1  0.00275014  0.16207898  0.17083532  1
  I  I109  1  -0.00284838  0.16788185  0.50195575  1
  I  I110  1  -0.00312433  0.16245678  0.82243622  1
  I  I111  1  0.00003774  0.49802258  0.16983353  1
  I  I112  1  -0.00028161  0.50161683  0.49974425  1
  I  I113  1  -0.00011897  0.50291312  0.83063505  1
  I  I114  1  0.00100069  0.83748816  0.16753491  1
  I  I115  1  0.00010434  0.83097459  0.50132369  1
  I  I116  1  0.00263957  0.83503442  0.83194570  1
  I  I117  1  0.32910595  0.15699402  0.17025959  1
  I  I118  1  0.33535776  0.16913648  0.49757570  1
  I  I119  1  0.33318227  0.16591152  0.83173877  1
  I  I120  1  0.33304039  0.50296547  0.17142676  1
  I  I121  1  0.33298966  0.50145201  0.49894121  1
  I  I122  1  0.33321575  0.49811072  0.83011169  1
  I  I123  1  0.32969664  0.83645655  0.17127822  1
  I  I124  1  0.33042874  0.83060119  0.49787215  1
  I  I125  1  0.33183233  0.83434501  0.83052709  1
  I  I126  1  0.66681452  0.16438988  0.16591214  1
  I  I127  1  0.66801670  0.16845219  0.50323588  1
  I  I128  1  0.66996945  0.16142734  0.82957732  1
  I  I129  1  0.66691849  0.50168347  0.16901770  1
  I  I130  1  0.66730514  0.50079231  0.50024058  1
  I  I131  1  0.66674838  0.50558704  0.82956451  1
  I  I132  1  0.66980229  0.83405310  0.17288308  1
  I  I133  1  0.66961786  0.83147696  0.49825065  1
  I  I134  1  0.66504731  0.83511886  0.83031880  1
