# generated using pymatgen
data_Cs27Sn14Pb13I81
_symmetry_space_group_name_H-M   'P 1'
_cell_length_a   18.95543375
_cell_length_b   18.96295348
_cell_length_c   18.96254142
_cell_angle_alpha   89.99959673
_cell_angle_beta   89.99806616
_cell_angle_gamma   90.00138214
_symmetry_Int_Tables_number   1
_chemical_formula_structural   Cs27Sn14Pb13I81
_chemical_formula_sum   'Cs27 Sn14 Pb13 I81'
_cell_volume   6816.10462531
_cell_formula_units_Z   1
loop_
 _symmetry_equiv_pos_site_id
 _symmetry_equiv_pos_as_xyz
  1  'x, y, z'
loop_
 _atom_site_type_symbol
 _atom_site_label
 _atom_site_symmetry_multiplicity
 _atom_site_fract_x
 _atom_site_fract_y
 _atom_site_fract_z
 _atom_site_occupancy
  Cs  Cs0  1  -0.00152670  -0.00517770  0.00120356  1
  Cs  Cs1  1  0.00112663  0.00235912  0.33420641  1
  Cs  Cs2  1  0.00704727  -0.00112637  0.66457823  1
  Cs  Cs3  1  -0.00163942  0.33545426  0.00094155  1
  Cs  Cs4  1  -0.00269399  0.33123606  0.33608523  1
  Cs  Cs5  1  0.00069130  0.33361011  0.66291256  1
  Cs  Cs6  1  0.00373206  0.66816705  -0.00222753  1
  Cs  Cs7  1  -0.00050494  0.66620883  0.33275058  1
  Cs  Cs8  1  -0.00086379  0.66585131  0.67013458  1
  Cs  Cs9  1  0.33634058  0.00324029  -0.00055206  1
  Cs  Cs10  1  0.33316984  -0.00317602  0.33429851  1
  Cs  Cs11  1  0.32773984  0.00257252  0.66459790  1
  Cs  Cs12  1  0.33098917  0.33371574  -0.00229726  1
  Cs  Cs13  1  0.33775232  0.33659119  0.33055746  1
  Cs  Cs14  1  0.33123377  0.33005358  0.67232565  1
  Cs  Cs15  1  0.32633390  0.66402101  0.00236562  1
  Cs  Cs16  1  0.33385986  0.66674854  0.33528353  1
  Cs  Cs17  1  0.33440861  0.66858962  0.66148101  1
  Cs  Cs18  1  0.66617685  -0.00033696  0.00034558  1
  Cs  Cs19  1  0.66714593  0.00095279  0.33141403  1
  Cs  Cs20  1  0.66628861  -0.00050973  0.66879468  1
  Cs  Cs21  1  0.66661894  0.33250400  0.00025724  1
  Cs  Cs22  1  0.66751287  0.33310932  0.33315679  1
  Cs  Cs23  1  0.66738035  0.33401913  0.66858608  1
  Cs  Cs24  1  0.66803426  0.66864422  -0.00133873  1
  Cs  Cs25  1  0.66522729  0.66608397  0.33445137  1
  Cs  Cs26  1  0.66657853  0.66721416  0.66694451  1
  Sn  Sn27  1  0.50012488  0.83223623  0.83425582  1
  Sn  Sn28  1  0.50061017  0.50130951  0.83365684  1
  Sn  Sn29  1  0.83256650  0.49910384  0.83350512  1
  Sn  Sn30  1  0.83336929  0.16702521  0.83381807  1
  Sn  Sn31  1  0.16660296  0.16675290  0.16655685  1
  Sn  Sn32  1  0.16624136  0.49997956  0.49976895  1
  Sn  Sn33  1  0.50036816  0.16669419  0.49942818  1
  Sn  Sn34  1  0.83249012  0.83319868  0.16770225  1
  Sn  Sn35  1  0.50074018  0.83357073  0.16575251  1
  Sn  Sn36  1  0.50001169  0.16605266  0.16766690  1
  Sn  Sn37  1  0.83382231  0.50097279  0.50002272  1
  Sn  Sn38  1  0.83298868  0.83289684  0.49936544  1
  Sn  Sn39  1  0.83328463  0.16654381  0.16569875  1
  Sn  Sn40  1  0.83294284  0.50036318  0.16646980  1
  Pb  Pb41  1  0.17084544  0.83333888  0.83349769  1
  Pb  Pb42  1  0.50065252  0.49801349  0.50235631  1
  Pb  Pb43  1  0.16630365  0.50004767  0.83121718  1
  Pb  Pb44  1  0.50159131  0.16657241  0.83389966  1
  Pb  Pb45  1  0.16285230  0.16671343  0.83593787  1
  Pb  Pb46  1  0.16382129  0.49787146  0.16873844  1
  Pb  Pb47  1  0.83217544  0.16655075  0.50012756  1
  Pb  Pb48  1  0.83232148  0.83332501  0.83339869  1
  Pb  Pb49  1  0.50179797  0.50029970  0.16456269  1
  Pb  Pb50  1  0.50201076  0.83530421  0.49971723  1
  Pb  Pb51  1  0.16353250  0.83097069  0.49966111  1
  Pb  Pb52  1  0.16964950  0.16890872  0.49751369  1
  Pb  Pb53  1  0.16683325  0.83539356  0.16669276  1
  I  I54  1  0.16168508  0.00349354  0.16760444  1
  I  I55  1  0.16601022  0.00023731  0.50002023  1
  I  I56  1  0.16557583  0.00028650  0.83183533  1
  I  I57  1  0.16770979  0.32984677  0.16720893  1
  I  I58  1  0.15764043  0.33638044  0.49957912  1
  I  I59  1  0.17209703  0.33335705  0.83344466  1
  I  I60  1  0.16688130  0.66641526  0.16755552  1
  I  I61  1  0.16636744  0.66296462  0.49937790  1
  I  I62  1  0.16136180  0.66640889  0.83442945  1
  I  I63  1  0.50523262  0.00048987  0.16476675  1
  I  I64  1  0.50328065  0.00308220  0.49981664  1
  I  I65  1  0.50354549  -0.00207564  0.83522942  1
  I  I66  1  0.50196497  0.33041075  0.16906103  1
  I  I67  1  0.50318675  0.33031545  0.49426108  1
  I  I68  1  0.50332057  0.33542606  0.83236246  1
  I  I69  1  0.50590321  0.66948642  0.16480560  1
  I  I70  1  0.49844867  0.66658352  0.49842734  1
  I  I71  1  0.50772087  0.66643406  0.83680894  1
  I  I72  1  0.83232419  0.00048801  0.16641102  1
  I  I73  1  0.82918056  -0.00225496  0.49680660  1
  I  I74  1  0.83009304  0.00223398  0.83718721  1
  I  I75  1  0.83306041  0.33295025  0.16631783  1
  I  I76  1  0.83496371  0.33610549  0.49810954  1
  I  I77  1  0.82734693  0.33438638  0.83629761  1
  I  I78  1  0.82821701  0.66684690  0.16792537  1
  I  I79  1  0.83552386  0.66566808  0.49706174  1
  I  I80  1  0.83087139  0.66380048  0.83464890  1
  I  I81  1  0.17253344  0.16793771  0.00399428  1
  I  I82  1  0.15968497  0.16736461  0.32976731  1
  I  I83  1  0.16773425  0.16738134  0.66644566  1
  I  I84  1  0.16613043  0.49876709  0.00020797  1
  I  I85  1  0.16131181  0.49887906  0.33646319  1
  I  I86  1  0.16020909  0.49876581  0.66348101  1
  I  I87  1  0.16058062  0.83232524  0.00037127  1
  I  I88  1  0.17084643  0.83308311  0.33317723  1
  I  I89  1  0.16570479  0.83436915  0.66639692  1
  I  I90  1  0.50002863  0.16535666  0.00324705  1
  I  I91  1  0.50319795  0.16278063  0.33104181  1
  I  I92  1  0.50390345  0.16769850  0.66521493  1
  I  I93  1  0.50666847  0.49834849  -0.00332773  1
  I  I94  1  0.50082029  0.50085378  0.33325382  1
  I  I95  1  0.50637956  0.50327874  0.67016661  1
  I  I96  1  0.50756644  0.83658374  0.00135958  1
  I  I97  1  0.50286337  0.83668956  0.33021578  1
  I  I98  1  0.50340455  0.83085866  0.66894730  1
  I  I99  1  0.83074318  0.16984252  0.00169932  1
  I  I100  1  0.83372787  0.16883003  0.33012212  1
  I  I101  1  0.82849069  0.17014201  0.66890848  1
  I  I102  1  0.82806392  0.49775919  0.00015528  1
  I  I103  1  0.83733224  0.49952203  0.33304495  1
  I  I104  1  0.83303454  0.49954693  0.66677135  1
  I  I105  1  0.83092021  0.83278150  0.00310437  1
  I  I106  1  0.82799387  0.83081619  0.33181695  1
  I  I107  1  0.83068174  0.83009331  0.66457105  1
  I  I108  1  -0.00199397  0.16759608  0.16241615  1
  I  I109  1  -0.00011175  0.16532501  0.49971348  1
  I  I110  1  -0.00534731  0.17299825  0.83668268  1
  I  I111  1  -0.00503129  0.50054091  0.16202632  1
  I  I112  1  -0.00274895  0.50215548  0.50116231  1
  I  I113  1  -0.00396528  0.49583435  0.83508012  1
  I  I114  1  -0.00383551  0.83423341  0.17019300  1
  I  I115  1  -0.00487484  0.83423609  0.49449316  1
  I  I116  1  -0.00026003  0.83354017  0.83339580  1
  I  I117  1  0.33483816  0.16196064  0.17183224  1
  I  I118  1  0.33740373  0.16759679  0.49649556  1
  I  I119  1  0.33349289  0.16711062  0.83345813  1
  I  I120  1  0.33340568  0.49917722  0.16687281  1
  I  I121  1  0.33160995  0.49652316  0.50156709  1
  I  I122  1  0.33632059  0.50319075  0.83198416  1
  I  I123  1  0.33699488  0.83833452  0.16229019  1
  I  I124  1  0.33358651  0.83271698  0.50026966  1
  I  I125  1  0.33909734  0.82819244  0.83955700  1
  I  I126  1  0.66742030  0.16590933  0.16664622  1
  I  I127  1  0.66451575  0.16870465  0.49421633  1
  I  I128  1  0.66960239  0.16878933  0.83862859  1
  I  I129  1  0.67056003  0.49549298  0.17130052  1
  I  I130  1  0.67017381  0.50202192  0.49852332  1
  I  I131  1  0.66834544  0.49924969  0.83124691  1
  I  I132  1  0.66759153  0.83834467  0.16656837  1
  I  I133  1  0.67004124  0.82675408  0.49801262  1
  I  I134  1  0.66438703  0.83241708  0.83514261  1
