# generated using pymatgen
data_Cs27Sn14Pb13I81
_symmetry_space_group_name_H-M   'P 1'
_cell_length_a   18.97235315
_cell_length_b   18.97832345
_cell_length_c   18.97912755
_cell_angle_alpha   90.00026482
_cell_angle_beta   89.99996688
_cell_angle_gamma   90.00117310
_symmetry_Int_Tables_number   1
_chemical_formula_structural   Cs27Sn14Pb13I81
_chemical_formula_sum   'Cs27 Sn14 Pb13 I81'
_cell_volume   6833.69023360
_cell_formula_units_Z   1
loop_
 _symmetry_equiv_pos_site_id
 _symmetry_equiv_pos_as_xyz
  1  'x, y, z'
loop_
 _atom_site_type_symbol
 _atom_site_label
 _atom_site_symmetry_multiplicity
 _atom_site_fract_x
 _atom_site_fract_y
 _atom_site_fract_z
 _atom_site_occupancy
  Cs  Cs0  1  -0.00058797  0.00114041  -0.00021997  1
  Cs  Cs1  1  -0.00262481  0.00243737  0.33425885  1
  Cs  Cs2  1  0.00074747  -0.00020446  0.66623777  1
  Cs  Cs3  1  0.00083184  0.33416111  0.00147137  1
  Cs  Cs4  1  0.00082148  0.33320963  0.33215782  1
  Cs  Cs5  1  -0.00283905  0.33800899  0.66743226  1
  Cs  Cs6  1  0.00700751  0.66618591  -0.00238736  1
  Cs  Cs7  1  0.00254854  0.66126844  0.33784409  1
  Cs  Cs8  1  0.00742452  0.66046646  0.66594777  1
  Cs  Cs9  1  0.33007484  -0.00262968  0.00375436  1
  Cs  Cs10  1  0.33432105  0.00081821  0.33288206  1
  Cs  Cs11  1  0.33261221  0.00110306  0.66529077  1
  Cs  Cs12  1  0.33314918  0.33583032  -0.00099043  1
  Cs  Cs13  1  0.33582787  0.33103398  0.33279697  1
  Cs  Cs14  1  0.33751951  0.33087376  0.66928006  1
  Cs  Cs15  1  0.32494347  0.66868541  -0.00152764  1
  Cs  Cs16  1  0.33169549  0.66788872  0.33236636  1
  Cs  Cs17  1  0.32694883  0.66687475  0.66879515  1
  Cs  Cs18  1  0.66801978  -0.00155111  -0.00060739  1
  Cs  Cs19  1  0.66676814  -0.00046797  0.33391786  1
  Cs  Cs20  1  0.66644917  -0.00001569  0.66619511  1
  Cs  Cs21  1  0.66625953  0.33347954  -0.00425914  1
  Cs  Cs22  1  0.66562358  0.33394394  0.33349433  1
  Cs  Cs23  1  0.66600979  0.33485400  0.67282639  1
  Cs  Cs24  1  0.66625117  0.66920161  0.00309207  1
  Cs  Cs25  1  0.66618016  0.66641675  0.33200470  1
  Cs  Cs26  1  0.66704971  0.66777594  0.66581237  1
  Sn  Sn27  1  0.83228770  0.49981394  0.16670646  1
  Sn  Sn28  1  0.83296586  0.16648543  0.49970766  1
  Sn  Sn29  1  0.50072589  0.16679556  0.49958989  1
  Sn  Sn30  1  0.50060141  0.83352042  0.83244994  1
  Sn  Sn31  1  0.83269082  0.83353679  0.50037193  1
  Sn  Sn32  1  0.16654690  0.16651449  0.83251971  1
  Sn  Sn33  1  0.50071569  0.83312449  0.50091215  1
  Sn  Sn34  1  0.50132441  0.16731663  0.16707394  1
  Sn  Sn35  1  0.50092585  0.49940355  0.16730116  1
  Sn  Sn36  1  0.83187225  0.16695651  0.16733294  1
  Sn  Sn37  1  0.83312599  0.83305056  0.16714615  1
  Sn  Sn38  1  0.16637368  0.16656750  0.50104092  1
  Sn  Sn39  1  0.83276339  0.83324840  0.83258540  1
  Sn  Sn40  1  0.50042027  0.50012091  0.49948897  1
  Pb  Pb41  1  0.17028267  0.49644548  0.49977317  1
  Pb  Pb42  1  0.83296538  0.50337493  0.83638315  1
  Pb  Pb43  1  0.83126316  0.49988237  0.49839214  1
  Pb  Pb44  1  0.50121771  0.83336306  0.16706939  1
  Pb  Pb45  1  0.16256675  0.83355470  0.16725491  1
  Pb  Pb46  1  0.16679932  0.49652649  0.83314312  1
  Pb  Pb47  1  0.16646884  0.83541352  0.83298040  1
  Pb  Pb48  1  0.16678931  0.16666465  0.16719128  1
  Pb  Pb49  1  0.83482499  0.16493803  0.83321533  1
  Pb  Pb50  1  0.50019698  0.50315118  0.83386608  1
  Pb  Pb51  1  0.49859899  0.16433525  0.83393664  1
  Pb  Pb52  1  0.16652046  0.83547225  0.49974338  1
  Pb  Pb53  1  0.16742176  0.49973417  0.16705103  1
  I  I54  1  0.16907551  0.00048555  0.16569282  1
  I  I55  1  0.17076254  0.00368062  0.50294865  1
  I  I56  1  0.16669154  0.00284270  0.82912163  1
  I  I57  1  0.16136173  0.33298499  0.16555765  1
  I  I58  1  0.16401940  0.32839963  0.50313753  1
  I  I59  1  0.16732821  0.32876122  0.82921575  1
  I  I60  1  0.16866025  0.66655942  0.16479230  1
  I  I61  1  0.16565235  0.66638207  0.49979231  1
  I  I62  1  0.16674503  0.66683920  0.83516687  1
  I  I63  1  0.50308087  0.00270618  0.16952134  1
  I  I64  1  0.50009031  0.00066152  0.49974823  1
  I  I65  1  0.50407639  -0.00334391  0.82938654  1
  I  I66  1  0.50714408  0.33241503  0.17505709  1
  I  I67  1  0.49855964  0.33205877  0.49438501  1
  I  I68  1  0.49698339  0.33315888  0.83139841  1
  I  I69  1  0.50534972  0.66437955  0.17017367  1
  I  I70  1  0.50658218  0.66752703  0.49908272  1
  I  I71  1  0.50487288  0.67111820  0.82988766  1
  I  I72  1  0.82965553  0.00047768  0.16742472  1
  I  I73  1  0.82976158  0.00034116  0.49550330  1
  I  I74  1  0.83011521  -0.00312453  0.83799477  1
  I  I75  1  0.83067827  0.33217391  0.17220549  1
  I  I76  1  0.83399139  0.32995229  0.49509267  1
  I  I77  1  0.83625413  0.33331270  0.83343598  1
  I  I78  1  0.82763441  0.66700422  0.16620474  1
  I  I79  1  0.82799084  0.66974362  0.49853777  1
  I  I80  1  0.82870892  0.67171866  0.83168210  1
  I  I81  1  0.16624959  0.16521875  -0.00205027  1
  I  I82  1  0.16684854  0.16625688  0.33646909  1
  I  I83  1  0.16780984  0.16445441  0.66504576  1
  I  I84  1  0.16825094  0.49824964  0.00015583  1
  I  I85  1  0.16374856  0.49818133  0.33354162  1
  I  I86  1  0.16710887  0.50250162  0.66624380  1
  I  I87  1  0.16875381  0.83661644  -0.00012100  1
  I  I88  1  0.16949860  0.83656624  0.33363931  1
  I  I89  1  0.16265466  0.83316811  0.66641780  1
  I  I90  1  0.50296221  0.16965478  0.00329166  1
  I  I91  1  0.49806390  0.16485043  0.33448535  1
  I  I92  1  0.50204030  0.16882453  0.66332010  1
  I  I93  1  0.50423382  0.49492507  0.00368906  1
  I  I94  1  0.50420589  0.50028307  0.33330793  1
  I  I95  1  0.49963774  0.49586708  0.66355048  1
  I  I96  1  0.50470064  0.83474482  -0.00168375  1
  I  I97  1  0.50369236  0.83434870  0.33646690  1
  I  I98  1  0.50811841  0.83462721  0.66496407  1
  I  I99  1  0.83109442  0.16534551  0.00327035  1
  I  I100  1  0.83472964  0.16172996  0.33362488  1
  I  I101  1  0.83081851  0.16168412  0.66319065  1
  I  I102  1  0.82643645  0.49702315  0.00490117  1
  I  I103  1  0.83107368  0.50421352  0.33013243  1
  I  I104  1  0.83238148  0.49908751  0.66655802  1
  I  I105  1  0.82846462  0.83423473  0.00039436  1
  I  I106  1  0.82864852  0.83586807  0.33386063  1
  I  I107  1  0.82807759  0.84084398  0.66536353  1
  I  I108  1  -0.00357266  0.16568648  0.16946158  1
  I  I109  1  -0.00155796  0.16026614  0.49896512  1
  I  I110  1  0.00255716  0.16284132  0.82965256  1
  I  I111  1  -0.00346654  0.49968237  0.16584371  1
  I  I112  1  -0.00010444  0.50077585  0.49869077  1
  I  I113  1  -0.00022620  0.50303924  0.83507197  1
  I  I114  1  -0.00626752  0.83561561  0.16583105  1
  I  I115  1  -0.00387684  0.83864282  0.49906694  1
  I  I116  1  -0.00334857  0.83556846  0.83516614  1
  I  I117  1  0.33680015  0.17119082  0.16973335  1
  I  I118  1  0.33497836  0.16657116  0.49970850  1
  I  I119  1  0.33089509  0.16354529  0.82855589  1
  I  I120  1  0.33747700  0.49355008  0.17048743  1
  I  I121  1  0.33850243  0.50229488  0.49292599  1
  I  I122  1  0.33370490  0.50347846  0.83603281  1
  I  I123  1  0.33362245  0.83376592  0.16515486  1
  I  I124  1  0.33706313  0.83402723  0.50495027  1
  I  I125  1  0.33624904  0.83425409  0.82842286  1
  I  I126  1  0.66717234  0.16648537  0.17420278  1
  I  I127  1  0.66638504  0.16439087  0.49417647  1
  I  I128  1  0.66670959  0.16711423  0.83199286  1
  I  I129  1  0.66647020  0.49923795  0.17106978  1
  I  I130  1  0.66312578  0.49622344  0.49742754  1
  I  I131  1  0.66654709  0.49503752  0.83167197  1
  I  I132  1  0.66972865  0.83404774  0.16643838  1
  I  I133  1  0.66674811  0.83869378  0.50040376  1
  I  I134  1  0.66726488  0.83528622  0.83262341  1
