# generated using pymatgen
data_Cs27Sn14Pb13I81
_symmetry_space_group_name_H-M   'P 1'
_cell_length_a   18.98245239
_cell_length_b   18.98297810
_cell_length_c   18.96337987
_cell_angle_alpha   89.99953420
_cell_angle_beta   89.99907452
_cell_angle_gamma   89.99999672
_symmetry_Int_Tables_number   1
_chemical_formula_structural   Cs27Sn14Pb13I81
_chemical_formula_sum   'Cs27 Sn14 Pb13 I81'
_cell_volume   6833.33025770
_cell_formula_units_Z   1
loop_
 _symmetry_equiv_pos_site_id
 _symmetry_equiv_pos_as_xyz
  1  'x, y, z'
loop_
 _atom_site_type_symbol
 _atom_site_label
 _atom_site_symmetry_multiplicity
 _atom_site_fract_x
 _atom_site_fract_y
 _atom_site_fract_z
 _atom_site_occupancy
  Cs  Cs0  1  -0.00164790  0.00126190  -0.00288568  1
  Cs  Cs1  1  0.00452725  -0.00293307  0.33243515  1
  Cs  Cs2  1  -0.00021711  -0.00068283  0.66701717  1
  Cs  Cs3  1  -0.00088161  0.33475475  -0.00216888  1
  Cs  Cs4  1  0.00159371  0.33261440  0.33182087  1
  Cs  Cs5  1  -0.00082106  0.33499079  0.66882634  1
  Cs  Cs6  1  -0.00273121  0.66478287  0.00560734  1
  Cs  Cs7  1  0.00195154  0.67039637  0.32900684  1
  Cs  Cs8  1  0.00046137  0.66583285  0.66652879  1
  Cs  Cs9  1  0.33829447  -0.00245446  0.00019155  1
  Cs  Cs10  1  0.32383612  0.00902999  0.32877571  1
  Cs  Cs11  1  0.33198386  -0.00038493  0.66724085  1
  Cs  Cs12  1  0.33212655  0.33377366  0.00188338  1
  Cs  Cs13  1  0.33484636  0.32655097  0.32561647  1
  Cs  Cs14  1  0.33431372  0.33534625  0.66675500  1
  Cs  Cs15  1  0.33750525  0.66829830  0.00374694  1
  Cs  Cs16  1  0.32998366  0.66620517  0.32915997  1
  Cs  Cs17  1  0.33457850  0.66511348  0.66696551  1
  Cs  Cs18  1  0.66588892  -0.00335920  -0.00071616  1
  Cs  Cs19  1  0.66740520  0.00191368  0.33320348  1
  Cs  Cs20  1  0.66753861  -0.00129491  0.66693151  1
  Cs  Cs21  1  0.66862450  0.33530188  -0.00020522  1
  Cs  Cs22  1  0.66275781  0.33136493  0.33564563  1
  Cs  Cs23  1  0.66674466  0.33444023  0.66611216  1
  Cs  Cs24  1  0.66667688  0.66842243  0.00928622  1
  Cs  Cs25  1  0.66763525  0.66652212  0.33403575  1
  Cs  Cs26  1  0.66506252  0.66625983  0.66558421  1
  Sn  Sn27  1  0.16708747  0.49978086  0.50058758  1
  Sn  Sn28  1  0.83357919  0.50027337  0.50049216  1
  Sn  Sn29  1  0.83354131  0.16644685  0.50012716  1
  Sn  Sn30  1  0.16581841  0.83258117  0.83278269  1
  Sn  Sn31  1  0.16687524  0.16671068  0.83277920  1
  Sn  Sn32  1  0.49956033  0.49952442  0.83281459  1
  Sn  Sn33  1  0.16753896  0.50058574  0.83264711  1
  Sn  Sn34  1  0.49939753  0.50081056  0.50063982  1
  Sn  Sn35  1  0.83303290  0.16602348  0.83298124  1
  Sn  Sn36  1  0.83263312  0.83325012  0.50120855  1
  Sn  Sn37  1  0.83324141  0.16673821  0.16650174  1
  Sn  Sn38  1  0.50035523  0.16765038  0.83261488  1
  Sn  Sn39  1  0.49983854  0.83324985  0.50012918  1
  Sn  Sn40  1  0.83389143  0.83339349  0.83240686  1
  Pb  Pb41  1  0.83324395  0.49735525  0.17069915  1
  Pb  Pb42  1  0.50010516  0.49999328  0.16700768  1
  Pb  Pb43  1  0.16682665  0.83130628  0.50178633  1
  Pb  Pb44  1  0.83321691  0.83563561  0.16702927  1
  Pb  Pb45  1  0.16664860  0.49986235  0.16620362  1
  Pb  Pb46  1  0.16656584  0.83344041  0.16287279  1
  Pb  Pb47  1  0.16409672  0.16671337  0.16315727  1
  Pb  Pb48  1  0.50044343  0.83267810  0.83190786  1
  Pb  Pb49  1  0.50249650  0.16665792  0.16326429  1
  Pb  Pb50  1  0.16420920  0.16920624  0.50228329  1
  Pb  Pb51  1  0.83289812  0.50076963  0.83211948  1
  Pb  Pb52  1  0.50150859  0.16651286  0.50188673  1
  Pb  Pb53  1  0.50009251  0.83364286  0.17158758  1
  I  I54  1  0.16584966  0.00026567  0.16849093  1
  I  I55  1  0.16680953  0.00004581  0.50136386  1
  I  I56  1  0.16469516  0.00028998  0.83390910  1
  I  I57  1  0.16520569  0.33319735  0.16531212  1
  I  I58  1  0.16650597  0.33726473  0.50694947  1
  I  I59  1  0.16584666  0.33346525  0.82963278  1
  I  I60  1  0.16497918  0.66651813  0.16526887  1
  I  I61  1  0.16178286  0.66325676  0.50744050  1
  I  I62  1  0.16636551  0.66600443  0.82767984  1
  I  I63  1  0.50133130  0.00024098  0.16448799  1
  I  I64  1  0.50743211  -0.00247018  0.50354208  1
  I  I65  1  0.49864788  0.00216854  0.83195474  1
  I  I66  1  0.50127840  0.33321015  0.17141161  1
  I  I67  1  0.50219681  0.33626659  0.50295438  1
  I  I68  1  0.49830686  0.33368085  0.82765530  1
  I  I69  1  0.50142540  0.66671558  0.15969796  1
  I  I70  1  0.50646232  0.66538523  0.50767051  1
  I  I71  1  0.49634048  0.66382491  0.82972998  1
  I  I72  1  0.83324993  0.00341988  0.16905991  1
  I  I73  1  0.82767305  -0.00009769  0.50180815  1
  I  I74  1  0.83611384  0.00103446  0.82944458  1
  I  I75  1  0.83388294  0.32958404  0.16228719  1
  I  I76  1  0.83332357  0.33320696  0.50116081  1
  I  I77  1  0.83537351  0.33060193  0.83236637  1
  I  I78  1  0.83336799  0.66675398  0.16498414  1
  I  I79  1  0.83211183  0.66690843  0.50667392  1
  I  I80  1  0.83659854  0.66947278  0.82731393  1
  I  I81  1  0.16406584  0.16996771  -0.00539161  1
  I  I82  1  0.16543906  0.16863628  0.33349270  1
  I  I83  1  0.16337380  0.16494266  0.67075145  1
  I  I84  1  0.17073303  0.49896795  -0.00447214  1
  I  I85  1  0.16566209  0.50096692  0.33689006  1
  I  I86  1  0.16692180  0.49922453  0.66762044  1
  I  I87  1  0.15991884  0.83121216  -0.00595452  1
  I  I88  1  0.16623740  0.83095168  0.33369365  1
  I  I89  1  0.16385454  0.83606848  0.67021776  1
  I  I90  1  0.50104555  0.17202020  -0.00541672  1
  I  I91  1  0.50254859  0.16721137  0.33352556  1
  I  I92  1  0.50294504  0.16869528  0.67034415  1
  I  I93  1  0.49491101  0.49551956  -0.00371854  1
  I  I94  1  0.50133034  0.50456843  0.33756776  1
  I  I95  1  0.49941371  0.49909923  0.66644188  1
  I  I96  1  0.50014984  0.83316145  -0.00027692  1
  I  I97  1  0.50937365  0.82521407  0.33948732  1
  I  I98  1  0.50330056  0.83133097  0.66406525  1
  I  I99  1  0.83399561  0.16190252  -0.00226640  1
  I  I100  1  0.83190716  0.16828466  0.33467894  1
  I  I101  1  0.83353508  0.16592481  0.66747883  1
  I  I102  1  0.83363668  0.49991941  -0.00001070  1
  I  I103  1  0.83305348  0.50155686  0.33931508  1
  I  I104  1  0.83322511  0.49543858  0.66367551  1
  I  I105  1  0.83740448  0.83782793  -0.00342861  1
  I  I106  1  0.82863179  0.83299821  0.33724497  1
  I  I107  1  0.83378598  0.83890430  0.66644172  1
  I  I108  1  -0.00377884  0.16687186  0.16595831  1
  I  I109  1  -0.00447583  0.16580231  0.50278953  1
  I  I110  1  -0.00083551  0.16650159  0.83323435  1
  I  I111  1  -0.00015172  0.49904355  0.16508716  1
  I  I112  1  -0.00020100  0.49828925  0.50553337  1
  I  I113  1  0.00231438  0.49695776  0.82867648  1
  I  I114  1  -0.00030398  0.83342276  0.17145724  1
  I  I115  1  -0.00314210  0.83348820  0.50221425  1
  I  I116  1  -0.00098994  0.83746848  0.82748425  1
  I  I117  1  0.33323187  0.16680025  0.16701894  1
  I  I118  1  0.33316184  0.16578803  0.50183218  1
  I  I119  1  0.33314923  0.16708003  0.83185324  1
  I  I120  1  0.33334284  0.49879815  0.17039880  1
  I  I121  1  0.33388513  0.50646607  0.50682697  1
  I  I122  1  0.33310835  0.49628207  0.82517989  1
  I  I123  1  0.33335734  0.83352569  0.16517614  1
  I  I124  1  0.33587421  0.82703448  0.50388960  1
  I  I125  1  0.33111881  0.83647911  0.83129636  1
  I  I126  1  0.67049712  0.16686540  0.16584580  1
  I  I127  1  0.67029085  0.17111176  0.50328698  1
  I  I128  1  0.66781555  0.16677742  0.83278968  1
  I  I129  1  0.66679485  0.49936030  0.16373854  1
  I  I130  1  0.66667498  0.49989889  0.50445641  1
  I  I131  1  0.66415476  0.49545538  0.82797831  1
  I  I132  1  0.66689670  0.83374980  0.15954747  1
  I  I133  1  0.66834212  0.82890868  0.50669537  1
  I  I134  1  0.66952986  0.83818016  0.83058746  1
