# generated using pymatgen
data_Cs27Sn14Pb13I81
_symmetry_space_group_name_H-M   'P 1'
_cell_length_a   18.98082672
_cell_length_b   18.97686615
_cell_length_c   18.96992717
_cell_angle_alpha   89.99990106
_cell_angle_beta   89.99963012
_cell_angle_gamma   89.99999262
_symmetry_Int_Tables_number   1
_chemical_formula_structural   Cs27Sn14Pb13I81
_chemical_formula_sum   'Cs27 Sn14 Pb13 I81'
_cell_volume   6832.90342197
_cell_formula_units_Z   1
loop_
 _symmetry_equiv_pos_site_id
 _symmetry_equiv_pos_as_xyz
  1  'x, y, z'
loop_
 _atom_site_type_symbol
 _atom_site_label
 _atom_site_symmetry_multiplicity
 _atom_site_fract_x
 _atom_site_fract_y
 _atom_site_fract_z
 _atom_site_occupancy
  Cs  Cs0  1  0.00271040  0.00070975  -0.00119464  1
  Cs  Cs1  1  0.00067306  -0.00075907  0.33459811  1
  Cs  Cs2  1  0.00239140  -0.00026514  0.66429733  1
  Cs  Cs3  1  0.00010168  0.33250270  0.00148558  1
  Cs  Cs4  1  -0.00338606  0.33168686  0.33376240  1
  Cs  Cs5  1  -0.00374933  0.34281304  0.66477265  1
  Cs  Cs6  1  -0.00037630  0.66691787  0.00152592  1
  Cs  Cs7  1  -0.00065467  0.66978585  0.33175877  1
  Cs  Cs8  1  0.00013483  0.66094447  0.66891412  1
  Cs  Cs9  1  0.33139990  0.00115859  -0.00061748  1
  Cs  Cs10  1  0.33306962  -0.00061433  0.33431317  1
  Cs  Cs11  1  0.33212553  0.00073538  0.66410728  1
  Cs  Cs12  1  0.33275978  0.33140563  0.00099304  1
  Cs  Cs13  1  0.33455882  0.33163683  0.33288059  1
  Cs  Cs14  1  0.33276645  0.33855914  0.66772701  1
  Cs  Cs15  1  0.33325994  0.66630151  0.00295435  1
  Cs  Cs16  1  0.33531444  0.66872748  0.33213644  1
  Cs  Cs17  1  0.33357196  0.65883507  0.66675555  1
  Cs  Cs18  1  0.66759364  0.00093216  -0.00778696  1
  Cs  Cs19  1  0.66515714  -0.00073155  0.33405146  1
  Cs  Cs20  1  0.66695100  -0.00103056  0.67372612  1
  Cs  Cs21  1  0.66725449  0.32820735  -0.00096403  1
  Cs  Cs22  1  0.66822420  0.33296186  0.33296942  1
  Cs  Cs23  1  0.67463896  0.34114870  0.67369525  1
  Cs  Cs24  1  0.66745582  0.66907709  -0.00131849  1
  Cs  Cs25  1  0.66517307  0.66805094  0.33249712  1
  Cs  Cs26  1  0.66689730  0.66374101  0.67502278  1
  Sn  Sn27  1  0.49979557  0.16632520  0.49975155  1
  Sn  Sn28  1  0.50110084  0.83409262  0.16710488  1
  Sn  Sn29  1  0.16740500  0.16631311  0.50034518  1
  Sn  Sn30  1  0.83276779  0.83359126  0.49950975  1
  Sn  Sn31  1  0.16682707  0.16614934  0.83244137  1
  Sn  Sn32  1  0.16664188  0.49879429  0.16736501  1
  Sn  Sn33  1  0.83305778  0.50083885  0.16715997  1
  Sn  Sn34  1  0.16722447  0.83379659  0.83175214  1
  Sn  Sn35  1  0.16699120  0.83362409  0.50121024  1
  Sn  Sn36  1  0.49920775  0.16604607  0.16761117  1
  Sn  Sn37  1  0.16736943  0.16740099  0.16718978  1
  Sn  Sn38  1  0.50038827  0.49979748  0.16714606  1
  Sn  Sn39  1  0.50032670  0.83406209  0.49960479  1
  Sn  Sn40  1  0.83212182  0.83327867  0.16750120  1
  Pb  Pb41  1  0.83280126  0.16567412  0.16679217  1
  Pb  Pb42  1  0.83622470  0.83348865  0.83328972  1
  Pb  Pb43  1  0.49980247  0.49985340  0.83665899  1
  Pb  Pb44  1  0.16689198  0.83392564  0.16724548  1
  Pb  Pb45  1  0.83348591  0.50023772  0.83695247  1
  Pb  Pb46  1  0.49778980  0.16660824  0.83220309  1
  Pb  Pb47  1  0.83682210  0.16646843  0.83285181  1
  Pb  Pb48  1  0.16681333  0.49978811  0.83622966  1
  Pb  Pb49  1  0.50012789  0.49957794  0.49812231  1
  Pb  Pb50  1  0.83251145  0.16446000  0.50001109  1
  Pb  Pb51  1  0.16675823  0.49976207  0.49707492  1
  Pb  Pb52  1  0.49705126  0.83343728  0.83278214  1
  Pb  Pb53  1  0.83302490  0.50317607  0.49737864  1
  I  I54  1  0.16895751  0.00281687  0.16618027  1
  I  I55  1  0.16675457  -0.00026369  0.49758230  1
  I  I56  1  0.16672655  0.00039643  0.83679729  1
  I  I57  1  0.16925242  0.33211709  0.16563964  1
  I  I58  1  0.17230723  0.32963183  0.50203914  1
  I  I59  1  0.16775498  0.32999969  0.83230690  1
  I  I60  1  0.16868405  0.66509362  0.16622191  1
  I  I61  1  0.16709544  0.67021179  0.50276574  1
  I  I62  1  0.16609783  0.66948405  0.83010726  1
  I  I63  1  0.49830231  -0.00009020  0.17079415  1
  I  I64  1  0.49735468  -0.00070157  0.49009457  1
  I  I65  1  0.50151671  -0.00003594  0.84099870  1
  I  I66  1  0.49820668  0.33263188  0.17000289  1
  I  I67  1  0.49116103  0.32955278  0.49386990  1
  I  I68  1  0.49645889  0.33310057  0.83344170  1
  I  I69  1  0.49908577  0.66733519  0.17014636  1
  I  I70  1  0.49824507  0.67023467  0.49460465  1
  I  I71  1  0.49639075  0.66691185  0.83354236  1
  I  I72  1  0.83203596  -0.00352701  0.17083205  1
  I  I73  1  0.83550763  -0.00394215  0.49097707  1
  I  I74  1  0.83143981  -0.00041680  0.83845165  1
  I  I75  1  0.83235461  0.33581569  0.16485718  1
  I  I76  1  0.83499903  0.33342613  0.49938235  1
  I  I77  1  0.83505521  0.33351350  0.83467416  1
  I  I78  1  0.83201231  0.66738708  0.17066919  1
  I  I79  1  0.83491081  0.67161425  0.49682632  1
  I  I80  1  0.83708375  0.66704917  0.83181454  1
  I  I81  1  0.16988750  0.16611697  0.00109383  1
  I  I82  1  0.17028048  0.16577264  0.33320816  1
  I  I83  1  0.17100042  0.15847738  0.66545267  1
  I  I84  1  0.16707894  0.49757724  0.00462630  1
  I  I85  1  0.16732151  0.49748088  0.32884173  1
  I  I86  1  0.16573618  0.49826378  0.66651788  1
  I  I87  1  0.16631324  0.83587031  -0.00121602  1
  I  I88  1  0.16623646  0.83559066  0.33598815  1
  I  I89  1  0.16621116  0.84225879  0.66508416  1
  I  I90  1  0.49621845  0.16734992  0.00336642  1
  I  I91  1  0.49135780  0.16532486  0.33211438  1
  I  I92  1  0.49471993  0.15773765  0.66262526  1
  I  I93  1  0.49861538  0.50073863  0.00586486  1
  I  I94  1  0.49888391  0.50088167  0.32911250  1
  I  I95  1  0.49954495  0.50067020  0.66646634  1
  I  I96  1  0.50292198  0.83259987  0.00358070  1
  I  I97  1  0.49777311  0.83337106  0.33251728  1
  I  I98  1  0.50286636  0.83986927  0.66275888  1
  I  I99  1  0.83354857  0.16525016  0.00036850  1
  I  I100  1  0.84012213  0.16886807  0.33313432  1
  I  I101  1  0.83171033  0.16341613  0.66633607  1
  I  I102  1  0.83443411  0.50788107  0.00535709  1
  I  I103  1  0.83385467  0.50117098  0.32898604  1
  I  I104  1  0.83428073  0.50035716  0.66662483  1
  I  I105  1  0.83041238  0.82872044  0.00344231  1
  I  I106  1  0.83585568  0.82953278  0.33261666  1
  I  I107  1  0.83074117  0.83648881  0.66328225  1
  I  I108  1  0.00326354  0.16937362  0.16644710  1
  I  I109  1  0.00347935  0.16186875  0.49831702  1
  I  I110  1  0.00544230  0.16107148  0.83653378  1
  I  I111  1  0.00020667  0.50110559  0.16639374  1
  I  I112  1  0.00006164  0.49961182  0.49606528  1
  I  I113  1  0.00040761  0.49987611  0.83654394  1
  I  I114  1  -0.00174269  0.82977258  0.16890604  1
  I  I115  1  0.00074787  0.83734925  0.49795738  1
  I  I116  1  0.00410522  0.83822599  0.83185907  1
  I  I117  1  0.33291760  0.16917859  0.16654668  1
  I  I118  1  0.33248108  0.15783992  0.49694217  1
  I  I119  1  0.32955857  0.16168500  0.83626069  1
  I  I120  1  0.33362004  0.50044067  0.16632004  1
  I  I121  1  0.33330917  0.50587548  0.49678620  1
  I  I122  1  0.33288182  0.50120484  0.83596542  1
  I  I123  1  0.33587442  0.83071076  0.16863903  1
  I  I124  1  0.33335406  0.83772540  0.49783872  1
  I  I125  1  0.32926719  0.83819773  0.83246537  1
  I  I126  1  0.66302149  0.16958274  0.17216661  1
  I  I127  1  0.66270043  0.16210316  0.49004313  1
  I  I128  1  0.66640016  0.16763488  0.83523194  1
  I  I129  1  0.66612993  0.50143086  0.16770704  1
  I  I130  1  0.66658334  0.49779901  0.49628323  1
  I  I131  1  0.66677451  0.50056879  0.83380336  1
  I  I132  1  0.66585402  0.82943143  0.17423247  1
  I  I133  1  0.66567890  0.83750072  0.49144402  1
  I  I134  1  0.66659476  0.83184369  0.83218024  1
