# generated using pymatgen
data_Cs27Sn14Pb13I81
_symmetry_space_group_name_H-M   'P 1'
_cell_length_a   19.02059210
_cell_length_b   19.02631942
_cell_length_c   19.00879763
_cell_angle_alpha   89.99804622
_cell_angle_beta   89.99810996
_cell_angle_gamma   89.99912256
_symmetry_Int_Tables_number   1
_chemical_formula_structural   Cs27Sn14Pb13I81
_chemical_formula_sum   'Cs27 Sn14 Pb13 I81'
_cell_volume   6879.12913874
_cell_formula_units_Z   1
loop_
 _symmetry_equiv_pos_site_id
 _symmetry_equiv_pos_as_xyz
  1  'x, y, z'
loop_
 _atom_site_type_symbol
 _atom_site_label
 _atom_site_symmetry_multiplicity
 _atom_site_fract_x
 _atom_site_fract_y
 _atom_site_fract_z
 _atom_site_occupancy
  Cs  Cs0  1  0.00184664  -0.00362963  -0.00078396  1
  Cs  Cs1  1  -0.00113899  0.00233774  0.33470811  1
  Cs  Cs2  1  -0.00051893  -0.00243372  0.66587936  1
  Cs  Cs3  1  0.00289977  0.33801474  0.00320650  1
  Cs  Cs4  1  -0.00108615  0.32672037  0.33109177  1
  Cs  Cs5  1  0.00285091  0.35134387  0.66880519  1
  Cs  Cs6  1  0.00187483  0.66845617  -0.00057894  1
  Cs  Cs7  1  -0.00338740  0.66946018  0.32910138  1
  Cs  Cs8  1  0.00050482  0.65374203  0.66904982  1
  Cs  Cs9  1  0.33189977  -0.00198556  -0.00275725  1
  Cs  Cs10  1  0.33149875  -0.00107070  0.33951023  1
  Cs  Cs11  1  0.33053819  -0.00178531  0.66935941  1
  Cs  Cs12  1  0.33561013  0.33422766  0.00052240  1
  Cs  Cs13  1  0.33166144  0.32845402  0.33314385  1
  Cs  Cs14  1  0.33148840  0.33743820  0.66682178  1
  Cs  Cs15  1  0.33350354  0.66746408  0.00035737  1
  Cs  Cs16  1  0.33884757  0.67202842  0.34067365  1
  Cs  Cs17  1  0.33261500  0.66654965  0.65893866  1
  Cs  Cs18  1  0.66594502  0.00147208  -0.00323800  1
  Cs  Cs19  1  0.66796811  0.00051130  0.33305610  1
  Cs  Cs20  1  0.67177203  0.00776259  0.67194654  1
  Cs  Cs21  1  0.66174051  0.33015843  0.00113256  1
  Cs  Cs22  1  0.66760288  0.33206327  0.33258222  1
  Cs  Cs23  1  0.66750373  0.32838574  0.66448797  1
  Cs  Cs24  1  0.66372212  0.66894593  0.00257907  1
  Cs  Cs25  1  0.66397602  0.66756576  0.33379672  1
  Cs  Cs26  1  0.66895970  0.66159019  0.66344812  1
  Sn  Sn27  1  0.16762126  0.50154097  0.16679509  1
  Sn  Sn28  1  0.83284138  0.50005679  0.16644133  1
  Sn  Sn29  1  0.50026534  0.50147074  0.83415665  1
  Sn  Sn30  1  0.16750037  0.83376975  0.83378516  1
  Sn  Sn31  1  0.49961411  0.49942879  0.16628771  1
  Sn  Sn32  1  0.50038954  0.16626148  0.49900958  1
  Sn  Sn33  1  0.83252016  0.16614441  0.16651238  1
  Sn  Sn34  1  0.83381190  0.83385533  0.16710896  1
  Sn  Sn35  1  0.50019611  0.16661493  0.16748566  1
  Sn  Sn36  1  0.16652578  0.83277362  0.16646006  1
  Sn  Sn37  1  0.16600347  0.16609174  0.83353153  1
  Sn  Sn38  1  0.49959567  0.83202899  0.83321217  1
  Sn  Sn39  1  0.83339180  0.83404854  0.49949546  1
  Sn  Sn40  1  0.83319144  0.16581272  0.49938872  1
  Pb  Pb41  1  0.83366988  0.83320087  0.83313581  1
  Pb  Pb42  1  0.16679371  0.50021653  0.49540624  1
  Pb  Pb43  1  0.50021988  0.49733498  0.49927196  1
  Pb  Pb44  1  0.50315803  0.83635094  0.50347401  1
  Pb  Pb45  1  0.49826181  0.16678570  0.83338724  1
  Pb  Pb46  1  0.16687237  0.16588286  0.16535972  1
  Pb  Pb47  1  0.83656594  0.16683105  0.83346238  1
  Pb  Pb48  1  0.83318838  0.49944885  0.49677401  1
  Pb  Pb49  1  0.16560745  0.16662656  0.50309434  1
  Pb  Pb50  1  0.16931227  0.50116347  0.83585864  1
  Pb  Pb51  1  0.16371482  0.83334518  0.50011801  1
  Pb  Pb52  1  0.82979518  0.49998629  0.83686513  1
  Pb  Pb53  1  0.49991508  0.83397868  0.16574143  1
  I  I54  1  0.16261874  -0.00284488  0.16340732  1
  I  I55  1  0.16976398  0.00008117  0.49424461  1
  I  I56  1  0.17421587  -0.00167800  0.84114245  1
  I  I57  1  0.16386511  0.33525863  0.16406678  1
  I  I58  1  0.16411767  0.33309911  0.50293445  1
  I  I59  1  0.16745898  0.33210909  0.83404432  1
  I  I60  1  0.16130682  0.66728432  0.15882234  1
  I  I61  1  0.16490377  0.66694329  0.50763349  1
  I  I62  1  0.16757273  0.66971179  0.83665443  1
  I  I63  1  0.50407757  0.00289273  0.16816453  1
  I  I64  1  0.50111386  0.00349942  0.49179455  1
  I  I65  1  0.49726102  -0.00199326  0.83394024  1
  I  I66  1  0.50329010  0.33349018  0.16325045  1
  I  I67  1  0.50908627  0.32974256  0.50188323  1
  I  I68  1  0.49817443  0.33525198  0.83595231  1
  I  I69  1  0.50285122  0.66432676  0.16229431  1
  I  I70  1  0.50051259  0.66687287  0.49803715  1
  I  I71  1  0.49446975  0.66666756  0.84285863  1
  I  I72  1  0.83377988  0.00008937  0.17109075  1
  I  I73  1  0.82934385  0.00064111  0.48936871  1
  I  I74  1  0.82699936  -0.00000268  0.83929668  1
  I  I75  1  0.83351807  0.33291280  0.17047394  1
  I  I76  1  0.82833309  0.32989262  0.49591717  1
  I  I77  1  0.83496825  0.33329398  0.83178174  1
  I  I78  1  0.83433158  0.66707238  0.17019708  1
  I  I79  1  0.83534264  0.66929998  0.49622208  1
  I  I80  1  0.83893592  0.66665218  0.83081107  1
  I  I81  1  0.16801227  0.16493516  -0.00217261  1
  I  I82  1  0.16774688  0.16799859  0.33337480  1
  I  I83  1  0.16946679  0.15736815  0.67064008  1
  I  I84  1  0.16239491  0.50042848  0.00359854  1
  I  I85  1  0.16979553  0.50583071  0.32724000  1
  I  I86  1  0.16748165  0.49884819  0.66700202  1
  I  I87  1  0.16310495  0.83358570  0.00078982  1
  I  I88  1  0.16466613  0.82778634  0.33002442  1
  I  I89  1  0.17104211  0.84035125  0.66982826  1
  I  I90  1  0.50468833  0.16855252  0.00281039  1
  I  I91  1  0.50356215  0.17412895  0.33176159  1
  I  I92  1  0.50542249  0.16557847  0.66444833  1
  I  I93  1  0.50073379  0.49614103  0.00183467  1
  I  I94  1  0.50089456  0.49804821  0.32936044  1
  I  I95  1  0.49773449  0.50328683  0.66939916  1
  I  I96  1  0.50149777  0.83544554  -0.00208776  1
  I  I97  1  0.49609969  0.82995390  0.33357497  1
  I  I98  1  0.49219116  0.82716350  0.67101822  1
  I  I99  1  0.82758937  0.16577179  0.00364928  1
  I  I100  1  0.82956428  0.16678538  0.33160673  1
  I  I101  1  0.82659339  0.15785849  0.66354505  1
  I  I102  1  0.83787736  0.50028491  0.00512266  1
  I  I103  1  0.82985116  0.50041981  0.32867150  1
  I  I104  1  0.83344922  0.50030182  0.66653314  1
  I  I105  1  0.83458989  0.83356678  0.00328466  1
  I  I106  1  0.84012494  0.83378074  0.33109538  1
  I  I107  1  0.83058676  0.84288383  0.66383487  1
  I  I108  1  -0.00286743  0.16987059  0.17029560  1
  I  I109  1  -0.00369369  0.16112582  0.49219521  1
  I  I110  1  0.00376094  0.15651495  0.83573528  1
  I  I111  1  -0.00017292  0.49938221  0.16816625  1
  I  I112  1  -0.00027838  0.49690188  0.50312653  1
  I  I113  1  0.00016673  0.49951297  0.83204844  1
  I  I114  1  -0.00035773  0.82980589  0.16375514  1
  I  I115  1  -0.00379182  0.84344919  0.49879171  1
  I  I116  1  0.00285579  0.83981808  0.83581767  1
  I  I117  1  0.33608714  0.17166718  0.16891346  1
  I  I118  1  0.33585892  0.16915058  0.49425764  1
  I  I119  1  0.33093668  0.16482107  0.83534349  1
  I  I120  1  0.33396214  0.49791151  0.15986495  1
  I  I121  1  0.33373982  0.49708102  0.49838872  1
  I  I122  1  0.33646697  0.49886256  0.84229550  1
  I  I123  1  0.33079616  0.83011545  0.16194654  1
  I  I124  1  0.33342132  0.83434250  0.49696813  1
  I  I125  1  0.33272014  0.83476489  0.84216113  1
  I  I126  1  0.66686750  0.17046247  0.16951946  1
  I  I127  1  0.66725183  0.16265430  0.49607281  1
  I  I128  1  0.66684659  0.16638489  0.83318991  1
  I  I129  1  0.66645844  0.49909864  0.16197271  1
  I  I130  1  0.66673820  0.50400193  0.49987043  1
  I  I131  1  0.66216213  0.50663659  0.83991025  1
  I  I132  1  0.66944423  0.83054885  0.16906966  1
  I  I133  1  0.67023328  0.83355366  0.49080322  1
  I  I134  1  0.66417034  0.82906986  0.83498673  1
