# generated using pymatgen
data_Cs27Sn14Pb13I81
_symmetry_space_group_name_H-M   'P 1'
_cell_length_a   18.96056222
_cell_length_b   18.96061695
_cell_length_c   18.96056221
_cell_angle_alpha   90.00024454
_cell_angle_beta   89.99942128
_cell_angle_gamma   89.99975544
_symmetry_Int_Tables_number   1
_chemical_formula_structural   Cs27Sn14Pb13I81
_chemical_formula_sum   'Cs27 Sn14 Pb13 I81'
_cell_volume   6816.39714998
_cell_formula_units_Z   1
loop_
 _symmetry_equiv_pos_site_id
 _symmetry_equiv_pos_as_xyz
  1  'x, y, z'
loop_
 _atom_site_type_symbol
 _atom_site_label
 _atom_site_symmetry_multiplicity
 _atom_site_fract_x
 _atom_site_fract_y
 _atom_site_fract_z
 _atom_site_occupancy
  Cs  Cs0  1  0.00143303  -0.00053251  0.00227303  1
  Cs  Cs1  1  -0.00133757  0.00141908  0.33235678  1
  Cs  Cs2  1  0.00118629  -0.00223894  0.66548035  1
  Cs  Cs3  1  0.00061108  0.33605340  -0.00245905  1
  Cs  Cs4  1  -0.00061405  0.33063475  0.33142730  1
  Cs  Cs5  1  -0.00443657  0.33222382  0.67110329  1
  Cs  Cs6  1  -0.00070286  0.66604223  -0.00237954  1
  Cs  Cs7  1  0.00406104  0.66712472  0.33445681  1
  Cs  Cs8  1  -0.00080538  0.66838141  0.66747207  1
  Cs  Cs9  1  0.33423624  0.00156286  -0.00239640  1
  Cs  Cs10  1  0.33167348  0.00142142  0.33499323  1
  Cs  Cs11  1  0.33430984  0.00141904  0.66800427  1
  Cs  Cs12  1  0.33166847  0.33044758  0.00092261  1
  Cs  Cs13  1  0.33426245  0.33751768  0.33240422  1
  Cs  Cs14  1  0.33523936  0.33063468  0.66728070  1
  Cs  Cs15  1  0.33515140  0.66705516  0.00259495  1
  Cs  Cs16  1  0.33189992  0.65697063  0.33476684  1
  Cs  Cs17  1  0.33220973  0.66712468  0.66260566  1
  Cs  Cs18  1  0.66341979  -0.00455041  0.00324670  1
  Cs  Cs19  1  0.66906304  0.00156284  0.33243051  1
  Cs  Cs20  1  0.66439367  -0.00053240  0.66523362  1
  Cs  Cs21  1  0.66968657  0.33551422  -0.00301982  1
  Cs  Cs22  1  0.66574406  0.33044756  0.33499816  1
  Cs  Cs23  1  0.66912583  0.33605353  0.66605561  1
  Cs  Cs24  1  0.66548480  0.66981028  0.00118188  1
  Cs  Cs25  1  0.66407178  0.66705514  0.33151534  1
  Cs  Cs26  1  0.66904635  0.66604200  0.66736952  1
  Sn  Sn27  1  0.49911120  0.16593001  0.49919379  1
  Sn  Sn28  1  0.83353637  0.50101267  0.49836186  1
  Sn  Sn29  1  0.83251627  0.83255869  0.50038179  1
  Sn  Sn30  1  0.16628488  0.83255867  0.83415041  1
  Sn  Sn31  1  0.49848079  0.50027216  0.83330913  1
  Sn  Sn32  1  0.83384948  0.83470140  0.83281720  1
  Sn  Sn33  1  0.16721546  0.16681786  0.49945119  1
  Sn  Sn34  1  0.50054538  0.83373939  0.49981951  1
  Sn  Sn35  1  0.16684715  0.83373938  0.16612127  1
  Sn  Sn36  1  0.49945783  0.16653277  0.16720883  1
  Sn  Sn37  1  0.83335755  0.50027219  0.16818586  1
  Sn  Sn38  1  0.16830483  0.50101273  0.83313033  1
  Sn  Sn39  1  0.83299088  0.16463349  0.83367585  1
  Sn  Sn40  1  0.16747285  0.16593001  0.16755547  1
  Pb  Pb41  1  0.83519280  0.83142696  0.16696880  1
  Pb  Pb42  1  0.16516748  0.49974514  0.16479148  1
  Pb  Pb43  1  0.16408273  0.49680572  0.50258390  1
  Pb  Pb44  1  0.49969788  0.83142696  0.83147385  1
  Pb  Pb45  1  0.50220525  0.49749611  0.16446145  1
  Pb  Pb46  1  0.83351554  0.50123534  0.83315118  1
  Pb  Pb47  1  0.50250583  0.16814902  0.83321022  1
  Pb  Pb48  1  0.16520319  0.16607465  0.83352536  1
  Pb  Pb49  1  0.49699058  0.83525887  0.16967608  1
  Pb  Pb50  1  0.83314131  0.16607461  0.50146349  1
  Pb  Pb51  1  0.16662333  0.83485819  0.50004332  1
  Pb  Pb52  1  0.50187514  0.49974517  0.50149913  1
  Pb  Pb53  1  0.83345641  0.16814897  0.16416079  1
  I  I54  1  0.16814343  0.00067968  0.16397572  1
  I  I55  1  0.16542256  0.00286382  0.50124404  1
  I  I56  1  0.16284359  -0.00272414  0.83386895  1
  I  I57  1  0.16842729  0.33035191  0.16851071  1
  I  I58  1  0.17106869  0.32902253  0.49559786  1
  I  I59  1  0.16620054  0.33510011  0.83290690  1
  I  I60  1  0.16326287  0.66901843  0.16389335  1
  I  I61  1  0.16861305  0.66661672  0.49805380  1
  I  I62  1  0.16275608  0.66780956  0.83792395  1
  I  I63  1  0.50034468  0.00348666  0.16632206  1
  I  I64  1  0.50269115  0.00067969  0.49852280  1
  I  I65  1  0.49899032  -0.00010694  0.83389429  1
  I  I66  1  0.49407410  0.32950911  0.17259236  1
  I  I67  1  0.49815590  0.33035186  0.49823964  1
  I  I68  1  0.49760641  0.33600926  0.83173728  1
  I  I69  1  0.49955492  0.66670468  0.16711188  1
  I  I70  1  0.50277298  0.66901845  0.50340391  1
  I  I71  1  0.50230877  0.66371871  0.83129492  1
  I  I72  1  0.83277275  -0.00010698  0.16767607  1
  I  I73  1  0.83279763  -0.00272414  0.50382284  1
  I  I74  1  0.83904154  -0.00160117  0.82762567  1
  I  I75  1  0.83492939  0.33600921  0.16906041  1
  I  I76  1  0.83375980  0.33510015  0.50046635  1
  I  I77  1  0.83377341  0.33225981  0.83289270  1
  I  I78  1  0.83537148  0.66371871  0.16435791  1
  I  I79  1  0.82874267  0.66780960  0.50391055  1
  I  I80  1  0.83512754  0.66959588  0.83153905  1
  I  I81  1  0.16910264  0.16612522  0.00252996  1
  I  I82  1  0.16834094  0.16117057  0.33274096  1
  I  I83  1  0.16909378  0.16670842  0.66456874  1
  I  I84  1  0.16544124  0.49857072  -0.00330813  1
  I  I85  1  0.16597994  0.50236764  0.33349288  1
  I  I86  1  0.16663686  0.50495950  0.67045873  1
  I  I87  1  0.16058613  0.83523934  -0.00100603  1
  I  I88  1  0.16547908  0.83723712  0.33120765  1
  I  I89  1  0.16435353  0.83119221  0.66919917  1
  I  I90  1  0.49641302  0.16947675  0.00235192  1
  I  I91  1  0.49723287  0.16381504  0.33419791  1
  I  I92  1  0.49672733  0.16439765  0.66372963  1
  I  I93  1  0.50012910  0.49867880  -0.00335460  1
  I  I94  1  0.50049546  0.50123308  0.33337455  1
  I  I95  1  0.49987197  0.49741776  0.66936695  1
  I  I96  1  0.50271825  0.83364019  0.00014609  1
  I  I97  1  0.50635604  0.83493727  0.33755823  1
  I  I98  1  0.49986525  0.83945770  0.66349457  1
  I  I99  1  0.83419991  0.16513407  -0.00354936  1
  I  I100  1  0.83390608  0.16625340  0.33325963  1
  I  I101  1  0.83445900  0.16921082  0.66928626  1
  I  I102  1  0.83395088  0.49777753  0.00133212  1
  I  I103  1  0.83338558  0.50350467  0.33422339  1
  I  I104  1  0.83309613  0.50015293  0.66479769  1
  I  I105  1  0.83615327  0.83451900  -0.00275358  1
  I  I106  1  0.83145155  0.83122451  0.33633887  1
  I  I107  1  0.83587617  0.83110174  0.66688152  1
  I  I108  1  0.00293702  0.16439802  0.16993929  1
  I  I109  1  0.00209791  0.16670838  0.49757277  1
  I  I110  1  -0.00261957  0.16921142  0.83220801  1
  I  I111  1  -0.00270027  0.49741780  0.16679503  1
  I  I112  1  -0.00379209  0.50495958  0.50002998  1
  I  I113  1  0.00186901  0.50015276  0.83357016  1
  I  I114  1  0.00317203  0.83945719  0.16680116  1
  I  I115  1  -0.00253254  0.83119212  0.50231351  1
  I  I116  1  -0.00021484  0.83110153  0.83079018  1
  I  I117  1  0.33246875  0.16381472  0.16943358  1
  I  I118  1  0.33392571  0.16117052  0.49832583  1
  I  I119  1  0.33340703  0.16625350  0.83276061  1
  I  I120  1  0.33329211  0.50123325  0.16617101  1
  I  I121  1  0.33317381  0.50236745  0.50068689  1
  I  I122  1  0.33244331  0.50350473  0.83328119  1
  I  I123  1  0.32910840  0.83493740  0.16031117  1
  I  I124  1  0.33545904  0.83723735  0.50118706  1
  I  I125  1  0.33032784  0.83122446  0.83521518  1
  I  I126  1  0.66431475  0.16947682  0.17025389  1
  I  I127  1  0.66413668  0.16612534  0.49756402  1
  I  I128  1  0.67021601  0.16513341  0.83246632  1
  I  I129  1  0.67002124  0.49867854  0.16653764  1
  I  I130  1  0.66997481  0.49857083  0.50122513  1
  I  I131  1  0.66533458  0.49777772  0.83271603  1
  I  I132  1  0.66652063  0.83364033  0.16394798  1
  I  I133  1  0.66767267  0.83523914  0.50608067  1
  I  I134  1  0.66942028  0.83451931  0.83051374  1
