# generated using pymatgen
data_Cs27Sn13Pb14I81
_symmetry_space_group_name_H-M   'P 1'
_cell_length_a   18.97678130
_cell_length_b   18.97679719
_cell_length_c   18.97757713
_cell_angle_alpha   89.99937775
_cell_angle_beta   90.00180757
_cell_angle_gamma   90.00148128
_symmetry_Int_Tables_number   1
_chemical_formula_structural   Cs27Sn13Pb14I81
_chemical_formula_sum   'Cs27 Sn13 Pb14 I81'
_cell_volume   6834.17717411
_cell_formula_units_Z   1
loop_
 _symmetry_equiv_pos_site_id
 _symmetry_equiv_pos_as_xyz
  1  'x, y, z'
loop_
 _atom_site_type_symbol
 _atom_site_label
 _atom_site_symmetry_multiplicity
 _atom_site_fract_x
 _atom_site_fract_y
 _atom_site_fract_z
 _atom_site_occupancy
  Cs  Cs0  1  -0.00015144  -0.00092857  -0.00262832  1
  Cs  Cs1  1  0.00282197  -0.00172321  0.33591720  1
  Cs  Cs2  1  -0.00141389  0.00010831  0.66784051  1
  Cs  Cs3  1  -0.00009204  0.33274204  -0.00164003  1
  Cs  Cs4  1  -0.00079672  0.33637949  0.33348786  1
  Cs  Cs5  1  -0.00034566  0.33381588  0.66771710  1
  Cs  Cs6  1  -0.00004900  0.66837426  -0.00041475  1
  Cs  Cs7  1  -0.00240614  0.66444697  0.33515697  1
  Cs  Cs8  1  0.00079574  0.66739124  0.66681746  1
  Cs  Cs9  1  0.33241004  0.00038724  0.00020007  1
  Cs  Cs10  1  0.33341927  0.00014199  0.33418479  1
  Cs  Cs11  1  0.33379008  0.00010260  0.66558105  1
  Cs  Cs12  1  0.33218069  0.33526122  0.00092431  1
  Cs  Cs13  1  0.33337769  0.33099637  0.32996618  1
  Cs  Cs14  1  0.33406836  0.33515801  0.66826636  1
  Cs  Cs15  1  0.33415417  0.66338730  -0.00277209  1
  Cs  Cs16  1  0.33374978  0.66729544  0.33995998  1
  Cs  Cs17  1  0.34141711  0.66082122  0.66263965  1
  Cs  Cs18  1  0.66607849  -0.00042634  0.00664553  1
  Cs  Cs19  1  0.66486593  -0.00124820  0.32704830  1
  Cs  Cs20  1  0.66927774  0.00116251  0.66804553  1
  Cs  Cs21  1  0.67077816  0.32916702  0.00272478  1
  Cs  Cs22  1  0.66835563  0.33608174  0.33159118  1
  Cs  Cs23  1  0.66670954  0.33234199  0.66508818  1
  Cs  Cs24  1  0.66576111  0.67096619  -0.00019089  1
  Cs  Cs25  1  0.66921134  0.66455824  0.33205954  1
  Cs  Cs26  1  0.66086451  0.66571555  0.66764202  1
  Sn  Sn27  1  0.83345283  0.50117294  0.83322837  1
  Sn  Sn28  1  0.83324546  0.83416437  0.50088139  1
  Sn  Sn29  1  0.83332735  0.16563660  0.49984657  1
  Sn  Sn30  1  0.16740528  0.50042069  0.16665672  1
  Sn  Sn31  1  0.83395928  0.83254031  0.83239835  1
  Sn  Sn32  1  0.16661966  0.83302384  0.16607587  1
  Sn  Sn33  1  0.49922147  0.16628504  0.83305951  1
  Sn  Sn34  1  0.16662498  0.16668802  0.50045771  1
  Sn  Sn35  1  0.16645069  0.16648278  0.16638290  1
  Sn  Sn36  1  0.50004992  0.16643421  0.50055958  1
  Sn  Sn37  1  0.16670412  0.83356401  0.83332567  1
  Sn  Sn38  1  0.49936356  0.50021195  0.16651787  1
  Sn  Sn39  1  0.16751220  0.16597501  0.83316192  1
  Pb  Pb40  1  0.16554832  0.50031329  0.83487692  1
  Pb  Pb41  1  0.83367930  0.50014916  0.16413462  1
  Pb  Pb42  1  0.16670794  0.49741044  0.49755158  1
  Pb  Pb43  1  0.49786166  0.16792674  0.16659190  1
  Pb  Pb44  1  0.50007936  0.49728144  0.49762856  1
  Pb  Pb45  1  0.83344042  0.16582032  0.83192747  1
  Pb  Pb46  1  0.83636096  0.16650964  0.16997432  1
  Pb  Pb47  1  0.50259817  0.49709044  0.83544598  1
  Pb  Pb48  1  0.49654534  0.83055417  0.16660383  1
  Pb  Pb49  1  0.83332868  0.50036742  0.50254004  1
  Pb  Pb50  1  0.49963052  0.83570754  0.83330867  1
  Pb  Pb51  1  0.16534084  0.83494084  0.50085975  1
  Pb  Pb52  1  0.50318722  0.83591671  0.50003781  1
  Pb  Pb53  1  0.83563269  0.83343004  0.16655634  1
  I  I54  1  0.16463950  0.00065258  0.16615615  1
  I  I55  1  0.16803747  0.00377533  0.49525547  1
  I  I56  1  0.16394573  0.00088374  0.83806574  1
  I  I57  1  0.17049148  0.33253646  0.16745207  1
  I  I58  1  0.16352596  0.32819295  0.50111683  1
  I  I59  1  0.16769387  0.33010061  0.83393262  1
  I  I60  1  0.16949555  0.66706702  0.16012582  1
  I  I61  1  0.16342006  0.66686988  0.49876075  1
  I  I62  1  0.16188790  0.66976184  0.83961939  1
  I  I63  1  0.49995781  0.00015832  0.16682191  1
  I  I64  1  0.49619090  0.00447518  0.50246232  1
  I  I65  1  0.49996264  0.00401784  0.83026801  1
  I  I66  1  0.49316289  0.33557734  0.16665151  1
  I  I67  1  0.50194865  0.32873847  0.50382572  1
  I  I68  1  0.49487842  0.32922986  0.82960083  1
  I  I69  1  0.49525660  0.66278106  0.16542331  1
  I  I70  1  0.50100505  0.66660405  0.49892898  1
  I  I71  1  0.49821693  0.66649721  0.83472443  1
  I  I72  1  0.83337204  0.00007256  0.16189797  1
  I  I73  1  0.83486039  0.00083406  0.50685879  1
  I  I74  1  0.83589375  -0.00268774  0.83037578  1
  I  I75  1  0.83606823  0.33325563  0.16543306  1
  I  I76  1  0.83391829  0.33005258  0.50112972  1
  I  I77  1  0.83363920  0.33448540  0.83309837  1
  I  I78  1  0.83602779  0.66676864  0.17154183  1
  I  I79  1  0.83583490  0.66987446  0.50092331  1
  I  I80  1  0.84011566  0.66832326  0.82903736  1
  I  I81  1  0.17138304  0.16640111  -0.00050557  1
  I  I82  1  0.16607996  0.16705600  0.33329884  1
  I  I83  1  0.16665444  0.16161405  0.66715813  1
  I  I84  1  0.16867318  0.49454265  0.00316158  1
  I  I85  1  0.16881259  0.50025815  0.32889501  1
  I  I86  1  0.16445435  0.49898640  0.66685730  1
  I  I87  1  0.16062539  0.83897542  -0.00057975  1
  I  I88  1  0.16522824  0.83487702  0.33088799  1
  I  I89  1  0.16236614  0.84037040  0.66999656  1
  I  I90  1  0.49563900  0.16827313  -0.00257171  1
  I  I91  1  0.49935824  0.16836819  0.33606662  1
  I  I92  1  0.49493030  0.16677582  0.66644593  1
  I  I93  1  0.49437297  0.49680027  0.00294391  1
  I  I94  1  0.49556647  0.49718702  0.32982226  1
  I  I95  1  0.50128330  0.50022230  0.66688641  1
  I  I96  1  0.50562370  0.83719516  -0.00008557  1
  I  I97  1  0.49997619  0.83628873  0.33329617  1
  I  I98  1  0.49506232  0.83113676  0.66673635  1
  I  I99  1  0.83261480  0.16705413  -0.00009883  1
  I  I100  1  0.83204355  0.16172616  0.33824972  1
  I  I101  1  0.83781849  0.16606782  0.66386305  1
  I  I102  1  0.83440632  0.50458435  -0.00348311  1
  I  I103  1  0.83345304  0.49934211  0.33327165  1
  I  I104  1  0.83467862  0.49982588  0.67017615  1
  I  I105  1  0.83599539  0.82950048  -0.00326771  1
  I  I106  1  0.83483162  0.83887856  0.33622234  1
  I  I107  1  0.84045181  0.83459118  0.66761545  1
  I  I108  1  0.00496689  0.16969599  0.16428988  1
  I  I109  1  0.00051709  0.16297992  0.49940243  1
  I  I110  1  0.00304642  0.16624515  0.83360560  1
  I  I111  1  0.00342767  0.49859424  0.16616460  1
  I  I112  1  -0.00005035  0.49573017  0.49661148  1
  I  I113  1  -0.00238491  0.49802710  0.83572791  1
  I  I114  1  0.00401109  0.83240004  0.16532639  1
  I  I115  1  -0.00267177  0.84045157  0.50098440  1
  I  I116  1  0.00060845  0.83627815  0.83425976  1
  I  I117  1  0.32938742  0.16492519  0.17071148  1
  I  I118  1  0.33252144  0.16796568  0.49972384  1
  I  I119  1  0.33150243  0.16239037  0.82938955  1
  I  I120  1  0.33162592  0.49762348  0.16509086  1
  I  I121  1  0.33330797  0.49950253  0.50288752  1
  I  I122  1  0.33343210  0.50123462  0.83334802  1
  I  I123  1  0.32824874  0.83804380  0.16100847  1
  I  I124  1  0.33325401  0.83492626  0.49927236  1
  I  I125  1  0.32968354  0.83733112  0.83902837  1
  I  I126  1  0.66653287  0.16970166  0.16589428  1
  I  I127  1  0.66670963  0.16379300  0.50691809  1
  I  I128  1  0.66461187  0.16850234  0.82803727  1
  I  I129  1  0.66422530  0.49712170  0.16613870  1
  I  I130  1  0.66682107  0.49651519  0.49649040  1
  I  I131  1  0.67025132  0.50453516  0.83505882  1
  I  I132  1  0.66664685  0.83180336  0.16641971  1
  I  I133  1  0.67134571  0.83876404  0.50640740  1
  I  I134  1  0.66987940  0.83062589  0.82860647  1
