# generated using pymatgen
data_Cs27Sn14Pb13I81
_symmetry_space_group_name_H-M   'P 1'
_cell_length_a   18.98243599
_cell_length_b   18.96763587
_cell_length_c   18.97828504
_cell_angle_alpha   89.99939120
_cell_angle_beta   89.99983635
_cell_angle_gamma   89.99814387
_symmetry_Int_Tables_number   1
_chemical_formula_structural   Cs27Sn14Pb13I81
_chemical_formula_sum   'Cs27 Sn14 Pb13 I81'
_cell_volume   6833.16822289
_cell_formula_units_Z   1
loop_
 _symmetry_equiv_pos_site_id
 _symmetry_equiv_pos_as_xyz
  1  'x, y, z'
loop_
 _atom_site_type_symbol
 _atom_site_label
 _atom_site_symmetry_multiplicity
 _atom_site_fract_x
 _atom_site_fract_y
 _atom_site_fract_z
 _atom_site_occupancy
  Cs  Cs0  1  -0.00192936  0.00032368  0.00028014  1
  Cs  Cs1  1  0.00067126  0.00083718  0.33705671  1
  Cs  Cs2  1  0.00364694  -0.00034272  0.66220640  1
  Cs  Cs3  1  0.00022936  0.33537052  -0.00060376  1
  Cs  Cs4  1  0.00459858  0.32856883  0.33152287  1
  Cs  Cs5  1  -0.00063989  0.33459083  0.66800720  1
  Cs  Cs6  1  -0.00035882  0.66443507  -0.00014862  1
  Cs  Cs7  1  -0.00354906  0.66894895  0.33518931  1
  Cs  Cs8  1  -0.00313376  0.66407199  0.66441478  1
  Cs  Cs9  1  0.33436937  -0.00207748  -0.00224728  1
  Cs  Cs10  1  0.33323917  -0.00012266  0.33289735  1
  Cs  Cs11  1  0.33062899  0.00020831  0.66769299  1
  Cs  Cs12  1  0.32922860  0.33635042  0.00360818  1
  Cs  Cs13  1  0.33189203  0.33089909  0.33511836  1
  Cs  Cs14  1  0.33368109  0.33148880  0.66240870  1
  Cs  Cs15  1  0.33485266  0.66737663  -0.00004994  1
  Cs  Cs16  1  0.33510867  0.66777743  0.33189740  1
  Cs  Cs17  1  0.33383196  0.66811669  0.66919881  1
  Cs  Cs18  1  0.66748699  0.00100568  -0.00031160  1
  Cs  Cs19  1  0.66640121  0.00068893  0.33108052  1
  Cs  Cs20  1  0.66530930  0.00182930  0.67066461  1
  Cs  Cs21  1  0.66994205  0.32622020  -0.00166186  1
  Cs  Cs22  1  0.66309291  0.33467473  0.33634625  1
  Cs  Cs23  1  0.66829478  0.33339479  0.66514063  1
  Cs  Cs24  1  0.66417934  0.66933626  0.00271401  1
  Cs  Cs25  1  0.66731564  0.66533677  0.33135491  1
  Cs  Cs26  1  0.66715237  0.66393059  0.66512252  1
  Sn  Sn27  1  0.83342141  0.83273398  0.16581176  1
  Sn  Sn28  1  0.83260956  0.50036280  0.16660412  1
  Sn  Sn29  1  0.16641832  0.83327160  0.16579753  1
  Sn  Sn30  1  0.50027829  0.83258089  0.83318849  1
  Sn  Sn31  1  0.50006770  0.83298133  0.16665815  1
  Sn  Sn32  1  0.50101966  0.50058659  0.16542798  1
  Sn  Sn33  1  0.16591218  0.16763557  0.50108164  1
  Sn  Sn34  1  0.16607333  0.83367630  0.83409052  1
  Sn  Sn35  1  0.49995779  0.50037533  0.83418987  1
  Sn  Sn36  1  0.16685718  0.16629382  0.83307313  1
  Sn  Sn37  1  0.16671002  0.49983018  0.49999765  1
  Sn  Sn38  1  0.50030941  0.83333061  0.50017512  1
  Sn  Sn39  1  0.83349604  0.16665181  0.50007413  1
  Sn  Sn40  1  0.83354548  0.83311922  0.83371378  1
  Pb  Pb41  1  0.83540783  0.49774400  0.49726159  1
  Pb  Pb42  1  0.49958518  0.16417715  0.50012806  1
  Pb  Pb43  1  0.83067912  0.50224264  0.83558965  1
  Pb  Pb44  1  0.16667815  0.16384940  0.16626500  1
  Pb  Pb45  1  0.83596046  0.16418853  0.83138253  1
  Pb  Pb46  1  0.83067150  0.83481029  0.49994798  1
  Pb  Pb47  1  0.16865924  0.50054757  0.83171190  1
  Pb  Pb48  1  0.16681484  0.50266031  0.16852135  1
  Pb  Pb49  1  0.83331403  0.16662532  0.16854225  1
  Pb  Pb50  1  0.16819096  0.83348789  0.50032448  1
  Pb  Pb51  1  0.49751568  0.16704918  0.83353034  1
  Pb  Pb52  1  0.49997735  0.16718631  0.16633254  1
  Pb  Pb53  1  0.49839007  0.50209485  0.49980039  1
  I  I54  1  0.16752372  -0.00468924  0.16845040  1
  I  I55  1  0.16456575  0.00220468  0.50081116  1
  I  I56  1  0.16905409  -0.00184846  0.83044790  1
  I  I57  1  0.16692216  0.33352971  0.16558449  1
  I  I58  1  0.16431463  0.33217639  0.50476007  1
  I  I59  1  0.16939432  0.33103046  0.82942700  1
  I  I60  1  0.16799217  0.67084446  0.16228679  1
  I  I61  1  0.17006416  0.66513002  0.49919216  1
  I  I62  1  0.16663121  0.67025494  0.83563883  1
  I  I63  1  0.50040230  -0.00423824  0.16627341  1
  I  I64  1  0.49724352  -0.00408696  0.49958734  1
  I  I65  1  0.50136902  -0.00383298  0.83408084  1
  I  I66  1  0.50486929  0.33738739  0.16247827  1
  I  I67  1  0.50052689  0.33344778  0.49954205  1
  I  I68  1  0.49760100  0.33660568  0.83822351  1
  I  I69  1  0.50011692  0.66841554  0.16622934  1
  I  I70  1  0.49728547  0.67012544  0.49996328  1
  I  I71  1  0.49678058  0.66897082  0.83418207  1
  I  I72  1  0.83209847  -0.00377970  0.16393478  1
  I  I73  1  0.84142196  0.00231489  0.49835371  1
  I  I74  1  0.82716136  -0.00426688  0.84020412  1
  I  I75  1  0.82757750  0.33646253  0.16949313  1
  I  I76  1  0.83446073  0.32996846  0.49877809  1
  I  I77  1  0.83292349  0.33336815  0.83439803  1
  I  I78  1  0.83222965  0.66851102  0.16431514  1
  I  I79  1  0.83512747  0.66672898  0.50147673  1
  I  I80  1  0.83949031  0.67084007  0.83278281  1
  I  I81  1  0.16884481  0.16311973  -0.00306514  1
  I  I82  1  0.16352635  0.16864251  0.33626398  1
  I  I83  1  0.16373483  0.16266410  0.66637548  1
  I  I84  1  0.16533978  0.49646974  0.00009951  1
  I  I85  1  0.16903576  0.49509435  0.33616974  1
  I  I86  1  0.16932345  0.50126618  0.66391518  1
  I  I87  1  0.17113917  0.83834880  -0.00074053  1
  I  I88  1  0.16774189  0.83260373  0.33091237  1
  I  I89  1  0.16812095  0.83470628  0.66947773  1
  I  I90  1  0.49843034  0.16158086  -0.00021619  1
  I  I91  1  0.49723489  0.16484873  0.33347777  1
  I  I92  1  0.50148339  0.16537820  0.66674430  1
  I  I93  1  0.50110742  0.51001322  0.00066905  1
  I  I94  1  0.50261815  0.50556716  0.33025799  1
  I  I95  1  0.49657846  0.50613355  0.66909927  1
  I  I96  1  0.49882117  0.82972691  0.00002080  1
  I  I97  1  0.49868514  0.83047656  0.33179998  1
  I  I98  1  0.49847697  0.83023234  0.66821112  1
  I  I99  1  0.83448760  0.16778948  -0.00015320  1
  I  I100  1  0.84129535  0.16333674  0.33625528  1
  I  I101  1  0.83529582  0.16433459  0.66362394  1
  I  I102  1  0.83444814  0.50169201  0.00363678  1
  I  I103  1  0.82593692  0.50911857  0.32962791  1
  I  I104  1  0.83250993  0.50094097  0.66667371  1
  I  I105  1  0.82997304  0.83093702  0.00055854  1
  I  I106  1  0.83353730  0.83130934  0.33015383  1
  I  I107  1  0.83378595  0.83637433  0.66946750  1
  I  I108  1  0.00012608  0.16654539  0.16608752  1
  I  I109  1  0.00149407  0.16818856  0.50298247  1
  I  I110  1  0.00386857  0.16080868  0.83128474  1
  I  I111  1  -0.00231460  0.50541839  0.16984000  1
  I  I112  1  0.00324089  0.50096322  0.49953589  1
  I  I113  1  -0.00001924  0.50078982  0.83348998  1
  I  I114  1  -0.00043676  0.82988925  0.16055792  1
  I  I115  1  -0.00003826  0.83232786  0.49925693  1
  I  I116  1  0.00054170  0.83865795  0.84018903  1
  I  I117  1  0.33306292  0.16649477  0.17040278  1
  I  I118  1  0.33002763  0.16903769  0.50365827  1
  I  I119  1  0.32973953  0.15869531  0.82545402  1
  I  I120  1  0.33626790  0.50512998  0.16415448  1
  I  I121  1  0.33070112  0.49376702  0.49791610  1
  I  I122  1  0.33644133  0.50710218  0.83958693  1
  I  I123  1  0.33410714  0.83051192  0.16505946  1
  I  I124  1  0.33604449  0.83459447  0.49922750  1
  I  I125  1  0.33354501  0.83405815  0.83543183  1
  I  I126  1  0.66678799  0.16142761  0.16955263  1
  I  I127  1  0.66897283  0.16335676  0.49778925  1
  I  I128  1  0.66681999  0.16552231  0.83126607  1
  I  I129  1  0.66579267  0.50988811  0.16469603  1
  I  I130  1  0.66662144  0.49850682  0.50155509  1
  I  I131  1  0.66267644  0.50658835  0.83244110  1
  I  I132  1  0.66629367  0.83006001  0.16500000  1
  I  I133  1  0.66295100  0.83475763  0.49987264  1
  I  I134  1  0.66596019  0.82929854  0.83537764  1
