# generated using pymatgen
data_Cs27Sn13Pb14I81
_symmetry_space_group_name_H-M   'P 1'
_cell_length_a   18.97887137
_cell_length_b   18.97291038
_cell_length_c   18.97804792
_cell_angle_alpha   89.99822890
_cell_angle_beta   89.99985054
_cell_angle_gamma   89.99808493
_symmetry_Int_Tables_number   1
_chemical_formula_structural   Cs27Sn13Pb14I81
_chemical_formula_sum   'Cs27 Sn13 Pb14 I81'
_cell_volume   6833.69947668
_cell_formula_units_Z   1
loop_
 _symmetry_equiv_pos_site_id
 _symmetry_equiv_pos_as_xyz
  1  'x, y, z'
loop_
 _atom_site_type_symbol
 _atom_site_label
 _atom_site_symmetry_multiplicity
 _atom_site_fract_x
 _atom_site_fract_y
 _atom_site_fract_z
 _atom_site_occupancy
  Cs  Cs0  1  -0.00120921  0.00001019  -0.00045105  1
  Cs  Cs1  1  0.00132402  0.00111725  0.33527057  1
  Cs  Cs2  1  0.00049487  -0.00425793  0.66563239  1
  Cs  Cs3  1  -0.00626340  0.33351896  0.00008473  1
  Cs  Cs4  1  0.00339596  0.33222090  0.33226681  1
  Cs  Cs5  1  0.00016394  0.33962388  0.67093430  1
  Cs  Cs6  1  0.00217711  0.66616260  0.00030844  1
  Cs  Cs7  1  -0.00526808  0.66685200  0.33749036  1
  Cs  Cs8  1  0.00952473  0.66626959  0.65779913  1
  Cs  Cs9  1  0.33446225  -0.00044350  0.00000203  1
  Cs  Cs10  1  0.33518512  0.00311978  0.33253528  1
  Cs  Cs11  1  0.33392745  -0.00009342  0.66871171  1
  Cs  Cs12  1  0.33352496  0.33219388  0.00151733  1
  Cs  Cs13  1  0.33097802  0.33100938  0.33334154  1
  Cs  Cs14  1  0.33445084  0.33968048  0.66531330  1
  Cs  Cs15  1  0.33156965  0.66770957  0.00048190  1
  Cs  Cs16  1  0.33524996  0.66456454  0.32915783  1
  Cs  Cs17  1  0.32732198  0.65867740  0.66873447  1
  Cs  Cs18  1  0.66596348  -0.00039853  -0.00075400  1
  Cs  Cs19  1  0.66497786  -0.00075458  0.33402656  1
  Cs  Cs20  1  0.66684887  0.00146155  0.66687671  1
  Cs  Cs21  1  0.67016151  0.33296270  -0.00134614  1
  Cs  Cs22  1  0.66624478  0.33313210  0.33264023  1
  Cs  Cs23  1  0.66567042  0.33490033  0.67012392  1
  Cs  Cs24  1  0.66648687  0.66875917  0.00237318  1
  Cs  Cs25  1  0.67029132  0.66639748  0.33419362  1
  Cs  Cs26  1  0.66578273  0.66230727  0.66167512  1
  Sn  Sn27  1  0.50086554  0.16758118  0.16650517  1
  Sn  Sn28  1  0.50082749  0.16584856  0.50025948  1
  Sn  Sn29  1  0.16544672  0.83295090  0.16679267  1
  Sn  Sn30  1  0.83432309  0.83449470  0.16586897  1
  Sn  Sn31  1  0.49961053  0.83384719  0.50162312  1
  Sn  Sn32  1  0.16716362  0.50085170  0.16632246  1
  Sn  Sn33  1  0.50082253  0.83369745  0.83183702  1
  Sn  Sn34  1  0.49889272  0.16596246  0.83322739  1
  Sn  Sn35  1  0.83270350  0.16658570  0.49950691  1
  Sn  Sn36  1  0.83236078  0.16538234  0.16765693  1
  Sn  Sn37  1  0.83273298  0.83313251  0.83338780  1
  Sn  Sn38  1  0.16742652  0.16645736  0.83337143  1
  Sn  Sn39  1  0.49961150  0.49871157  0.16632326  1
  Pb  Pb40  1  0.17020845  0.83372286  0.49697021  1
  Pb  Pb41  1  0.83134496  0.83515144  0.50009945  1
  Pb  Pb42  1  0.16679242  0.49976906  0.49676873  1
  Pb  Pb43  1  0.83330409  0.50471949  0.83327901  1
  Pb  Pb44  1  0.83335550  0.50000433  0.16655169  1
  Pb  Pb45  1  0.83306407  0.49629263  0.49994327  1
  Pb  Pb46  1  0.16680110  0.16663455  0.50308763  1
  Pb  Pb47  1  0.83294939  0.16520790  0.83304646  1
  Pb  Pb48  1  0.16698846  0.83474516  0.83504819  1
  Pb  Pb49  1  0.50042614  0.83373212  0.16652285  1
  Pb  Pb50  1  0.16673814  0.49721014  0.83614993  1
  Pb  Pb51  1  0.50035842  0.50034580  0.83593194  1
  Pb  Pb52  1  0.50005659  0.49958748  0.49731006  1
  Pb  Pb53  1  0.16629864  0.16649226  0.16515276  1
  I  I54  1  0.16633020  -0.00224693  0.16459556  1
  I  I55  1  0.16533479  0.00017583  0.49593064  1
  I  I56  1  0.16943391  0.00259855  0.83769453  1
  I  I57  1  0.16874352  0.33515109  0.16490277  1
  I  I58  1  0.16828861  0.33289248  0.49751825  1
  I  I59  1  0.17297026  0.32913029  0.83489648  1
  I  I60  1  0.16928124  0.66707949  0.16501720  1
  I  I61  1  0.16805443  0.66697944  0.50296341  1
  I  I62  1  0.16689836  0.66674842  0.83395119  1
  I  I63  1  0.50033975  0.00288428  0.16656760  1
  I  I64  1  0.50347741  0.00141261  0.49738315  1
  I  I65  1  0.49982356  0.00088094  0.83606002  1
  I  I66  1  0.49926478  0.33132288  0.16690060  1
  I  I67  1  0.50359316  0.32940786  0.50210212  1
  I  I68  1  0.49619721  0.32975500  0.83117293  1
  I  I69  1  0.49863576  0.66515234  0.16651115  1
  I  I70  1  0.50008335  0.66963251  0.50215833  1
  I  I71  1  0.50461219  0.67033526  0.83144395  1
  I  I72  1  0.83267900  0.00041151  0.16618708  1
  I  I73  1  0.83003347  0.00320494  0.49727337  1
  I  I74  1  0.83132733  -0.00260322  0.83675520  1
  I  I75  1  0.83251556  0.32995166  0.17009170  1
  I  I76  1  0.82607772  0.32781789  0.49279730  1
  I  I77  1  0.83366035  0.33297463  0.83421799  1
  I  I78  1  0.83299584  0.66989142  0.16206791  1
  I  I79  1  0.83112858  0.66709274  0.49877475  1
  I  I80  1  0.82591207  0.67264881  0.84305628  1
  I  I81  1  0.17189847  0.16580047  -0.00236382  1
  I  I82  1  0.16885400  0.16738631  0.33310253  1
  I  I83  1  0.17044948  0.16405829  0.67082200  1
  I  I84  1  0.17172572  0.50427050  0.00401057  1
  I  I85  1  0.17179347  0.50138846  0.32855408  1
  I  I86  1  0.16605754  0.49934625  0.66692871  1
  I  I87  1  0.16818485  0.83131091  0.00327120  1
  I  I88  1  0.16196294  0.83108887  0.32868034  1
  I  I89  1  0.16329371  0.83516113  0.66674905  1
  I  I90  1  0.49961120  0.16593558  0.00030987  1
  I  I91  1  0.50411527  0.16573097  0.33277113  1
  I  I92  1  0.50059397  0.16071217  0.66678325  1
  I  I93  1  0.49649365  0.49624430  0.00405043  1
  I  I94  1  0.49595972  0.49682059  0.32917390  1
  I  I95  1  0.50024293  0.49794867  0.66667048  1
  I  I96  1  0.50061568  0.83695516  -0.00210547  1
  I  I97  1  0.49926850  0.83695519  0.33498953  1
  I  I98  1  0.50630520  0.84356803  0.66768446  1
  I  I99  1  0.83059198  0.16499303  0.00270027  1
  I  I100  1  0.82573017  0.16130976  0.33172754  1
  I  I101  1  0.82954039  0.16466395  0.66433588  1
  I  I102  1  0.83280915  0.49363933  0.00041404  1
  I  I103  1  0.83274383  0.50519488  0.33280567  1
  I  I104  1  0.83244099  0.49774239  0.66663996  1
  I  I105  1  0.83056104  0.84002199  0.00120624  1
  I  I106  1  0.83511310  0.83496220  0.33037851  1
  I  I107  1  0.82980501  0.83716497  0.66924650  1
  I  I108  1  -0.00288941  0.16592053  0.16875457  1
  I  I109  1  -0.00307128  0.16635301  0.49424612  1
  I  I110  1  0.00150595  0.16504650  0.83595563  1
  I  I111  1  0.00258733  0.50037111  0.16581908  1
  I  I112  1  -0.00006563  0.49939998  0.49794112  1
  I  I113  1  0.00011682  0.49574004  0.83773054  1
  I  I114  1  -0.00117895  0.83423527  0.16053199  1
  I  I115  1  -0.00011696  0.83463733  0.50208982  1
  I  I116  1  -0.00252619  0.83723748  0.83816670  1
  I  I117  1  0.33621403  0.16665224  0.16844281  1
  I  I118  1  0.33718698  0.16311360  0.49570226  1
  I  I119  1  0.33591417  0.16041931  0.83570640  1
  I  I120  1  0.33393956  0.50050446  0.16658825  1
  I  I121  1  0.33371291  0.49793593  0.50015362  1
  I  I122  1  0.33361221  0.50370457  0.83377323  1
  I  I123  1  0.33189435  0.83278593  0.16652905  1
  I  I124  1  0.33818720  0.84150184  0.50346353  1
  I  I125  1  0.33657506  0.83698910  0.83266858  1
  I  I126  1  0.66577014  0.16642218  0.16521723  1
  I  I127  1  0.66515785  0.16225209  0.49935709  1
  I  I128  1  0.66347498  0.16416113  0.83441293  1
  I  I129  1  0.66396494  0.49860932  0.16692557  1
  I  I130  1  0.66623702  0.50301621  0.49582872  1
  I  I131  1  0.66649458  0.49408561  0.83691994  1
  I  I132  1  0.66895769  0.83466948  0.16559224  1
  I  I133  1  0.66332041  0.83657718  0.49770176  1
  I  I134  1  0.66565795  0.84077968  0.83776785  1
