# generated using pymatgen
data_Cs27Sn13Pb14I81
_symmetry_space_group_name_H-M   'P 1'
_cell_length_a   18.97343795
_cell_length_b   18.97976606
_cell_length_c   18.98061179
_cell_angle_alpha   89.99923204
_cell_angle_beta   90.00022558
_cell_angle_gamma   89.99938218
_symmetry_Int_Tables_number   1
_chemical_formula_structural   Cs27Sn13Pb14I81
_chemical_formula_sum   'Cs27 Sn13 Pb14 I81'
_cell_volume   6835.13494244
_cell_formula_units_Z   1
loop_
 _symmetry_equiv_pos_site_id
 _symmetry_equiv_pos_as_xyz
  1  'x, y, z'
loop_
 _atom_site_type_symbol
 _atom_site_label
 _atom_site_symmetry_multiplicity
 _atom_site_fract_x
 _atom_site_fract_y
 _atom_site_fract_z
 _atom_site_occupancy
  Cs  Cs0  1  0.00066673  -0.00245797  -0.00016522  1
  Cs  Cs1  1  0.00624429  -0.00913094  0.33352398  1
  Cs  Cs2  1  0.00177880  0.00025970  0.66566356  1
  Cs  Cs3  1  -0.00221986  0.33601404  -0.00029240  1
  Cs  Cs4  1  -0.00034509  0.33385201  0.33426199  1
  Cs  Cs5  1  -0.00025702  0.33306182  0.66629038  1
  Cs  Cs6  1  -0.00002815  0.66709678  0.00067601  1
  Cs  Cs7  1  0.00558675  0.67496194  0.33208937  1
  Cs  Cs8  1  0.00052422  0.66773089  0.66733652  1
  Cs  Cs9  1  0.33294284  0.00235828  -0.00085044  1
  Cs  Cs10  1  0.33129562  0.00121084  0.33099164  1
  Cs  Cs11  1  0.33317158  0.00074109  0.66815993  1
  Cs  Cs12  1  0.33114195  0.33314169  0.00252748  1
  Cs  Cs13  1  0.33021893  0.33294588  0.33156921  1
  Cs  Cs14  1  0.33248998  0.33396253  0.66605833  1
  Cs  Cs15  1  0.33396310  0.66338360  -0.00217717  1
  Cs  Cs16  1  0.33317684  0.66592464  0.33349118  1
  Cs  Cs17  1  0.33519918  0.66300913  0.66867092  1
  Cs  Cs18  1  0.66654226  0.00043548  0.00034040  1
  Cs  Cs19  1  0.66583101  -0.00041541  0.33381615  1
  Cs  Cs20  1  0.66620265  0.00080915  0.66599412  1
  Cs  Cs21  1  0.66827120  0.33271760  0.00296665  1
  Cs  Cs22  1  0.66657431  0.33505060  0.33350553  1
  Cs  Cs23  1  0.66719694  0.33218297  0.66388306  1
  Cs  Cs24  1  0.66668856  0.66752110  -0.00447351  1
  Cs  Cs25  1  0.66523751  0.66371432  0.33354839  1
  Cs  Cs26  1  0.66568713  0.66752876  0.67073013  1
  Sn  Sn27  1  0.50095659  0.49974537  0.49908900  1
  Sn  Sn28  1  0.16691379  0.83375685  0.83316543  1
  Sn  Sn29  1  0.50009991  0.16696446  0.83276172  1
  Sn  Sn30  1  0.83336379  0.16670699  0.83318126  1
  Sn  Sn31  1  0.83325683  0.16676325  0.16760228  1
  Sn  Sn32  1  0.50052318  0.83244872  0.16714599  1
  Sn  Sn33  1  0.50052853  0.16674018  0.50044644  1
  Sn  Sn34  1  0.83265215  0.49958398  0.49891360  1
  Sn  Sn35  1  0.50102778  0.50079899  0.16748705  1
  Sn  Sn36  1  0.50032331  0.83342761  0.49934057  1
  Sn  Sn37  1  0.83278386  0.16690614  0.49914798  1
  Sn  Sn38  1  0.83241330  0.49951335  0.16800285  1
  Sn  Sn39  1  0.16650450  0.16627686  0.83324272  1
  Pb  Pb40  1  0.50149977  0.16711586  0.16733322  1
  Pb  Pb41  1  0.16616747  0.49993854  0.16696292  1
  Pb  Pb42  1  0.17014944  0.83327169  0.16424276  1
  Pb  Pb43  1  0.16652449  0.49970047  0.83325402  1
  Pb  Pb44  1  0.83313752  0.49801750  0.83300210  1
  Pb  Pb45  1  0.17012632  0.83329263  0.50237521  1
  Pb  Pb46  1  0.83115327  0.83301236  0.49994794  1
  Pb  Pb47  1  0.83101173  0.83267261  0.16683513  1
  Pb  Pb48  1  0.16614579  0.49992903  0.49982387  1
  Pb  Pb49  1  0.50018357  0.49706075  0.83343341  1
  Pb  Pb50  1  0.49866365  0.83564092  0.83337807  1
  Pb  Pb51  1  0.16633119  0.16677012  0.50165338  1
  Pb  Pb52  1  0.16282855  0.16677448  0.16429672  1
  Pb  Pb53  1  0.83545238  0.83602827  0.83320791  1
  I  I54  1  0.16726912  0.00010173  0.16776179  1
  I  I55  1  0.16620604  0.00009705  0.49931551  1
  I  I56  1  0.16690487  0.00177071  0.83303291  1
  I  I57  1  0.17277003  0.33315662  0.16287458  1
  I  I58  1  0.17167865  0.33317139  0.50397243  1
  I  I59  1  0.16640005  0.32946992  0.83294491  1
  I  I60  1  0.16202559  0.66674657  0.16237646  1
  I  I61  1  0.16561252  0.66674258  0.50423439  1
  I  I62  1  0.16910991  0.66960769  0.83333110  1
  I  I63  1  0.50119367  -0.00159967  0.16880072  1
  I  I64  1  0.50374758  0.00098848  0.50094439  1
  I  I65  1  0.50240091  0.00385032  0.83009809  1
  I  I66  1  0.50232933  0.33602395  0.16833906  1
  I  I67  1  0.50404234  0.33308634  0.50114794  1
  I  I68  1  0.49816441  0.32876329  0.82984373  1
  I  I69  1  0.50454785  0.66570272  0.17383811  1
  I  I70  1  0.50286883  0.66593065  0.49556854  1
  I  I71  1  0.49630224  0.66667420  0.83116600  1
  I  I72  1  0.83126004  0.00301220  0.16521408  1
  I  I73  1  0.82870893  0.00352621  0.50136651  1
  I  I74  1  0.83010466  0.00503781  0.83319284  1
  I  I75  1  0.82707041  0.33310937  0.16571409  1
  I  I76  1  0.82570950  0.33231093  0.50062324  1
  I  I77  1  0.83534140  0.32912837  0.83348517  1
  I  I78  1  0.83146949  0.66289693  0.17172963  1
  I  I79  1  0.82939830  0.66295882  0.49488954  1
  I  I80  1  0.83616434  0.66656834  0.83369239  1
  I  I81  1  0.17000818  0.16274513  -0.00424732  1
  I  I82  1  0.16812731  0.16714862  0.33325571  1
  I  I83  1  0.16340244  0.16269394  0.67013067  1
  I  I84  1  0.16766167  0.49926462  0.00007535  1
  I  I85  1  0.16763049  0.49962111  0.33336667  1
  I  I86  1  0.16757311  0.50002754  0.66660209  1
  I  I87  1  0.16826918  0.84005135  -0.00340644  1
  I  I88  1  0.16494668  0.83275964  0.33330914  1
  I  I89  1  0.16799431  0.83976727  0.67001424  1
  I  I90  1  0.50076182  0.16569809  -0.00214663  1
  I  I91  1  0.50502514  0.16599429  0.33651256  1
  I  I92  1  0.50385028  0.16597685  0.66577148  1
  I  I93  1  0.50366876  0.50381703  0.00333193  1
  I  I94  1  0.50406867  0.49900051  0.33403051  1
  I  I95  1  0.50375663  0.50268353  0.66313215  1
  I  I96  1  0.49877528  0.83017051  0.00255667  1
  I  I97  1  0.50122049  0.83528547  0.33402306  1
  I  I98  1  0.49863851  0.83148355  0.66377013  1
  I  I99  1  0.83297562  0.17035469  -0.00010202  1
  I  I100  1  0.82537238  0.17186132  0.33426805  1
  I  I101  1  0.83241630  0.17019916  0.66622274  1
  I  I102  1  0.82927029  0.49516251  0.00322571  1
  I  I103  1  0.82714268  0.48903017  0.33355625  1
  I  I104  1  0.82853037  0.49567222  0.66303696  1
  I  I105  1  0.83037253  0.83389583  0.00007996  1
  I  I106  1  0.83606807  0.84033306  0.33338659  1
  I  I107  1  0.83068923  0.83254787  0.66653257  1
  I  I108  1  -0.00556183  0.17342548  0.16729663  1
  I  I109  1  -0.00387087  0.17264213  0.50163433  1
  I  I110  1  -0.00083694  0.16297374  0.83367703  1
  I  I111  1  -0.00414013  0.49377694  0.16917278  1
  I  I112  1  -0.00420213  0.49268834  0.49751789  1
  I  I113  1  -0.00030099  0.49750239  0.83337539  1
  I  I114  1  0.00007775  0.83343741  0.16505437  1
  I  I115  1  0.00009353  0.83359061  0.50125401  1
  I  I116  1  0.00343468  0.83922484  0.83353913  1
  I  I117  1  0.33347379  0.16690551  0.16555650  1
  I  I118  1  0.33699490  0.16727593  0.50479073  1
  I  I119  1  0.33403526  0.16279098  0.82848964  1
  I  I120  1  0.33707387  0.50357370  0.17023353  1
  I  I121  1  0.33747396  0.49906632  0.49687836  1
  I  I122  1  0.33367684  0.49649745  0.83322570  1
  I  I123  1  0.33816111  0.82850546  0.17133615  1
  I  I124  1  0.33854946  0.83414865  0.49619085  1
  I  I125  1  0.33099408  0.84185179  0.83332337  1
  I  I126  1  0.66953556  0.16735568  0.16111349  1
  I  I127  1  0.66630580  0.16702383  0.50555919  1
  I  I128  1  0.66685419  0.16771389  0.83205403  1
  I  I129  1  0.66639279  0.49888048  0.17086518  1
  I  I130  1  0.66580262  0.49771804  0.49588506  1
  I  I131  1  0.66654077  0.49985285  0.83409042  1
  I  I132  1  0.66296232  0.83324966  0.16912970  1
  I  I133  1  0.66268238  0.83498706  0.49808896  1
  I  I134  1  0.66627483  0.83479297  0.83347094  1
