# generated using pymatgen
data_Cs27Sn14Pb13I81
_symmetry_space_group_name_H-M   'P 1'
_cell_length_a   18.98208225
_cell_length_b   18.97118563
_cell_length_c   18.97827445
_cell_angle_alpha   89.99940982
_cell_angle_beta   90.00003798
_cell_angle_gamma   89.99954797
_symmetry_Int_Tables_number   1
_chemical_formula_structural   Cs27Sn14Pb13I81
_chemical_formula_sum   'Cs27 Sn14 Pb13 I81'
_cell_volume   6834.31586603
_cell_formula_units_Z   1
loop_
 _symmetry_equiv_pos_site_id
 _symmetry_equiv_pos_as_xyz
  1  'x, y, z'
loop_
 _atom_site_type_symbol
 _atom_site_label
 _atom_site_symmetry_multiplicity
 _atom_site_fract_x
 _atom_site_fract_y
 _atom_site_fract_z
 _atom_site_occupancy
  Cs  Cs0  1  0.00029673  0.00046829  0.00061065  1
  Cs  Cs1  1  -0.00155504  -0.00081147  0.33009569  1
  Cs  Cs2  1  0.00060176  -0.00282511  0.66943447  1
  Cs  Cs3  1  0.00055469  0.33030110  0.00038278  1
  Cs  Cs4  1  0.00074381  0.34109307  0.34010757  1
  Cs  Cs5  1  -0.00079290  0.33546678  0.66204724  1
  Cs  Cs6  1  0.00017378  0.66692606  -0.00217306  1
  Cs  Cs7  1  0.00074812  0.66528793  0.33295045  1
  Cs  Cs8  1  -0.00017026  0.66936804  0.66843370  1
  Cs  Cs9  1  0.33222315  0.00053248  0.00035451  1
  Cs  Cs10  1  0.33277976  0.00028927  0.33163666  1
  Cs  Cs11  1  0.33384248  0.00141691  0.66750920  1
  Cs  Cs12  1  0.33292530  0.33248349  0.00014278  1
  Cs  Cs13  1  0.32943027  0.33468310  0.33525352  1
  Cs  Cs14  1  0.33453947  0.32842974  0.66463810  1
  Cs  Cs15  1  0.33860568  0.66517179  0.00162276  1
  Cs  Cs16  1  0.33548396  0.66483875  0.33361235  1
  Cs  Cs17  1  0.33376067  0.66859922  0.66580047  1
  Cs  Cs18  1  0.66872333  -0.00009924  0.00234682  1
  Cs  Cs19  1  0.66899608  0.00039271  0.33150129  1
  Cs  Cs20  1  0.66584308  0.00178686  0.66694004  1
  Cs  Cs21  1  0.66681447  0.33887920  -0.00182993  1
  Cs  Cs22  1  0.67113077  0.33225077  0.33547033  1
  Cs  Cs23  1  0.66458376  0.33477131  0.66537778  1
  Cs  Cs24  1  0.65882254  0.65834711  -0.00008987  1
  Cs  Cs25  1  0.66298631  0.66636250  0.33280733  1
  Cs  Cs26  1  0.66531902  0.66491314  0.66721898  1
  Sn  Sn27  1  0.83358840  0.83393197  0.83414400  1
  Sn  Sn28  1  0.83386670  0.83307798  0.16591031  1
  Sn  Sn29  1  0.83423181  0.16581103  0.83399041  1
  Sn  Sn30  1  0.83393890  0.16621384  0.16586721  1
  Sn  Sn31  1  0.16547378  0.16653987  0.83395346  1
  Sn  Sn32  1  0.16672460  0.83370212  0.49963733  1
  Sn  Sn33  1  0.49982594  0.50035476  0.50005656  1
  Sn  Sn34  1  0.50016363  0.16659429  0.16652759  1
  Sn  Sn35  1  0.16603039  0.16601116  0.16631388  1
  Sn  Sn36  1  0.50005678  0.83329238  0.50006259  1
  Sn  Sn37  1  0.16606845  0.83373329  0.16634342  1
  Sn  Sn38  1  0.16658140  0.49992105  0.83344606  1
  Sn  Sn39  1  0.16628224  0.83337459  0.83392618  1
  Sn  Sn40  1  0.83315966  0.83364765  0.49995049  1
  Pb  Pb41  1  0.83363588  0.50020170  0.16645753  1
  Pb  Pb42  1  0.16634395  0.16427820  0.50000563  1
  Pb  Pb43  1  0.49704878  0.49978314  0.83106102  1
  Pb  Pb44  1  0.50054293  0.16636271  0.83567595  1
  Pb  Pb45  1  0.16825770  0.50297084  0.50251661  1
  Pb  Pb46  1  0.83363000  0.16446214  0.50037985  1
  Pb  Pb47  1  0.50043970  0.83359762  0.83136071  1
  Pb  Pb48  1  0.49981132  0.49656972  0.16913466  1
  Pb  Pb49  1  0.83546071  0.49985012  0.83342146  1
  Pb  Pb50  1  0.83132648  0.50335678  0.50019179  1
  Pb  Pb51  1  0.16650166  0.50028638  0.16451422  1
  Pb  Pb52  1  0.50009164  0.83474833  0.16859181  1
  Pb  Pb53  1  0.50002747  0.16619366  0.49754573  1
  I  I54  1  0.16670906  -0.00048833  0.16306527  1
  I  I55  1  0.16959907  -0.00436787  0.50445832  1
  I  I56  1  0.16321595  -0.00059565  0.83343882  1
  I  I57  1  0.16689415  0.32964038  0.16177825  1
  I  I58  1  0.17046929  0.33346451  0.49982229  1
  I  I59  1  0.16397804  0.33164409  0.83924052  1
  I  I60  1  0.16195817  0.67066385  0.16699517  1
  I  I61  1  0.16392415  0.67154322  0.49932873  1
  I  I62  1  0.16269617  0.66876206  0.83160994  1
  I  I63  1  0.49942585  0.00265914  0.16953952  1
  I  I64  1  0.49975877  -0.00341849  0.49960899  1
  I  I65  1  0.49478297  -0.00002768  0.82863587  1
  I  I66  1  0.49927305  0.32855057  0.16777065  1
  I  I67  1  0.49877401  0.33577560  0.49905142  1
  I  I68  1  0.49998802  0.33304092  0.83019314  1
  I  I69  1  0.49994164  0.66670084  0.16598418  1
  I  I70  1  0.49969917  0.66862394  0.49950129  1
  I  I71  1  0.50005698  0.66683617  0.83594966  1
  I  I72  1  0.83381625  -0.00053199  0.16685245  1
  I  I73  1  0.83086258  -0.00426732  0.49976749  1
  I  I74  1  0.84098582  -0.00094284  0.83340634  1
  I  I75  1  0.83315758  0.32924071  0.16105128  1
  I  I76  1  0.83000322  0.33335798  0.49966183  1
  I  I77  1  0.83700532  0.32964300  0.83959774  1
  I  I78  1  0.83895113  0.67114010  0.16724485  1
  I  I79  1  0.83714281  0.67209503  0.50055535  1
  I  I80  1  0.83821346  0.67043424  0.83229081  1
  I  I81  1  0.16710739  0.16202934  -0.00001452  1
  I  I82  1  0.16711146  0.16136960  0.32977048  1
  I  I83  1  0.16286975  0.16593725  0.67035577  1
  I  I84  1  0.16665175  0.50505135  -0.00336142  1
  I  I85  1  0.16830496  0.49917446  0.33361584  1
  I  I86  1  0.16706269  0.49893677  0.67031316  1
  I  I87  1  0.16007178  0.83433833  -0.00022544  1
  I  I88  1  0.16448712  0.83856586  0.33272604  1
  I  I89  1  0.16448401  0.83289561  0.66735120  1
  I  I90  1  0.49868703  0.16466956  0.00354053  1
  I  I91  1  0.49973827  0.16510550  0.32960179  1
  I  I92  1  0.49951533  0.16755133  0.66656163  1
  I  I93  1  0.50015218  0.49973010  0.00008275  1
  I  I94  1  0.49848018  0.50712754  0.33665376  1
  I  I95  1  0.50024549  0.50555151  0.66331035  1
  I  I96  1  0.49926488  0.83443254  0.00025695  1
  I  I97  1  0.49942322  0.83081164  0.33676439  1
  I  I98  1  0.49918625  0.83015776  0.66289695  1
  I  I99  1  0.83420795  0.15803594  0.00033636  1
  I  I100  1  0.83265161  0.16190922  0.32988360  1
  I  I101  1  0.83855134  0.16227129  0.67024110  1
  I  I102  1  0.83160939  0.50556751  -0.00017754  1
  I  I103  1  0.83363174  0.49852738  0.33345187  1
  I  I104  1  0.83315918  0.49894572  0.66676589  1
  I  I105  1  0.84229676  0.83880859  0.00002708  1
  I  I106  1  0.83579948  0.83742852  0.33275096  1
  I  I107  1  0.83660497  0.83662883  0.66726170  1
  I  I108  1  0.00019454  0.16018844  0.16063428  1
  I  I109  1  0.00004348  0.16728417  0.49560869  1
  I  I110  1  0.00083332  0.16469563  0.84141456  1
  I  I111  1  0.00021575  0.49657684  0.16880112  1
  I  I112  1  0.00022214  0.49945103  0.50014298  1
  I  I113  1  0.00337386  0.50164668  0.83244950  1
  I  I114  1  0.00033953  0.84063913  0.17095151  1
  I  I115  1  0.00014585  0.83553348  0.50075284  1
  I  I116  1  0.00076844  0.83361785  0.82879992  1
  I  I117  1  0.33155813  0.16223086  0.16360206  1
  I  I118  1  0.33314133  0.16339388  0.50017078  1
  I  I119  1  0.32975129  0.16550819  0.83640390  1
  I  I120  1  0.33313729  0.50051980  0.16614101  1
  I  I121  1  0.33596243  0.50715346  0.50041949  1
  I  I122  1  0.32902211  0.50132120  0.83363755  1
  I  I123  1  0.33008021  0.83759998  0.16638000  1
  I  I124  1  0.33252362  0.82962765  0.50022822  1
  I  I125  1  0.32958794  0.83430051  0.83310157  1
  I  I126  1  0.66828789  0.16144587  0.16466134  1
  I  I127  1  0.66680552  0.16378740  0.49986402  1
  I  I128  1  0.67039871  0.16033032  0.83643094  1
  I  I129  1  0.66659619  0.50110333  0.16648341  1
  I  I130  1  0.66343084  0.50576403  0.50011130  1
  I  I131  1  0.66665532  0.50004953  0.83236783  1
  I  I132  1  0.66984792  0.83841697  0.16771124  1
  I  I133  1  0.66738980  0.82977153  0.49953808  1
  I  I134  1  0.67052596  0.83911592  0.83286135  1
