# generated using pymatgen
data_Cs27Sn14Pb13I81
_symmetry_space_group_name_H-M   'P 1'
_cell_length_a   18.96019313
_cell_length_b   18.96074540
_cell_length_c   18.96050825
_cell_angle_alpha   89.99886644
_cell_angle_beta   89.99986050
_cell_angle_gamma   90.00215557
_symmetry_Int_Tables_number   1
_chemical_formula_structural   Cs27Sn14Pb13I81
_chemical_formula_sum   'Cs27 Sn14 Pb13 I81'
_cell_volume   6816.29122877
_cell_formula_units_Z   1
loop_
 _symmetry_equiv_pos_site_id
 _symmetry_equiv_pos_as_xyz
  1  'x, y, z'
loop_
 _atom_site_type_symbol
 _atom_site_label
 _atom_site_symmetry_multiplicity
 _atom_site_fract_x
 _atom_site_fract_y
 _atom_site_fract_z
 _atom_site_occupancy
  Cs  Cs0  1  0.00294235  0.00098083  -0.00217750  1
  Cs  Cs1  1  -0.00259132  0.00104367  0.33744213  1
  Cs  Cs2  1  0.00123681  -0.00066669  0.66442426  1
  Cs  Cs3  1  -0.00145354  0.33600777  0.00323486  1
  Cs  Cs4  1  0.00052229  0.33236442  0.33176552  1
  Cs  Cs5  1  -0.00105065  0.33262133  0.66680183  1
  Cs  Cs6  1  -0.00058605  0.66333538  0.00051918  1
  Cs  Cs7  1  -0.00343806  0.66810380  0.33376864  1
  Cs  Cs8  1  0.00199979  0.66834422  0.66580784  1
  Cs  Cs9  1  0.33402834  -0.00033993  0.00181835  1
  Cs  Cs10  1  0.33478435  0.00143103  0.32742462  1
  Cs  Cs11  1  0.33089706  -0.00229376  0.66768718  1
  Cs  Cs12  1  0.33094072  0.33364546  0.00343052  1
  Cs  Cs13  1  0.33406077  0.33234315  0.33284734  1
  Cs  Cs14  1  0.33451648  0.33565023  0.66491949  1
  Cs  Cs15  1  0.33326209  0.66724774  -0.00181350  1
  Cs  Cs16  1  0.33473824  0.66524935  0.33412524  1
  Cs  Cs17  1  0.33304285  0.66664900  0.66767527  1
  Cs  Cs18  1  0.66338452  0.00076109  0.00067189  1
  Cs  Cs19  1  0.66806879  -0.00168776  0.32806424  1
  Cs  Cs20  1  0.66569080  0.00214788  0.66959260  1
  Cs  Cs21  1  0.67118347  0.33350803  -0.00496360  1
  Cs  Cs22  1  0.66592391  0.33203192  0.34026956  1
  Cs  Cs23  1  0.66727720  0.33070657  0.66490198  1
  Cs  Cs24  1  0.66698375  0.66674608  0.00245129  1
  Cs  Cs25  1  0.66705140  0.66920846  0.32995692  1
  Cs  Cs26  1  0.66329468  0.66567664  0.66694642  1
  Sn  Sn27  1  0.16629081  0.16753527  0.50084407  1
  Sn  Sn28  1  0.83333879  0.83313079  0.83328716  1
  Sn  Sn29  1  0.16728958  0.49969436  0.83264112  1
  Sn  Sn30  1  0.83427690  0.49983541  0.50048515  1
  Sn  Sn31  1  0.16616632  0.83302520  0.16620280  1
  Sn  Sn32  1  0.16573923  0.49932089  0.50063796  1
  Sn  Sn33  1  0.49929357  0.50047787  0.83438623  1
  Sn  Sn34  1  0.83421021  0.16730528  0.49928660  1
  Sn  Sn35  1  0.83345647  0.16678739  0.16703018  1
  Sn  Sn36  1  0.50003710  0.49959637  0.16551716  1
  Sn  Sn37  1  0.49994530  0.83381106  0.50045226  1
  Sn  Sn38  1  0.16679406  0.16713784  0.83268056  1
  Sn  Sn39  1  0.16663972  0.83315213  0.83435350  1
  Sn  Sn40  1  0.50007272  0.83255343  0.83241296  1
  Pb  Pb41  1  0.83570109  0.16471257  0.83272145  1
  Pb  Pb42  1  0.83572652  0.83518475  0.16397157  1
  Pb  Pb43  1  0.16779199  0.50181248  0.16704776  1
  Pb  Pb44  1  0.50276126  0.16974349  0.16645488  1
  Pb  Pb45  1  0.83343079  0.50186075  0.83129480  1
  Pb  Pb46  1  0.83088365  0.49807121  0.16940109  1
  Pb  Pb47  1  0.83094670  0.83369154  0.50189619  1
  Pb  Pb48  1  0.16821991  0.83336948  0.50015245  1
  Pb  Pb49  1  0.49973762  0.50146530  0.50066879  1
  Pb  Pb50  1  0.16518601  0.16487528  0.16708901  1
  Pb  Pb51  1  0.49706360  0.16711473  0.83329316  1
  Pb  Pb52  1  0.49961206  0.16369118  0.50009561  1
  Pb  Pb53  1  0.49829274  0.83184663  0.16585719  1
  I  I54  1  0.16777718  -0.00302431  0.16187236  1
  I  I55  1  0.16323467  0.00256869  0.50350650  1
  I  I56  1  0.16598683  -0.00076467  0.83282099  1
  I  I57  1  0.16705988  0.33338383  0.16398142  1
  I  I58  1  0.16382676  0.33359890  0.50731659  1
  I  I59  1  0.17110577  0.33424956  0.82829633  1
  I  I60  1  0.16781593  0.66965824  0.16205965  1
  I  I61  1  0.16461310  0.66399443  0.50320435  1
  I  I62  1  0.16799749  0.66671393  0.83257511  1
  I  I63  1  0.49961924  -0.00009239  0.16716582  1
  I  I64  1  0.49890992  -0.00412686  0.50689655  1
  I  I65  1  0.49931009  -0.00333454  0.82917718  1
  I  I66  1  0.49697388  0.33758652  0.16180964  1
  I  I67  1  0.50055874  0.33339146  0.50009462  1
  I  I68  1  0.49602440  0.33692685  0.83659773  1
  I  I69  1  0.49939957  0.66406138  0.16579152  1
  I  I70  1  0.49898355  0.66920477  0.50250794  1
  I  I71  1  0.49488123  0.66717571  0.83239732  1
  I  I72  1  0.83410846  0.00289820  0.17434975  1
  I  I73  1  0.83767310  0.00289428  0.49822246  1
  I  I74  1  0.83337345  -0.00331571  0.83135684  1
  I  I75  1  0.83501334  0.33021699  0.16653944  1
  I  I76  1  0.83605077  0.33300335  0.49743300  1
  I  I77  1  0.83275295  0.33330577  0.83464177  1
  I  I78  1  0.83303193  0.66661023  0.16802655  1
  I  I79  1  0.83715536  0.66433242  0.50279612  1
  I  I80  1  0.83756374  0.66981395  0.83099818  1
  I  I81  1  0.16538327  0.16740865  -0.00285652  1
  I  I82  1  0.16483441  0.16926373  0.33654802  1
  I  I83  1  0.16126073  0.16458729  0.66654639  1
  I  I84  1  0.16935457  0.49881342  -0.00327024  1
  I  I85  1  0.16571426  0.49733153  0.33650130  1
  I  I86  1  0.16895386  0.50187464  0.66751110  1
  I  I87  1  0.16888260  0.83409772  -0.00281325  1
  I  I88  1  0.16990500  0.83342635  0.33163253  1
  I  I89  1  0.16604885  0.83338547  0.66981054  1
  I  I90  1  0.50034032  0.16181478  -0.00023388  1
  I  I91  1  0.49504006  0.16629093  0.33344380  1
  I  I92  1  0.50501834  0.16994300  0.66670554  1
  I  I93  1  0.49446107  0.50619115  -0.00211234  1
  I  I94  1  0.50001199  0.50268832  0.33198760  1
  I  I95  1  0.49781977  0.50376365  0.66959084  1
  I  I96  1  0.50049246  0.83111204  -0.00365279  1
  I  I97  1  0.49758767  0.83103715  0.33512880  1
  I  I98  1  0.49731606  0.82762058  0.66889214  1
  I  I99  1  0.83448337  0.16380813  0.00166164  1
  I  I100  1  0.83931089  0.16951893  0.33513774  1
  I  I101  1  0.83556908  0.16905158  0.66367159  1
  I  I102  1  0.83493184  0.49902803  -0.00017792  1
  I  I103  1  0.83784743  0.49999997  0.33743779  1
  I  I104  1  0.83261534  0.49395241  0.66336128  1
  I  I105  1  0.82921671  0.83457256  -0.00405758  1
  I  I106  1  0.83288352  0.83194632  0.33343690  1
  I  I107  1  0.83887892  0.83505028  0.66979296  1
  I  I108  1  -0.00252863  0.16622339  0.16825698  1
  I  I109  1  0.00054621  0.16930061  0.50045922  1
  I  I110  1  0.00400480  0.16598445  0.83181834  1
  I  I111  1  -0.00015162  0.50051390  0.16447888  1
  I  I112  1  0.00122393  0.49740778  0.50533586  1
  I  I113  1  0.00330102  0.50154068  0.83082439  1
  I  I114  1  0.00360432  0.83231125  0.16179187  1
  I  I115  1  0.00003462  0.83306774  0.50091455  1
  I  I116  1  0.00165315  0.83366148  0.83711304  1
  I  I117  1  0.33310812  0.16537567  0.16723381  1
  I  I118  1  0.32975308  0.17040610  0.50473654  1
  I  I119  1  0.32870483  0.16202524  0.82769812  1
  I  I120  1  0.33576871  0.50166782  0.16712399  1
  I  I121  1  0.33044322  0.49755827  0.50143717  1
  I  I122  1  0.33229051  0.50484592  0.83087232  1
  I  I123  1  0.33044669  0.83424476  0.16168747  1
  I  I124  1  0.33582898  0.83160602  0.50586508  1
  I  I125  1  0.33272037  0.83244136  0.83272467  1
  I  I126  1  0.67057860  0.16489133  0.17329797  1
  I  I127  1  0.66978181  0.17041687  0.49666675  1
  I  I128  1  0.66689157  0.16539406  0.83323277  1
  I  I129  1  0.66315233  0.50179723  0.16118472  1
  I  I130  1  0.66879300  0.49696438  0.50011672  1
  I  I131  1  0.66397382  0.50567399  0.83540205  1
  I  I132  1  0.66672485  0.83360231  0.16633100  1
  I  I133  1  0.66333065  0.83161349  0.50578930  1
  I  I134  1  0.66544159  0.82933574  0.82779252  1
