# generated using pymatgen
data_Cs27Sn14Pb13I81
_symmetry_space_group_name_H-M   'P 1'
_cell_length_a   18.97001498
_cell_length_b   18.98279879
_cell_length_c   18.97390520
_cell_angle_alpha   89.99822558
_cell_angle_beta   90.00000134
_cell_angle_gamma   90.00090975
_symmetry_Int_Tables_number   1
_chemical_formula_structural   Cs27Sn14Pb13I81
_chemical_formula_sum   'Cs27 Sn14 Pb13 I81'
_cell_volume   6832.57872718
_cell_formula_units_Z   1
loop_
 _symmetry_equiv_pos_site_id
 _symmetry_equiv_pos_as_xyz
  1  'x, y, z'
loop_
 _atom_site_type_symbol
 _atom_site_label
 _atom_site_symmetry_multiplicity
 _atom_site_fract_x
 _atom_site_fract_y
 _atom_site_fract_z
 _atom_site_occupancy
  Cs  Cs0  1  -0.00495381  -0.00591157  0.00072618  1
  Cs  Cs1  1  -0.00116540  0.00086755  0.33368848  1
  Cs  Cs2  1  0.00360091  -0.00341357  0.66460002  1
  Cs  Cs3  1  -0.00054471  0.33688324  0.00117760  1
  Cs  Cs4  1  -0.00192958  0.33329035  0.33453300  1
  Cs  Cs5  1  0.00023089  0.33169111  0.66326474  1
  Cs  Cs6  1  0.00003216  0.66635619  -0.00197629  1
  Cs  Cs7  1  0.00268959  0.66557129  0.33514911  1
  Cs  Cs8  1  0.00052272  0.66920021  0.66599281  1
  Cs  Cs9  1  0.33349817  0.00389820  -0.00098535  1
  Cs  Cs10  1  0.33252179  -0.00186943  0.33391607  1
  Cs  Cs11  1  0.33470617  0.00336361  0.66721022  1
  Cs  Cs12  1  0.33381678  0.33298019  -0.00004266  1
  Cs  Cs13  1  0.33251410  0.33441405  0.32976380  1
  Cs  Cs14  1  0.33209074  0.32759478  0.67089066  1
  Cs  Cs15  1  0.33158288  0.66388958  0.00194454  1
  Cs  Cs16  1  0.33463229  0.66774472  0.33333994  1
  Cs  Cs17  1  0.33193272  0.66800735  0.66561853  1
  Cs  Cs18  1  0.66971104  0.00013721  -0.00060494  1
  Cs  Cs19  1  0.66917843  -0.00176632  0.32970423  1
  Cs  Cs20  1  0.66226130  0.00033202  0.67000747  1
  Cs  Cs21  1  0.66575351  0.33277544  -0.00220364  1
  Cs  Cs22  1  0.67116947  0.33577704  0.33694045  1
  Cs  Cs23  1  0.66745517  0.33477517  0.66843484  1
  Cs  Cs24  1  0.66804312  0.66733581  0.00094974  1
  Cs  Cs25  1  0.65730823  0.66634890  0.33657761  1
  Cs  Cs26  1  0.66689665  0.66509621  0.66416969  1
  Sn  Sn27  1  0.16588869  0.50004839  0.16755667  1
  Sn  Sn28  1  0.16698834  0.50015399  0.49946918  1
  Sn  Sn29  1  0.50059314  0.50028109  0.83350055  1
  Sn  Sn30  1  0.16607067  0.83274854  0.49909739  1
  Sn  Sn31  1  0.16671200  0.83326498  0.16709158  1
  Sn  Sn32  1  0.16666460  0.16655912  0.16640531  1
  Sn  Sn33  1  0.49995366  0.16692756  0.16710801  1
  Sn  Sn34  1  0.83354370  0.50035985  0.16646188  1
  Sn  Sn35  1  0.50037418  0.16699179  0.49937994  1
  Sn  Sn36  1  0.83331476  0.16722988  0.83315262  1
  Sn  Sn37  1  0.83276460  0.49920505  0.83390594  1
  Sn  Sn38  1  0.49967628  0.83302308  0.83386046  1
  Sn  Sn39  1  0.83328647  0.83330127  0.49977696  1
  Sn  Sn40  1  0.50088133  0.16684099  0.83370296  1
  Pb  Pb41  1  0.83134091  0.83284448  0.83157259  1
  Pb  Pb42  1  0.16895158  0.83338732  0.83317080  1
  Pb  Pb43  1  0.49702923  0.49761313  0.50263399  1
  Pb  Pb44  1  0.16609403  0.49988235  0.83319218  1
  Pb  Pb45  1  0.50000866  0.49799651  0.16495722  1
  Pb  Pb46  1  0.83519589  0.50166144  0.50033130  1
  Pb  Pb47  1  0.16579260  0.16655435  0.83601221  1
  Pb  Pb48  1  0.49930567  0.83518440  0.50155588  1
  Pb  Pb49  1  0.83337151  0.16856388  0.16482461  1
  Pb  Pb50  1  0.16831757  0.16648474  0.49759359  1
  Pb  Pb51  1  0.49774431  0.83573575  0.16441078  1
  Pb  Pb52  1  0.83106256  0.16442155  0.50263823  1
  Pb  Pb53  1  0.83529624  0.83017587  0.16897778  1
  I  I54  1  0.17309973  0.00002366  0.16976563  1
  I  I55  1  0.16455156  -0.00271251  0.49647562  1
  I  I56  1  0.16763929  0.00001943  0.83298794  1
  I  I57  1  0.16771128  0.33391198  0.16954830  1
  I  I58  1  0.16848619  0.33564096  0.49652265  1
  I  I59  1  0.17186074  0.33333431  0.83259181  1
  I  I60  1  0.16228571  0.66610763  0.17009113  1
  I  I61  1  0.16417579  0.66706277  0.49282813  1
  I  I62  1  0.16848772  0.66654428  0.83736286  1
  I  I63  1  0.49477443  0.00394230  0.16404522  1
  I  I64  1  0.49736052  0.00305563  0.50397911  1
  I  I65  1  0.50259192  0.00170982  0.83286344  1
  I  I66  1  0.49329108  0.32997620  0.16337270  1
  I  I67  1  0.49848620  0.32981983  0.50234738  1
  I  I68  1  0.50364863  0.33247125  0.83346803  1
  I  I69  1  0.49922381  0.66655212  0.16394143  1
  I  I70  1  0.50118325  0.66655191  0.50298646  1
  I  I71  1  0.50303438  0.66581921  0.83284097  1
  I  I72  1  0.83421967  -0.00014161  0.16522680  1
  I  I73  1  0.84113083  -0.00311729  0.50154691  1
  I  I74  1  0.82801980  0.00227833  0.83252077  1
  I  I75  1  0.83919729  0.33640438  0.16536680  1
  I  I76  1  0.83422561  0.33340647  0.49921659  1
  I  I77  1  0.82447479  0.33390868  0.83665647  1
  I  I78  1  0.83898826  0.66246118  0.15832583  1
  I  I79  1  0.83533015  0.66934827  0.50283114  1
  I  I80  1  0.82910779  0.66357305  0.83610817  1
  I  I81  1  0.17379049  0.16811492  0.00413312  1
  I  I82  1  0.17274914  0.16722383  0.32954827  1
  I  I83  1  0.16867080  0.16672443  0.66656854  1
  I  I84  1  0.16646962  0.50044728  0.00307742  1
  I  I85  1  0.16142292  0.50001140  0.33190822  1
  I  I86  1  0.16769347  0.50594468  0.66404971  1
  I  I87  1  0.16921383  0.83241273  0.00317893  1
  I  I88  1  0.16389793  0.83261258  0.33328991  1
  I  I89  1  0.16408467  0.82792373  0.66344646  1
  I  I90  1  0.49832058  0.16687810  -0.00090079  1
  I  I91  1  0.49291476  0.16591101  0.33251475  1
  I  I92  1  0.50349447  0.16606477  0.66822366  1
  I  I93  1  0.49823645  0.49702728  -0.00329783  1
  I  I94  1  0.50270052  0.49802133  0.33338796  1
  I  I95  1  0.50509873  0.49767139  0.67070952  1
  I  I96  1  0.49927548  0.83565763  -0.00360970  1
  I  I97  1  0.50187052  0.83553624  0.33322888  1
  I  I98  1  0.49800092  0.83661593  0.66965759  1
  I  I99  1  0.82727410  0.16727620  -0.00317657  1
  I  I100  1  0.83133025  0.16762605  0.33331008  1
  I  I101  1  0.82710760  0.17364284  0.67067239  1
  I  I102  1  0.83598177  0.49665696  -0.00061133  1
  I  I103  1  0.83733177  0.50013281  0.33091980  1
  I  I104  1  0.82984658  0.49731835  0.66968610  1
  I  I105  1  0.83414714  0.83489583  0.00007805  1
  I  I106  1  0.83423642  0.83364159  0.33660285  1
  I  I107  1  0.84070075  0.83194460  0.66398129  1
  I  I108  1  0.00285731  0.16562773  0.16514206  1
  I  I109  1  0.00002590  0.16790342  0.50103548  1
  I  I110  1  -0.00323203  0.17286506  0.83472719  1
  I  I111  1  0.00124532  0.49759055  0.16359837  1
  I  I112  1  0.00332030  0.50079149  0.50058676  1
  I  I113  1  -0.00312576  0.49499292  0.83492525  1
  I  I114  1  0.00379803  0.83935703  0.16657081  1
  I  I115  1  0.00160325  0.83012700  0.49831441  1
  I  I116  1  -0.00008165  0.83387112  0.83440850  1
  I  I117  1  0.33338674  0.16866317  0.16383490  1
  I  I118  1  0.33630110  0.16500368  0.50693803  1
  I  I119  1  0.33664070  0.16747244  0.83172159  1
  I  I120  1  0.33032496  0.50126304  0.16847906  1
  I  I121  1  0.32939002  0.50703427  0.49398028  1
  I  I122  1  0.33605278  0.49799483  0.83324170  1
  I  I123  1  0.32949905  0.82786870  0.17297416  1
  I  I124  1  0.33021299  0.83043745  0.49695798  1
  I  I125  1  0.33704141  0.83495812  0.83152536  1
  I  I126  1  0.66388842  0.16838762  0.16644483  1
  I  I127  1  0.66294109  0.16497153  0.49604326  1
  I  I128  1  0.66489712  0.16710741  0.83543164  1
  I  I129  1  0.66907127  0.49735921  0.16319364  1
  I  I130  1  0.66651105  0.50176936  0.49726516  1
  I  I131  1  0.66676805  0.49833206  0.83869513  1
  I  I132  1  0.66664913  0.83365469  0.16803048  1
  I  I133  1  0.66842435  0.83479045  0.50372038  1
  I  I134  1  0.66336248  0.83510820  0.83069059  1
