# generated using pymatgen
data_Cs27Sn14Pb13I81
_symmetry_space_group_name_H-M   'P 1'
_cell_length_a   18.97811250
_cell_length_b   18.97948055
_cell_length_c   18.96986502
_cell_angle_alpha   89.99877093
_cell_angle_beta   90.00130928
_cell_angle_gamma   89.99909600
_symmetry_Int_Tables_number   1
_chemical_formula_structural   Cs27Sn14Pb13I81
_chemical_formula_sum   'Cs27 Sn14 Pb13 I81'
_cell_volume   6832.84516177
_cell_formula_units_Z   1
loop_
 _symmetry_equiv_pos_site_id
 _symmetry_equiv_pos_as_xyz
  1  'x, y, z'
loop_
 _atom_site_type_symbol
 _atom_site_label
 _atom_site_symmetry_multiplicity
 _atom_site_fract_x
 _atom_site_fract_y
 _atom_site_fract_z
 _atom_site_occupancy
  Cs  Cs0  1  -0.00093801  0.00569950  -0.00073983  1
  Cs  Cs1  1  -0.00163229  0.00164091  0.33485935  1
  Cs  Cs2  1  -0.00274396  -0.00270076  0.66585860  1
  Cs  Cs3  1  0.00373166  0.32214152  0.00241785  1
  Cs  Cs4  1  0.00279611  0.33441554  0.33150720  1
  Cs  Cs5  1  -0.00321385  0.33605408  0.66645248  1
  Cs  Cs6  1  0.00254707  0.66750236  0.00001239  1
  Cs  Cs7  1  0.00131312  0.66356731  0.33843187  1
  Cs  Cs8  1  -0.00594718  0.66487210  0.66181971  1
  Cs  Cs9  1  0.33213525  -0.00426367  -0.00178677  1
  Cs  Cs10  1  0.33737882  -0.00101321  0.33541799  1
  Cs  Cs11  1  0.33295957  0.00070912  0.66583669  1
  Cs  Cs12  1  0.32906267  0.33321080  -0.00518287  1
  Cs  Cs13  1  0.33341687  0.33458946  0.33328159  1
  Cs  Cs14  1  0.33558213  0.33015082  0.66977126  1
  Cs  Cs15  1  0.33293698  0.66776413  -0.00014026  1
  Cs  Cs16  1  0.33341586  0.66605169  0.33261012  1
  Cs  Cs17  1  0.33198837  0.66782839  0.66955541  1
  Cs  Cs18  1  0.66984008  -0.00098087  0.00186521  1
  Cs  Cs19  1  0.66362392  0.00153522  0.33286821  1
  Cs  Cs20  1  0.66843080  -0.00022333  0.66622608  1
  Cs  Cs21  1  0.66833777  0.33523383  -0.00606065  1
  Cs  Cs22  1  0.66507022  0.33193202  0.33345725  1
  Cs  Cs23  1  0.66657085  0.33654138  0.67202239  1
  Cs  Cs24  1  0.66650905  0.66645973  0.00192813  1
  Cs  Cs25  1  0.66534028  0.66598954  0.33044350  1
  Cs  Cs26  1  0.67429010  0.66356269  0.66910722  1
  Sn  Sn27  1  0.83369438  0.83247035  0.16699448  1
  Sn  Sn28  1  0.50001229  0.83258768  0.50051784  1
  Sn  Sn29  1  0.49978235  0.16706964  0.16656646  1
  Sn  Sn30  1  0.49977203  0.83322881  0.83332051  1
  Sn  Sn31  1  0.16647148  0.83331218  0.16655863  1
  Sn  Sn32  1  0.16691687  0.16663206  0.49981695  1
  Sn  Sn33  1  0.49978346  0.50019758  0.49972857  1
  Sn  Sn34  1  0.83267932  0.16686524  0.49974582  1
  Sn  Sn35  1  0.83298747  0.50042841  0.16645564  1
  Sn  Sn36  1  0.16644477  0.50097594  0.83335726  1
  Sn  Sn37  1  0.49984435  0.83332504  0.16661486  1
  Sn  Sn38  1  0.50012969  0.16702980  0.49927695  1
  Sn  Sn39  1  0.50047291  0.49963467  0.16693942  1
  Sn  Sn40  1  0.16713428  0.83215155  0.83369031  1
  Pb  Pb41  1  0.16963640  0.16377243  0.16879516  1
  Pb  Pb42  1  0.83665447  0.50015365  0.83690769  1
  Pb  Pb43  1  0.83378173  0.83322988  0.83586576  1
  Pb  Pb44  1  0.49874715  0.50256999  0.83381006  1
  Pb  Pb45  1  0.16924005  0.49793908  0.50224998  1
  Pb  Pb46  1  0.16836095  0.83458795  0.50019405  1
  Pb  Pb47  1  0.83088742  0.16696126  0.16824879  1
  Pb  Pb48  1  0.50012741  0.16381505  0.83346588  1
  Pb  Pb49  1  0.16704772  0.50192285  0.16522695  1
  Pb  Pb50  1  0.83044288  0.83470305  0.49717010  1
  Pb  Pb51  1  0.16676062  0.16559135  0.83071478  1
  Pb  Pb52  1  0.83070147  0.49786450  0.49740940  1
  Pb  Pb53  1  0.83309334  0.16659784  0.83032590  1
  I  I54  1  0.16657448  -0.00426383  0.16008176  1
  I  I55  1  0.17074817  0.00264669  0.50065553  1
  I  I56  1  0.17173874  -0.00364772  0.83676876  1
  I  I57  1  0.16616433  0.33313870  0.16486360  1
  I  I58  1  0.16986436  0.32994645  0.50075759  1
  I  I59  1  0.16735717  0.33550812  0.83224285  1
  I  I60  1  0.17236603  0.67016460  0.16577806  1
  I  I61  1  0.16899464  0.66666622  0.49839440  1
  I  I62  1  0.17305242  0.66837518  0.83784735  1
  I  I63  1  0.49966633  -0.00131905  0.16989953  1
  I  I64  1  0.49953839  0.00017499  0.49678772  1
  I  I65  1  0.49287753  -0.00435742  0.83381206  1
  I  I66  1  0.50503788  0.33380293  0.17587141  1
  I  I67  1  0.49932306  0.33267025  0.49216140  1
  I  I68  1  0.49783589  0.33359901  0.83308119  1
  I  I69  1  0.50046977  0.66765220  0.16951103  1
  I  I70  1  0.49832645  0.66718705  0.49529998  1
  I  I71  1  0.49706593  0.67060018  0.83413080  1
  I  I72  1  0.83157067  -0.00268401  0.16771180  1
  I  I73  1  0.83066154  0.00272917  0.49734364  1
  I  I74  1  0.83486119  -0.00035223  0.83620969  1
  I  I75  1  0.82808125  0.33595603  0.16857255  1
  I  I76  1  0.83119741  0.33002500  0.49715317  1
  I  I77  1  0.83467497  0.33364568  0.83597140  1
  I  I78  1  0.82635415  0.66748022  0.16653940  1
  I  I79  1  0.83240558  0.66646527  0.50139990  1
  I  I80  1  0.83097539  0.66671388  0.82950347  1
  I  I81  1  0.16805492  0.16844768  0.00015793  1
  I  I82  1  0.16632709  0.16544557  0.33660677  1
  I  I83  1  0.17177264  0.16446615  0.66285339  1
  I  I84  1  0.16996963  0.50231493  -0.00259633  1
  I  I85  1  0.16534792  0.50035849  0.33328420  1
  I  I86  1  0.16932810  0.50720861  0.66987399  1
  I  I87  1  0.17332368  0.83006451  0.00046800  1
  I  I88  1  0.16884959  0.83552636  0.33049203  1
  I  I89  1  0.17357998  0.83277699  0.66939622  1
  I  I90  1  0.50039089  0.16644307  0.00331657  1
  I  I91  1  0.49984281  0.16176235  0.33418794  1
  I  I92  1  0.49951770  0.16663945  0.66290951  1
  I  I93  1  0.50265348  0.50038043  0.00342148  1
  I  I94  1  0.50236768  0.50353823  0.33261648  1
  I  I95  1  0.49706566  0.49817151  0.66403837  1
  I  I96  1  0.49905385  0.83336523  0.00160970  1
  I  I97  1  0.49983149  0.83468110  0.33238888  1
  I  I98  1  0.49330177  0.83536161  0.66625268  1
  I  I99  1  0.83221416  0.16647046  0.00059244  1
  I  I100  1  0.83349335  0.16525685  0.33615161  1
  I  I101  1  0.82937302  0.16563734  0.66189381  1
  I  I102  1  0.82306262  0.50438555  0.00453751  1
  I  I103  1  0.83219296  0.50501748  0.32967516  1
  I  I104  1  0.83238904  0.49773516  0.66655253  1
  I  I105  1  0.82674631  0.83085839  0.00412055  1
  I  I106  1  0.83361845  0.83036475  0.32908310  1
  I  I107  1  0.83302143  0.83609341  0.66632004  1
  I  I108  1  0.00007200  0.16660249  0.16890520  1
  I  I109  1  -0.00006107  0.16481029  0.50092676  1
  I  I110  1  0.00025197  0.16466810  0.83310288  1
  I  I111  1  -0.00236318  0.50517274  0.16484180  1
  I  I112  1  -0.00009968  0.49732245  0.49957433  1
  I  I113  1  0.00413314  0.50808724  0.83231164  1
  I  I114  1  0.00015110  0.82923383  0.16149943  1
  I  I115  1  -0.00022358  0.83730340  0.49991801  1
  I  I116  1  0.00352285  0.83114709  0.83791137  1
  I  I117  1  0.33772165  0.16715234  0.17337055  1
  I  I118  1  0.33538074  0.16561678  0.49683696  1
  I  I119  1  0.33347918  0.16846829  0.83063364  1
  I  I120  1  0.33679886  0.50106455  0.16991519  1
  I  I121  1  0.33752943  0.49857305  0.49246263  1
  I  I122  1  0.33105320  0.50239627  0.83535113  1
  I  I123  1  0.33512298  0.83383368  0.16608122  1
  I  I124  1  0.33714450  0.83641035  0.49510939  1
  I  I125  1  0.33390611  0.83056810  0.83870914  1
  I  I126  1  0.66282297  0.16063575  0.17395659  1
  I  I127  1  0.66472750  0.16510885  0.49467488  1
  I  I128  1  0.66620702  0.16531368  0.83145081  1
  I  I129  1  0.66474861  0.50536089  0.17073707  1
  I  I130  1  0.66232698  0.49891215  0.49921376  1
  I  I131  1  0.66670152  0.50045311  0.83106525  1
  I  I132  1  0.66469538  0.83349021  0.16734060  1
  I  I133  1  0.66179711  0.83629101  0.50020232  1
  I  I134  1  0.66356932  0.83481996  0.83353448  1
