# generated using pymatgen
data_Cs27Sn13Pb14I81
_symmetry_space_group_name_H-M   'P 1'
_cell_length_a   18.98274926
_cell_length_b   18.98608948
_cell_length_c   18.96433489
_cell_angle_alpha   89.99920695
_cell_angle_beta   89.99864113
_cell_angle_gamma   90.00061321
_symmetry_Int_Tables_number   1
_chemical_formula_structural   Cs27Sn13Pb14I81
_chemical_formula_sum   'Cs27 Sn13 Pb14 I81'
_cell_volume   6834.90134493
_cell_formula_units_Z   1
loop_
 _symmetry_equiv_pos_site_id
 _symmetry_equiv_pos_as_xyz
  1  'x, y, z'
loop_
 _atom_site_type_symbol
 _atom_site_label
 _atom_site_symmetry_multiplicity
 _atom_site_fract_x
 _atom_site_fract_y
 _atom_site_fract_z
 _atom_site_occupancy
  Cs  Cs0  1  -0.00159090  -0.00022740  0.00112080  1
  Cs  Cs1  1  0.00061183  0.00150529  0.32993058  1
  Cs  Cs2  1  -0.00192417  -0.01020519  0.66621408  1
  Cs  Cs3  1  0.00035992  0.33329278  0.00115242  1
  Cs  Cs4  1  0.00028539  0.33356915  0.33294136  1
  Cs  Cs5  1  0.00108161  0.33505800  0.66453816  1
  Cs  Cs6  1  0.00186258  0.66588827  0.00049854  1
  Cs  Cs7  1  -0.00128049  0.66537425  0.33401915  1
  Cs  Cs8  1  -0.00186075  0.67367561  0.66015433  1
  Cs  Cs9  1  0.33251252  0.00110022  -0.00007741  1
  Cs  Cs10  1  0.33565517  0.00145623  0.33833008  1
  Cs  Cs11  1  0.33180816  0.00114622  0.66227399  1
  Cs  Cs12  1  0.33202318  0.33367709  -0.00097239  1
  Cs  Cs13  1  0.33381821  0.33192512  0.33946177  1
  Cs  Cs14  1  0.33318097  0.33092648  0.66645588  1
  Cs  Cs15  1  0.33375765  0.66584797  0.00041464  1
  Cs  Cs16  1  0.34279311  0.66714344  0.33479789  1
  Cs  Cs17  1  0.32880164  0.66951158  0.66635693  1
  Cs  Cs18  1  0.66820136  0.00308111  -0.00089427  1
  Cs  Cs19  1  0.66439688  -0.00034329  0.33458806  1
  Cs  Cs20  1  0.66951300  -0.00189396  0.66606508  1
  Cs  Cs21  1  0.66734801  0.33243348  -0.00082580  1
  Cs  Cs22  1  0.66619215  0.33404239  0.33702705  1
  Cs  Cs23  1  0.66623099  0.33357332  0.66725198  1
  Cs  Cs24  1  0.66337748  0.66430299  0.00138969  1
  Cs  Cs25  1  0.66142320  0.66795010  0.33747974  1
  Cs  Cs26  1  0.67111639  0.66725260  0.66167520  1
  Sn  Sn27  1  0.49903403  0.16710100  0.16578516  1
  Sn  Sn28  1  0.49967743  0.50017005  0.83379701  1
  Sn  Sn29  1  0.16647497  0.83290087  0.16626101  1
  Sn  Sn30  1  0.49997015  0.83354789  0.83380676  1
  Sn  Sn31  1  0.83389124  0.16676955  0.50022936  1
  Sn  Sn32  1  0.16784407  0.16695426  0.16571647  1
  Sn  Sn33  1  0.49929418  0.16640960  0.83435104  1
  Sn  Sn34  1  0.83351110  0.83209335  0.16597090  1
  Sn  Sn35  1  0.16613890  0.49948700  0.83387415  1
  Sn  Sn36  1  0.16640051  0.50016291  0.16632783  1
  Sn  Sn37  1  0.16682828  0.16696126  0.83408742  1
  Sn  Sn38  1  0.83401880  0.50003236  0.83408660  1
  Sn  Sn39  1  0.83366091  0.50102971  0.16583350  1
  Pb  Pb40  1  0.16674991  0.83328855  0.49601255  1
  Pb  Pb41  1  0.83121930  0.83033136  0.83587984  1
  Pb  Pb42  1  0.49980468  0.49981085  0.50385205  1
  Pb  Pb43  1  0.83340012  0.83568727  0.49642625  1
  Pb  Pb44  1  0.49987060  0.83575029  0.16491098  1
  Pb  Pb45  1  0.83347281  0.16732312  0.16777424  1
  Pb  Pb46  1  0.83352850  0.49854755  0.49942039  1
  Pb  Pb47  1  0.16666179  0.49998218  0.49977508  1
  Pb  Pb48  1  0.49975360  0.49760187  0.16516339  1
  Pb  Pb49  1  0.83414645  0.16846187  0.83157413  1
  Pb  Pb50  1  0.50192740  0.16679326  0.50082537  1
  Pb  Pb51  1  0.16821001  0.83329924  0.83529590  1
  Pb  Pb52  1  0.49996762  0.83351279  0.50357342  1
  Pb  Pb53  1  0.16443763  0.16663686  0.50054135  1
  I  I54  1  0.16524045  0.00084109  0.16251606  1
  I  I55  1  0.16537864  0.00020760  0.50121993  1
  I  I56  1  0.17179336  0.00295949  0.83764868  1
  I  I57  1  0.16513024  0.33340641  0.16211083  1
  I  I58  1  0.16566161  0.33316529  0.49597886  1
  I  I59  1  0.17113847  0.33355387  0.84084524  1
  I  I60  1  0.16063699  0.66569497  0.16136409  1
  I  I61  1  0.16489928  0.66663884  0.50341090  1
  I  I62  1  0.16872662  0.66353423  0.83781538  1
  I  I63  1  0.49780880  0.00357837  0.16053952  1
  I  I64  1  0.50155114  0.00037599  0.50081716  1
  I  I65  1  0.49574900  0.00142557  0.83782973  1
  I  I66  1  0.49806577  0.32976264  0.16041907  1
  I  I67  1  0.50147306  0.33300105  0.50041177  1
  I  I68  1  0.49974300  0.33309232  0.83725274  1
  I  I69  1  0.49801762  0.66653195  0.16474535  1
  I  I70  1  0.50180889  0.66671413  0.49805138  1
  I  I71  1  0.49992398  0.66561490  0.83414698  1
  I  I72  1  0.83621116  -0.00164441  0.16941970  1
  I  I73  1  0.83296947  0.00307243  0.50012574  1
  I  I74  1  0.83228205  -0.00016714  0.83296820  1
  I  I75  1  0.83608096  0.33622978  0.16398606  1
  I  I76  1  0.83265943  0.33104737  0.49726275  1
  I  I77  1  0.82915575  0.33663235  0.83963713  1
  I  I78  1  0.84126997  0.66564541  0.16202645  1
  I  I79  1  0.83308099  0.66682739  0.50230091  1
  I  I80  1  0.83425623  0.66211260  0.83438208  1
  I  I81  1  0.17012821  0.16806063  0.00053562  1
  I  I82  1  0.16955459  0.16721777  0.32960044  1
  I  I83  1  0.17146998  0.17298028  0.67054532  1
  I  I84  1  0.16583312  0.49857491  -0.00001558  1
  I  I85  1  0.15995858  0.49823623  0.32892410  1
  I  I86  1  0.16772246  0.49373093  0.67097267  1
  I  I87  1  0.16341524  0.83384582  0.00352879  1
  I  I88  1  0.16256867  0.83470060  0.32744789  1
  I  I89  1  0.16836831  0.83387179  0.66705392  1
  I  I90  1  0.49746965  0.16689145  -0.00114690  1
  I  I91  1  0.49649680  0.16610452  0.33041109  1
  I  I92  1  0.49634924  0.16791459  0.67088375  1
  I  I93  1  0.50050026  0.50108785  -0.00347290  1
  I  I94  1  0.50068476  0.49799295  0.33300643  1
  I  I95  1  0.50071059  0.49574644  0.67280963  1
  I  I96  1  0.49999120  0.83125221  -0.00296736  1
  I  I97  1  0.50023786  0.83561808  0.33289975  1
  I  I98  1  0.49988084  0.83560501  0.67188610  1
  I  I99  1  0.83211615  0.16511211  -0.00000385  1
  I  I100  1  0.83305713  0.16787217  0.33514259  1
  I  I101  1  0.83191130  0.17012368  0.66428155  1
  I  I102  1  0.83399762  0.50167547  0.00019072  1
  I  I103  1  0.83917420  0.50143688  0.32945439  1
  I  I104  1  0.83204068  0.49660857  0.66998346  1
  I  I105  1  0.83754806  0.83469104  0.00367433  1
  I  I106  1  0.83685677  0.82708998  0.32849184  1
  I  I107  1  0.83150365  0.83278912  0.66683066  1
  I  I108  1  0.00316080  0.16633645  0.16389459  1
  I  I109  1  -0.00272810  0.16850597  0.49796244  1
  I  I110  1  0.00345176  0.17181639  0.83785247  1
  I  I111  1  0.00055688  0.49827019  0.15917008  1
  I  I112  1  -0.00001435  0.49800273  0.50469782  1
  I  I113  1  0.00089486  0.49304467  0.83856245  1
  I  I114  1  0.00057813  0.83564528  0.16534983  1
  I  I115  1  -0.00019192  0.83460259  0.50509767  1
  I  I116  1  -0.00000188  0.83472798  0.83224479  1
  I  I117  1  0.33219051  0.16637096  0.16241879  1
  I  I118  1  0.33320732  0.16632699  0.49949684  1
  I  I119  1  0.33342366  0.17151107  0.83733023  1
  I  I120  1  0.33008048  0.50256893  0.16198837  1
  I  I121  1  0.33323701  0.49889375  0.49790776  1
  I  I122  1  0.33282168  0.49882027  0.83780992  1
  I  I123  1  0.33046723  0.83061166  0.16406888  1
  I  I124  1  0.33343451  0.83433597  0.49770335  1
  I  I125  1  0.33605308  0.82925786  0.83721018  1
  I  I126  1  0.66440497  0.16621674  0.16326669  1
  I  I127  1  0.66933845  0.16754792  0.49856040  1
  I  I128  1  0.66379607  0.16806195  0.83652092  1
  I  I129  1  0.66924478  0.50220200  0.16200331  1
  I  I130  1  0.66681501  0.49820364  0.49941787  1
  I  I131  1  0.66667565  0.49897577  0.83777991  1
  I  I132  1  0.66902125  0.83043507  0.16476152  1
  I  I133  1  0.66685623  0.83445931  0.49770105  1
  I  I134  1  0.66337701  0.83585160  0.83652105  1
