# generated using pymatgen
data_Cs27Sn13Pb14I81
_symmetry_space_group_name_H-M   'P 1'
_cell_length_a   18.97934542
_cell_length_b   18.98957151
_cell_length_c   19.00817707
_cell_angle_alpha   89.99969184
_cell_angle_beta   90.00022302
_cell_angle_gamma   89.99809446
_symmetry_Int_Tables_number   1
_chemical_formula_structural   Cs27Sn13Pb14I81
_chemical_formula_sum   'Cs27 Sn13 Pb14 I81'
_cell_volume   6850.73019839
_cell_formula_units_Z   1
loop_
 _symmetry_equiv_pos_site_id
 _symmetry_equiv_pos_as_xyz
  1  'x, y, z'
loop_
 _atom_site_type_symbol
 _atom_site_label
 _atom_site_symmetry_multiplicity
 _atom_site_fract_x
 _atom_site_fract_y
 _atom_site_fract_z
 _atom_site_occupancy
  Cs  Cs0  1  0.00162834  0.00059302  -0.00010497  1
  Cs  Cs1  1  0.00268609  0.00448157  0.33252942  1
  Cs  Cs2  1  0.00071699  0.00138368  0.66805713  1
  Cs  Cs3  1  -0.00044907  0.33353179  0.00244579  1
  Cs  Cs4  1  -0.00023991  0.32953418  0.33141344  1
  Cs  Cs5  1  0.00069019  0.33475735  0.66737141  1
  Cs  Cs6  1  -0.00192815  0.66566765  0.00225116  1
  Cs  Cs7  1  0.00072196  0.66567574  0.33225108  1
  Cs  Cs8  1  -0.00029886  0.66458198  0.66505516  1
  Cs  Cs9  1  0.32894905  0.00009523  -0.00404383  1
  Cs  Cs10  1  0.32846432  -0.00143540  0.33335656  1
  Cs  Cs11  1  0.33062887  0.00195998  0.67109583  1
  Cs  Cs12  1  0.34091267  0.33258675  -0.00569768  1
  Cs  Cs13  1  0.33829340  0.33445802  0.33419205  1
  Cs  Cs14  1  0.33857991  0.33954691  0.67263192  1
  Cs  Cs15  1  0.33355652  0.66628728  0.00018110  1
  Cs  Cs16  1  0.33130088  0.66512178  0.33591034  1
  Cs  Cs17  1  0.32580335  0.65818836  0.66324712  1
  Cs  Cs18  1  0.66721242  -0.00249417  0.00073421  1
  Cs  Cs19  1  0.66682767  0.00217564  0.33461251  1
  Cs  Cs20  1  0.66720777  -0.00277523  0.66482161  1
  Cs  Cs21  1  0.66089708  0.33274323  0.00258139  1
  Cs  Cs22  1  0.65960819  0.32492835  0.33357323  1
  Cs  Cs23  1  0.66183143  0.33089991  0.66401410  1
  Cs  Cs24  1  0.66858460  0.66826569  0.00001989  1
  Cs  Cs25  1  0.66736893  0.66824912  0.33309891  1
  Cs  Cs26  1  0.66976320  0.67076338  0.66698731  1
  Sn  Sn27  1  0.83313957  0.16682334  0.83351039  1
  Sn  Sn28  1  0.83317227  0.50007112  0.49911792  1
  Sn  Sn29  1  0.16695081  0.16725382  0.50000993  1
  Sn  Sn30  1  0.83347023  0.50017220  0.16733557  1
  Sn  Sn31  1  0.50024340  0.83331764  0.50027570  1
  Sn  Sn32  1  0.50076172  0.83333941  0.16685435  1
  Sn  Sn33  1  0.50055182  0.83284589  0.83289771  1
  Sn  Sn34  1  0.83332140  0.83331613  0.83337937  1
  Sn  Sn35  1  0.16616200  0.49854125  0.16656443  1
  Sn  Sn36  1  0.16676314  0.16838561  0.16718371  1
  Sn  Sn37  1  0.83318708  0.83292973  0.49953819  1
  Sn  Sn38  1  0.83285301  0.83303785  0.16709822  1
  Sn  Sn39  1  0.83319648  0.49968765  0.83354697  1
  Pb  Pb40  1  0.83455732  0.16661049  0.50196681  1
  Pb  Pb41  1  0.16483641  0.16701721  0.83348810  1
  Pb  Pb42  1  0.50303336  0.16395566  0.83331092  1
  Pb  Pb43  1  0.50317130  0.50320871  0.83325428  1
  Pb  Pb44  1  0.50293565  0.50261457  0.49989542  1
  Pb  Pb45  1  0.16430651  0.49999615  0.83620610  1
  Pb  Pb46  1  0.16628591  0.83285615  0.83317756  1
  Pb  Pb47  1  0.16612988  0.83482599  0.50004934  1
  Pb  Pb48  1  0.16634903  0.83286770  0.16667409  1
  Pb  Pb49  1  0.83440184  0.16665818  0.16483993  1
  Pb  Pb50  1  0.49671311  0.16338193  0.16662293  1
  Pb  Pb51  1  0.50065264  0.50239892  0.16677821  1
  Pb  Pb52  1  0.49692877  0.16381920  0.50016738  1
  Pb  Pb53  1  0.16420456  0.49744491  0.49761833  1
  I  I54  1  0.16657168  0.00212270  0.17013837  1
  I  I55  1  0.16388439  0.00246643  0.49221204  1
  I  I56  1  0.16319701  0.00007424  0.83645934  1
  I  I57  1  0.15616335  0.33388430  0.17086364  1
  I  I58  1  0.16151599  0.33002917  0.49729447  1
  I  I59  1  0.16273576  0.33343477  0.83126038  1
  I  I60  1  0.16370255  0.66406522  0.16541894  1
  I  I61  1  0.16867230  0.66631204  0.49897222  1
  I  I62  1  0.16477835  0.66643526  0.83492927  1
  I  I63  1  0.50708018  -0.00480744  0.16649302  1
  I  I64  1  0.50921777  -0.00458342  0.49963117  1
  I  I65  1  0.50652165  -0.00434118  0.83379418  1
  I  I66  1  0.50307004  0.33333740  0.16697622  1
  I  I67  1  0.50150599  0.33336841  0.49924037  1
  I  I68  1  0.50072711  0.33354623  0.83367632  1
  I  I69  1  0.50003103  0.67078142  0.16593845  1
  I  I70  1  0.50105948  0.67118224  0.49948897  1
  I  I71  1  0.50732171  0.67128456  0.83494624  1
  I  I72  1  0.83126533  -0.00333533  0.16622460  1
  I  I73  1  0.83075634  -0.00344090  0.50032479  1
  I  I74  1  0.83034871  -0.00164132  0.83327243  1
  I  I75  1  0.83753961  0.33638156  0.16582539  1
  I  I76  1  0.83787202  0.33620088  0.50050014  1
  I  I77  1  0.83827999  0.33416165  0.83347000  1
  I  I78  1  0.83582435  0.66722725  0.16277022  1
  I  I79  1  0.83073560  0.66773473  0.50394867  1
  I  I80  1  0.82964534  0.66737835  0.83391079  1
  I  I81  1  0.16419567  0.16864291  0.00296241  1
  I  I82  1  0.16291647  0.16792353  0.33238593  1
  I  I83  1  0.16331230  0.16178653  0.66429135  1
  I  I84  1  0.15970459  0.49528310  0.00412674  1
  I  I85  1  0.15912789  0.50043249  0.32995958  1
  I  I86  1  0.16553778  0.49923396  0.66648964  1
  I  I87  1  0.16637974  0.83682728  0.00022234  1
  I  I88  1  0.16670081  0.83290015  0.33316624  1
  I  I89  1  0.16561148  0.83745962  0.66656311  1
  I  I90  1  0.49757687  0.16407535  0.00000588  1
  I  I91  1  0.50387282  0.16339738  0.33331759  1
  I  I92  1  0.49746644  0.16392223  0.66674326  1
  I  I93  1  0.50091761  0.50262768  0.00006465  1
  I  I94  1  0.50196707  0.50382168  0.33324545  1
  I  I95  1  0.49993704  0.50149978  0.66664024  1
  I  I96  1  0.50752056  0.83321683  -0.00001007  1
  I  I97  1  0.50728279  0.83336869  0.33330448  1
  I  I98  1  0.50970986  0.83492734  0.66673175  1
  I  I99  1  0.83687893  0.16420362  -0.00291906  1
  I  I100  1  0.83401967  0.16559702  0.33330208  1
  I  I101  1  0.83694993  0.16468360  0.66971766  1
  I  I102  1  0.83831695  0.50445030  0.00037316  1
  I  I103  1  0.83872209  0.51005585  0.33274985  1
  I  I104  1  0.83272068  0.50460961  0.66674297  1
  I  I105  1  0.82855854  0.83112279  0.00008568  1
  I  I106  1  0.82791889  0.82630477  0.33313552  1
  I  I107  1  0.82812632  0.83128326  0.66682336  1
  I  I108  1  0.00233575  0.16442902  0.16931795  1
  I  I109  1  0.00215541  0.16335623  0.49586738  1
  I  I110  1  -0.00347428  0.16188277  0.83351711  1
  I  I111  1  -0.00195912  0.50314014  0.16575176  1
  I  I112  1  -0.00410357  0.50818604  0.50329833  1
  I  I113  1  -0.00469150  0.50470895  0.83078072  1
  I  I114  1  -0.00356432  0.83247378  0.16597496  1
  I  I115  1  -0.00398007  0.83046053  0.50024217  1
  I  I116  1  -0.00478007  0.83352599  0.83400332  1
  I  I117  1  0.32876763  0.17148744  0.17065100  1
  I  I118  1  0.32921465  0.16327634  0.49387938  1
  I  I119  1  0.33352400  0.16299473  0.83399277  1
  I  I120  1  0.33055691  0.49825320  0.16759752  1
  I  I121  1  0.33321550  0.50191296  0.49815945  1
  I  I122  1  0.33365874  0.50150590  0.83446994  1
  I  I123  1  0.33627012  0.83437172  0.16626632  1
  I  I124  1  0.33641003  0.83689163  0.49879800  1
  I  I125  1  0.33678040  0.83591227  0.83525464  1
  I  I126  1  0.66653430  0.16904407  0.16526687  1
  I  I127  1  0.66669843  0.16860466  0.50146888  1
  I  I128  1  0.67120885  0.16899580  0.83328908  1
  I  I129  1  0.67066641  0.50388991  0.16483481  1
  I  I130  1  0.67161976  0.50086999  0.49778335  1
  I  I131  1  0.67183777  0.49841373  0.83753403  1
  I  I132  1  0.66848341  0.82789524  0.16560970  1
  I  I133  1  0.66833869  0.83016859  0.50045198  1
  I  I134  1  0.66870567  0.83328256  0.83378806  1
