# generated using pymatgen
data_Cs27Sn14Pb13I81
_symmetry_space_group_name_H-M   'P 1'
_cell_length_a   18.97242319
_cell_length_b   18.98565911
_cell_length_c   18.97188020
_cell_angle_alpha   89.99957175
_cell_angle_beta   89.99972313
_cell_angle_gamma   90.00128555
_symmetry_Int_Tables_number   1
_chemical_formula_structural   Cs27Sn14Pb13I81
_chemical_formula_sum   'Cs27 Sn14 Pb13 I81'
_cell_volume   6833.74635773
_cell_formula_units_Z   1
loop_
 _symmetry_equiv_pos_site_id
 _symmetry_equiv_pos_as_xyz
  1  'x, y, z'
loop_
 _atom_site_type_symbol
 _atom_site_label
 _atom_site_symmetry_multiplicity
 _atom_site_fract_x
 _atom_site_fract_y
 _atom_site_fract_z
 _atom_site_occupancy
  Cs  Cs0  1  0.00040210  0.00328896  -0.00157787  1
  Cs  Cs1  1  0.00047384  0.00000238  0.33209978  1
  Cs  Cs2  1  -0.00160137  -0.00347529  0.66826406  1
  Cs  Cs3  1  -0.00236823  0.33136892  0.00469960  1
  Cs  Cs4  1  0.00664769  0.33409555  0.32576951  1
  Cs  Cs5  1  0.00240193  0.33519635  0.66753178  1
  Cs  Cs6  1  0.00024506  0.66566875  -0.00215996  1
  Cs  Cs7  1  -0.00083047  0.66445735  0.33351602  1
  Cs  Cs8  1  -0.00120776  0.66798346  0.66677759  1
  Cs  Cs9  1  0.33373665  -0.00636309  0.00334542  1
  Cs  Cs10  1  0.33276887  0.00335519  0.32997452  1
  Cs  Cs11  1  0.33270348  0.00359948  0.66612255  1
  Cs  Cs12  1  0.33665919  0.33462050  -0.00171387  1
  Cs  Cs13  1  0.32983624  0.33108085  0.33477945  1
  Cs  Cs14  1  0.33317187  0.33026157  0.66513636  1
  Cs  Cs15  1  0.33684698  0.67075903  0.00012657  1
  Cs  Cs16  1  0.33338789  0.66606776  0.33084534  1
  Cs  Cs17  1  0.33177355  0.66518616  0.66874559  1
  Cs  Cs18  1  0.66511260  0.00231607  -0.00088941  1
  Cs  Cs19  1  0.66619661  -0.00165504  0.33688948  1
  Cs  Cs20  1  0.66771725  0.00266324  0.66503857  1
  Cs  Cs21  1  0.66706750  0.33005908  0.00214737  1
  Cs  Cs22  1  0.66549447  0.33496948  0.33080607  1
  Cs  Cs23  1  0.66464921  0.33246371  0.66764194  1
  Cs  Cs24  1  0.66323230  0.66648940  -0.00011916  1
  Cs  Cs25  1  0.66748531  0.66589985  0.33531258  1
  Cs  Cs26  1  0.66922932  0.66632141  0.66403293  1
  Sn  Sn27  1  0.50019736  0.16740509  0.16696015  1
  Sn  Sn28  1  0.50022404  0.49931504  0.16780404  1
  Sn  Sn29  1  0.16571209  0.50009679  0.83316861  1
  Sn  Sn30  1  0.83336973  0.83320977  0.16629284  1
  Sn  Sn31  1  0.83370798  0.83260416  0.83350510  1
  Sn  Sn32  1  0.83394352  0.50050426  0.83264058  1
  Sn  Sn33  1  0.50045727  0.50070797  0.49931174  1
  Sn  Sn34  1  0.83392724  0.16771620  0.49970583  1
  Sn  Sn35  1  0.16661247  0.16651882  0.83323910  1
  Sn  Sn36  1  0.49955523  0.83258733  0.50026040  1
  Sn  Sn37  1  0.16584210  0.83317370  0.83218480  1
  Sn  Sn38  1  0.16673416  0.83306728  0.50048041  1
  Sn  Sn39  1  0.83356533  0.83319064  0.50006788  1
  Sn  Sn40  1  0.83307950  0.49941253  0.50041429  1
  Pb  Pb41  1  0.16656586  0.50195758  0.50165117  1
  Pb  Pb42  1  0.16394036  0.16411738  0.50171380  1
  Pb  Pb43  1  0.50172017  0.16717666  0.49861443  1
  Pb  Pb44  1  0.50053236  0.83329797  0.83028795  1
  Pb  Pb45  1  0.16899718  0.16660258  0.16401355  1
  Pb  Pb46  1  0.16394884  0.83308572  0.16653052  1
  Pb  Pb47  1  0.50221989  0.83291590  0.16930949  1
  Pb  Pb48  1  0.49750886  0.16647644  0.83560960  1
  Pb  Pb49  1  0.16955172  0.50031755  0.16349086  1
  Pb  Pb50  1  0.50079931  0.50013935  0.83253036  1
  Pb  Pb51  1  0.83485352  0.16703506  0.83151146  1
  Pb  Pb52  1  0.83169544  0.16426399  0.16927594  1
  Pb  Pb53  1  0.83167888  0.50180814  0.16648247  1
  I  I54  1  0.17012990  -0.00026992  0.16474243  1
  I  I55  1  0.16700022  -0.00421509  0.50599449  1
  I  I56  1  0.16256410  -0.00170575  0.82924043  1
  I  I57  1  0.16362917  0.33346272  0.16538881  1
  I  I58  1  0.16718587  0.33341062  0.50291797  1
  I  I59  1  0.16325451  0.33415711  0.83400426  1
  I  I60  1  0.17025240  0.66680588  0.16449470  1
  I  I61  1  0.16261019  0.67015045  0.50590152  1
  I  I62  1  0.16214764  0.66748048  0.82907895  1
  I  I63  1  0.50128223  0.00158252  0.16734509  1
  I  I64  1  0.50199746  -0.00278042  0.49916182  1
  I  I65  1  0.50054239  -0.00029768  0.83401511  1
  I  I66  1  0.50116289  0.33440610  0.17209321  1
  I  I67  1  0.50535055  0.33656124  0.49889079  1
  I  I68  1  0.49920280  0.33355045  0.82906585  1
  I  I69  1  0.50126379  0.66422132  0.16842610  1
  I  I70  1  0.50555670  0.66650511  0.49476739  1
  I  I71  1  0.49475386  0.66666840  0.83946624  1
  I  I72  1  0.83073052  -0.00371119  0.16641018  1
  I  I73  1  0.83256079  -0.00227155  0.50036716  1
  I  I74  1  0.83703522  -0.00325751  0.83193324  1
  I  I75  1  0.83319374  0.33342814  0.16630310  1
  I  I76  1  0.82637664  0.33492064  0.50659027  1
  I  I77  1  0.83687537  0.33648444  0.82819941  1
  I  I78  1  0.83063535  0.66966112  0.17116498  1
  I  I79  1  0.83191276  0.66744531  0.50104954  1
  I  I80  1  0.84086061  0.66735708  0.82839225  1
  I  I81  1  0.16498366  0.16306726  -0.00421228  1
  I  I82  1  0.16648384  0.16469986  0.33347708  1
  I  I83  1  0.16755260  0.16842470  0.66969378  1
  I  I84  1  0.16098143  0.50323594  -0.00496684  1
  I  I85  1  0.16415435  0.50156694  0.33350073  1
  I  I86  1  0.16775075  0.49921570  0.66995362  1
  I  I87  1  0.16278717  0.83355533  -0.00380874  1
  I  I88  1  0.16535929  0.83345810  0.33663370  1
  I  I89  1  0.16171962  0.83303444  0.66725682  1
  I  I90  1  0.50150435  0.17330226  0.00360641  1
  I  I91  1  0.50137448  0.16707640  0.33087265  1
  I  I92  1  0.49984057  0.16675062  0.66635187  1
  I  I93  1  0.49934755  0.49563523  0.00221844  1
  I  I94  1  0.50700804  0.50120025  0.33484162  1
  I  I95  1  0.50179797  0.50543101  0.66337484  1
  I  I96  1  0.50002112  0.83335677  0.00014293  1
  I  I97  1  0.50123609  0.83228412  0.33735051  1
  I  I98  1  0.50489085  0.82700688  0.66226540  1
  I  I99  1  0.83315648  0.16576128  -0.00000093  1
  I  I100  1  0.83231652  0.16524892  0.33735455  1
  I  I101  1  0.83219127  0.16084190  0.66360541  1
  I  I102  1  0.83599357  0.50530214  -0.00312063  1
  I  I103  1  0.82993064  0.50274692  0.33658547  1
  I  I104  1  0.83131764  0.50529258  0.66589214  1
  I  I105  1  0.83794267  0.82855516  -0.00155513  1
  I  I106  1  0.83233811  0.83355000  0.33550200  1
  I  I107  1  0.83430108  0.83253938  0.66588497  1
  I  I108  1  -0.00011914  0.16517742  0.16706460  1
  I  I109  1  -0.00407253  0.16614927  0.50057856  1
  I  I110  1  0.00281264  0.16516353  0.83199897  1
  I  I111  1  -0.00021358  0.50115472  0.16920577  1
  I  I112  1  -0.00331525  0.50215550  0.50315339  1
  I  I113  1  -0.00095742  0.50219562  0.82681714  1
  I  I114  1  -0.00395647  0.83326954  0.17211755  1
  I  I115  1  -0.00143619  0.83370333  0.50152437  1
  I  I116  1  -0.00055756  0.83272100  0.82829861  1
  I  I117  1  0.33692698  0.16942012  0.16848307  1
  I  I118  1  0.33309977  0.16578299  0.50009609  1
  I  I119  1  0.32919622  0.16660803  0.83182078  1
  I  I120  1  0.33760391  0.49734382  0.17271342  1
  I  I121  1  0.33605581  0.50512389  0.49789974  1
  I  I122  1  0.33059633  0.50133272  0.83407012  1
  I  I123  1  0.33358701  0.83385005  0.16617118  1
  I  I124  1  0.33328882  0.82840445  0.50514274  1
  I  I125  1  0.33001731  0.83245945  0.82958291  1
  I  I126  1  0.66398108  0.17081575  0.16600329  1
  I  I127  1  0.66965359  0.16032708  0.50098333  1
  I  I128  1  0.66695758  0.16637185  0.83345403  1
  I  I129  1  0.66375704  0.49770827  0.16627916  1
  I  I130  1  0.66774130  0.50553192  0.50190493  1
  I  I131  1  0.67015414  0.50635837  0.83174656  1
  I  I132  1  0.66999692  0.83299895  0.16639998  1
  I  I133  1  0.66814495  0.83278379  0.49948904  1
  I  I134  1  0.67053486  0.82781351  0.83269477  1
