# generated using pymatgen
data_Cs27Sn13Pb14I81
_symmetry_space_group_name_H-M   'P 1'
_cell_length_a   18.97758435
_cell_length_b   19.00704490
_cell_length_c   18.98868499
_cell_angle_alpha   90.00023678
_cell_angle_beta   89.99857678
_cell_angle_gamma   90.00055216
_symmetry_Int_Tables_number   1
_chemical_formula_structural   Cs27Sn13Pb14I81
_chemical_formula_sum   'Cs27 Sn13 Pb14 I81'
_cell_volume   6849.36674110
_cell_formula_units_Z   1
loop_
 _symmetry_equiv_pos_site_id
 _symmetry_equiv_pos_as_xyz
  1  'x, y, z'
loop_
 _atom_site_type_symbol
 _atom_site_label
 _atom_site_symmetry_multiplicity
 _atom_site_fract_x
 _atom_site_fract_y
 _atom_site_fract_z
 _atom_site_occupancy
  Cs  Cs0  1  -0.00085552  -0.00297337  -0.00046444  1
  Cs  Cs1  1  0.00038098  0.00309344  0.34050709  1
  Cs  Cs2  1  -0.00309931  0.00247646  0.66118669  1
  Cs  Cs3  1  0.00131275  0.33582603  -0.00020159  1
  Cs  Cs4  1  -0.00009018  0.33203278  0.33752875  1
  Cs  Cs5  1  -0.00266286  0.33312866  0.66390819  1
  Cs  Cs6  1  -0.00051042  0.66692364  0.00056305  1
  Cs  Cs7  1  0.00090708  0.66619474  0.33667189  1
  Cs  Cs8  1  -0.00154616  0.66611858  0.66484366  1
  Cs  Cs9  1  0.33250044  0.00135817  -0.00295903  1
  Cs  Cs10  1  0.33390613  -0.00338985  0.33535371  1
  Cs  Cs11  1  0.33395927  0.00036684  0.66749639  1
  Cs  Cs12  1  0.33172135  0.33147924  -0.00301267  1
  Cs  Cs13  1  0.33480757  0.33510793  0.33127176  1
  Cs  Cs14  1  0.33559717  0.33276429  0.66981860  1
  Cs  Cs15  1  0.33002789  0.66712827  -0.00402367  1
  Cs  Cs16  1  0.33927683  0.66769350  0.33620026  1
  Cs  Cs17  1  0.33443921  0.66696573  0.66744054  1
  Cs  Cs18  1  0.67285087  -0.00178971  0.00784426  1
  Cs  Cs19  1  0.66617554  0.00033121  0.32206038  1
  Cs  Cs20  1  0.66763827  0.00345597  0.66861912  1
  Cs  Cs21  1  0.67360100  0.33371724  0.00790798  1
  Cs  Cs22  1  0.66377873  0.33315558  0.32419642  1
  Cs  Cs23  1  0.66512617  0.33163794  0.66760466  1
  Cs  Cs24  1  0.67759374  0.66833141  0.00585517  1
  Cs  Cs25  1  0.65962344  0.66776535  0.33114051  1
  Cs  Cs26  1  0.66753937  0.66632370  0.66547998  1
  Sn  Sn27  1  0.16688179  0.83331383  0.16641471  1
  Sn  Sn28  1  0.16669535  0.50011150  0.50040170  1
  Sn  Sn29  1  0.49990916  0.16668442  0.50027174  1
  Sn  Sn30  1  0.16663931  0.16659640  0.83367754  1
  Sn  Sn31  1  0.49970526  0.16664786  0.83302652  1
  Sn  Sn32  1  0.16703076  0.50000077  0.83295802  1
  Sn  Sn33  1  0.49997812  0.83330598  0.83342406  1
  Sn  Sn34  1  0.49998406  0.50006115  0.83370740  1
  Sn  Sn35  1  0.16702448  0.83345128  0.83343271  1
  Sn  Sn36  1  0.83303865  0.50080553  0.50018400  1
  Sn  Sn37  1  0.16708295  0.16644822  0.16595654  1
  Sn  Sn38  1  0.83269229  0.83269077  0.50015827  1
  Sn  Sn39  1  0.16696254  0.50027628  0.16674894  1
  Pb  Pb40  1  0.16867435  0.16911161  0.50047658  1
  Pb  Pb41  1  0.83343314  0.49993108  0.83143107  1
  Pb  Pb42  1  0.49729432  0.16660386  0.16527697  1
  Pb  Pb43  1  0.83369107  0.83333679  0.83158058  1
  Pb  Pb44  1  0.83334825  0.16673476  0.83344015  1
  Pb  Pb45  1  0.16591217  0.83113969  0.50066207  1
  Pb  Pb46  1  0.50259166  0.83571221  0.50238456  1
  Pb  Pb47  1  0.49717289  0.83312351  0.16327897  1
  Pb  Pb48  1  0.50008702  0.49829419  0.50192237  1
  Pb  Pb49  1  0.83679984  0.83313191  0.16975666  1
  Pb  Pb50  1  0.83625490  0.50017187  0.16994648  1
  Pb  Pb51  1  0.82979004  0.16734771  0.49998375  1
  Pb  Pb52  1  0.83732276  0.16673004  0.16658317  1
  Pb  Pb53  1  0.49729319  0.50028249  0.16281085  1
  I  I54  1  0.16697754  -0.00002846  0.15835240  1
  I  I55  1  0.16446858  0.00009458  0.49927948  1
  I  I56  1  0.17276242  0.00005292  0.84075204  1
  I  I57  1  0.16689332  0.33362468  0.16323970  1
  I  I58  1  0.16063532  0.33698690  0.50040444  1
  I  I59  1  0.17208973  0.33362107  0.83585847  1
  I  I60  1  0.16574612  0.66639973  0.16230836  1
  I  I61  1  0.16542987  0.66312901  0.50077760  1
  I  I62  1  0.17221601  0.66635489  0.83557736  1
  I  I63  1  0.49762114  -0.00002916  0.16701587  1
  I  I64  1  0.49898322  0.00315751  0.50717643  1
  I  I65  1  0.49137152  0.00035318  0.82757941  1
  I  I66  1  0.49781543  0.33338703  0.16650625  1
  I  I67  1  0.49962278  0.33080140  0.50770252  1
  I  I68  1  0.49094316  0.33313811  0.82718323  1
  I  I69  1  0.49695835  0.66666405  0.16824483  1
  I  I70  1  0.49853394  0.66660359  0.50160890  1
  I  I71  1  0.49066137  0.66654206  0.83239158  1
  I  I72  1  0.83466135  -0.00025008  0.16951239  1
  I  I73  1  0.83476386  -0.00222825  0.50165171  1
  I  I74  1  0.83485318  -0.00006323  0.82861463  1
  I  I75  1  0.83447173  0.33359396  0.16893043  1
  I  I76  1  0.83947378  0.33636411  0.50129263  1
  I  I77  1  0.83456611  0.33342452  0.82941482  1
  I  I78  1  0.83651995  0.66664713  0.16388298  1
  I  I79  1  0.83987517  0.66572424  0.50223708  1
  I  I80  1  0.83348596  0.66661315  0.83320066  1
  I  I81  1  0.17221484  0.17090923  -0.00136442  1
  I  I82  1  0.16764133  0.16678529  0.33091652  1
  I  I83  1  0.16869045  0.16623215  0.66996639  1
  I  I84  1  0.17194474  0.49942854  -0.00085959  1
  I  I85  1  0.16023603  0.49896001  0.33331165  1
  I  I86  1  0.16630964  0.50015144  0.66775872  1
  I  I87  1  0.17010822  0.82976859  -0.00120864  1
  I  I88  1  0.16279040  0.83399502  0.33088518  1
  I  I89  1  0.16920325  0.83328335  0.67016129  1
  I  I90  1  0.49563057  0.16691397  -0.00411063  1
  I  I91  1  0.49926555  0.16806269  0.33529285  1
  I  I92  1  0.49374434  0.16706630  0.66882807  1
  I  I93  1  0.49284753  0.49614751  -0.00534384  1
  I  I94  1  0.49915186  0.49723192  0.33320565  1
  I  I95  1  0.49264214  0.50129454  0.67006861  1
  I  I96  1  0.49785534  0.83687539  -0.00500378  1
  I  I97  1  0.49963344  0.83536054  0.33326261  1
  I  I98  1  0.49155789  0.83139919  0.67049026  1
  I  I99  1  0.82805674  0.16619691  0.00008965  1
  I  I100  1  0.83342973  0.16636933  0.33356757  1
  I  I101  1  0.83918336  0.16632577  0.66638415  1
  I  I102  1  0.83289565  0.49925761  0.00027235  1
  I  I103  1  0.83962905  0.50314491  0.33774246  1
  I  I104  1  0.84134149  0.50346728  0.66370752  1
  I  I105  1  0.83107127  0.83440088  0.00027559  1
  I  I106  1  0.83523395  0.82882263  0.33721069  1
  I  I107  1  0.83713654  0.82876507  0.66400177  1
  I  I108  1  0.00568102  0.16747593  0.16106231  1
  I  I109  1  0.00008078  0.16558559  0.49960954  1
  I  I110  1  0.00437726  0.16708307  0.83749289  1
  I  I111  1  0.00496465  0.49973760  0.15944661  1
  I  I112  1  0.00163678  0.50268189  0.50194664  1
  I  I113  1  0.00413637  0.50011535  0.83575548  1
  I  I114  1  0.00483607  0.83261329  0.15761573  1
  I  I115  1  -0.00197092  0.83205733  0.50171477  1
  I  I116  1  0.00396026  0.83243101  0.83704261  1
  I  I117  1  0.32913235  0.16794127  0.16454059  1
  I  I118  1  0.33600999  0.16817079  0.50332683  1
  I  I119  1  0.33228331  0.16724066  0.83301793  1
  I  I120  1  0.32850472  0.49951658  0.17304468  1
  I  I121  1  0.33028395  0.49832299  0.49837562  1
  I  I122  1  0.33143445  0.49978788  0.83098617  1
  I  I123  1  0.32877278  0.83307594  0.16726199  1
  I  I124  1  0.33350582  0.83260871  0.49764740  1
  I  I125  1  0.33195687  0.83306912  0.83587140  1
  I  I126  1  0.66644136  0.16675783  0.16696089  1
  I  I127  1  0.66244928  0.16835561  0.51031872  1
  I  I128  1  0.66278123  0.16710176  0.82641284  1
  I  I129  1  0.66665466  0.49913505  0.16648717  1
  I  I130  1  0.66909575  0.50270560  0.50467041  1
  I  I131  1  0.66343009  0.49922531  0.82862466  1
  I  I132  1  0.66682121  0.83401570  0.16547908  1
  I  I133  1  0.67007407  0.82491153  0.50347957  1
  I  I134  1  0.66352997  0.83371246  0.82886863  1
