# generated using pymatgen
data_Cs27Sn13Pb14I81
_symmetry_space_group_name_H-M   'P 1'
_cell_length_a   18.98368615
_cell_length_b   18.97311284
_cell_length_c   18.97425265
_cell_angle_alpha   90.00008098
_cell_angle_beta   90.00007146
_cell_angle_gamma   90.00046918
_symmetry_Int_Tables_number   1
_chemical_formula_structural   Cs27Sn13Pb14I81
_chemical_formula_sum   'Cs27 Sn13 Pb14 I81'
_cell_volume   6834.13909918
_cell_formula_units_Z   1
loop_
 _symmetry_equiv_pos_site_id
 _symmetry_equiv_pos_as_xyz
  1  'x, y, z'
loop_
 _atom_site_type_symbol
 _atom_site_label
 _atom_site_symmetry_multiplicity
 _atom_site_fract_x
 _atom_site_fract_y
 _atom_site_fract_z
 _atom_site_occupancy
  Cs  Cs0  1  -0.00292137  -0.00090221  0.00264333  1
  Cs  Cs1  1  -0.00060423  0.00005140  0.33225473  1
  Cs  Cs2  1  0.00061607  0.00212791  0.66508408  1
  Cs  Cs3  1  -0.00211602  0.34128127  -0.00078482  1
  Cs  Cs4  1  -0.00003224  0.33251299  0.33371196  1
  Cs  Cs5  1  0.00103574  0.33302965  0.66636510  1
  Cs  Cs6  1  0.00069869  0.66070662  -0.00328089  1
  Cs  Cs7  1  0.00209690  0.66669086  0.33496792  1
  Cs  Cs8  1  0.00020760  0.66451735  0.66821501  1
  Cs  Cs9  1  0.33442185  -0.00092141  0.00025949  1
  Cs  Cs10  1  0.33215411  -0.00245573  0.33085427  1
  Cs  Cs11  1  0.33248377  0.00480849  0.66885538  1
  Cs  Cs12  1  0.33196370  0.33396751  -0.00083488  1
  Cs  Cs13  1  0.33470624  0.33772342  0.33537409  1
  Cs  Cs14  1  0.33506347  0.32100038  0.66531813  1
  Cs  Cs15  1  0.33265190  0.66690364  -0.00095487  1
  Cs  Cs16  1  0.33290492  0.66648056  0.33415293  1
  Cs  Cs17  1  0.33277871  0.66869499  0.66648180  1
  Cs  Cs18  1  0.66688543  -0.00010737  0.00118889  1
  Cs  Cs19  1  0.66959275  -0.00155292  0.32969912  1
  Cs  Cs20  1  0.66751393  0.00015860  0.66731175  1
  Cs  Cs21  1  0.66904742  0.33263617  0.00009778  1
  Cs  Cs22  1  0.66404185  0.34196083  0.34015014  1
  Cs  Cs23  1  0.66422818  0.33433451  0.66008827  1
  Cs  Cs24  1  0.66582126  0.66734637  -0.00175737  1
  Cs  Cs25  1  0.66552964  0.66371493  0.33665420  1
  Cs  Cs26  1  0.66764898  0.66662537  0.66753900  1
  Sn  Sn27  1  0.83338182  0.83308843  0.16574382  1
  Sn  Sn28  1  0.50016239  0.83368931  0.16670433  1
  Sn  Sn29  1  0.49965672  0.50036050  0.83347791  1
  Sn  Sn30  1  0.50062382  0.83275812  0.83331327  1
  Sn  Sn31  1  0.50039371  0.16628071  0.16675172  1
  Sn  Sn32  1  0.83302781  0.16622904  0.16601137  1
  Sn  Sn33  1  0.83276735  0.83424213  0.83425023  1
  Sn  Sn34  1  0.16694534  0.50073241  0.50037663  1
  Sn  Sn35  1  0.49928921  0.83378187  0.50003678  1
  Sn  Sn36  1  0.16650725  0.83375028  0.16706904  1
  Sn  Sn37  1  0.16749528  0.83272547  0.49947594  1
  Sn  Sn38  1  0.83313756  0.16570371  0.83409534  1
  Sn  Sn39  1  0.16658704  0.16598847  0.16636945  1
  Pb  Pb40  1  0.49783994  0.50257786  0.50274320  1
  Pb  Pb41  1  0.83111949  0.50002045  0.83328354  1
  Pb  Pb42  1  0.50015067  0.16340163  0.49669153  1
  Pb  Pb43  1  0.83365414  0.83331025  0.50002596  1
  Pb  Pb44  1  0.16682939  0.50036782  0.16820194  1
  Pb  Pb45  1  0.16670586  0.16566421  0.49737371  1
  Pb  Pb46  1  0.83314887  0.16643803  0.49929032  1
  Pb  Pb47  1  0.83318261  0.50037761  0.16680322  1
  Pb  Pb48  1  0.50205986  0.16594661  0.83554217  1
  Pb  Pb49  1  0.49995054  0.50049056  0.16483825  1
  Pb  Pb50  1  0.16975869  0.49981635  0.83034528  1
  Pb  Pb51  1  0.83610214  0.50026823  0.50017844  1
  Pb  Pb52  1  0.16633869  0.83350306  0.83357019  1
  Pb  Pb53  1  0.16351837  0.16640910  0.83668582  1
  I  I54  1  0.16660392  -0.00150277  0.17229615  1
  I  I55  1  0.16997828  -0.00364907  0.49745884  1
  I  I56  1  0.17182670  -0.00025316  0.82746760  1
  I  I57  1  0.16613237  0.33008799  0.16750416  1
  I  I58  1  0.16543804  0.33555787  0.49889020  1
  I  I59  1  0.16718661  0.33314009  0.83326106  1
  I  I60  1  0.16738108  0.67051386  0.16860259  1
  I  I61  1  0.17039198  0.66887398  0.49332023  1
  I  I62  1  0.16246958  0.66696515  0.83808173  1
  I  I63  1  0.49958481  -0.00166381  0.16504666  1
  I  I64  1  0.49316375  -0.00479144  0.50558515  1
  I  I65  1  0.50167152  -0.00359704  0.83213528  1
  I  I66  1  0.49978925  0.33021687  0.16372407  1
  I  I67  1  0.49866209  0.33338199  0.50046690  1
  I  I68  1  0.50057214  0.33504611  0.83587435  1
  I  I69  1  0.49976668  0.67088172  0.16845240  1
  I  I70  1  0.49864719  0.67085541  0.49402722  1
  I  I71  1  0.50534920  0.66960105  0.83530615  1
  I  I72  1  0.83326896  -0.00102772  0.16307150  1
  I  I73  1  0.83593412  -0.00046618  0.50075237  1
  I  I74  1  0.82740745  -0.00141821  0.83792222  1
  I  I75  1  0.83479313  0.32948453  0.16156288  1
  I  I76  1  0.83495059  0.33325056  0.49981095  1
  I  I77  1  0.83338263  0.33018499  0.83969442  1
  I  I78  1  0.83324376  0.67114262  0.16256755  1
  I  I79  1  0.83116971  0.66735387  0.49932388  1
  I  I80  1  0.83138720  0.67020433  0.83783524  1
  I  I81  1  0.17025050  0.15880898  0.00481679  1
  I  I82  1  0.16344292  0.16425354  0.32907188  1
  I  I83  1  0.16518197  0.16718211  0.66664495  1
  I  I84  1  0.16629107  0.50011726  -0.00016539  1
  I  I85  1  0.16852320  0.50280019  0.33598677  1
  I  I86  1  0.16556807  0.50972601  0.66265753  1
  I  I87  1  0.16942390  0.83826657  0.00352914  1
  I  I88  1  0.16945200  0.83330701  0.33215855  1
  I  I89  1  0.16952399  0.82843706  0.66375765  1
  I  I90  1  0.49769451  0.16052395  0.00369580  1
  I  I91  1  0.50221625  0.16178430  0.32832116  1
  I  I92  1  0.50153126  0.16679933  0.66679181  1
  I  I93  1  0.50032978  0.50730945  -0.00280535  1
  I  I94  1  0.49937856  0.49952494  0.33375803  1
  I  I95  1  0.50071141  0.50612716  0.67030525  1
  I  I96  1  0.50025538  0.83325830  0.00068826  1
  I  I97  1  0.49938988  0.83815071  0.33226164  1
  I  I98  1  0.50051676  0.82765211  0.66718149  1
  I  I99  1  0.83312347  0.16110304  0.00134170  1
  I  I100  1  0.83490682  0.16033032  0.32881625  1
  I  I101  1  0.83265417  0.16156058  0.66992533  1
  I  I102  1  0.83484855  0.50032000  -0.00005309  1
  I  I103  1  0.83160734  0.49959431  0.33332409  1
  I  I104  1  0.83313499  0.50055003  0.66702315  1
  I  I105  1  0.82995688  0.83751272  0.00076391  1
  I  I106  1  0.83150396  0.83839640  0.32979723  1
  I  I107  1  0.82973729  0.83676258  0.66995787  1
  I  I108  1  -0.00031839  0.15931644  0.16429469  1
  I  I109  1  0.00011010  0.16504529  0.49845856  1
  I  I110  1  -0.00445666  0.15955212  0.83752378  1
  I  I111  1  0.00007270  0.50031202  0.16718212  1
  I  I112  1  0.00410122  0.50813150  0.49902801  1
  I  I113  1  0.00002318  0.50034320  0.83227435  1
  I  I114  1  0.00000098  0.83931261  0.16790895  1
  I  I115  1  0.00317109  0.83010519  0.49613436  1
  I  I116  1  -0.00331971  0.83744711  0.83642627  1
  I  I117  1  0.33349125  0.15954779  0.16777824  1
  I  I118  1  0.33342695  0.16884320  0.49995706  1
  I  I119  1  0.33360245  0.16728709  0.83435680  1
  I  I120  1  0.33341289  0.49909960  0.16565529  1
  I  I121  1  0.33033215  0.50380687  0.49857449  1
  I  I122  1  0.33733905  0.50869810  0.83571806  1
  I  I123  1  0.33375695  0.83851861  0.16725791  1
  I  I124  1  0.33342275  0.82925244  0.49571525  1
  I  I125  1  0.33645220  0.82899097  0.83610930  1
  I  I126  1  0.66697229  0.15835192  0.16174669  1
  I  I127  1  0.66646412  0.16598004  0.49794240  1
  I  I128  1  0.66977368  0.16443331  0.84054886  1
  I  I129  1  0.66650176  0.49970185  0.16735038  1
  I  I130  1  0.66602462  0.50011245  0.50027757  1
  I  I131  1  0.66352343  0.50385842  0.83368180  1
  I  I132  1  0.66626487  0.83899355  0.16590575  1
  I  I133  1  0.66367281  0.83426451  0.49746625  1
  I  I134  1  0.66611981  0.83290487  0.83622870  1
