# generated using pymatgen
data_Cs27Sn13Pb14I81
_symmetry_space_group_name_H-M   'P 1'
_cell_length_a   18.97881397
_cell_length_b   18.97695781
_cell_length_c   18.97396565
_cell_angle_alpha   90.00183534
_cell_angle_beta   89.99861055
_cell_angle_gamma   90.00253008
_symmetry_Int_Tables_number   1
_chemical_formula_structural   Cs27Sn13Pb14I81
_chemical_formula_sum   'Cs27 Sn13 Pb14 I81'
_cell_volume   6833.66634016
_cell_formula_units_Z   1
loop_
 _symmetry_equiv_pos_site_id
 _symmetry_equiv_pos_as_xyz
  1  'x, y, z'
loop_
 _atom_site_type_symbol
 _atom_site_label
 _atom_site_symmetry_multiplicity
 _atom_site_fract_x
 _atom_site_fract_y
 _atom_site_fract_z
 _atom_site_occupancy
  Cs  Cs0  1  -0.00103372  0.00005669  -0.00007668  1
  Cs  Cs1  1  -0.00071137  -0.00123504  0.33241132  1
  Cs  Cs2  1  -0.00087955  -0.00047305  0.66702267  1
  Cs  Cs3  1  -0.00279155  0.32940896  -0.00068325  1
  Cs  Cs4  1  0.00297933  0.33764462  0.33743898  1
  Cs  Cs5  1  -0.00362315  0.34036915  0.66277911  1
  Cs  Cs6  1  0.00408112  0.66925470  0.00327849  1
  Cs  Cs7  1  -0.00134055  0.66621890  0.33182203  1
  Cs  Cs8  1  0.00122340  0.66241116  0.66715323  1
  Cs  Cs9  1  0.33149880  -0.00111570  -0.00222113  1
  Cs  Cs10  1  0.33437594  0.00078264  0.33710497  1
  Cs  Cs11  1  0.33522297  0.00030339  0.66647904  1
  Cs  Cs12  1  0.33730159  0.33381685  0.00171141  1
  Cs  Cs13  1  0.33424146  0.32957153  0.33391355  1
  Cs  Cs14  1  0.32991418  0.33241233  0.66418989  1
  Cs  Cs15  1  0.33293362  0.66585532  -0.00153747  1
  Cs  Cs16  1  0.33530132  0.66896310  0.33167435  1
  Cs  Cs17  1  0.33239933  0.66682674  0.67091150  1
  Cs  Cs18  1  0.67038344  0.00128843  -0.00050290  1
  Cs  Cs19  1  0.66640830  0.00114595  0.33390334  1
  Cs  Cs20  1  0.66544370  -0.00123706  0.66620931  1
  Cs  Cs21  1  0.66430936  0.33162280  -0.00128004  1
  Cs  Cs22  1  0.66193747  0.33326800  0.33024147  1
  Cs  Cs23  1  0.67375522  0.33869857  0.67123246  1
  Cs  Cs24  1  0.66312511  0.66661504  0.00090479  1
  Cs  Cs25  1  0.66706525  0.66798244  0.33506704  1
  Cs  Cs26  1  0.66651412  0.66629397  0.66415416  1
  Sn  Sn27  1  0.83431905  0.83411022  0.50081766  1
  Sn  Sn28  1  0.16587532  0.83340711  0.49953000  1
  Sn  Sn29  1  0.16658809  0.16645370  0.16610783  1
  Sn  Sn30  1  0.16711131  0.16669851  0.83361909  1
  Sn  Sn31  1  0.83355494  0.49994113  0.16625350  1
  Sn  Sn32  1  0.83278499  0.83314625  0.83263861  1
  Sn  Sn33  1  0.49961822  0.49999690  0.50013500  1
  Sn  Sn34  1  0.16604297  0.49982655  0.16654434  1
  Sn  Sn35  1  0.16761336  0.83369524  0.16756524  1
  Sn  Sn36  1  0.83337858  0.16607836  0.49977020  1
  Sn  Sn37  1  0.50096000  0.83419303  0.83426843  1
  Sn  Sn38  1  0.49941340  0.16599301  0.83312426  1
  Sn  Sn39  1  0.49936729  0.83380312  0.16591782  1
  Pb  Pb40  1  0.50005285  0.83248469  0.50043954  1
  Pb  Pb41  1  0.83347488  0.50339271  0.83638635  1
  Pb  Pb42  1  0.49790818  0.16387608  0.16474348  1
  Pb  Pb43  1  0.16884492  0.50285562  0.49773508  1
  Pb  Pb44  1  0.83187423  0.50067586  0.49800602  1
  Pb  Pb45  1  0.83363514  0.16479997  0.83161610  1
  Pb  Pb46  1  0.49985403  0.50008687  0.83122596  1
  Pb  Pb47  1  0.50246497  0.16906934  0.50301912  1
  Pb  Pb48  1  0.83338472  0.83230963  0.16680749  1
  Pb  Pb49  1  0.83576640  0.16905555  0.16893377  1
  Pb  Pb50  1  0.16665388  0.83470226  0.83338256  1
  Pb  Pb51  1  0.16662962  0.49648307  0.83612715  1
  Pb  Pb52  1  0.16499724  0.16466366  0.50019135  1
  Pb  Pb53  1  0.49951984  0.50201563  0.16800794  1
  I  I54  1  0.17107545  -0.00083859  0.16650327  1
  I  I55  1  0.16588634  -0.00340530  0.49390551  1
  I  I56  1  0.16751219  0.00242144  0.83917937  1
  I  I57  1  0.16130105  0.33317207  0.16168041  1
  I  I58  1  0.16566516  0.33333297  0.49957023  1
  I  I59  1  0.17297738  0.32838153  0.83735259  1
  I  I60  1  0.16603550  0.66773138  0.17169532  1
  I  I61  1  0.16077180  0.67091381  0.49548188  1
  I  I62  1  0.16719197  0.66688668  0.83362754  1
  I  I63  1  0.49589552  -0.00426368  0.16697040  1
  I  I64  1  0.49900995  -0.00000454  0.49847034  1
  I  I65  1  0.49954163  -0.00117090  0.83647970  1
  I  I66  1  0.49976093  0.33316071  0.16652943  1
  I  I67  1  0.50103228  0.33628896  0.49852835  1
  I  I68  1  0.49564241  0.33027106  0.83178362  1
  I  I69  1  0.49469359  0.67010586  0.16151659  1
  I  I70  1  0.50196802  0.66503732  0.49999726  1
  I  I71  1  0.50358796  0.67014884  0.83589550  1
  I  I72  1  0.83407123  -0.00003416  0.16568379  1
  I  I73  1  0.83655166  -0.00182865  0.50275858  1
  I  I74  1  0.83197055  -0.00332560  0.83287189  1
  I  I75  1  0.83788904  0.33676217  0.16929946  1
  I  I76  1  0.83212545  0.33145458  0.49907842  1
  I  I77  1  0.83284922  0.33322018  0.83156965  1
  I  I78  1  0.83887566  0.66464604  0.16842888  1
  I  I79  1  0.83535897  0.66991725  0.50214197  1
  I  I80  1  0.82757801  0.67144898  0.82626310  1
  I  I81  1  0.16960008  0.16407785  0.00075918  1
  I  I82  1  0.16425452  0.16773736  0.33048061  1
  I  I83  1  0.17030310  0.16210760  0.66918546  1
  I  I84  1  0.16462576  0.50787717  0.00447203  1
  I  I85  1  0.16330241  0.49623055  0.32959568  1
  I  I86  1  0.16784164  0.50049709  0.66643446  1
  I  I87  1  0.16723811  0.83153819  0.00293198  1
  I  I88  1  0.16668835  0.83490689  0.33199825  1
  I  I89  1  0.16620022  0.83605588  0.66447336  1
  I  I90  1  0.49976069  0.16585144  -0.00330937  1
  I  I91  1  0.49947137  0.16627117  0.33346739  1
  I  I92  1  0.49229061  0.15818158  0.67056442  1
  I  I93  1  0.50013762  0.49972031  0.00008683  1
  I  I94  1  0.50081454  0.50345845  0.33553209  1
  I  I95  1  0.50208942  0.50330039  0.66368904  1
  I  I96  1  0.49984266  0.83498469  -0.00034001  1
  I  I97  1  0.49857484  0.82988659  0.33122753  1
  I  I98  1  0.50057765  0.83539312  0.66943992  1
  I  I99  1  0.83242324  0.16637758  -0.00003426  1
  I  I100  1  0.83439034  0.15857786  0.33658707  1
  I  I101  1  0.83489148  0.16483786  0.66377697  1
  I  I102  1  0.83707907  0.50108269  0.00411089  1
  I  I103  1  0.83750466  0.50318557  0.33050361  1
  I  I104  1  0.83146035  0.49834214  0.66653200  1
  I  I105  1  0.83223423  0.83156799  -0.00215303  1
  I  I106  1  0.83426016  0.83459470  0.33583851  1
  I  I107  1  0.83288826  0.83720172  0.66600929  1
  I  I108  1  0.00403102  0.16032313  0.16000289  1
  I  I109  1  -0.00277081  0.16469081  0.50135614  1
  I  I110  1  0.00259742  0.16379822  0.83781252  1
  I  I111  1  0.00133440  0.50369965  0.16824107  1
  I  I112  1  0.00016957  0.49888841  0.50000421  1
  I  I113  1  0.00001810  0.50011781  0.82988220  1
  I  I114  1  0.00293194  0.83398639  0.16721375  1
  I  I115  1  -0.00037385  0.83650228  0.49914399  1
  I  I116  1  -0.00205858  0.83532865  0.83277511  1
  I  I117  1  0.32953613  0.17138024  0.16649158  1
  I  I118  1  0.33325006  0.16641773  0.49862830  1
  I  I119  1  0.33338683  0.15996132  0.83688302  1
  I  I120  1  0.33026737  0.49955494  0.16830777  1
  I  I121  1  0.33607533  0.50205446  0.49832809  1
  I  I122  1  0.33327172  0.50566807  0.83455093  1
  I  I123  1  0.33205089  0.83078801  0.16705753  1
  I  I124  1  0.33107102  0.83125495  0.49777335  1
  I  I125  1  0.33576002  0.83527884  0.83402160  1
  I  I126  1  0.66665998  0.16744096  0.16609811  1
  I  I127  1  0.67000415  0.15885081  0.50063565  1
  I  I128  1  0.66427625  0.16377860  0.83081007  1
  I  I129  1  0.66851036  0.50381898  0.16945344  1
  I  I130  1  0.66450666  0.50295744  0.49699274  1
  I  I131  1  0.66669971  0.49562971  0.83609686  1
  I  I132  1  0.66448885  0.82964585  0.16595858  1
  I  I133  1  0.66919770  0.83451434  0.50044215  1
  I  I134  1  0.66581985  0.83883011  0.83369986  1
