# generated using pymatgen
data_Cs27Sn14Pb13I81
_symmetry_space_group_name_H-M   'P 1'
_cell_length_a   18.98057235
_cell_length_b   18.97067941
_cell_length_c   18.97726231
_cell_angle_alpha   90.00234014
_cell_angle_beta   89.99963757
_cell_angle_gamma   89.99958876
_symmetry_Int_Tables_number   1
_chemical_formula_structural   Cs27Sn14Pb13I81
_chemical_formula_sum   'Cs27 Sn14 Pb13 I81'
_cell_volume   6833.22544227
_cell_formula_units_Z   1
loop_
 _symmetry_equiv_pos_site_id
 _symmetry_equiv_pos_as_xyz
  1  'x, y, z'
loop_
 _atom_site_type_symbol
 _atom_site_label
 _atom_site_symmetry_multiplicity
 _atom_site_fract_x
 _atom_site_fract_y
 _atom_site_fract_z
 _atom_site_occupancy
  Cs  Cs0  1  0.00013800  -0.00113454  0.00145776  1
  Cs  Cs1  1  -0.00102715  0.00235656  0.33040798  1
  Cs  Cs2  1  -0.00209227  -0.00017375  0.66784587  1
  Cs  Cs3  1  0.00156876  0.33989849  0.00046115  1
  Cs  Cs4  1  -0.00059862  0.33003774  0.33246414  1
  Cs  Cs5  1  0.00170704  0.33220594  0.66737248  1
  Cs  Cs6  1  -0.00141587  0.66642041  0.00143897  1
  Cs  Cs7  1  0.00342840  0.66522024  0.33198733  1
  Cs  Cs8  1  0.00181002  0.66704215  0.66654483  1
  Cs  Cs9  1  0.33284452  0.00208659  -0.00045546  1
  Cs  Cs10  1  0.33383975  -0.00205663  0.33215684  1
  Cs  Cs11  1  0.33218140  -0.00128083  0.66827516  1
  Cs  Cs12  1  0.34145812  0.33900909  -0.00897360  1
  Cs  Cs13  1  0.33237802  0.33370008  0.33244885  1
  Cs  Cs14  1  0.33294659  0.33306550  0.67290648  1
  Cs  Cs15  1  0.33493129  0.66245264  0.00289373  1
  Cs  Cs16  1  0.33168795  0.66752774  0.33491119  1
  Cs  Cs17  1  0.32940624  0.66897866  0.66183928  1
  Cs  Cs18  1  0.66707622  -0.00042086  0.00088112  1
  Cs  Cs19  1  0.66703677  0.00076050  0.33263491  1
  Cs  Cs20  1  0.67005609  -0.00085364  0.66602377  1
  Cs  Cs21  1  0.65886664  0.34247984  -0.00075050  1
  Cs  Cs22  1  0.66709227  0.33191744  0.33701378  1
  Cs  Cs23  1  0.66662620  0.33418137  0.66269292  1
  Cs  Cs24  1  0.66602472  0.66146250  -0.00019902  1
  Cs  Cs25  1  0.66428556  0.66679672  0.33326126  1
  Cs  Cs26  1  0.66762159  0.66691468  0.66716828  1
  Sn  Sn27  1  0.83352673  0.16649688  0.50010424  1
  Sn  Sn28  1  0.83353490  0.83310730  0.49949531  1
  Sn  Sn29  1  0.16619448  0.16635613  0.16660611  1
  Sn  Sn30  1  0.83366332  0.16637764  0.16568366  1
  Sn  Sn31  1  0.83324715  0.16644197  0.83425242  1
  Sn  Sn32  1  0.16671463  0.16615772  0.49952683  1
  Sn  Sn33  1  0.83385760  0.83403891  0.16659418  1
  Sn  Sn34  1  0.16640040  0.83380884  0.83458226  1
  Sn  Sn35  1  0.50054072  0.49938278  0.50006119  1
  Sn  Sn36  1  0.49963782  0.16697357  0.50004172  1
  Sn  Sn37  1  0.50015479  0.83379688  0.83342570  1
  Sn  Sn38  1  0.16580404  0.83451606  0.16579841  1
  Sn  Sn39  1  0.83309097  0.49999601  0.49985464  1
  Sn  Sn40  1  0.83339508  0.83426169  0.83378285  1
  Pb  Pb41  1  0.16654555  0.49671891  0.49989737  1
  Pb  Pb42  1  0.50002252  0.49993410  0.16993857  1
  Pb  Pb43  1  0.16637814  0.50343190  0.83329978  1
  Pb  Pb44  1  0.50223085  0.83363783  0.50155830  1
  Pb  Pb45  1  0.16656822  0.49926295  0.16673810  1
  Pb  Pb46  1  0.83350785  0.50001681  0.83082851  1
  Pb  Pb47  1  0.83331412  0.49967118  0.16938712  1
  Pb  Pb48  1  0.16416356  0.83570472  0.49937785  1
  Pb  Pb49  1  0.50012807  0.83354848  0.16424975  1
  Pb  Pb50  1  0.50003020  0.16662583  0.16853327  1
  Pb  Pb51  1  0.16443245  0.16509000  0.83429036  1
  Pb  Pb52  1  0.50296607  0.16468688  0.83086001  1
  Pb  Pb53  1  0.50015897  0.50303738  0.83003142  1
  I  I54  1  0.16150538  -0.00022252  0.16758140  1
  I  I55  1  0.16697673  0.00371964  0.49953480  1
  I  I56  1  0.16735715  -0.00333908  0.83303024  1
  I  I57  1  0.15952058  0.32915456  0.17458430  1
  I  I58  1  0.16081257  0.32859357  0.49402843  1
  I  I59  1  0.16494262  0.33289019  0.83261438  1
  I  I60  1  0.16167390  0.67029030  0.16236119  1
  I  I61  1  0.16697335  0.66699169  0.50058564  1
  I  I62  1  0.16245766  0.67230083  0.83745452  1
  I  I63  1  0.50070439  -0.00002248  0.17104508  1
  I  I64  1  0.50207056  0.00289269  0.50117177  1
  I  I65  1  0.49928188  -0.00320702  0.82986677  1
  I  I66  1  0.50040596  0.33302418  0.16393193  1
  I  I67  1  0.50709650  0.33227145  0.49930981  1
  I  I68  1  0.50108148  0.33326783  0.83472991  1
  I  I69  1  0.50018040  0.66707089  0.16872910  1
  I  I70  1  0.50612162  0.66450046  0.50241194  1
  I  I71  1  0.50408587  0.67092585  0.83152852  1
  I  I72  1  0.83667758  -0.00018376  0.17130324  1
  I  I73  1  0.83295335  0.00081324  0.50092536  1
  I  I74  1  0.83327984  -0.00115970  0.82757752  1
  I  I75  1  0.83834581  0.32949923  0.16797656  1
  I  I76  1  0.83228339  0.33150308  0.49998323  1
  I  I77  1  0.83416562  0.32999034  0.83201563  1
  I  I78  1  0.83727402  0.67028809  0.16602101  1
  I  I79  1  0.82796016  0.66741008  0.50109488  1
  I  I80  1  0.83342925  0.67066497  0.83287818  1
  I  I81  1  0.16014522  0.16258583  0.00326548  1
  I  I82  1  0.16143496  0.16122516  0.33349655  1
  I  I83  1  0.16501197  0.16576450  0.66430267  1
  I  I84  1  0.16696107  0.49519459  0.00006628  1
  I  I85  1  0.16759730  0.50663357  0.33359839  1
  I  I86  1  0.16598741  0.50070398  0.66623142  1
  I  I87  1  0.16127305  0.83931552  0.00046268  1
  I  I88  1  0.16185048  0.83485708  0.33045056  1
  I  I89  1  0.16555496  0.83429730  0.66878072  1
  I  I90  1  0.49992352  0.16518746  -0.00039392  1
  I  I91  1  0.50571145  0.16894393  0.33720431  1
  I  I92  1  0.50017551  0.16981155  0.66253309  1
  I  I93  1  0.49900816  0.50051454  -0.00050856  1
  I  I94  1  0.50578506  0.49728928  0.33806639  1
  I  I95  1  0.50621635  0.49506211  0.66257434  1
  I  I96  1  0.50554396  0.83470178  -0.00367007  1
  I  I97  1  0.50020716  0.83199259  0.33358290  1
  I  I98  1  0.50027806  0.83367686  0.66946464  1
  I  I99  1  0.83935678  0.15615479  0.00063691  1
  I  I100  1  0.83352963  0.16426077  0.33435732  1
  I  I101  1  0.83284467  0.16344411  0.66531156  1
  I  I102  1  0.83374348  0.50009954  0.00009406  1
  I  I103  1  0.82919130  0.49990533  0.33759143  1
  I  I104  1  0.82918240  0.49997205  0.66253494  1
  I  I105  1  0.83413103  0.84089434  -0.00016592  1
  I  I106  1  0.83719838  0.83614563  0.33329249  1
  I  I107  1  0.83281386  0.83615898  0.66679818  1
  I  I108  1  -0.00113761  0.16117481  0.17404542  1
  I  I109  1  -0.00174233  0.16606022  0.49950484  1
  I  I110  1  -0.00372186  0.16001804  0.82594903  1
  I  I111  1  -0.00023071  0.50084133  0.17003076  1
  I  I112  1  -0.00318318  0.50032954  0.50018069  1
  I  I113  1  -0.00038671  0.50147642  0.82948060  1
  I  I114  1  -0.00116793  0.83711184  0.16296155  1
  I  I115  1  -0.00425238  0.83267652  0.50518411  1
  I  I116  1  -0.00132705  0.83714600  0.83291964  1
  I  I117  1  0.32977019  0.16056349  0.17356164  1
  I  I118  1  0.33313316  0.17083192  0.49502739  1
  I  I119  1  0.33330791  0.16413670  0.83175275  1
  I  I120  1  0.33315468  0.50186711  0.16997765  1
  I  I121  1  0.33627756  0.49659386  0.50051039  1
  I  I122  1  0.33350589  0.49989686  0.83019511  1
  I  I123  1  0.32980921  0.83770930  0.16301801  1
  I  I124  1  0.33311490  0.83278690  0.50123006  1
  I  I125  1  0.33259636  0.83310858  0.83620192  1
  I  I126  1  0.67043318  0.16094320  0.16882545  1
  I  I127  1  0.66863043  0.16722308  0.50037141  1
  I  I128  1  0.67122988  0.15938495  0.83269670  1
  I  I129  1  0.66706827  0.50112208  0.16490159  1
  I  I130  1  0.66794135  0.49477737  0.50025770  1
  I  I131  1  0.66685921  0.50267814  0.83475945  1
  I  I132  1  0.67050012  0.83807491  0.16755428  1
  I  I133  1  0.67083782  0.83792896  0.50001248  1
  I  I134  1  0.66861739  0.83714211  0.83114585  1
