# generated using pymatgen
data_Cs27Sn14Pb13I81
_symmetry_space_group_name_H-M   'P 1'
_cell_length_a   18.97887281
_cell_length_b   18.97981658
_cell_length_c   18.96974712
_cell_angle_alpha   90.00121810
_cell_angle_beta   89.99891323
_cell_angle_gamma   89.99986490
_symmetry_Int_Tables_number   1
_chemical_formula_structural   Cs27Sn14Pb13I81
_chemical_formula_sum   'Cs27 Sn14 Pb13 I81'
_cell_volume   6833.19741183
_cell_formula_units_Z   1
loop_
 _symmetry_equiv_pos_site_id
 _symmetry_equiv_pos_as_xyz
  1  'x, y, z'
loop_
 _atom_site_type_symbol
 _atom_site_label
 _atom_site_symmetry_multiplicity
 _atom_site_fract_x
 _atom_site_fract_y
 _atom_site_fract_z
 _atom_site_occupancy
  Cs  Cs0  1  -0.00403478  -0.00044917  -0.00065983  1
  Cs  Cs1  1  -0.00038000  0.00323714  0.33627270  1
  Cs  Cs2  1  0.00199523  0.00263457  0.66561331  1
  Cs  Cs3  1  0.00165241  0.33371149  0.00269416  1
  Cs  Cs4  1  -0.00214483  0.33146639  0.33214257  1
  Cs  Cs5  1  0.01238125  0.33027989  0.66790058  1
  Cs  Cs6  1  -0.00535977  0.66694589  -0.00182591  1
  Cs  Cs7  1  0.00107136  0.66578481  0.33349580  1
  Cs  Cs8  1  -0.00093989  0.66521681  0.66883382  1
  Cs  Cs9  1  0.33286749  -0.00123971  0.00050635  1
  Cs  Cs10  1  0.33434956  -0.00497347  0.33149635  1
  Cs  Cs11  1  0.33243739  0.00113021  0.66883646  1
  Cs  Cs12  1  0.33373226  0.33172463  -0.00316813  1
  Cs  Cs13  1  0.33617255  0.33588065  0.33150029  1
  Cs  Cs14  1  0.32763012  0.33149982  0.67571131  1
  Cs  Cs15  1  0.33371097  0.66993281  0.00383111  1
  Cs  Cs16  1  0.33304800  0.66816015  0.33232661  1
  Cs  Cs17  1  0.33140859  0.66605831  0.66476413  1
  Cs  Cs18  1  0.66853359  -0.00053288  -0.00126699  1
  Cs  Cs19  1  0.66648109  0.00181457  0.33447977  1
  Cs  Cs20  1  0.66590123  -0.00261038  0.66588162  1
  Cs  Cs21  1  0.66462998  0.33382200  -0.00048807  1
  Cs  Cs22  1  0.66768549  0.33389507  0.33302894  1
  Cs  Cs23  1  0.66299009  0.33430893  0.66639230  1
  Cs  Cs24  1  0.67019578  0.66677712  -0.00145718  1
  Cs  Cs25  1  0.66525837  0.66514041  0.33440231  1
  Cs  Cs26  1  0.66794947  0.66865332  0.66554950  1
  Sn  Sn27  1  0.50004410  0.49927507  0.16718434  1
  Sn  Sn28  1  0.16693939  0.49944950  0.16688044  1
  Sn  Sn29  1  0.50046887  0.49962856  0.49949949  1
  Sn  Sn30  1  0.83290661  0.50034742  0.49958958  1
  Sn  Sn31  1  0.49918404  0.83295828  0.83246872  1
  Sn  Sn32  1  0.83303072  0.83282050  0.16813998  1
  Sn  Sn33  1  0.49982528  0.16709691  0.49947692  1
  Sn  Sn34  1  0.83300471  0.50096228  0.16758144  1
  Sn  Sn35  1  0.83290261  0.16750337  0.83283721  1
  Sn  Sn36  1  0.83271443  0.83268945  0.49881973  1
  Sn  Sn37  1  0.49918313  0.16728104  0.16736279  1
  Sn  Sn38  1  0.50058238  0.83316019  0.50083993  1
  Sn  Sn39  1  0.16782433  0.16692731  0.16704276  1
  Sn  Sn40  1  0.16753499  0.83298150  0.83332223  1
  Pb  Pb41  1  0.83265723  0.16727850  0.16576765  1
  Pb  Pb42  1  0.83324053  0.49717323  0.83224259  1
  Pb  Pb43  1  0.50122529  0.16461031  0.83363292  1
  Pb  Pb44  1  0.16679983  0.50253066  0.83648368  1
  Pb  Pb45  1  0.17023498  0.16672120  0.49706913  1
  Pb  Pb46  1  0.50203442  0.83320463  0.16716600  1
  Pb  Pb47  1  0.16683797  0.49998685  0.49771272  1
  Pb  Pb48  1  0.83309050  0.83444887  0.83230006  1
  Pb  Pb49  1  0.16465830  0.16461461  0.83620560  1
  Pb  Pb50  1  0.16634345  0.83322778  0.50195240  1
  Pb  Pb51  1  0.50010873  0.50265665  0.83315880  1
  Pb  Pb52  1  0.16363613  0.83339048  0.16527485  1
  Pb  Pb53  1  0.83139034  0.16754905  0.50220879  1
  I  I54  1  0.17098324  0.00238699  0.16444611  1
  I  I55  1  0.16516384  -0.00002256  0.49729559  1
  I  I56  1  0.17006568  -0.00292958  0.83594852  1
  I  I57  1  0.16457425  0.33394290  0.16658244  1
  I  I58  1  0.16380774  0.33332429  0.50341759  1
  I  I59  1  0.16492432  0.33319328  0.83187021  1
  I  I60  1  0.16971800  0.66380303  0.16523719  1
  I  I61  1  0.17154292  0.66665301  0.49763671  1
  I  I62  1  0.16903906  0.67026580  0.83484265  1
  I  I63  1  0.49709027  0.00229016  0.16908713  1
  I  I64  1  0.50431711  -0.00052323  0.49961153  1
  I  I65  1  0.49833529  -0.00330210  0.83006656  1
  I  I66  1  0.50198239  0.33396690  0.17363833  1
  I  I67  1  0.50601697  0.33416461  0.49311576  1
  I  I68  1  0.50163835  0.33328127  0.83122828  1
  I  I69  1  0.49743477  0.66381386  0.16889199  1
  I  I70  1  0.50419533  0.66653560  0.49977059  1
  I  I71  1  0.49855395  0.67073151  0.83067444  1
  I  I72  1  0.83313425  -0.00206336  0.16795504  1
  I  I73  1  0.82882134  -0.00267713  0.49719799  1
  I  I74  1  0.83277235  0.00175249  0.83598896  1
  I  I75  1  0.83363333  0.33657725  0.16962499  1
  I  I76  1  0.82809580  0.33671367  0.49456028  1
  I  I77  1  0.83173992  0.32998935  0.83618048  1
  I  I78  1  0.83311231  0.66574575  0.16804483  1
  I  I79  1  0.82487608  0.66686489  0.49622237  1
  I  I80  1  0.83382981  0.66655892  0.83512803  1
  I  I81  1  0.17314834  0.17087830  0.00389301  1
  I  I82  1  0.16449825  0.16921220  0.32904929  1
  I  I83  1  0.16611756  0.16569810  0.66684958  1
  I  I84  1  0.16633544  0.49583194  0.00489800  1
  I  I85  1  0.16657302  0.49792422  0.32931368  1
  I  I86  1  0.16589026  0.50061863  0.66664186  1
  I  I87  1  0.17217343  0.83349492  -0.00244004  1
  I  I88  1  0.16894760  0.83353830  0.33308212  1
  I  I89  1  0.16587257  0.83464156  0.66986483  1
  I  I90  1  0.49820290  0.17010545  0.00324773  1
  I  I91  1  0.49769662  0.16473054  0.33292650  1
  I  I92  1  0.50465114  0.16834419  0.66379642  1
  I  I93  1  0.50080311  0.49627131  0.00369403  1
  I  I94  1  0.50080236  0.50140593  0.33289614  1
  I  I95  1  0.50663715  0.49822799  0.66286653  1
  I  I96  1  0.49869452  0.83409781  -0.00159014  1
  I  I97  1  0.50278179  0.83381105  0.33624498  1
  I  I98  1  0.50305873  0.83396368  0.66499964  1
  I  I99  1  0.83169216  0.16355715  -0.00166239  1
  I  I100  1  0.83557652  0.16485704  0.33353370  1
  I  I101  1  0.83016791  0.16311948  0.66932940  1
  I  I102  1  0.83287565  0.50401624  0.00336500  1
  I  I103  1  0.83207782  0.50396249  0.33243675  1
  I  I104  1  0.82584018  0.50579781  0.66271276  1
  I  I105  1  0.83327912  0.83070482  0.00194400  1
  I  I106  1  0.82766786  0.83069526  0.33389768  1
  I  I107  1  0.83134761  0.82998389  0.66341665  1
  I  I108  1  0.00161127  0.16893446  0.16223158  1
  I  I109  1  -0.00004158  0.16532490  0.50082410  1
  I  I110  1  -0.00279176  0.16318454  0.83462586  1
  I  I111  1  -0.00088389  0.49999574  0.16946883  1
  I  I112  1  -0.00342616  0.50655284  0.49609585  1
  I  I113  1  -0.00008245  0.50289138  0.83354355  1
  I  I114  1  -0.00419979  0.83026467  0.16904915  1
  I  I115  1  -0.00366202  0.82839273  0.49755876  1
  I  I116  1  0.00147305  0.83564435  0.83613012  1
  I  I117  1  0.33455862  0.17388180  0.16940200  1
  I  I118  1  0.33863283  0.16597307  0.50027266  1
  I  I119  1  0.33334924  0.16618628  0.83181467  1
  I  I120  1  0.33442781  0.49581027  0.17010127  1
  I  I121  1  0.33712758  0.50196233  0.49519924  1
  I  I122  1  0.33351736  0.49788521  0.83255255  1
  I  I123  1  0.33349433  0.83134036  0.16746429  1
  I  I124  1  0.33695108  0.83280703  0.50189272  1
  I  I125  1  0.33458328  0.83452012  0.82920089  1
  I  I126  1  0.66372157  0.16894133  0.16897214  1
  I  I127  1  0.66321024  0.16567497  0.49295684  1
  I  I128  1  0.66858556  0.16266329  0.83731574  1
  I  I129  1  0.66645754  0.49958004  0.17038987  1
  I  I130  1  0.66603735  0.50138671  0.49151046  1
  I  I131  1  0.66667546  0.50210683  0.83991059  1
  I  I132  1  0.66980664  0.83071601  0.16451179  1
  I  I133  1  0.66592555  0.83267079  0.50238093  1
  I  I134  1  0.66450682  0.83543647  0.83213658  1
