# generated using pymatgen
data_Cs27Sn14Pb13I81
_symmetry_space_group_name_H-M   'P 1'
_cell_length_a   18.96815594
_cell_length_b   18.97510010
_cell_length_c   18.98252169
_cell_angle_alpha   89.99960279
_cell_angle_beta   90.00100415
_cell_angle_gamma   90.00061793
_symmetry_Int_Tables_number   1
_chemical_formula_structural   Cs27Sn14Pb13I81
_chemical_formula_sum   'Cs27 Sn14 Pb13 I81'
_cell_volume   6832.23965513
_cell_formula_units_Z   1
loop_
 _symmetry_equiv_pos_site_id
 _symmetry_equiv_pos_as_xyz
  1  'x, y, z'
loop_
 _atom_site_type_symbol
 _atom_site_label
 _atom_site_symmetry_multiplicity
 _atom_site_fract_x
 _atom_site_fract_y
 _atom_site_fract_z
 _atom_site_occupancy
  Cs  Cs0  1  0.00087343  0.00076766  -0.00066324  1
  Cs  Cs1  1  -0.00169906  0.00062805  0.33295911  1
  Cs  Cs2  1  -0.00008974  0.00199511  0.66816750  1
  Cs  Cs3  1  0.00054989  0.33132399  -0.00189875  1
  Cs  Cs4  1  0.00313528  0.32973168  0.33591797  1
  Cs  Cs5  1  0.00125994  0.33145240  0.66641685  1
  Cs  Cs6  1  0.00216584  0.66665590  0.00015812  1
  Cs  Cs7  1  -0.00745750  0.66839219  0.33262838  1
  Cs  Cs8  1  -0.00190456  0.66617128  0.66730431  1
  Cs  Cs9  1  0.33399011  -0.00119180  0.00033871  1
  Cs  Cs10  1  0.33376446  -0.00128714  0.33444738  1
  Cs  Cs11  1  0.33491003  -0.00185522  0.66572500  1
  Cs  Cs12  1  0.33556887  0.33172761  0.00239813  1
  Cs  Cs13  1  0.33417349  0.33651188  0.33545716  1
  Cs  Cs14  1  0.33216539  0.33606893  0.66094219  1
  Cs  Cs15  1  0.32941173  0.67068280  -0.00052827  1
  Cs  Cs16  1  0.33290177  0.67009776  0.33364654  1
  Cs  Cs17  1  0.33551693  0.66938023  0.66600044  1
  Cs  Cs18  1  0.66453096  0.00220450  -0.00180030  1
  Cs  Cs19  1  0.66769842  -0.00018042  0.33530678  1
  Cs  Cs20  1  0.66648731  0.00021820  0.66579668  1
  Cs  Cs21  1  0.65955998  0.33792775  0.00178481  1
  Cs  Cs22  1  0.66139305  0.33681160  0.33050155  1
  Cs  Cs23  1  0.66641581  0.33929927  0.66802942  1
  Cs  Cs24  1  0.66811823  0.65642825  -0.00097534  1
  Cs  Cs25  1  0.67537519  0.66263733  0.33294862  1
  Cs  Cs26  1  0.66729309  0.65687625  0.66807283  1
  Sn  Sn27  1  0.16622770  0.16665746  0.16605458  1
  Sn  Sn28  1  0.83191222  0.16622010  0.50020543  1
  Sn  Sn29  1  0.16693348  0.83348628  0.16708468  1
  Sn  Sn30  1  0.16665742  0.83372195  0.49987399  1
  Sn  Sn31  1  0.83356936  0.16629543  0.16604423  1
  Sn  Sn32  1  0.16661664  0.49976170  0.83398388  1
  Sn  Sn33  1  0.16578195  0.83365301  0.83309494  1
  Sn  Sn34  1  0.83367129  0.83413080  0.83358260  1
  Sn  Sn35  1  0.83362128  0.16572417  0.83375901  1
  Sn  Sn36  1  0.50024893  0.83358879  0.16738517  1
  Sn  Sn37  1  0.16654068  0.16667967  0.83395177  1
  Sn  Sn38  1  0.16643976  0.49999378  0.16617772  1
  Sn  Sn39  1  0.50010503  0.83394086  0.49888753  1
  Sn  Sn40  1  0.50098792  0.16580903  0.50014293  1
  Pb  Pb41  1  0.49969105  0.16664567  0.83082659  1
  Pb  Pb42  1  0.16674097  0.16467875  0.49996698  1
  Pb  Pb43  1  0.50059876  0.83335575  0.83332620  1
  Pb  Pb44  1  0.49615404  0.49994441  0.83353223  1
  Pb  Pb45  1  0.49697508  0.50374251  0.16681815  1
  Pb  Pb46  1  0.16645979  0.50365450  0.49964770  1
  Pb  Pb47  1  0.49979416  0.50110543  0.49968084  1
  Pb  Pb48  1  0.83279608  0.83488136  0.50244111  1
  Pb  Pb49  1  0.83597091  0.49915435  0.83352518  1
  Pb  Pb50  1  0.83312625  0.83526557  0.16405917  1
  Pb  Pb51  1  0.49946505  0.16468785  0.16866279  1
  Pb  Pb52  1  0.83377660  0.49617884  0.49990896  1
  Pb  Pb53  1  0.83647593  0.49639374  0.16650289  1
  I  I54  1  0.16672237  -0.00019355  0.16413859  1
  I  I55  1  0.16782639  -0.00330908  0.50013900  1
  I  I56  1  0.16271633  -0.00015154  0.83573295  1
  I  I57  1  0.16116483  0.33215794  0.15973127  1
  I  I58  1  0.16670170  0.33309024  0.50044743  1
  I  I59  1  0.16255334  0.33207875  0.83971374  1
  I  I60  1  0.17262525  0.66786602  0.16320901  1
  I  I61  1  0.17374654  0.67188584  0.50116766  1
  I  I62  1  0.16374606  0.66801686  0.83615391  1
  I  I63  1  0.49227630  -0.00304570  0.16817141  1
  I  I64  1  0.49889772  -0.00083678  0.49680011  1
  I  I65  1  0.49495816  -0.00008567  0.83461942  1
  I  I66  1  0.49977156  0.33328431  0.16835696  1
  I  I67  1  0.50412644  0.33037157  0.50110166  1
  I  I68  1  0.50068290  0.33304800  0.83115767  1
  I  I69  1  0.49433832  0.67176412  0.17229698  1
  I  I70  1  0.49253144  0.67076156  0.49768513  1
  I  I71  1  0.50136827  0.66702423  0.83061793  1
  I  I72  1  0.84016283  0.00337310  0.16859574  1
  I  I73  1  0.83330338  0.00313682  0.49868897  1
  I  I74  1  0.84250531  0.00113449  0.83303269  1
  I  I75  1  0.83812833  0.32801188  0.16449240  1
  I  I76  1  0.82940938  0.32754041  0.50351522  1
  I  I77  1  0.83843254  0.32933169  0.83170802  1
  I  I78  1  0.83312038  0.66679162  0.16564680  1
  I  I79  1  0.83322284  0.66697343  0.50188057  1
  I  I80  1  0.83731956  0.66937831  0.83252828  1
  I  I81  1  0.15961675  0.16286464  0.00002509  1
  I  I82  1  0.16352466  0.16645753  0.33061064  1
  I  I83  1  0.16390137  0.16644891  0.66940674  1
  I  I84  1  0.16617229  0.50453991  -0.00010250  1
  I  I85  1  0.16760033  0.49747176  0.32997236  1
  I  I86  1  0.16596554  0.49834365  0.66978680  1
  I  I87  1  0.16732477  0.83321921  0.00010740  1
  I  I88  1  0.17200107  0.83435286  0.33257486  1
  I  I89  1  0.16726966  0.83433991  0.66746878  1
  I  I90  1  0.50191127  0.16532017  0.00020753  1
  I  I91  1  0.50305123  0.16351605  0.33652623  1
  I  I92  1  0.50186026  0.15880800  0.66290385  1
  I  I93  1  0.50302912  0.50030866  0.00035466  1
  I  I94  1  0.49582313  0.49655822  0.33316667  1
  I  I95  1  0.49799859  0.50170372  0.66651909  1
  I  I96  1  0.49402795  0.83414303  0.00265223  1
  I  I97  1  0.48879643  0.83857042  0.33364450  1
  I  I98  1  0.49454428  0.83823618  0.66365956  1
  I  I99  1  0.84092338  0.16177380  -0.00056507  1
  I  I100  1  0.83580743  0.16622544  0.33300922  1
  I  I101  1  0.83500593  0.16194212  0.66747733  1
  I  I102  1  0.83107641  0.49962759  -0.00001000  1
  I  I103  1  0.83657786  0.50113187  0.33304821  1
  I  I104  1  0.83580560  0.49951780  0.66695537  1
  I  I105  1  0.83891170  0.83970074  -0.00362910  1
  I  I106  1  0.83662940  0.83540747  0.33324009  1
  I  I107  1  0.83940759  0.84017226  0.67012905  1
  I  I108  1  0.00137851  0.16445986  0.16838602  1
  I  I109  1  -0.00213732  0.16503654  0.50017938  1
  I  I110  1  0.00095562  0.16567965  0.83144106  1
  I  I111  1  0.00456773  0.50677517  0.16221743  1
  I  I112  1  0.00052232  0.50010794  0.50017771  1
  I  I113  1  0.00407754  0.50080235  0.83771404  1
  I  I114  1  0.00356386  0.83165487  0.16915786  1
  I  I115  1  0.00269328  0.83460904  0.49764048  1
  I  I116  1  0.00227290  0.83437686  0.83308680  1
  I  I117  1  0.32962358  0.16778688  0.16275622  1
  I  I118  1  0.33527611  0.16390671  0.50016584  1
  I  I119  1  0.32934988  0.16498244  0.83761180  1
  I  I120  1  0.32876979  0.49364111  0.16212655  1
  I  I121  1  0.33291946  0.49315245  0.50151492  1
  I  I122  1  0.32782516  0.50110490  0.83696858  1
  I  I123  1  0.33081227  0.83529946  0.16515905  1
  I  I124  1  0.33261938  0.83932753  0.50130802  1
  I  I125  1  0.32970892  0.83379101  0.83349949  1
  I  I126  1  0.66925218  0.16303868  0.16427121  1
  I  I127  1  0.66710688  0.15901545  0.50013421  1
  I  I128  1  0.67015575  0.15991845  0.83550840  1
  I  I129  1  0.66668897  0.50009797  0.16759971  1
  I  I130  1  0.66670963  0.50506284  0.50070849  1
  I  I131  1  0.66691339  0.50105353  0.83178379  1
  I  I132  1  0.66430930  0.83780616  0.17111481  1
  I  I133  1  0.66383057  0.83731297  0.49603001  1
  I  I134  1  0.66986518  0.84127057  0.83305920  1
