# generated using pymatgen
data_Cs27Sn13Pb14I81
_symmetry_space_group_name_H-M   'P 1'
_cell_length_a   18.97616179
_cell_length_b   18.97761593
_cell_length_c   18.97751662
_cell_angle_alpha   89.99994339
_cell_angle_beta   90.00059171
_cell_angle_gamma   90.00263618
_symmetry_Int_Tables_number   1
_chemical_formula_structural   Cs27Sn13Pb14I81
_chemical_formula_sum   'Cs27 Sn13 Pb14 I81'
_cell_volume   6834.22711909
_cell_formula_units_Z   1
loop_
 _symmetry_equiv_pos_site_id
 _symmetry_equiv_pos_as_xyz
  1  'x, y, z'
loop_
 _atom_site_type_symbol
 _atom_site_label
 _atom_site_symmetry_multiplicity
 _atom_site_fract_x
 _atom_site_fract_y
 _atom_site_fract_z
 _atom_site_occupancy
  Cs  Cs0  1  0.00078918  -0.00031379  0.00153212  1
  Cs  Cs1  1  0.00143561  0.00275307  0.33143494  1
  Cs  Cs2  1  0.00174504  0.00114848  0.66566077  1
  Cs  Cs3  1  0.00234905  0.33447106  -0.00109731  1
  Cs  Cs4  1  -0.00021967  0.33348200  0.33614617  1
  Cs  Cs5  1  -0.00137171  0.33239033  0.66481833  1
  Cs  Cs6  1  0.00118322  0.66621386  0.00044185  1
  Cs  Cs7  1  -0.00135232  0.66404793  0.33275670  1
  Cs  Cs8  1  -0.00218802  0.66708973  0.66743449  1
  Cs  Cs9  1  0.33172465  0.00093878  -0.00008987  1
  Cs  Cs10  1  0.33182393  -0.00406672  0.33497834  1
  Cs  Cs11  1  0.33241386  -0.00518902  0.66501259  1
  Cs  Cs12  1  0.33287944  0.33714280  0.00223558  1
  Cs  Cs13  1  0.33415752  0.33500470  0.33206104  1
  Cs  Cs14  1  0.33669169  0.33236202  0.66658006  1
  Cs  Cs15  1  0.33615760  0.66018467  -0.00639803  1
  Cs  Cs16  1  0.33537013  0.66688285  0.33359820  1
  Cs  Cs17  1  0.33398342  0.67498193  0.67132608  1
  Cs  Cs18  1  0.66651962  0.00020763  0.00773568  1
  Cs  Cs19  1  0.66691889  -0.00075542  0.32283055  1
  Cs  Cs20  1  0.66643304  0.00044149  0.66754132  1
  Cs  Cs21  1  0.66348980  0.33167127  -0.00050567  1
  Cs  Cs22  1  0.66598321  0.33121984  0.33425766  1
  Cs  Cs23  1  0.66699015  0.33350804  0.66628573  1
  Cs  Cs24  1  0.66347182  0.66887242  0.00116504  1
  Cs  Cs25  1  0.66741567  0.66928674  0.33441960  1
  Cs  Cs26  1  0.66838148  0.66603223  0.66589532  1
  Sn  Sn27  1  0.16651069  0.16619992  0.16633769  1
  Sn  Sn28  1  0.83304390  0.49959739  0.16662935  1
  Sn  Sn29  1  0.16680951  0.83299732  0.16640869  1
  Sn  Sn30  1  0.50032103  0.16682476  0.50048329  1
  Sn  Sn31  1  0.49997873  0.49956992  0.50055378  1
  Sn  Sn32  1  0.83346794  0.83344679  0.50026780  1
  Sn  Sn33  1  0.83318523  0.50042125  0.49990611  1
  Sn  Sn34  1  0.83326578  0.16641312  0.83317418  1
  Sn  Sn35  1  0.83336371  0.50006197  0.83370990  1
  Sn  Sn36  1  0.50002997  0.16662063  0.83241679  1
  Sn  Sn37  1  0.16703802  0.50028966  0.50071553  1
  Sn  Sn38  1  0.16675026  0.16690868  0.83365929  1
  Sn  Sn39  1  0.83344927  0.83361775  0.83276760  1
  Pb  Pb40  1  0.16439120  0.83547916  0.83510862  1
  Pb  Pb41  1  0.16404228  0.83084930  0.49824129  1
  Pb  Pb42  1  0.50273048  0.83357768  0.49996159  1
  Pb  Pb43  1  0.83552311  0.16910513  0.16394379  1
  Pb  Pb44  1  0.50269109  0.83624995  0.83338692  1
  Pb  Pb45  1  0.16485891  0.49797394  0.83087068  1
  Pb  Pb46  1  0.49710759  0.16670212  0.16668075  1
  Pb  Pb47  1  0.16520710  0.49993818  0.16835148  1
  Pb  Pb48  1  0.50234170  0.49815713  0.83107221  1
  Pb  Pb49  1  0.49649569  0.83301956  0.16645291  1
  Pb  Pb50  1  0.83136941  0.16629923  0.50145939  1
  Pb  Pb51  1  0.83489575  0.83134023  0.16649405  1
  Pb  Pb52  1  0.16896303  0.16823977  0.50028140  1
  Pb  Pb53  1  0.50275451  0.49992498  0.16924232  1
  I  I54  1  0.16452334  0.00101042  0.16306831  1
  I  I55  1  0.16636509  0.00001787  0.50090198  1
  I  I56  1  0.16399017  0.00392598  0.83353073  1
  I  I57  1  0.16520981  0.33078871  0.16321900  1
  I  I58  1  0.15993451  0.33617380  0.49834197  1
  I  I59  1  0.16387812  0.32961953  0.83924389  1
  I  I60  1  0.16229864  0.66867890  0.17056561  1
  I  I61  1  0.16926257  0.66275233  0.49727910  1
  I  I62  1  0.16459417  0.66658499  0.83471151  1
  I  I63  1  0.50465645  0.00030047  0.16931238  1
  I  I64  1  0.50021042  0.00306709  0.50507681  1
  I  I65  1  0.50111773  0.00471347  0.82604401  1
  I  I66  1  0.49813246  0.33324394  0.16545059  1
  I  I67  1  0.50297484  0.33394801  0.50387109  1
  I  I68  1  0.50277125  0.32987889  0.83116836  1
  I  I69  1  0.49843299  0.66629874  0.16880557  1
  I  I70  1  0.50007467  0.66347916  0.49809053  1
  I  I71  1  0.50087506  0.66660092  0.83243206  1
  I  I72  1  0.83287057  0.00011455  0.16738218  1
  I  I73  1  0.83259129  -0.00245593  0.50554503  1
  I  I74  1  0.83389960  0.00039507  0.82747367  1
  I  I75  1  0.83605263  0.33689805  0.16962710  1
  I  I76  1  0.83475961  0.33652578  0.50087681  1
  I  I77  1  0.83378327  0.33334216  0.83254942  1
  I  I78  1  0.83718013  0.66351351  0.16421271  1
  I  I79  1  0.83205507  0.66474429  0.50438001  1
  I  I80  1  0.83449828  0.66597936  0.83131022  1
  I  I81  1  0.16644265  0.16361143  -0.00092372  1
  I  I82  1  0.16750610  0.16487459  0.33111284  1
  I  I83  1  0.16358731  0.16980674  0.66959073  1
  I  I84  1  0.16333279  0.50050172  -0.00023394  1
  I  I85  1  0.16260407  0.49722307  0.33642225  1
  I  I86  1  0.16284820  0.49723972  0.66291839  1
  I  I87  1  0.16220202  0.83504291  0.00282937  1
  I  I88  1  0.16319486  0.84110235  0.33060434  1
  I  I89  1  0.16688025  0.83394957  0.66670934  1
  I  I90  1  0.50355028  0.16576345  -0.00333477  1
  I  I91  1  0.49951057  0.17168187  0.33628393  1
  I  I92  1  0.49940387  0.17188140  0.66726292  1
  I  I93  1  0.50132944  0.49844759  -0.00035031  1
  I  I94  1  0.50218586  0.49286077  0.33777578  1
  I  I95  1  0.50319950  0.49668657  0.66288985  1
  I  I96  1  0.50466115  0.83556913  -0.00025922  1
  I  I97  1  0.50374118  0.83595543  0.33360137  1
  I  I98  1  0.49739444  0.83230854  0.66661485  1
  I  I99  1  0.82848215  0.16582804  -0.00453778  1
  I  I100  1  0.83338868  0.16701802  0.33319295  1
  I  I101  1  0.83786274  0.17091247  0.67005787  1
  I  I102  1  0.83568332  0.49904469  -0.00107449  1
  I  I103  1  0.83382429  0.50501117  0.33505716  1
  I  I104  1  0.83334796  0.50011633  0.66620409  1
  I  I105  1  0.83491749  0.83319045  -0.00302244  1
  I  I106  1  0.83416950  0.82696399  0.33580254  1
  I  I107  1  0.83385563  0.82798723  0.66700202  1
  I  I108  1  0.00320205  0.16394438  0.16246663  1
  I  I109  1  -0.00008725  0.16841505  0.50107320  1
  I  I110  1  -0.00065473  0.16742701  0.83768344  1
  I  I111  1  -0.00303935  0.49943321  0.16928958  1
  I  I112  1  -0.00173364  0.50344652  0.49964681  1
  I  I113  1  -0.00394371  0.49722649  0.83043388  1
  I  I114  1  0.00234517  0.83760818  0.16674426  1
  I  I115  1  -0.00393290  0.82771939  0.50402278  1
  I  I116  1  -0.00400620  0.83466719  0.82979757  1
  I  I117  1  0.32936568  0.16444285  0.16129230  1
  I  I118  1  0.33672868  0.17325314  0.50506406  1
  I  I119  1  0.33322624  0.16749651  0.83342485  1
  I  I120  1  0.33323162  0.49971422  0.16935212  1
  I  I121  1  0.33372484  0.49262243  0.49768692  1
  I  I122  1  0.33344106  0.49800399  0.83240326  1
  I  I123  1  0.32862889  0.83881144  0.16894588  1
  I  I124  1  0.33322802  0.83189592  0.49793854  1
  I  I125  1  0.33312741  0.83456724  0.83446727  1
  I  I126  1  0.66677071  0.16776216  0.16623221  1
  I  I127  1  0.66364146  0.17288940  0.50629706  1
  I  I128  1  0.66732842  0.16812455  0.82708429  1
  I  I129  1  0.67113919  0.50022303  0.16726717  1
  I  I130  1  0.66799269  0.49948989  0.50067986  1
  I  I131  1  0.67109372  0.49757436  0.83094033  1
  I  I132  1  0.66714311  0.83245927  0.16733356  1
  I  I133  1  0.67081012  0.82693982  0.50375292  1
  I  I134  1  0.67136744  0.83328867  0.82937798  1
