# generated using pymatgen
data_Cs27Sn14Pb13I81
_symmetry_space_group_name_H-M   'P 1'
_cell_length_a   19.05459575
_cell_length_b   19.04703000
_cell_length_c   19.04265095
_cell_angle_alpha   90.00283869
_cell_angle_beta   89.99898519
_cell_angle_gamma   90.00070998
_symmetry_Int_Tables_number   1
_chemical_formula_structural   Cs27Sn14Pb13I81
_chemical_formula_sum   'Cs27 Sn14 Pb13 I81'
_cell_volume   6911.21512780
_cell_formula_units_Z   1
loop_
 _symmetry_equiv_pos_site_id
 _symmetry_equiv_pos_as_xyz
  1  'x, y, z'
loop_
 _atom_site_type_symbol
 _atom_site_label
 _atom_site_symmetry_multiplicity
 _atom_site_fract_x
 _atom_site_fract_y
 _atom_site_fract_z
 _atom_site_occupancy
  Cs  Cs0  1  0.00098381  -0.00199191  0.00232048  1
  Cs  Cs1  1  -0.00205661  -0.00050441  0.33323154  1
  Cs  Cs2  1  -0.00511967  -0.00059922  0.66666082  1
  Cs  Cs3  1  -0.00049881  0.33261972  0.00518134  1
  Cs  Cs4  1  -0.00013399  0.33062891  0.33780246  1
  Cs  Cs5  1  -0.00016156  0.33441633  0.66119544  1
  Cs  Cs6  1  0.00510066  0.66914302  -0.00146543  1
  Cs  Cs7  1  0.00216984  0.67078114  0.33437195  1
  Cs  Cs8  1  -0.00387522  0.66455745  0.66569705  1
  Cs  Cs9  1  0.33158451  -0.00216693  -0.00268789  1
  Cs  Cs10  1  0.33653333  0.00622085  0.33798577  1
  Cs  Cs11  1  0.33713098  0.00015740  0.66993983  1
  Cs  Cs12  1  0.33450127  0.33667710  -0.00478974  1
  Cs  Cs13  1  0.34219116  0.32221047  0.34520938  1
  Cs  Cs14  1  0.33107886  0.33347876  0.66772666  1
  Cs  Cs15  1  0.32985107  0.66857219  -0.00010017  1
  Cs  Cs16  1  0.33408446  0.66793545  0.33299075  1
  Cs  Cs17  1  0.33328172  0.66702118  0.66689519  1
  Cs  Cs18  1  0.66642369  -0.00165889  -0.00147622  1
  Cs  Cs19  1  0.66857979  0.00039757  0.33837658  1
  Cs  Cs20  1  0.67019202  0.00196414  0.66531831  1
  Cs  Cs21  1  0.66583728  0.33615685  0.01249390  1
  Cs  Cs22  1  0.65754874  0.34712689  0.31615746  1
  Cs  Cs23  1  0.67205452  0.33221688  0.66741242  1
  Cs  Cs24  1  0.66911653  0.66596412  -0.00137122  1
  Cs  Cs25  1  0.66138766  0.65891729  0.33499579  1
  Cs  Cs26  1  0.67121684  0.66195996  0.66558648  1
  Sn  Sn27  1  0.16611448  0.83369813  0.50047120  1
  Sn  Sn28  1  0.83283865  0.83332333  0.16783215  1
  Sn  Sn29  1  0.83283457  0.16641457  0.50008715  1
  Sn  Sn30  1  0.16723264  0.83316662  0.16706607  1
  Sn  Sn31  1  0.16713104  0.50038407  0.83420073  1
  Sn  Sn32  1  0.16701023  0.49987275  0.16680639  1
  Sn  Sn33  1  0.49991435  0.83399477  0.16556300  1
  Sn  Sn34  1  0.16715434  0.83335570  0.83241815  1
  Sn  Sn35  1  0.83363819  0.16656711  0.83347694  1
  Sn  Sn36  1  0.50032593  0.16673721  0.83355858  1
  Sn  Sn37  1  0.49955966  0.83289305  0.83391983  1
  Sn  Sn38  1  0.49925106  0.50051129  0.83315046  1
  Sn  Sn39  1  0.83398985  0.83382086  0.49877327  1
  Sn  Sn40  1  0.16606458  0.16654851  0.83356582  1
  Pb  Pb41  1  0.49959266  0.49995837  0.50317343  1
  Pb  Pb42  1  0.83398319  0.49661501  0.83354301  1
  Pb  Pb43  1  0.83322714  0.83452860  0.83329833  1
  Pb  Pb44  1  0.16686804  0.16685820  0.16480645  1
  Pb  Pb45  1  0.83339192  0.49969214  0.49955334  1
  Pb  Pb46  1  0.16679294  0.50237860  0.49960587  1
  Pb  Pb47  1  0.83339024  0.16444207  0.16709270  1
  Pb  Pb48  1  0.49608373  0.50313621  0.16385193  1
  Pb  Pb49  1  0.49970804  0.16368848  0.16380732  1
  Pb  Pb50  1  0.50033818  0.83333357  0.50051332  1
  Pb  Pb51  1  0.50345680  0.16658856  0.50285152  1
  Pb  Pb52  1  0.83702381  0.50367043  0.16650077  1
  Pb  Pb53  1  0.16470483  0.16379415  0.50283517  1
  I  I54  1  0.16537280  -0.00402083  0.16485596  1
  I  I55  1  0.16537291  -0.00406594  0.49754802  1
  I  I56  1  0.16993866  -0.00106030  0.83307131  1
  I  I57  1  0.16446267  0.33645393  0.15621391  1
  I  I58  1  0.16407653  0.33312349  0.49921951  1
  I  I59  1  0.17044093  0.33342649  0.84007718  1
  I  I60  1  0.16519036  0.66921618  0.15873251  1
  I  I61  1  0.15760279  0.67080677  0.50727391  1
  I  I62  1  0.17510623  0.66783385  0.83386344  1
  I  I63  1  0.49500162  -0.00445205  0.15862751  1
  I  I64  1  0.49552178  -0.00037800  0.50229274  1
  I  I65  1  0.49547109  -0.00056231  0.83820916  1
  I  I66  1  0.50166399  0.33375499  0.16717049  1
  I  I67  1  0.50090439  0.33296084  0.50059939  1
  I  I68  1  0.49432972  0.33312020  0.82885701  1
  I  I69  1  0.50506302  0.67060617  0.15924522  1
  I  I70  1  0.50507778  0.66727609  0.50365183  1
  I  I71  1  0.48998286  0.66760870  0.83804584  1
  I  I72  1  0.83921223  -0.00372512  0.16613906  1
  I  I73  1  0.83904973  -0.00122623  0.50137724  1
  I  I74  1  0.83373238  0.00222282  0.83286608  1
  I  I75  1  0.83373441  0.33358079  0.16654942  1
  I  I76  1  0.83461815  0.32986823  0.51271618  1
  I  I77  1  0.83420063  0.32886120  0.82240772  1
  I  I78  1  0.82889489  0.67169821  0.17419681  1
  I  I79  1  0.83831185  0.67018504  0.49553002  1
  I  I80  1  0.83201464  0.66634733  0.83257330  1
  I  I81  1  0.16342646  0.15867934  -0.00434901  1
  I  I82  1  0.16270671  0.16840179  0.33367029  1
  I  I83  1  0.17157983  0.16819566  0.67127382  1
  I  I84  1  0.17030193  0.50758122  -0.00181811  1
  I  I85  1  0.16233988  0.51060739  0.33009625  1
  I  I86  1  0.17215956  0.49967998  0.67014514  1
  I  I87  1  0.16624378  0.83338846  -0.00063434  1
  I  I88  1  0.16530561  0.82486936  0.33258914  1
  I  I89  1  0.16689667  0.83436536  0.66825260  1
  I  I90  1  0.50409876  0.17009702  -0.00490527  1
  I  I91  1  0.50090752  0.16557023  0.33342164  1
  I  I92  1  0.49444198  0.16056253  0.67136117  1
  I  I93  1  0.49891301  0.49441803  -0.00369471  1
  I  I94  1  0.50164004  0.50130782  0.33258543  1
  I  I95  1  0.49049121  0.50551260  0.67208982  1
  I  I96  1  0.49654549  0.83445692  -0.00168694  1
  I  I97  1  0.49589786  0.83234254  0.33063456  1
  I  I98  1  0.49467862  0.83410382  0.67028806  1
  I  I99  1  0.83292643  0.16573005  -0.00306991  1
  I  I100  1  0.83762994  0.16018694  0.33658683  1
  I  I101  1  0.83318948  0.15660641  0.66760706  1
  I  I102  1  0.82925242  0.49915660  -0.00015814  1
  I  I103  1  0.83459081  0.49138566  0.33300225  1
  I  I104  1  0.83436860  0.50879179  0.66696476  1
  I  I105  1  0.83635996  0.83467366  0.00201365  1
  I  I106  1  0.83941682  0.84199618  0.33354213  1
  I  I107  1  0.83756215  0.83552438  0.66460863  1
  I  I108  1  0.00006487  0.16414583  0.15989814  1
  I  I109  1  -0.00284191  0.16463627  0.50931980  1
  I  I110  1  0.00044474  0.16419654  0.82879847  1
  I  I111  1  0.00422786  0.50737155  0.15500636  1
  I  I112  1  0.00027714  0.49743535  0.50557754  1
  I  I113  1  0.00351004  0.50357609  0.83689341  1
  I  I114  1  0.00091930  0.82918430  0.16573802  1
  I  I115  1  0.00023614  0.83755328  0.49689870  1
  I  I116  1  0.00315397  0.83297329  0.83645474  1
  I  I117  1  0.33317881  0.16245074  0.16682667  1
  I  I118  1  0.33367886  0.16658600  0.49810666  1
  I  I119  1  0.33313278  0.16511052  0.83639283  1
  I  I120  1  0.32927643  0.51108813  0.16200015  1
  I  I121  1  0.33294224  0.50313047  0.49683732  1
  I  I122  1  0.33227745  0.49516477  0.83815339  1
  I  I123  1  0.33248604  0.82740461  0.16365289  1
  I  I124  1  0.33061151  0.83043970  0.49822142  1
  I  I125  1  0.33243773  0.83858900  0.83610407  1
  I  I126  1  0.66675840  0.16457684  0.16197612  1
  I  I127  1  0.67074244  0.15197128  0.51094814  1
  I  I128  1  0.66644871  0.16303222  0.82626598  1
  I  I129  1  0.66639104  0.49931149  0.16657782  1
  I  I130  1  0.66678443  0.50544790  0.50350306  1
  I  I131  1  0.66405578  0.50365051  0.83062705  1
  I  I132  1  0.66654357  0.83824364  0.16411338  1
  I  I133  1  0.66970153  0.83946154  0.49715818  1
  I  I134  1  0.66371557  0.83344119  0.83764031  1
