# generated using pymatgen
data_Cs27Sn13Pb14I81
_symmetry_space_group_name_H-M   'P 1'
_cell_length_a   19.26675297
_cell_length_b   19.25753479
_cell_length_c   19.27905958
_cell_angle_alpha   89.98409474
_cell_angle_beta   89.98760926
_cell_angle_gamma   89.99582193
_symmetry_Int_Tables_number   1
_chemical_formula_structural   Cs27Sn13Pb14I81
_chemical_formula_sum   'Cs27 Sn13 Pb14 I81'
_cell_volume   7153.11220863
_cell_formula_units_Z   1
loop_
 _symmetry_equiv_pos_site_id
 _symmetry_equiv_pos_as_xyz
  1  'x, y, z'
loop_
 _atom_site_type_symbol
 _atom_site_label
 _atom_site_symmetry_multiplicity
 _atom_site_fract_x
 _atom_site_fract_y
 _atom_site_fract_z
 _atom_site_occupancy
  Cs  Cs0  1  0.02166161  -0.00931403  -0.00265505  1
  Cs  Cs1  1  -0.01802977  -0.00849433  0.30819421  1
  Cs  Cs2  1  0.00828135  -0.03211116  0.67354348  1
  Cs  Cs3  1  0.02717172  0.33568128  -0.01078783  1
  Cs  Cs4  1  0.00379027  0.35021792  0.36381795  1
  Cs  Cs5  1  -0.02089922  0.33791894  0.63997792  1
  Cs  Cs6  1  0.01369090  0.67128982  0.01484144  1
  Cs  Cs7  1  -0.00998149  0.65051201  0.32915497  1
  Cs  Cs8  1  -0.00243799  0.69331961  0.66832198  1
  Cs  Cs9  1  0.31098366  -0.00567147  -0.00343652  1
  Cs  Cs10  1  0.33587015  -0.00081468  0.35739468  1
  Cs  Cs11  1  0.33236028  -0.00790781  0.64111550  1
  Cs  Cs12  1  0.32844635  0.31263370  -0.00756623  1
  Cs  Cs13  1  0.32469417  0.35848501  0.33804592  1
  Cs  Cs14  1  0.33702210  0.30451064  0.68068108  1
  Cs  Cs15  1  0.33997057  0.66321333  -0.00289234  1
  Cs  Cs16  1  0.35868464  0.65746376  0.32434121  1
  Cs  Cs17  1  0.34462140  0.68063821  0.69067397  1
  Cs  Cs18  1  0.66541415  0.02127417  0.02210873  1
  Cs  Cs19  1  0.66632877  0.02676872  0.32213925  1
  Cs  Cs20  1  0.64778957  0.00100940  0.64206133  1
  Cs  Cs21  1  0.68023502  0.32165684  -0.01955327  1
  Cs  Cs22  1  0.66882787  0.31048265  0.32685507  1
  Cs  Cs23  1  0.69098840  0.33638859  0.70067414  1
  Cs  Cs24  1  0.65575927  0.66211938  0.02246166  1
  Cs  Cs25  1  0.63842386  0.66880991  0.32461745  1
  Cs  Cs26  1  0.66744049  0.66029286  0.66535226  1
  Sn  Sn27  1  0.49708192  0.83656771  0.16104826  1
  Sn  Sn28  1  0.16724113  0.50173977  0.83120381  1
  Sn  Sn29  1  0.83449059  0.83259389  0.50076196  1
  Sn  Sn30  1  0.83265431  0.50019918  0.16253689  1
  Sn  Sn31  1  0.16856375  0.83065870  0.83391813  1
  Sn  Sn32  1  0.16710257  0.16451274  0.16964100  1
  Sn  Sn33  1  0.50285257  0.49489190  0.16554658  1
  Sn  Sn34  1  0.49923192  0.49880615  0.50417552  1
  Sn  Sn35  1  0.50558342  0.83515775  0.83754701  1
  Sn  Sn36  1  0.16367047  0.83038915  0.49343769  1
  Sn  Sn37  1  0.16942667  0.83298930  0.17178319  1
  Sn  Sn38  1  0.16389979  0.16555533  0.83162746  1
  Sn  Sn39  1  0.82748790  0.83211030  0.83606650  1
  Pb  Pb40  1  0.83877014  0.17382608  0.16528703  1
  Pb  Pb41  1  0.49827998  0.50095140  0.83298715  1
  Pb  Pb42  1  0.50090255  0.16182993  0.83622315  1
  Pb  Pb43  1  0.16563125  0.49871997  0.16488573  1
  Pb  Pb44  1  0.49929584  0.17429881  0.49829860  1
  Pb  Pb45  1  0.50178451  0.83134418  0.49991910  1
  Pb  Pb46  1  0.16566182  0.16517612  0.49927570  1
  Pb  Pb47  1  0.83803679  0.16106442  0.83348915  1
  Pb  Pb48  1  0.83312042  0.83107220  0.16522359  1
  Pb  Pb49  1  0.16982267  0.50512677  0.50527773  1
  Pb  Pb50  1  0.49434328  0.17092533  0.16601806  1
  Pb  Pb51  1  0.83732124  0.50451232  0.83860165  1
  Pb  Pb52  1  0.82814547  0.50474515  0.49731307  1
  Pb  Pb53  1  0.83467831  0.16303159  0.50122209  1
  I  I54  1  0.17950993  -0.00330824  0.15194126  1
  I  I55  1  0.16286579  -0.00035311  0.52236840  1
  I  I56  1  0.16250758  0.00058105  0.83651618  1
  I  I57  1  0.16797752  0.33011422  0.13700858  1
  I  I58  1  0.17755870  0.33409451  0.49464057  1
  I  I59  1  0.17822603  0.33381538  0.85663047  1
  I  I60  1  0.15747215  0.67061751  0.16847410  1
  I  I61  1  0.14295216  0.66966520  0.49185149  1
  I  I62  1  0.16921744  0.66897236  0.82964507  1
  I  I63  1  0.51085375  -0.00143835  0.15133885  1
  I  I64  1  0.49709987  -0.00154836  0.50512170  1
  I  I65  1  0.50478723  -0.00451023  0.85592565  1
  I  I66  1  0.50904047  0.33561631  0.20002230  1
  I  I67  1  0.49493676  0.33573709  0.46217466  1
  I  I68  1  0.49292640  0.33366908  0.82269132  1
  I  I69  1  0.49123696  0.66843637  0.16679625  1
  I  I70  1  0.49410698  0.66671918  0.49448965  1
  I  I71  1  0.48759312  0.66833305  0.83061569  1
  I  I72  1  0.81372459  -0.00137518  0.17513395  1
  I  I73  1  0.84278999  -0.00266604  0.51478129  1
  I  I74  1  0.83631361  -0.00447077  0.82319308  1
  I  I75  1  0.79969208  0.33662909  0.16545060  1
  I  I76  1  0.82254547  0.33447006  0.48350864  1
  I  I77  1  0.83613359  0.33407870  0.85040083  1
  I  I78  1  0.85192025  0.66603338  0.16617667  1
  I  I79  1  0.85438916  0.66878897  0.51626197  1
  I  I80  1  0.84348718  0.66844865  0.81098130  1
  I  I81  1  0.16645173  0.15243995  -0.00144753  1
  I  I82  1  0.17352342  0.14959453  0.32894072  1
  I  I83  1  0.18117295  0.17403084  0.67146079  1
  I  I84  1  0.16906222  0.52147649  0.00025289  1
  I  I85  1  0.14735640  0.48751138  0.33110467  1
  I  I86  1  0.17806627  0.49046138  0.67165060  1
  I  I87  1  0.16288951  0.83467930  -0.00094017  1
  I  I88  1  0.16555237  0.86411179  0.33424156  1
  I  I89  1  0.16851271  0.83000920  0.66928453  1
  I  I90  1  0.52187191  0.19099345  0.00192446  1
  I  I91  1  0.49345432  0.13795027  0.33181720  1
  I  I92  1  0.48749724  0.15665681  0.66631689  1
  I  I93  1  0.50773165  0.50977536  0.00425047  1
  I  I94  1  0.50622352  0.51640315  0.32966150  1
  I  I95  1  0.48001151  0.51114025  0.66103192  1
  I  I96  1  0.49251865  0.81049523  -0.00053793  1
  I  I97  1  0.48672293  0.82888014  0.33141500  1
  I  I98  1  0.48878137  0.84075766  0.66958815  1
  I  I99  1  0.80932178  0.16283998  0.00135780  1
  I  I100  1  0.83154643  0.15581634  0.33183417  1
  I  I101  1  0.83530609  0.19465892  0.66677710  1
  I  I102  1  0.80109487  0.50708252  0.00199432  1
  I  I103  1  0.85527648  0.50048127  0.33156340  1
  I  I104  1  0.83428006  0.47703232  0.66651869  1
  I  I105  1  0.84854082  0.83072843  -0.00353604  1
  I  I106  1  0.85906605  0.82729142  0.33718624  1
  I  I107  1  0.84790156  0.83673389  0.66823189  1
  I  I108  1  0.00070571  0.13741271  0.15577782  1
  I  I109  1  0.00027033  0.19416450  0.49622833  1
  I  I110  1  0.00268972  0.16630053  0.85711457  1
  I  I111  1  -0.00365580  0.50078176  0.14875239  1
  I  I112  1  0.00059031  0.48974188  0.50894399  1
  I  I113  1  0.00343388  0.49997965  0.85360739  1
  I  I114  1  0.00266419  0.85020844  0.15807487  1
  I  I115  1  0.00440994  0.83820542  0.51460472  1
  I  I116  1  0.00433629  0.83712091  0.83037846  1
  I  I117  1  0.33040375  0.16926358  0.14260752  1
  I  I118  1  0.33295457  0.15340401  0.50317190  1
  I  I119  1  0.33309288  0.17114628  0.84719410  1
  I  I120  1  0.33391165  0.49985704  0.18523982  1
  I  I121  1  0.33311233  0.51078575  0.47067785  1
  I  I122  1  0.33092588  0.50927150  0.84466693  1
  I  I123  1  0.33177691  0.82630952  0.15378233  1
  I  I124  1  0.33000843  0.84005664  0.50600012  1
  I  I125  1  0.33165915  0.83498961  0.83345249  1
  I  I126  1  0.66427289  0.16440594  0.17660708  1
  I  I127  1  0.66590130  0.15021883  0.49103464  1
  I  I128  1  0.66782130  0.17425123  0.82184981  1
  I  I129  1  0.66662444  0.52978053  0.17773131  1
  I  I130  1  0.66230246  0.52481504  0.49982468  1
  I  I131  1  0.66503175  0.50200990  0.81305331  1
  I  I132  1  0.66501051  0.81513131  0.16149302  1
  I  I133  1  0.66980211  0.82781599  0.52722551  1
  I  I134  1  0.66615418  0.81421991  0.82202246  1
