# generated using pymatgen
data_Cs27Sn14Pb13I81
_symmetry_space_group_name_H-M   'P 1'
_cell_length_a   18.95444267
_cell_length_b   18.96193033
_cell_length_c   18.96576112
_cell_angle_alpha   89.99969626
_cell_angle_beta   89.99745606
_cell_angle_gamma   90.00024323
_symmetry_Int_Tables_number   1
_chemical_formula_structural   Cs27Sn14Pb13I81
_chemical_formula_sum   'Cs27 Sn14 Pb13 I81'
_cell_volume   6816.53770545
_cell_formula_units_Z   1
loop_
 _symmetry_equiv_pos_site_id
 _symmetry_equiv_pos_as_xyz
  1  'x, y, z'
loop_
 _atom_site_type_symbol
 _atom_site_label
 _atom_site_symmetry_multiplicity
 _atom_site_fract_x
 _atom_site_fract_y
 _atom_site_fract_z
 _atom_site_occupancy
  Cs  Cs0  1  0.00138294  -0.00147858  0.00203524  1
  Cs  Cs1  1  -0.00502468  -0.00193241  0.33412777  1
  Cs  Cs2  1  0.00287179  -0.00048093  0.66243604  1
  Cs  Cs3  1  0.00110777  0.33695613  -0.00133193  1
  Cs  Cs4  1  0.00184281  0.33221389  0.33318815  1
  Cs  Cs5  1  -0.00293311  0.33379264  0.66771646  1
  Cs  Cs6  1  -0.00018862  0.66551507  0.00003168  1
  Cs  Cs7  1  -0.00238366  0.67042917  0.33191751  1
  Cs  Cs8  1  -0.00051878  0.66655915  0.66652727  1
  Cs  Cs9  1  0.33368785  -0.00067832  -0.00128460  1
  Cs  Cs10  1  0.33171348  -0.00035745  0.33656406  1
  Cs  Cs11  1  0.33234534  -0.00055174  0.66643766  1
  Cs  Cs12  1  0.33300668  0.33306816  0.00299454  1
  Cs  Cs13  1  0.33401729  0.33592913  0.33271173  1
  Cs  Cs14  1  0.33207863  0.33197390  0.66575057  1
  Cs  Cs15  1  0.33256817  0.66742155  -0.00054773  1
  Cs  Cs16  1  0.33457035  0.66420556  0.33299182  1
  Cs  Cs17  1  0.33351513  0.66859097  0.66757593  1
  Cs  Cs18  1  0.66645746  0.00381787  0.00249020  1
  Cs  Cs19  1  0.67402788  0.00043071  0.33065579  1
  Cs  Cs20  1  0.66321123  0.00310382  0.66803576  1
  Cs  Cs21  1  0.66836113  0.32396376  0.00026081  1
  Cs  Cs22  1  0.66556123  0.33525498  0.33382350  1
  Cs  Cs23  1  0.67608850  0.33536752  0.66662806  1
  Cs  Cs24  1  0.66834333  0.66919477  -0.00181814  1
  Cs  Cs25  1  0.66743880  0.66418268  0.33522293  1
  Cs  Cs26  1  0.66509102  0.66255144  0.66751563  1
  Sn  Sn27  1  0.16654841  0.83329934  0.83399989  1
  Sn  Sn28  1  0.83300572  0.49986709  0.16637158  1
  Sn  Sn29  1  0.16765665  0.83402726  0.16610397  1
  Sn  Sn30  1  0.50008601  0.83279653  0.83352387  1
  Sn  Sn31  1  0.16743139  0.16757611  0.49986242  1
  Sn  Sn32  1  0.83331106  0.83368413  0.83298576  1
  Sn  Sn33  1  0.49974998  0.83418169  0.49989636  1
  Sn  Sn34  1  0.16770454  0.50015277  0.83237483  1
  Sn  Sn35  1  0.16704253  0.16665437  0.83340786  1
  Sn  Sn36  1  0.49934460  0.16612485  0.50024349  1
  Sn  Sn37  1  0.49929812  0.49988325  0.83369872  1
  Sn  Sn38  1  0.49925867  0.83328923  0.16669653  1
  Sn  Sn39  1  0.16691751  0.49957238  0.50074807  1
  Sn  Sn40  1  0.16705485  0.16566001  0.16691695  1
  Pb  Pb41  1  0.83337691  0.50161140  0.83481814  1
  Pb  Pb42  1  0.83341171  0.16661003  0.50003043  1
  Pb  Pb43  1  0.49814886  0.16684023  0.83149453  1
  Pb  Pb44  1  0.16583324  0.50051792  0.16651891  1
  Pb  Pb45  1  0.49816139  0.49971259  0.50220821  1
  Pb  Pb46  1  0.83656317  0.50017322  0.49758019  1
  Pb  Pb47  1  0.82946803  0.83326839  0.50305884  1
  Pb  Pb48  1  0.83622224  0.16923669  0.16659594  1
  Pb  Pb49  1  0.16802711  0.83325138  0.49980058  1
  Pb  Pb50  1  0.83651381  0.16358685  0.83335301  1
  Pb  Pb51  1  0.83328895  0.83209345  0.16482363  1
  Pb  Pb52  1  0.49774941  0.16427394  0.16926439  1
  Pb  Pb53  1  0.50232751  0.50205921  0.16367247  1
  I  I54  1  0.16992882  -0.00080541  0.16286910  1
  I  I55  1  0.16926203  0.00249478  0.50276981  1
  I  I56  1  0.16681765  -0.00087406  0.83370828  1
  I  I57  1  0.16359230  0.33097563  0.16464052  1
  I  I58  1  0.17167615  0.33234584  0.50206465  1
  I  I59  1  0.17110557  0.33371818  0.83316770  1
  I  I60  1  0.16830436  0.66970674  0.16332949  1
  I  I61  1  0.16835529  0.66453146  0.50322975  1
  I  I62  1  0.16734736  0.66748263  0.83370081  1
  I  I63  1  0.49876562  -0.00417612  0.15996329  1
  I  I64  1  0.49264705  -0.00074483  0.50309292  1
  I  I65  1  0.49890603  -0.00345462  0.83431520  1
  I  I66  1  0.49965216  0.33320815  0.16686154  1
  I  I67  1  0.49572742  0.33074148  0.50125835  1
  I  I68  1  0.49431074  0.33586242  0.83174802  1
  I  I69  1  0.49286822  0.67067268  0.17028103  1
  I  I70  1  0.49799948  0.66944050  0.49961683  1
  I  I71  1  0.49523837  0.66853511  0.83132821  1
  I  I72  1  0.83262155  -0.00006872  0.16565846  1
  I  I73  1  0.83902784  -0.00024560  0.49920631  1
  I  I74  1  0.83107481  -0.00447807  0.83507953  1
  I  I75  1  0.83569620  0.33669455  0.16483677  1
  I  I76  1  0.82954513  0.33345263  0.50062889  1
  I  I77  1  0.83309146  0.33333418  0.83441094  1
  I  I78  1  0.83748842  0.66472305  0.16489204  1
  I  I79  1  0.83466412  0.66680066  0.49940010  1
  I  I80  1  0.83740384  0.66961913  0.83518167  1
  I  I81  1  0.16564864  0.16576315  -0.00053335  1
  I  I82  1  0.17041809  0.16756878  0.33373649  1
  I  I83  1  0.17027180  0.16629098  0.66685321  1
  I  I84  1  0.16798994  0.49874777  -0.00307749  1
  I  I85  1  0.16485853  0.49685245  0.33550627  1
  I  I86  1  0.16962172  0.49822044  0.66812725  1
  I  I87  1  0.17019213  0.83545186  -0.00115444  1
  I  I88  1  0.17067932  0.83503918  0.33069742  1
  I  I89  1  0.16765354  0.83486713  0.66970722  1
  I  I90  1  0.49866113  0.16642400  -0.00004764  1
  I  I91  1  0.49302490  0.16252173  0.33719057  1
  I  I92  1  0.49213575  0.15988603  0.66370009  1
  I  I93  1  0.49212176  0.50622009  -0.00436161  1
  I  I94  1  0.49946130  0.50179420  0.33339990  1
  I  I95  1  0.49770174  0.50710415  0.67023077  1
  I  I96  1  0.49831324  0.82821608  -0.00110370  1
  I  I97  1  0.49350712  0.83718909  0.33309262  1
  I  I98  1  0.49884693  0.83341857  0.66782778  1
  I  I99  1  0.83363025  0.16702200  -0.00009485  1
  I  I100  1  0.83636084  0.16570460  0.33324147  1
  I  I101  1  0.83565180  0.16720829  0.66684612  1
  I  I102  1  0.83765577  0.50270054  0.00210049  1
  I  I103  1  0.83503097  0.50221973  0.33005686  1
  I  I104  1  0.83230110  0.50104088  0.66689836  1
  I  I105  1  0.83133580  0.83128669  -0.00305887  1
  I  I106  1  0.83440689  0.83199295  0.33319814  1
  I  I107  1  0.83786954  0.83162976  0.67104863  1
  I  I108  1  0.00499772  0.15954270  0.16885779  1
  I  I109  1  0.00423096  0.17034200  0.50062526  1
  I  I110  1  0.00540424  0.16824764  0.83096072  1
  I  I111  1  -0.00146935  0.50224978  0.16450375  1
  I  I112  1  0.00489156  0.49468652  0.50680935  1
  I  I113  1  0.00359237  0.50085896  0.83172189  1
  I  I114  1  0.00325304  0.83504983  0.16225665  1
  I  I115  1  0.00014177  0.83337434  0.49988717  1
  I  I116  1  0.00210784  0.83296094  0.83870053  1
  I  I117  1  0.32920618  0.16645785  0.16385581  1
  I  I118  1  0.33172394  0.16567272  0.50076961  1
  I  I119  1  0.32938454  0.16229786  0.83441760  1
  I  I120  1  0.33336712  0.49912101  0.16779757  1
  I  I121  1  0.32989047  0.49867497  0.50084155  1
  I  I122  1  0.33174207  0.50587307  0.83056560  1
  I  I123  1  0.33256554  0.83582570  0.16129949  1
  I  I124  1  0.33608934  0.83439126  0.50454469  1
  I  I125  1  0.33288576  0.83252740  0.83404815  1
  I  I126  1  0.66637487  0.16600199  0.16813345  1
  I  I127  1  0.66324610  0.16128014  0.50091222  1
  I  I128  1  0.66646992  0.16722885  0.83106603  1
  I  I129  1  0.66952032  0.50366027  0.16529164  1
  I  I130  1  0.66638324  0.49984059  0.50122922  1
  I  I131  1  0.66392356  0.50660356  0.83428646  1
  I  I132  1  0.66369408  0.83053544  0.16554529  1
  I  I133  1  0.66119011  0.83854519  0.49841628  1
  I  I134  1  0.66498178  0.82722816  0.83268210  1
