# generated using pymatgen
data_Cs27Sn14Pb13I81
_symmetry_space_group_name_H-M   'P 1'
_cell_length_a   18.97794446
_cell_length_b   18.97434470
_cell_length_c   18.97563752
_cell_angle_alpha   90.00031811
_cell_angle_beta   89.99899836
_cell_angle_gamma   89.99841844
_symmetry_Int_Tables_number   1
_chemical_formula_structural   Cs27Sn14Pb13I81
_chemical_formula_sum   'Cs27 Sn14 Pb13 I81'
_cell_volume   6833.01435203
_cell_formula_units_Z   1
loop_
 _symmetry_equiv_pos_site_id
 _symmetry_equiv_pos_as_xyz
  1  'x, y, z'
loop_
 _atom_site_type_symbol
 _atom_site_label
 _atom_site_symmetry_multiplicity
 _atom_site_fract_x
 _atom_site_fract_y
 _atom_site_fract_z
 _atom_site_occupancy
  Cs  Cs0  1  0.00660799  -0.00639629  0.00209160  1
  Cs  Cs1  1  0.00492502  0.00183796  0.33250716  1
  Cs  Cs2  1  0.00092034  0.00120510  0.66578336  1
  Cs  Cs3  1  -0.00174635  0.33424493  -0.00034440  1
  Cs  Cs4  1  -0.00172000  0.33162393  0.34219144  1
  Cs  Cs5  1  -0.00144903  0.33233341  0.66016695  1
  Cs  Cs6  1  -0.00224923  0.67132409  0.00180142  1
  Cs  Cs7  1  -0.00381875  0.66636393  0.33262159  1
  Cs  Cs8  1  0.00130562  0.66622716  0.66561434  1
  Cs  Cs9  1  0.32519282  0.00124323  -0.00586693  1
  Cs  Cs10  1  0.33516243  -0.00137762  0.33220975  1
  Cs  Cs11  1  0.33321986  0.00000107  0.67419408  1
  Cs  Cs12  1  0.33304444  0.33479352  -0.00032969  1
  Cs  Cs13  1  0.33408395  0.33343093  0.33146711  1
  Cs  Cs14  1  0.33114016  0.33474679  0.66901777  1
  Cs  Cs15  1  0.33269928  0.66226503  -0.00016523  1
  Cs  Cs16  1  0.33597451  0.66726184  0.33500355  1
  Cs  Cs17  1  0.33390543  0.66556714  0.66471418  1
  Cs  Cs18  1  0.66759669  0.00291229  -0.00304468  1
  Cs  Cs19  1  0.66465005  0.00134512  0.33441299  1
  Cs  Cs20  1  0.66638431  -0.00134803  0.66740928  1
  Cs  Cs21  1  0.66702333  0.33309672  0.00041730  1
  Cs  Cs22  1  0.66724286  0.33163633  0.33149915  1
  Cs  Cs23  1  0.66804786  0.33191552  0.66864350  1
  Cs  Cs24  1  0.66991832  0.66689240  0.00083032  1
  Cs  Cs25  1  0.66517991  0.66690467  0.33245825  1
  Cs  Cs26  1  0.66488740  0.66914656  0.66686546  1
  Sn  Sn27  1  0.49991766  0.83379564  0.49936320  1
  Sn  Sn28  1  0.49996112  0.16665558  0.49973914  1
  Sn  Sn29  1  0.50030411  0.49937418  0.49978571  1
  Sn  Sn30  1  0.50035856  0.16620457  0.16678843  1
  Sn  Sn31  1  0.50040347  0.50002014  0.83357942  1
  Sn  Sn32  1  0.83339352  0.16709441  0.83456330  1
  Sn  Sn33  1  0.83342206  0.49943209  0.83335660  1
  Sn  Sn34  1  0.83309929  0.83341268  0.49961064  1
  Sn  Sn35  1  0.16723386  0.83331823  0.49976518  1
  Sn  Sn36  1  0.16679578  0.49963062  0.16658946  1
  Sn  Sn37  1  0.16616221  0.49992639  0.83409641  1
  Sn  Sn38  1  0.50005945  0.83378211  0.16649714  1
  Sn  Sn39  1  0.49964244  0.50003319  0.16662935  1
  Sn  Sn40  1  0.83297806  0.16663292  0.16585245  1
  Pb  Pb41  1  0.83325190  0.49828838  0.16510617  1
  Pb  Pb42  1  0.16668428  0.83045689  0.83117937  1
  Pb  Pb43  1  0.83092968  0.83628908  0.16875239  1
  Pb  Pb44  1  0.17027567  0.16405207  0.49988647  1
  Pb  Pb45  1  0.83329947  0.83360525  0.83153788  1
  Pb  Pb46  1  0.16873405  0.50145243  0.49952999  1
  Pb  Pb47  1  0.50127366  0.16891870  0.83383755  1
  Pb  Pb48  1  0.16940165  0.83058205  0.16864637  1
  Pb  Pb49  1  0.49998318  0.83101975  0.83391308  1
  Pb  Pb50  1  0.16708606  0.16925328  0.16675795  1
  Pb  Pb51  1  0.16323443  0.16952552  0.83338678  1
  Pb  Pb52  1  0.83119538  0.16457292  0.49989567  1
  Pb  Pb53  1  0.83054283  0.50183865  0.50232224  1
  I  I54  1  0.16709446  -0.00018321  0.16817713  1
  I  I55  1  0.16782728  -0.00400342  0.49902799  1
  I  I56  1  0.16570746  0.00002606  0.83196769  1
  I  I57  1  0.17438272  0.33722754  0.16301706  1
  I  I58  1  0.16762468  0.33353988  0.50062644  1
  I  I59  1  0.17194342  0.33773844  0.83589469  1
  I  I60  1  0.17247332  0.66273151  0.16254571  1
  I  I61  1  0.17037176  0.66933083  0.50103629  1
  I  I62  1  0.16555945  0.66220341  0.83681584  1
  I  I63  1  0.50646832  0.00034843  0.17726961  1
  I  I64  1  0.50080343  -0.00068831  0.49217832  1
  I  I65  1  0.50311463  0.00024605  0.83173921  1
  I  I66  1  0.50013774  0.33385402  0.16968857  1
  I  I67  1  0.50066557  0.33385910  0.49728128  1
  I  I68  1  0.49824914  0.33743665  0.83240161  1
  I  I69  1  0.49546457  0.66584504  0.16996761  1
  I  I70  1  0.49986493  0.66686391  0.49835337  1
  I  I71  1  0.50228974  0.66214536  0.83216415  1
  I  I72  1  0.82681185  0.00409753  0.16047148  1
  I  I73  1  0.82935926  -0.00312947  0.50231103  1
  I  I74  1  0.83006428  0.00312130  0.83490877  1
  I  I75  1  0.82630513  0.33047732  0.16589540  1
  I  I76  1  0.83198301  0.33317192  0.49919496  1
  I  I77  1  0.83166841  0.33422425  0.83636238  1
  I  I78  1  0.83257070  0.66677500  0.16584375  1
  I  I79  1  0.83009030  0.66970830  0.50156924  1
  I  I80  1  0.83246836  0.66334083  0.83123090  1
  I  I81  1  0.17215901  0.16420393  0.00005056  1
  I  I82  1  0.16053766  0.17074275  0.33335458  1
  I  I83  1  0.16682076  0.16887489  0.66659100  1
  I  I84  1  0.17394025  0.49947416  -0.00023573  1
  I  I85  1  0.17339118  0.50145343  0.33069618  1
  I  I86  1  0.16821725  0.50217754  0.66923881  1
  I  I87  1  0.16801718  0.83437691  0.00031519  1
  I  I88  1  0.16598089  0.83035394  0.33659312  1
  I  I89  1  0.17100836  0.83083705  0.66301204  1
  I  I90  1  0.50294750  0.16747771  0.00323217  1
  I  I91  1  0.50573095  0.17065358  0.33279549  1
  I  I92  1  0.50171137  0.16592369  0.66409834  1
  I  I93  1  0.49910830  0.49989208  0.00054067  1
  I  I94  1  0.49498280  0.50078202  0.33284464  1
  I  I95  1  0.50033343  0.50098620  0.66651736  1
  I  I96  1  0.50118808  0.83262717  0.00344339  1
  I  I97  1  0.50026600  0.82859439  0.33444198  1
  I  I98  1  0.50023327  0.83287654  0.66313154  1
  I  I99  1  0.82469734  0.17200074  0.00024726  1
  I  I100  1  0.82973531  0.16550922  0.33086136  1
  I  I101  1  0.83180745  0.17026785  0.66893480  1
  I  I102  1  0.82785707  0.49879014  -0.00316658  1
  I  I103  1  0.83412655  0.49927524  0.33345152  1
  I  I104  1  0.83391393  0.49378659  0.67049851  1
  I  I105  1  0.83105169  0.83138405  0.00031897  1
  I  I106  1  0.83352325  0.83330332  0.33678579  1
  I  I107  1  0.82844875  0.83396001  0.66330561  1
  I  I108  1  -0.00290200  0.16838132  0.16209446  1
  I  I109  1  -0.00015488  0.16494879  0.49998679  1
  I  I110  1  -0.00477435  0.17194103  0.83783161  1
  I  I111  1  0.00237730  0.49919895  0.16131213  1
  I  I112  1  -0.00013150  0.50265421  0.50022410  1
  I  I113  1  -0.00005065  0.49651692  0.83790934  1
  I  I114  1  0.00004336  0.83284660  0.16906905  1
  I  I115  1  0.00000906  0.83203905  0.50298116  1
  I  I116  1  -0.00006811  0.83068553  0.83045769  1
  I  I117  1  0.33720963  0.16568198  0.17242562  1
  I  I118  1  0.33860707  0.16651026  0.49316994  1
  I  I119  1  0.33328959  0.16720795  0.83259810  1
  I  I120  1  0.33576950  0.49864092  0.16224720  1
  I  I121  1  0.33737737  0.50262459  0.50402993  1
  I  I122  1  0.33424495  0.50193244  0.83348778  1
  I  I123  1  0.33769379  0.83694019  0.17366330  1
  I  I124  1  0.33528409  0.83154273  0.49574461  1
  I  I125  1  0.33352973  0.83274857  0.83010168  1
  I  I126  1  0.66484358  0.16969900  0.16728439  1
  I  I127  1  0.66296478  0.16529798  0.49882314  1
  I  I128  1  0.66908527  0.17360694  0.83389568  1
  I  I129  1  0.66305078  0.50168281  0.16681163  1
  I  I130  1  0.66205248  0.50259915  0.49834554  1
  I  I131  1  0.66598581  0.49660234  0.83236446  1
  I  I132  1  0.66268447  0.82634415  0.17332538  1
  I  I133  1  0.66461219  0.83268078  0.49742482  1
  I  I134  1  0.66651406  0.82918597  0.82941348  1
