# generated using pymatgen
data_Cs27Sn14Pb13I81
_symmetry_space_group_name_H-M   'P 1'
_cell_length_a   18.97672335
_cell_length_b   18.96454527
_cell_length_c   18.98682537
_cell_angle_alpha   89.99980478
_cell_angle_beta   89.99988324
_cell_angle_gamma   90.00050089
_symmetry_Int_Tables_number   1
_chemical_formula_structural   Cs27Sn14Pb13I81
_chemical_formula_sum   'Cs27 Sn14 Pb13 I81'
_cell_volume   6833.07230182
_cell_formula_units_Z   1
loop_
 _symmetry_equiv_pos_site_id
 _symmetry_equiv_pos_as_xyz
  1  'x, y, z'
loop_
 _atom_site_type_symbol
 _atom_site_label
 _atom_site_symmetry_multiplicity
 _atom_site_fract_x
 _atom_site_fract_y
 _atom_site_fract_z
 _atom_site_occupancy
  Cs  Cs0  1  0.00002543  -0.00000847  0.00477438  1
  Cs  Cs1  1  -0.00153945  -0.00313048  0.33206676  1
  Cs  Cs2  1  0.00008673  0.00183348  0.66308577  1
  Cs  Cs3  1  -0.00276310  0.33280991  -0.00215006  1
  Cs  Cs4  1  -0.00361509  0.33220061  0.33401343  1
  Cs  Cs5  1  -0.00124083  0.33288109  0.66812362  1
  Cs  Cs6  1  0.00618003  0.67212498  -0.00578094  1
  Cs  Cs7  1  0.00632053  0.67591461  0.33252100  1
  Cs  Cs8  1  0.00859843  0.67089912  0.67311474  1
  Cs  Cs9  1  0.33530148  0.00065884  -0.00283627  1
  Cs  Cs10  1  0.33657178  0.00151691  0.33367071  1
  Cs  Cs11  1  0.33635482  0.00159174  0.66845401  1
  Cs  Cs12  1  0.33536247  0.33377720  0.00476384  1
  Cs  Cs13  1  0.33543962  0.33533235  0.33142903  1
  Cs  Cs14  1  0.33440717  0.33157435  0.66463603  1
  Cs  Cs15  1  0.32577735  0.66786670  0.00181290  1
  Cs  Cs16  1  0.32819730  0.66358073  0.33119004  1
  Cs  Cs17  1  0.33077170  0.66749264  0.66736635  1
  Cs  Cs18  1  0.66558450  -0.00184179  -0.00002297  1
  Cs  Cs19  1  0.66620911  -0.00048236  0.33362826  1
  Cs  Cs20  1  0.66436754  -0.00059676  0.66552488  1
  Cs  Cs21  1  0.66742735  0.33390824  0.00230253  1
  Cs  Cs22  1  0.66709450  0.33425567  0.33338551  1
  Cs  Cs23  1  0.66688054  0.33374322  0.66500461  1
  Cs  Cs24  1  0.66902778  0.66933915  -0.00510437  1
  Cs  Cs25  1  0.66667631  0.66561682  0.33463948  1
  Cs  Cs26  1  0.66611302  0.66509947  0.66826189  1
  Sn  Sn27  1  0.83397119  0.16736469  0.16701032  1
  Sn  Sn28  1  0.50035394  0.16810714  0.83263336  1
  Sn  Sn29  1  0.83344646  0.49986489  0.49932589  1
  Sn  Sn30  1  0.16584247  0.16715947  0.16702360  1
  Sn  Sn31  1  0.16677796  0.16717928  0.83347049  1
  Sn  Sn32  1  0.83289728  0.16682247  0.83316198  1
  Sn  Sn33  1  0.50042215  0.83293573  0.16736402  1
  Sn  Sn34  1  0.49993982  0.49876643  0.83289122  1
  Sn  Sn35  1  0.50034928  0.83274704  0.49886230  1
  Sn  Sn36  1  0.16661374  0.16712550  0.49949778  1
  Sn  Sn37  1  0.50072175  0.49994967  0.50060356  1
  Sn  Sn38  1  0.83352034  0.50009445  0.16747204  1
  Sn  Sn39  1  0.50012245  0.16716504  0.50047153  1
  Sn  Sn40  1  0.83317358  0.16726172  0.49986321  1
  Pb  Pb41  1  0.50057260  0.16570505  0.16661881  1
  Pb  Pb42  1  0.16941044  0.83631279  0.16682637  1
  Pb  Pb43  1  0.50197904  0.50257410  0.16652440  1
  Pb  Pb44  1  0.16972687  0.83621025  0.50004442  1
  Pb  Pb45  1  0.16591568  0.49779976  0.49986644  1
  Pb  Pb46  1  0.83177222  0.49830675  0.83274928  1
  Pb  Pb47  1  0.16682222  0.83657767  0.83316135  1
  Pb  Pb48  1  0.83154558  0.83282399  0.16684232  1
  Pb  Pb49  1  0.16286310  0.49749101  0.16685936  1
  Pb  Pb50  1  0.16969006  0.49707504  0.83327785  1
  Pb  Pb51  1  0.83146228  0.83244604  0.50019999  1
  Pb  Pb52  1  0.50003404  0.83299265  0.83289922  1
  Pb  Pb53  1  0.83327779  0.83620662  0.83301219  1
  I  I54  1  0.15941344  0.00483229  0.16652466  1
  I  I55  1  0.16530424  0.00532126  0.50082810  1
  I  I56  1  0.17127379  0.00566060  0.83285077  1
  I  I57  1  0.16898364  0.32878042  0.16665551  1
  I  I58  1  0.17207312  0.32869484  0.50077321  1
  I  I59  1  0.16398767  0.32838464  0.83212124  1
  I  I60  1  0.16647075  0.66677332  0.16643303  1
  I  I61  1  0.16644666  0.66667110  0.49936209  1
  I  I62  1  0.16808606  0.66638074  0.83412973  1
  I  I63  1  0.50110453  -0.00181493  0.17106867  1
  I  I64  1  0.49949508  0.00190598  0.50025775  1
  I  I65  1  0.49933838  0.00356712  0.83028962  1
  I  I66  1  0.49761871  0.33338485  0.16788939  1
  I  I67  1  0.50044268  0.33220625  0.50500154  1
  I  I68  1  0.49986705  0.33140292  0.82549762  1
  I  I69  1  0.50337509  0.66992031  0.17122916  1
  I  I70  1  0.50692626  0.66555445  0.50070295  1
  I  I71  1  0.50278333  0.66352705  0.82975115  1
  I  I72  1  0.83642425  0.00367738  0.16684184  1
  I  I73  1  0.83289697  0.00390197  0.49989696  1
  I  I74  1  0.82934745  0.00603020  0.83325304  1
  I  I75  1  0.83521665  0.33130644  0.16761356  1
  I  I76  1  0.82807072  0.33133944  0.49912333  1
  I  I77  1  0.83518409  0.32911737  0.83340898  1
  I  I78  1  0.82754536  0.66329834  0.17307348  1
  I  I79  1  0.82542151  0.66272606  0.49353379  1
  I  I80  1  0.82931256  0.66607141  0.83422048  1
  I  I81  1  0.16470992  0.16645913  -0.00021809  1
  I  I82  1  0.16524504  0.16635649  0.33384620  1
  I  I83  1  0.16546078  0.16636597  0.66640062  1
  I  I84  1  0.16854497  0.49641673  0.00006431  1
  I  I85  1  0.17355049  0.49576287  0.33339383  1
  I  I86  1  0.16249358  0.49739668  0.66658283  1
  I  I87  1  0.17026378  0.83599392  0.00017773  1
  I  I88  1  0.16596124  0.83709872  0.33341227  1
  I  I89  1  0.16875960  0.83536557  0.66646446  1
  I  I90  1  0.49959521  0.16818005  -0.00273913  1
  I  I91  1  0.49949785  0.16817906  0.33644655  1
  I  I92  1  0.49973161  0.16446675  0.66561886  1
  I  I93  1  0.50173000  0.49434895  -0.00253264  1
  I  I94  1  0.50183698  0.49585917  0.33659992  1
  I  I95  1  0.50600099  0.49973616  0.66513336  1
  I  I96  1  0.50094232  0.83663890  0.00206408  1
  I  I97  1  0.50123644  0.83713068  0.33484976  1
  I  I98  1  0.50047938  0.83592959  0.66352134  1
  I  I99  1  0.83526536  0.16993752  0.00026878  1
  I  I100  1  0.83483185  0.16956374  0.33393868  1
  I  I101  1  0.83475685  0.16949821  0.66589317  1
  I  I102  1  0.82988347  0.49306693  0.00213884  1
  I  I103  1  0.82502170  0.48834802  0.33445111  1
  I  I104  1  0.82873387  0.49344328  0.66334624  1
  I  I105  1  0.82807224  0.83430722  0.00013670  1
  I  I106  1  0.83252666  0.83987068  0.33350663  1
  I  I107  1  0.82916643  0.83469786  0.66642843  1
  I  I108  1  -0.00089373  0.16975162  0.16610808  1
  I  I109  1  -0.00089111  0.17126715  0.50296534  1
  I  I110  1  -0.00037266  0.16522646  0.83063758  1
  I  I111  1  -0.00517362  0.49652522  0.17354987  1
  I  I112  1  -0.00378732  0.49170387  0.49523087  1
  I  I113  1  -0.00011930  0.49861571  0.83325671  1
  I  I114  1  0.00013386  0.83265684  0.16606139  1
  I  I115  1  0.00019519  0.83436033  0.49983156  1
  I  I116  1  0.00016456  0.83279438  0.83416109  1
  I  I117  1  0.33138168  0.16282593  0.16639057  1
  I  I118  1  0.33449959  0.16542799  0.50279478  1
  I  I119  1  0.33415977  0.16907724  0.83033753  1
  I  I120  1  0.33338273  0.49992906  0.16640701  1
  I  I121  1  0.33677028  0.49880075  0.50416986  1
  I  I122  1  0.33805370  0.49448902  0.82685014  1
  I  I123  1  0.33714927  0.83493086  0.17103362  1
  I  I124  1  0.33813664  0.83382762  0.49676708  1
  I  I125  1  0.33383217  0.83681138  0.83368122  1
  I  I126  1  0.66965920  0.16823644  0.16662642  1
  I  I127  1  0.66619950  0.16622331  0.50209697  1
  I  I128  1  0.66611782  0.16972431  0.83093096  1
  I  I129  1  0.66953545  0.49055078  0.16839813  1
  I  I130  1  0.66580365  0.49407719  0.49970742  1
  I  I131  1  0.66358786  0.49309441  0.83190487  1
  I  I132  1  0.66382615  0.83871238  0.17069723  1
  I  I133  1  0.66299407  0.84055390  0.49692565  1
  I  I134  1  0.66610462  0.83774193  0.83454308  1
