# generated using pymatgen
data_Cs27Sn13Pb14I81
_symmetry_space_group_name_H-M   'P 1'
_cell_length_a   18.98435523
_cell_length_b   18.97563160
_cell_length_c   18.97125528
_cell_angle_alpha   89.99750859
_cell_angle_beta   89.99947214
_cell_angle_gamma   89.99878419
_symmetry_Int_Tables_number   1
_chemical_formula_structural   Cs27Sn13Pb14I81
_chemical_formula_sum   'Cs27 Sn13 Pb14 I81'
_cell_volume   6834.20748141
_cell_formula_units_Z   1
loop_
 _symmetry_equiv_pos_site_id
 _symmetry_equiv_pos_as_xyz
  1  'x, y, z'
loop_
 _atom_site_type_symbol
 _atom_site_label
 _atom_site_symmetry_multiplicity
 _atom_site_fract_x
 _atom_site_fract_y
 _atom_site_fract_z
 _atom_site_occupancy
  Cs  Cs0  1  0.00507369  0.00759200  0.00000483  1
  Cs  Cs1  1  -0.00119315  0.00406044  0.33708931  1
  Cs  Cs2  1  0.00292608  -0.00005695  0.66421704  1
  Cs  Cs3  1  -0.00178276  0.32847116  0.00293256  1
  Cs  Cs4  1  0.00432298  0.33213508  0.33233533  1
  Cs  Cs5  1  0.00018700  0.33375170  0.66599122  1
  Cs  Cs6  1  -0.00094180  0.66591512  -0.00270512  1
  Cs  Cs7  1  -0.00219205  0.66267680  0.33598085  1
  Cs  Cs8  1  -0.00336937  0.66712877  0.66699411  1
  Cs  Cs9  1  0.32524708  -0.00355726  0.00035248  1
  Cs  Cs10  1  0.33429094  -0.00353129  0.33320300  1
  Cs  Cs11  1  0.33195520  0.00167263  0.66643921  1
  Cs  Cs12  1  0.33331981  0.33387468  -0.00000283  1
  Cs  Cs13  1  0.33348723  0.33651959  0.33552079  1
  Cs  Cs14  1  0.33907704  0.33213213  0.66424061  1
  Cs  Cs15  1  0.33411878  0.66844828  0.00062240  1
  Cs  Cs16  1  0.33116465  0.66666504  0.33024511  1
  Cs  Cs17  1  0.33361523  0.66688324  0.66849464  1
  Cs  Cs18  1  0.66799007  0.00069911  0.00161957  1
  Cs  Cs19  1  0.66715174  -0.00204828  0.33212235  1
  Cs  Cs20  1  0.66544426  0.00024819  0.66658644  1
  Cs  Cs21  1  0.66798421  0.33436574  -0.00003845  1
  Cs  Cs22  1  0.66365251  0.33316394  0.33246270  1
  Cs  Cs23  1  0.66054759  0.33176079  0.66652996  1
  Cs  Cs24  1  0.66568786  0.66547094  -0.00068116  1
  Cs  Cs25  1  0.66914153  0.66847386  0.33207754  1
  Cs  Cs26  1  0.66902015  0.66699172  0.66809426  1
  Sn  Sn27  1  0.49930880  0.83283993  0.50079577  1
  Sn  Sn28  1  0.49986347  0.16714328  0.16610296  1
  Sn  Sn29  1  0.16747852  0.83329399  0.50006616  1
  Sn  Sn30  1  0.83368352  0.83301676  0.16540485  1
  Sn  Sn31  1  0.50009642  0.50089730  0.83419108  1
  Sn  Sn32  1  0.83328020  0.50044260  0.83410990  1
  Sn  Sn33  1  0.83330347  0.16700821  0.50034442  1
  Sn  Sn34  1  0.16620290  0.16626323  0.50012247  1
  Sn  Sn35  1  0.50068559  0.83292647  0.83274697  1
  Sn  Sn36  1  0.16660235  0.49986972  0.83339336  1
  Sn  Sn37  1  0.83257254  0.50085990  0.16590604  1
  Sn  Sn38  1  0.83282226  0.83335726  0.83457298  1
  Sn  Sn39  1  0.50085035  0.49928745  0.16581691  1
  Pb  Pb40  1  0.83195177  0.16710954  0.16845750  1
  Pb  Pb41  1  0.83328948  0.83463396  0.50045951  1
  Pb  Pb42  1  0.16267630  0.83308328  0.16929596  1
  Pb  Pb43  1  0.16683559  0.16956056  0.83088971  1
  Pb  Pb44  1  0.83308123  0.49732906  0.49998006  1
  Pb  Pb45  1  0.16674507  0.50023599  0.50234114  1
  Pb  Pb46  1  0.50022147  0.50295419  0.49970427  1
  Pb  Pb47  1  0.49971025  0.16421356  0.49800808  1
  Pb  Pb48  1  0.16638829  0.50018405  0.16418060  1
  Pb  Pb49  1  0.16975518  0.16673002  0.16922307  1
  Pb  Pb50  1  0.49997998  0.16596806  0.83593232  1
  Pb  Pb51  1  0.83318050  0.16657359  0.83121988  1
  Pb  Pb52  1  0.50136023  0.83267570  0.16585861  1
  Pb  Pb53  1  0.16627576  0.83180111  0.83165151  1
  I  I54  1  0.16784819  -0.00013427  0.16374326  1
  I  I55  1  0.16607729  -0.00039379  0.50103559  1
  I  I56  1  0.16693306  -0.00017490  0.83364178  1
  I  I57  1  0.16271041  0.33350225  0.16890046  1
  I  I58  1  0.16182401  0.33059524  0.50113499  1
  I  I59  1  0.16639568  0.33779938  0.83184922  1
  I  I60  1  0.17199430  0.66663940  0.17079255  1
  I  I61  1  0.17058135  0.66961717  0.50102000  1
  I  I62  1  0.16670660  0.66379049  0.83021083  1
  I  I63  1  0.50290640  0.00130224  0.16929706  1
  I  I64  1  0.49965521  -0.00360795  0.50367187  1
  I  I65  1  0.50532298  -0.00370956  0.83004443  1
  I  I66  1  0.50605323  0.33528267  0.16273056  1
  I  I67  1  0.49928206  0.33334587  0.50210133  1
  I  I68  1  0.50146046  0.33680036  0.83450875  1
  I  I69  1  0.50241623  0.66373720  0.16560587  1
  I  I70  1  0.49525666  0.67088172  0.49981209  1
  I  I71  1  0.50066852  0.66605021  0.83453195  1
  I  I72  1  0.83012252  -0.00250795  0.16469213  1
  I  I73  1  0.83435648  0.00227654  0.49905161  1
  I  I74  1  0.82770199  -0.00357475  0.83591122  1
  I  I75  1  0.83086654  0.33664806  0.16267649  1
  I  I76  1  0.83977513  0.32971789  0.49966505  1
  I  I77  1  0.83242134  0.33709371  0.83661718  1
  I  I78  1  0.82687706  0.66593906  0.16458819  1
  I  I79  1  0.83416514  0.66669496  0.49930029  1
  I  I80  1  0.83243920  0.66630758  0.83564230  1
  I  I81  1  0.16687253  0.16676271  0.00004592  1
  I  I82  1  0.16161259  0.16348694  0.33722803  1
  I  I83  1  0.16360996  0.16212896  0.66289549  1
  I  I84  1  0.16731843  0.50192007  -0.00385513  1
  I  I85  1  0.16645566  0.49946454  0.33336353  1
  I  I86  1  0.16628834  0.50028135  0.67043095  1
  I  I87  1  0.17011318  0.83219899  -0.00024309  1
  I  I88  1  0.17300852  0.83658492  0.33746140  1
  I  I89  1  0.16617176  0.83645681  0.66361046  1
  I  I90  1  0.50335108  0.16748875  0.00360205  1
  I  I91  1  0.50079939  0.17194691  0.33036165  1
  I  I92  1  0.49968972  0.16925896  0.66654174  1
  I  I93  1  0.50075841  0.50176018  -0.00086464  1
  I  I94  1  0.50472084  0.49730293  0.33000223  1
  I  I95  1  0.50127455  0.50160642  0.67015929  1
  I  I96  1  0.50296205  0.83150443  -0.00308565  1
  I  I97  1  0.49839622  0.83447745  0.33515007  1
  I  I98  1  0.50261779  0.82862664  0.66778484  1
  I  I99  1  0.83195548  0.16612157  0.00011399  1
  I  I100  1  0.83647247  0.16493434  0.33622670  1
  I  I101  1  0.83641245  0.16570590  0.66335442  1
  I  I102  1  0.83205205  0.50393517  -0.00058345  1
  I  I103  1  0.82838865  0.50432687  0.32989861  1
  I  I104  1  0.83267637  0.50441940  0.67035193  1
  I  I105  1  0.82596027  0.82883300  -0.00091229  1
  I  I106  1  0.83226653  0.83014034  0.33120101  1
  I  I107  1  0.83210283  0.82905971  0.66960581  1
  I  I108  1  -0.00003024  0.16697089  0.16713107  1
  I  I109  1  0.00046539  0.16015552  0.49996539  1
  I  I110  1  -0.00010644  0.16678552  0.83464297  1
  I  I111  1  -0.00360933  0.50426969  0.16358511  1
  I  I112  1  -0.00016498  0.50394896  0.50080619  1
  I  I113  1  -0.00160258  0.50430648  0.83497544  1
  I  I114  1  -0.00527482  0.82708299  0.16191278  1
  I  I115  1  0.00195571  0.83638232  0.49983247  1
  I  I116  1  -0.00312624  0.82791729  0.83426243  1
  I  I117  1  0.33757105  0.17274014  0.16805733  1
  I  I118  1  0.33089008  0.16410466  0.49887164  1
  I  I119  1  0.33354524  0.16721728  0.83120767  1
  I  I120  1  0.33661626  0.49605742  0.16358807  1
  I  I121  1  0.33357397  0.49577913  0.50046043  1
  I  I122  1  0.33507329  0.50385221  0.83601070  1
  I  I123  1  0.33335799  0.83373336  0.16562232  1
  I  I124  1  0.33383869  0.83909348  0.50530756  1
  I  I125  1  0.33617654  0.82890215  0.83076143  1
  I  I126  1  0.66427021  0.16825580  0.17057570  1
  I  I127  1  0.66839473  0.16537339  0.49874466  1
  I  I128  1  0.66657995  0.16996402  0.82852902  1
  I  I129  1  0.66671207  0.49970680  0.15945012  1
  I  I130  1  0.66663645  0.49888192  0.50372533  1
  I  I131  1  0.66658242  0.50466864  0.83757774  1
  I  I132  1  0.66930143  0.83232653  0.16902341  1
  I  I133  1  0.66458201  0.83505378  0.50101797  1
  I  I134  1  0.66653701  0.82565061  0.83022734  1
