# generated using pymatgen
data_Cs27Sn14Pb13I81
_symmetry_space_group_name_H-M   'P 1'
_cell_length_a   18.96136803
_cell_length_b   18.96136677
_cell_length_c   18.95950764
_cell_angle_alpha   89.99851167
_cell_angle_beta   90.00126797
_cell_angle_gamma   89.99875211
_symmetry_Int_Tables_number   1
_chemical_formula_structural   Cs27Sn14Pb13I81
_chemical_formula_sum   'Cs27 Sn14 Pb13 I81'
_cell_volume   6816.57725746
_cell_formula_units_Z   1
loop_
 _symmetry_equiv_pos_site_id
 _symmetry_equiv_pos_as_xyz
  1  'x, y, z'
loop_
 _atom_site_type_symbol
 _atom_site_label
 _atom_site_symmetry_multiplicity
 _atom_site_fract_x
 _atom_site_fract_y
 _atom_site_fract_z
 _atom_site_occupancy
  Cs  Cs0  1  -0.00281194  0.00173180  -0.00076949  1
  Cs  Cs1  1  0.00116697  -0.00115666  0.33354953  1
  Cs  Cs2  1  0.00079866  -0.00196274  0.66701585  1
  Cs  Cs3  1  0.00145049  0.33150070  -0.00143806  1
  Cs  Cs4  1  -0.00080133  0.33356549  0.33328675  1
  Cs  Cs5  1  -0.00021265  0.33214109  0.66553800  1
  Cs  Cs6  1  0.00017199  0.66583994  0.00264977  1
  Cs  Cs7  1  -0.00028812  0.66647701  0.33342076  1
  Cs  Cs8  1  -0.00294393  0.66974079  0.66312232  1
  Cs  Cs9  1  0.33902803  -0.00113431  0.00153776  1
  Cs  Cs10  1  0.33316439  -0.00107290  0.33452366  1
  Cs  Cs11  1  0.33102011  0.00341437  0.66348825  1
  Cs  Cs12  1  0.32989626  0.33886823  -0.01238091  1
  Cs  Cs13  1  0.33340547  0.33319166  0.33374283  1
  Cs  Cs14  1  0.33531973  0.33168364  0.67219598  1
  Cs  Cs15  1  0.33621079  0.66340128  -0.00094584  1
  Cs  Cs16  1  0.33257270  0.66739767  0.33250460  1
  Cs  Cs17  1  0.33418960  0.66660263  0.66582205  1
  Cs  Cs18  1  0.66355062  0.00512856  -0.00323395  1
  Cs  Cs19  1  0.66421011  0.00290696  0.33091503  1
  Cs  Cs20  1  0.66655125  0.00065595  0.67170260  1
  Cs  Cs21  1  0.66829379  0.32815264  0.00126064  1
  Cs  Cs22  1  0.66711467  0.33286262  0.33290613  1
  Cs  Cs23  1  0.66246916  0.33520547  0.66580623  1
  Cs  Cs24  1  0.66508757  0.66832544  -0.00156561  1
  Cs  Cs25  1  0.66771358  0.66519340  0.33365449  1
  Cs  Cs26  1  0.66838299  0.66576120  0.66834071  1
  Sn  Sn27  1  0.83391922  0.16528278  0.49971826  1
  Sn  Sn28  1  0.83368978  0.50015401  0.83476434  1
  Sn  Sn29  1  0.16665087  0.83321562  0.49967345  1
  Sn  Sn30  1  0.16599111  0.83414622  0.16652071  1
  Sn  Sn31  1  0.50035878  0.83256304  0.49966946  1
  Sn  Sn32  1  0.50073039  0.49978605  0.16747913  1
  Sn  Sn33  1  0.16701013  0.16602092  0.16733609  1
  Sn  Sn34  1  0.49895278  0.50099793  0.49884443  1
  Sn  Sn35  1  0.16670429  0.83312054  0.83385332  1
  Sn  Sn36  1  0.83352133  0.83296645  0.16726849  1
  Sn  Sn37  1  0.16761704  0.49982557  0.49983497  1
  Sn  Sn38  1  0.16569095  0.16674998  0.49897659  1
  Sn  Sn39  1  0.83255647  0.50068248  0.16561265  1
  Sn  Sn40  1  0.83276589  0.83451315  0.49897369  1
  Pb  Pb41  1  0.16651186  0.50004257  0.16818939  1
  Pb  Pb42  1  0.49975949  0.16666501  0.49987730  1
  Pb  Pb43  1  0.16425938  0.50244886  0.83003311  1
  Pb  Pb44  1  0.83494344  0.83206013  0.83386560  1
  Pb  Pb45  1  0.49621222  0.17020145  0.16679307  1
  Pb  Pb46  1  0.83507626  0.16629657  0.16852680  1
  Pb  Pb47  1  0.50022203  0.83179183  0.16852216  1
  Pb  Pb48  1  0.83364803  0.16924381  0.83011323  1
  Pb  Pb49  1  0.50250369  0.50025343  0.83324366  1
  Pb  Pb50  1  0.83312868  0.50011824  0.49931339  1
  Pb  Pb51  1  0.49727741  0.83319945  0.83033438  1
  Pb  Pb52  1  0.16649280  0.16390878  0.83339073  1
  Pb  Pb53  1  0.49992833  0.16650012  0.83350096  1
  I  I54  1  0.16114588  -0.00171534  0.17230384  1
  I  I55  1  0.16634261  -0.00130014  0.50006603  1
  I  I56  1  0.16460521  -0.00391843  0.82692747  1
  I  I57  1  0.16617435  0.33129899  0.17384835  1
  I  I58  1  0.16483292  0.33297980  0.49455946  1
  I  I59  1  0.16655512  0.33358486  0.83306100  1
  I  I60  1  0.16526482  0.66964639  0.16921926  1
  I  I61  1  0.16627020  0.66794860  0.49956398  1
  I  I62  1  0.16574418  0.67020369  0.83310055  1
  I  I63  1  0.50170152  0.00003625  0.16815805  1
  I  I64  1  0.49683435  -0.00314244  0.50019405  1
  I  I65  1  0.50071552  -0.00059084  0.83159192  1
  I  I66  1  0.50651039  0.33813136  0.17538082  1
  I  I67  1  0.49805968  0.33664198  0.49722703  1
  I  I68  1  0.49870747  0.33403645  0.82993096  1
  I  I69  1  0.49897588  0.66366931  0.17031787  1
  I  I70  1  0.49622315  0.66658770  0.49669629  1
  I  I71  1  0.49910733  0.66660060  0.83342508  1
  I  I72  1  0.83711545  -0.00321838  0.17047582  1
  I  I73  1  0.83730683  -0.00173145  0.49552606  1
  I  I74  1  0.83463519  -0.00010373  0.83415733  1
  I  I75  1  0.83152542  0.33601009  0.16593960  1
  I  I76  1  0.83753138  0.33160795  0.50026536  1
  I  I77  1  0.83406020  0.33726995  0.83759655  1
  I  I78  1  0.83661188  0.66727175  0.17007570  1
  I  I79  1  0.83665860  0.66938116  0.49939546  1
  I  I80  1  0.83487853  0.66413685  0.83092713  1
  I  I81  1  0.16654467  0.16347987  0.00322476  1
  I  I82  1  0.16309513  0.16226749  0.33498296  1
  I  I83  1  0.16377865  0.16593817  0.66295289  1
  I  I84  1  0.16913873  0.49982778  0.00000046  1
  I  I85  1  0.16521982  0.50429237  0.33663904  1
  I  I86  1  0.17000595  0.49976236  0.66164320  1
  I  I87  1  0.16046266  0.83732035  0.00157465  1
  I  I88  1  0.16580617  0.83361006  0.33449458  1
  I  I89  1  0.16629769  0.83249308  0.66423241  1
  I  I90  1  0.49889863  0.16760771  0.00067647  1
  I  I91  1  0.50142596  0.16626342  0.33355001  1
  I  I92  1  0.49827613  0.16920387  0.66579724  1
  I  I93  1  0.50082986  0.50015155  0.00303385  1
  I  I94  1  0.50209425  0.50398716  0.33449043  1
  I  I95  1  0.49780873  0.50303267  0.66319164  1
  I  I96  1  0.49889166  0.83111422  0.00027112  1
  I  I97  1  0.49532318  0.83068393  0.33700358  1
  I  I98  1  0.50108809  0.82671735  0.66145169  1
  I  I99  1  0.83504592  0.16537941  0.00023632  1
  I  I100  1  0.83636938  0.16797759  0.33678022  1
  I  I101  1  0.84009387  0.16231403  0.66174308  1
  I  I102  1  0.82901917  0.50639264  0.00203654  1
  I  I103  1  0.83290718  0.50163429  0.33098468  1
  I  I104  1  0.83483540  0.50022860  0.66760017  1
  I  I105  1  0.83949057  0.82935772  0.00341712  1
  I  I106  1  0.83890781  0.82989433  0.33413400  1
  I  I107  1  0.83529008  0.83394132  0.66324320  1
  I  I108  1  0.00322415  0.16740019  0.17046398  1
  I  I109  1  0.00124746  0.16492827  0.49707341  1
  I  I110  1  0.00016855  0.16829740  0.83338916  1
  I  I111  1  -0.00250294  0.50175464  0.16596614  1
  I  I112  1  0.00224473  0.50245682  0.49980357  1
  I  I113  1  -0.00315612  0.50078556  0.83796528  1
  I  I114  1  0.00038663  0.83022843  0.17213975  1
  I  I115  1  0.00083583  0.83272851  0.49996897  1
  I  I116  1  0.00292140  0.83166207  0.82701094  1
  I  I117  1  0.32833172  0.15953816  0.17579650  1
  I  I118  1  0.32978084  0.16386409  0.49673861  1
  I  I119  1  0.33259150  0.16830139  0.83042508  1
  I  I120  1  0.33526704  0.50044582  0.17131055  1
  I  I121  1  0.33308529  0.50385107  0.49462250  1
  I  I122  1  0.33307471  0.50036542  0.83518844  1
  I  I123  1  0.33009480  0.83532175  0.16874104  1
  I  I124  1  0.33176698  0.83247490  0.50001849  1
  I  I125  1  0.32891051  0.83225244  0.83378484  1
  I  I126  1  0.66662628  0.16523634  0.16831807  1
  I  I127  1  0.66952686  0.16492230  0.50032105  1
  I  I128  1  0.66720954  0.16637270  0.83101241  1
  I  I129  1  0.66766300  0.50566858  0.16994914  1
  I  I130  1  0.66444379  0.50295076  0.49984246  1
  I  I131  1  0.67018112  0.50216196  0.83016427  1
  I  I132  1  0.66974957  0.82940826  0.17274022  1
  I  I133  1  0.66765209  0.83166964  0.49528633  1
  I  I134  1  0.66680161  0.83157926  0.83176203  1
