# generated using pymatgen
data_Cs27Sn14Pb13I81
_symmetry_space_group_name_H-M   'P 1'
_cell_length_a   18.98205190
_cell_length_b   18.96935995
_cell_length_c   18.97544500
_cell_angle_alpha   89.99864524
_cell_angle_beta   89.99988299
_cell_angle_gamma   89.99946687
_symmetry_Int_Tables_number   1
_chemical_formula_structural   Cs27Sn14Pb13I81
_chemical_formula_sum   'Cs27 Sn14 Pb13 I81'
_cell_volume   6832.62842083
_cell_formula_units_Z   1
loop_
 _symmetry_equiv_pos_site_id
 _symmetry_equiv_pos_as_xyz
  1  'x, y, z'
loop_
 _atom_site_type_symbol
 _atom_site_label
 _atom_site_symmetry_multiplicity
 _atom_site_fract_x
 _atom_site_fract_y
 _atom_site_fract_z
 _atom_site_occupancy
  Cs  Cs0  1  -0.00057343  0.00147180  0.00067001  1
  Cs  Cs1  1  0.00148110  0.00100056  0.33363431  1
  Cs  Cs2  1  0.00061448  -0.00100319  0.66603198  1
  Cs  Cs3  1  -0.00201960  0.33245589  0.00035581  1
  Cs  Cs4  1  -0.00453593  0.33663731  0.33116746  1
  Cs  Cs5  1  0.00323633  0.33230825  0.66844438  1
  Cs  Cs6  1  0.00452860  0.66651835  0.00145076  1
  Cs  Cs7  1  -0.00210715  0.65768098  0.33311841  1
  Cs  Cs8  1  -0.00239836  0.66759471  0.66322375  1
  Cs  Cs9  1  0.33324218  -0.00008372  0.00021165  1
  Cs  Cs10  1  0.33177463  -0.00113031  0.33480586  1
  Cs  Cs11  1  0.33322722  0.00102612  0.66603556  1
  Cs  Cs12  1  0.33213748  0.33074851  -0.00430010  1
  Cs  Cs13  1  0.33770021  0.33639814  0.33963186  1
  Cs  Cs14  1  0.33377075  0.33351284  0.66677944  1
  Cs  Cs15  1  0.33276282  0.66734265  0.00623106  1
  Cs  Cs16  1  0.33434779  0.66437627  0.32286108  1
  Cs  Cs17  1  0.33143747  0.66881161  0.66814431  1
  Cs  Cs18  1  0.66733545  0.00028486  -0.00055791  1
  Cs  Cs19  1  0.66712968  0.00087550  0.33286162  1
  Cs  Cs20  1  0.66624527  -0.00177039  0.66674413  1
  Cs  Cs21  1  0.66881669  0.33151961  -0.00086206  1
  Cs  Cs22  1  0.66693625  0.34142659  0.33345882  1
  Cs  Cs23  1  0.66338398  0.33177417  0.66828376  1
  Cs  Cs24  1  0.66359800  0.66831158  -0.00112556  1
  Cs  Cs25  1  0.66791500  0.65758099  0.33189467  1
  Cs  Cs26  1  0.67118056  0.67078456  0.66731275  1
  Sn  Sn27  1  0.16668609  0.16562600  0.83320483  1
  Sn  Sn28  1  0.83283869  0.49938513  0.83322336  1
  Sn  Sn29  1  0.16571249  0.16614535  0.49993219  1
  Sn  Sn30  1  0.16767159  0.83373377  0.50036649  1
  Sn  Sn31  1  0.16777534  0.16646362  0.16705200  1
  Sn  Sn32  1  0.49933031  0.16630868  0.16638066  1
  Sn  Sn33  1  0.83335155  0.83364991  0.16687017  1
  Sn  Sn34  1  0.49992648  0.16633636  0.83401612  1
  Sn  Sn35  1  0.50058518  0.50032345  0.83303543  1
  Sn  Sn36  1  0.83336172  0.16713516  0.83225035  1
  Sn  Sn37  1  0.49923549  0.83343369  0.50021094  1
  Sn  Sn38  1  0.83376096  0.16624100  0.50076944  1
  Sn  Sn39  1  0.49892644  0.83327778  0.83260030  1
  Sn  Sn40  1  0.16742666  0.83429462  0.83259163  1
  Pb  Pb41  1  0.16697005  0.50041000  0.50023534  1
  Pb  Pb42  1  0.83312244  0.16583847  0.16676279  1
  Pb  Pb43  1  0.49967689  0.50400579  0.50312411  1
  Pb  Pb44  1  0.83324490  0.50304827  0.16324402  1
  Pb  Pb45  1  0.16490422  0.83517135  0.16708190  1
  Pb  Pb46  1  0.49987818  0.49645498  0.16360510  1
  Pb  Pb47  1  0.16685323  0.49597255  0.16651630  1
  Pb  Pb48  1  0.83328560  0.49664372  0.50316918  1
  Pb  Pb49  1  0.83367229  0.83515396  0.49766382  1
  Pb  Pb50  1  0.16682090  0.50042146  0.83321369  1
  Pb  Pb51  1  0.50163640  0.83537965  0.16667620  1
  Pb  Pb52  1  0.83382670  0.83361357  0.83450953  1
  Pb  Pb53  1  0.49990701  0.16527310  0.50011734  1
  I  I54  1  0.16934951  0.00350187  0.16499949  1
  I  I55  1  0.16664542  0.00101477  0.50199740  1
  I  I56  1  0.16896356  0.00130504  0.83293511  1
  I  I57  1  0.16816990  0.32740402  0.16383113  1
  I  I58  1  0.16266499  0.32921292  0.50134789  1
  I  I59  1  0.16868225  0.32964226  0.83318305  1
  I  I60  1  0.16411211  0.66695450  0.16574527  1
  I  I61  1  0.16976205  0.67074415  0.50758777  1
  I  I62  1  0.16830885  0.67034561  0.82871101  1
  I  I63  1  0.49739129  0.00320716  0.15918106  1
  I  I64  1  0.49912468  -0.00248392  0.50671806  1
  I  I65  1  0.50004786  0.00061697  0.83366734  1
  I  I66  1  0.49739905  0.32827656  0.16234640  1
  I  I67  1  0.50034103  0.33326515  0.49943114  1
  I  I68  1  0.50077310  0.33171737  0.83864814  1
  I  I69  1  0.50240719  0.66670807  0.16641069  1
  I  I70  1  0.49479030  0.67210126  0.50495133  1
  I  I71  1  0.50153435  0.66774111  0.82761554  1
  I  I72  1  0.83305515  -0.00137272  0.16266970  1
  I  I73  1  0.83479695  0.00316856  0.50769120  1
  I  I74  1  0.83128051  0.00318649  0.83169825  1
  I  I75  1  0.83373869  0.33331363  0.16858994  1
  I  I76  1  0.83935102  0.32831958  0.49906919  1
  I  I77  1  0.83037475  0.33117339  0.83058994  1
  I  I78  1  0.83330516  0.67048107  0.16626750  1
  I  I79  1  0.83365333  0.66668562  0.49955781  1
  I  I80  1  0.82943751  0.66476886  0.83720369  1
  I  I81  1  0.16688638  0.16303703  -0.00165391  1
  I  I82  1  0.16601080  0.16107756  0.33410829  1
  I  I83  1  0.16557837  0.16330455  0.66763947  1
  I  I84  1  0.16603708  0.50157972  -0.00052538  1
  I  I85  1  0.16593317  0.50149397  0.33336978  1
  I  I86  1  0.16641342  0.49461271  0.66705518  1
  I  I87  1  0.16923408  0.83716385  -0.00301042  1
  I  I88  1  0.16998663  0.83998399  0.33646222  1
  I  I89  1  0.17008384  0.84182980  0.66756031  1
  I  I90  1  0.49778790  0.16474414  -0.00238703  1
  I  I91  1  0.49721668  0.16208598  0.33128433  1
  I  I92  1  0.49879418  0.16843821  0.67009866  1
  I  I93  1  0.50385044  0.50545651  -0.00460283  1
  I  I94  1  0.50019013  0.49930455  0.33332447  1
  I  I95  1  0.50320139  0.49170340  0.67120810  1
  I  I96  1  0.49731611  0.83210685  -0.00360430  1
  I  I97  1  0.49667646  0.83868821  0.33591242  1
  I  I98  1  0.49756377  0.83648684  0.66855422  1
  I  I99  1  0.83527166  0.16875558  -0.00320542  1
  I  I100  1  0.83682408  0.16134130  0.33568536  1
  I  I101  1  0.83600133  0.16907391  0.66825009  1
  I  I102  1  0.82966309  0.49092689  -0.00431864  1
  I  I103  1  0.83371124  0.49942495  0.33334935  1
  I  I104  1  0.82926436  0.50069795  0.67096017  1
  I  I105  1  0.83299491  0.83686325  0.00167883  1
  I  I106  1  0.83318666  0.83977591  0.33057325  1
  I  I107  1  0.83293059  0.83146701  0.66674969  1
  I  I108  1  0.00249064  0.16381813  0.16360888  1
  I  I109  1  0.00117439  0.16062887  0.50355163  1
  I  I110  1  0.00056767  0.16667152  0.83349431  1
  I  I111  1  -0.00020935  0.49873799  0.16390802  1
  I  I112  1  -0.00009230  0.50481583  0.50265434  1
  I  I113  1  -0.00257717  0.49547824  0.83384046  1
  I  I114  1  -0.00229701  0.83827237  0.16373291  1
  I  I115  1  0.00324377  0.83720952  0.50523292  1
  I  I116  1  0.00290076  0.83703987  0.83108032  1
  I  I117  1  0.33300481  0.16454372  0.16127033  1
  I  I118  1  0.33045096  0.16456639  0.50204092  1
  I  I119  1  0.33329317  0.16663722  0.83439413  1
  I  I120  1  0.33358592  0.50502350  0.16382487  1
  I  I121  1  0.33350815  0.49259391  0.50354906  1
  I  I122  1  0.33633440  0.49628428  0.83303497  1
  I  I123  1  0.33325320  0.83267878  0.16637326  1
  I  I124  1  0.33257731  0.84140820  0.50544663  1
  I  I125  1  0.33361849  0.83704855  0.83026743  1
  I  I126  1  0.66435673  0.16347462  0.16169955  1
  I  I127  1  0.66869880  0.16381042  0.50391923  1
  I  I128  1  0.66615785  0.16671178  0.83409058  1
  I  I129  1  0.66657803  0.49733783  0.16822913  1
  I  I130  1  0.66652711  0.49929848  0.49839657  1
  I  I131  1  0.66612629  0.49588951  0.83348853  1
  I  I132  1  0.66889480  0.83878881  0.16431218  1
  I  I133  1  0.66425774  0.83649381  0.50525121  1
  I  I134  1  0.66395029  0.83611822  0.83121527  1
