# generated using pymatgen
data_Cs27Sn13Pb14I81
_symmetry_space_group_name_H-M   'P 1'
_cell_length_a   18.99903901
_cell_length_b   18.98289064
_cell_length_c   18.99366135
_cell_angle_alpha   89.99858776
_cell_angle_beta   89.99965008
_cell_angle_gamma   89.99773045
_symmetry_Int_Tables_number   1
_chemical_formula_structural   Cs27Sn13Pb14I81
_chemical_formula_sum   'Cs27 Sn13 Pb14 I81'
_cell_volume   6850.19083043
_cell_formula_units_Z   1
loop_
 _symmetry_equiv_pos_site_id
 _symmetry_equiv_pos_as_xyz
  1  'x, y, z'
loop_
 _atom_site_type_symbol
 _atom_site_label
 _atom_site_symmetry_multiplicity
 _atom_site_fract_x
 _atom_site_fract_y
 _atom_site_fract_z
 _atom_site_occupancy
  Cs  Cs0  1  -0.00325719  -0.00238152  -0.00248433  1
  Cs  Cs1  1  0.00109142  -0.00230909  0.33399961  1
  Cs  Cs2  1  -0.00199184  -0.00084466  0.66853202  1
  Cs  Cs3  1  0.00175074  0.33552529  -0.00221788  1
  Cs  Cs4  1  -0.00158445  0.33246786  0.33501329  1
  Cs  Cs5  1  0.00016229  0.33214948  0.66567411  1
  Cs  Cs6  1  0.00496255  0.66603026  0.00497704  1
  Cs  Cs7  1  0.00189026  0.67432928  0.33016871  1
  Cs  Cs8  1  0.00041165  0.66722914  0.66503948  1
  Cs  Cs9  1  0.34036243  0.00391547  -0.00436253  1
  Cs  Cs10  1  0.33003851  0.00421813  0.33349989  1
  Cs  Cs11  1  0.33437546  -0.00473108  0.67023788  1
  Cs  Cs12  1  0.33157541  0.33331628  -0.00191670  1
  Cs  Cs13  1  0.33332282  0.33067273  0.33498921  1
  Cs  Cs14  1  0.32861716  0.33334652  0.66357829  1
  Cs  Cs15  1  0.32936329  0.66436356  0.00215218  1
  Cs  Cs16  1  0.33308789  0.67037170  0.33332816  1
  Cs  Cs17  1  0.33768160  0.67062127  0.66471382  1
  Cs  Cs18  1  0.66291584  -0.00239538  -0.00799805  1
  Cs  Cs19  1  0.66943225  0.00348283  0.33130487  1
  Cs  Cs20  1  0.66651083  -0.00905250  0.67694721  1
  Cs  Cs21  1  0.66613454  0.33415864  0.00270327  1
  Cs  Cs22  1  0.66755329  0.33397684  0.33291900  1
  Cs  Cs23  1  0.67038685  0.33675850  0.66318424  1
  Cs  Cs24  1  0.66698669  0.66570400  0.00071450  1
  Cs  Cs25  1  0.66546955  0.66595148  0.33307518  1
  Cs  Cs26  1  0.66216149  0.66876019  0.66702204  1
  Sn  Sn27  1  0.50085427  0.16635757  0.50066612  1
  Sn  Sn28  1  0.16567964  0.49986398  0.49933785  1
  Sn  Sn29  1  0.83298293  0.49918384  0.16697735  1
  Sn  Sn30  1  0.83298742  0.16700394  0.49951449  1
  Sn  Sn31  1  0.83446335  0.49994751  0.49945041  1
  Sn  Sn32  1  0.83284057  0.49978868  0.83339793  1
  Sn  Sn33  1  0.50030652  0.50053196  0.16617618  1
  Sn  Sn34  1  0.50018075  0.83273670  0.16727633  1
  Sn  Sn35  1  0.83429132  0.16750592  0.16696640  1
  Sn  Sn36  1  0.16641164  0.83303665  0.83363157  1
  Sn  Sn37  1  0.16540478  0.16718013  0.16676933  1
  Sn  Sn38  1  0.50033082  0.49918602  0.83403960  1
  Sn  Sn39  1  0.16624349  0.16740942  0.49927176  1
  Pb  Pb40  1  0.16660566  0.83391723  0.50140999  1
  Pb  Pb41  1  0.50064783  0.16745320  0.16786817  1
  Pb  Pb42  1  0.16650817  0.16491644  0.83299971  1
  Pb  Pb43  1  0.50022354  0.17001179  0.83004247  1
  Pb  Pb44  1  0.83312114  0.83353208  0.49983760  1
  Pb  Pb45  1  0.16904502  0.83693456  0.16476024  1
  Pb  Pb46  1  0.50021583  0.49871147  0.49941174  1
  Pb  Pb47  1  0.83322716  0.16903060  0.83347598  1
  Pb  Pb48  1  0.83131322  0.83375394  0.16665381  1
  Pb  Pb49  1  0.83547828  0.82950039  0.83362213  1
  Pb  Pb50  1  0.49828623  0.83014056  0.83576820  1
  Pb  Pb51  1  0.16668713  0.50132237  0.83067232  1
  Pb  Pb52  1  0.16663370  0.49816052  0.16912156  1
  Pb  Pb53  1  0.50020467  0.83674939  0.49725819  1
  I  I54  1  0.16216683  0.00459451  0.17478238  1
  I  I55  1  0.16602100  0.00395225  0.49649659  1
  I  I56  1  0.16836597  -0.00276395  0.83197835  1
  I  I57  1  0.16848717  0.33026101  0.16805669  1
  I  I58  1  0.16645903  0.33243599  0.49817454  1
  I  I59  1  0.16731852  0.33353994  0.83404691  1
  I  I60  1  0.16462991  0.66660227  0.16770691  1
  I  I61  1  0.16184078  0.66375069  0.50201005  1
  I  I62  1  0.16670661  0.66877672  0.83195937  1
  I  I63  1  0.49811912  -0.00139706  0.17030206  1
  I  I64  1  0.49822677  0.00491547  0.49667314  1
  I  I65  1  0.49862356  -0.00021674  0.83407649  1
  I  I66  1  0.50199074  0.33633356  0.16401670  1
  I  I67  1  0.49927302  0.33077928  0.49731455  1
  I  I68  1  0.50243882  0.33757737  0.84251892  1
  I  I69  1  0.50552161  0.66456191  0.16317581  1
  I  I70  1  0.49914834  0.66646472  0.50253973  1
  I  I71  1  0.50461480  0.66256230  0.83201989  1
  I  I72  1  0.83647382  0.00375943  0.17399244  1
  I  I73  1  0.83548854  0.00419425  0.49332059  1
  I  I74  1  0.83412865  -0.00012896  0.83258294  1
  I  I75  1  0.83021766  0.33430355  0.16804638  1
  I  I76  1  0.83395357  0.33367700  0.49955324  1
  I  I77  1  0.83104692  0.33728127  0.83270818  1
  I  I78  1  0.83109141  0.66298934  0.16723386  1
  I  I79  1  0.83832545  0.66243089  0.49926365  1
  I  I80  1  0.82845147  0.66136717  0.83240766  1
  I  I81  1  0.16267552  0.16559488  0.00304290  1
  I  I82  1  0.16697452  0.17015692  0.33441510  1
  I  I83  1  0.16574051  0.17028953  0.66287227  1
  I  I84  1  0.16477495  0.49944178  0.00016988  1
  I  I85  1  0.16397363  0.49770312  0.33699624  1
  I  I86  1  0.16320717  0.49322077  0.66295206  1
  I  I87  1  0.16651839  0.83142988  -0.00248976  1
  I  I88  1  0.16792337  0.83193588  0.33309848  1
  I  I89  1  0.16840598  0.83388396  0.66903672  1
  I  I90  1  0.49902132  0.16386353  0.00006124  1
  I  I91  1  0.49916820  0.16972493  0.33584176  1
  I  I92  1  0.49841447  0.16909353  0.66199776  1
  I  I93  1  0.50781315  0.50324384  0.00092667  1
  I  I94  1  0.50351520  0.50196030  0.33049574  1
  I  I95  1  0.50286732  0.49708588  0.66842716  1
  I  I96  1  0.49957111  0.83462307  0.00328257  1
  I  I97  1  0.49935868  0.82326952  0.32985917  1
  I  I98  1  0.49864562  0.83336031  0.66699242  1
  I  I99  1  0.83842410  0.17101674  0.00353045  1
  I  I100  1  0.83337098  0.17519316  0.33370776  1
  I  I101  1  0.83550040  0.17176063  0.66309967  1
  I  I102  1  0.82781683  0.49616818  0.00094641  1
  I  I103  1  0.83147906  0.49463850  0.33308318  1
  I  I104  1  0.83359278  0.49563646  0.66580955  1
  I  I105  1  0.83371954  0.83536411  0.00009459  1
  I  I106  1  0.83354233  0.82845417  0.33311329  1
  I  I107  1  0.83300348  0.83465094  0.66683822  1
  I  I108  1  -0.00091871  0.17236607  0.17480200  1
  I  I109  1  -0.00022713  0.17217143  0.49560723  1
  I  I110  1  -0.00010889  0.16829063  0.83003774  1
  I  I111  1  -0.00309098  0.49721367  0.16326106  1
  I  I112  1  -0.00113073  0.49160979  0.50185122  1
  I  I113  1  -0.00295281  0.50121555  0.83563060  1
  I  I114  1  0.00015068  0.83078419  0.16536326  1
  I  I115  1  0.00001425  0.83559726  0.50051195  1
  I  I116  1  0.00281195  0.83316606  0.83265797  1
  I  I117  1  0.33153292  0.16606872  0.17207457  1
  I  I118  1  0.33214668  0.17168292  0.49500604  1
  I  I119  1  0.33334777  0.16869302  0.83446718  1
  I  I120  1  0.33592823  0.50182651  0.16291290  1
  I  I121  1  0.33131906  0.49449397  0.50085568  1
  I  I122  1  0.33581051  0.50162222  0.83731865  1
  I  I123  1  0.33646204  0.82634289  0.16636589  1
  I  I124  1  0.33337370  0.83179004  0.50096589  1
  I  I125  1  0.33096321  0.83200328  0.83258934  1
  I  I126  1  0.66962548  0.16878134  0.17271372  1
  I  I127  1  0.66823828  0.17321622  0.49357635  1
  I  I128  1  0.66670425  0.16273909  0.83426858  1
  I  I129  1  0.66762470  0.49779873  0.16801461  1
  I  I130  1  0.66971027  0.49485971  0.49998556  1
  I  I131  1  0.66727885  0.49929205  0.83163075  1
  I  I132  1  0.66361069  0.83352477  0.16593348  1
  I  I133  1  0.66654206  0.83235944  0.50155723  1
  I  I134  1  0.66649861  0.83561968  0.83370907  1
