# generated using pymatgen
data_Cs27Sn13Pb14I81
_symmetry_space_group_name_H-M   'P 1'
_cell_length_a   18.97988055
_cell_length_b   18.97377983
_cell_length_c   18.97538644
_cell_angle_alpha   90.00084157
_cell_angle_beta   89.99982988
_cell_angle_gamma   89.99824800
_symmetry_Int_Tables_number   1
_chemical_formula_structural   Cs27Sn13Pb14I81
_chemical_formula_sum   'Cs27 Sn13 Pb14 I81'
_cell_volume   6833.41757878
_cell_formula_units_Z   1
loop_
 _symmetry_equiv_pos_site_id
 _symmetry_equiv_pos_as_xyz
  1  'x, y, z'
loop_
 _atom_site_type_symbol
 _atom_site_label
 _atom_site_symmetry_multiplicity
 _atom_site_fract_x
 _atom_site_fract_y
 _atom_site_fract_z
 _atom_site_occupancy
  Cs  Cs0  1  -0.00094416  0.00448238  0.00126159  1
  Cs  Cs1  1  0.00180185  0.01029758  0.32912036  1
  Cs  Cs2  1  0.00155580  -0.00461987  0.66789121  1
  Cs  Cs3  1  0.00201059  0.33350428  0.00036600  1
  Cs  Cs4  1  0.00020292  0.32994578  0.33931483  1
  Cs  Cs5  1  -0.00365131  0.33449096  0.66121858  1
  Cs  Cs6  1  0.00037237  0.66567954  -0.00147340  1
  Cs  Cs7  1  -0.00026326  0.66324956  0.33603867  1
  Cs  Cs8  1  0.00044651  0.66816952  0.66567108  1
  Cs  Cs9  1  0.33028232  -0.00232096  0.00166039  1
  Cs  Cs10  1  0.33268926  0.00499595  0.33393410  1
  Cs  Cs11  1  0.33225024  -0.00288039  0.66357670  1
  Cs  Cs12  1  0.33302311  0.33513736  -0.00017959  1
  Cs  Cs13  1  0.33294576  0.33115413  0.33223636  1
  Cs  Cs14  1  0.33821611  0.33016269  0.66812316  1
  Cs  Cs15  1  0.33261194  0.66480725  0.00005922  1
  Cs  Cs16  1  0.33531365  0.66616765  0.33221019  1
  Cs  Cs17  1  0.33263017  0.66947374  0.66693858  1
  Cs  Cs18  1  0.67134694  -0.00203316  0.00196570  1
  Cs  Cs19  1  0.66766875  -0.00355066  0.33105596  1
  Cs  Cs20  1  0.66589259  0.00324269  0.66721317  1
  Cs  Cs21  1  0.66529748  0.33478610  -0.00440401  1
  Cs  Cs22  1  0.66566924  0.33418506  0.33753453  1
  Cs  Cs23  1  0.66499909  0.32415593  0.66763074  1
  Cs  Cs24  1  0.66677227  0.66688858  0.00082840  1
  Cs  Cs25  1  0.66575180  0.66849376  0.33313929  1
  Cs  Cs26  1  0.66691372  0.66664259  0.66656254  1
  Sn  Sn27  1  0.83397615  0.50066143  0.83380879  1
  Sn  Sn28  1  0.50073775  0.83295245  0.83299933  1
  Sn  Sn29  1  0.49988504  0.50076329  0.49966277  1
  Sn  Sn30  1  0.16620089  0.50090147  0.16630421  1
  Sn  Sn31  1  0.83353993  0.50018210  0.16628421  1
  Sn  Sn32  1  0.16590262  0.49900678  0.83357079  1
  Sn  Sn33  1  0.83284072  0.83304858  0.50037266  1
  Sn  Sn34  1  0.16663474  0.16806679  0.83310344  1
  Sn  Sn35  1  0.50091598  0.83220450  0.50078840  1
  Sn  Sn36  1  0.50016717  0.49913733  0.16740482  1
  Sn  Sn37  1  0.83235417  0.83228615  0.83273825  1
  Sn  Sn38  1  0.16633611  0.83238621  0.16702545  1
  Sn  Sn39  1  0.50062967  0.16765547  0.16607288  1
  Pb  Pb40  1  0.83091793  0.50150824  0.50070157  1
  Pb  Pb41  1  0.16933977  0.49999711  0.50045446  1
  Pb  Pb42  1  0.50012160  0.16600760  0.49783720  1
  Pb  Pb43  1  0.83549437  0.16685195  0.83336715  1
  Pb  Pb44  1  0.16610764  0.83262100  0.83489838  1
  Pb  Pb45  1  0.83057690  0.17047605  0.16639547  1
  Pb  Pb46  1  0.16646942  0.83314602  0.49675700  1
  Pb  Pb47  1  0.49798278  0.16319184  0.83576550  1
  Pb  Pb48  1  0.83600578  0.83129337  0.16672758  1
  Pb  Pb49  1  0.50013461  0.50148177  0.83330302  1
  Pb  Pb50  1  0.83309866  0.16282325  0.50012480  1
  Pb  Pb51  1  0.16680179  0.16687152  0.50349428  1
  Pb  Pb52  1  0.16821692  0.16792004  0.16522804  1
  Pb  Pb53  1  0.49859450  0.83281566  0.16687835  1
  I  I54  1  0.16949405  -0.00172057  0.16494510  1
  I  I55  1  0.16892994  -0.00034996  0.49912833  1
  I  I56  1  0.16818434  0.00128376  0.83618431  1
  I  I57  1  0.16646950  0.33719361  0.16354405  1
  I  I58  1  0.16832044  0.33371520  0.49466124  1
  I  I59  1  0.16314904  0.33555849  0.84072741  1
  I  I60  1  0.17023986  0.66452371  0.16048283  1
  I  I61  1  0.16650609  0.66665076  0.50375789  1
  I  I62  1  0.16613942  0.66376954  0.83690237  1
  I  I63  1  0.49560035  0.00137023  0.16585039  1
  I  I64  1  0.50323096  -0.00370931  0.50257950  1
  I  I65  1  0.50324481  -0.00470089  0.82939547  1
  I  I66  1  0.49714149  0.33590466  0.17140026  1
  I  I67  1  0.49892155  0.33619410  0.49731360  1
  I  I68  1  0.50180292  0.33348064  0.83092801  1
  I  I69  1  0.50043894  0.66359760  0.16754642  1
  I  I70  1  0.50278242  0.66724071  0.49683592  1
  I  I71  1  0.49863237  0.66940302  0.83473221  1
  I  I72  1  0.83381866  -0.00015852  0.16688122  1
  I  I73  1  0.82639095  -0.00547923  0.50596078  1
  I  I74  1  0.83100039  -0.00347279  0.82912355  1
  I  I75  1  0.83864713  0.33880809  0.16038554  1
  I  I76  1  0.83210917  0.33365441  0.50005342  1
  I  I77  1  0.83503770  0.33698789  0.83872533  1
  I  I78  1  0.82793676  0.66314241  0.16482589  1
  I  I79  1  0.83042229  0.66952099  0.50142876  1
  I  I80  1  0.83552213  0.66644121  0.83405022  1
  I  I81  1  0.16805030  0.16737444  -0.00250817  1
  I  I82  1  0.16805110  0.16501092  0.33305251  1
  I  I83  1  0.16789430  0.17146758  0.67151909  1
  I  I84  1  0.16878004  0.50071388  0.00058995  1
  I  I85  1  0.16494472  0.50495093  0.32993953  1
  I  I86  1  0.16279470  0.49705620  0.67027755  1
  I  I87  1  0.16900679  0.83111981  0.00255851  1
  I  I88  1  0.16856368  0.82638978  0.32902563  1
  I  I89  1  0.16764900  0.83392564  0.66671267  1
  I  I90  1  0.49857505  0.17354701  0.00320397  1
  I  I91  1  0.49727757  0.16684336  0.32992833  1
  I  I92  1  0.49842905  0.16918206  0.66690006  1
  I  I93  1  0.49923061  0.49873325  0.00272298  1
  I  I94  1  0.49987619  0.50254849  0.33198012  1
  I  I95  1  0.49915629  0.50423739  0.66448992  1
  I  I96  1  0.50233521  0.83281553  -0.00216505  1
  I  I97  1  0.50321101  0.83181760  0.33585268  1
  I  I98  1  0.50186641  0.82742113  0.66645893  1
  I  I99  1  0.83261073  0.16014000  -0.00001782  1
  I  I100  1  0.83442175  0.16618912  0.33303411  1
  I  I101  1  0.83320432  0.17245239  0.66694406  1
  I  I102  1  0.83190982  0.50612379  -0.00028186  1
  I  I103  1  0.83505041  0.50202843  0.33069945  1
  I  I104  1  0.83812680  0.50325193  0.66990881  1
  I  I105  1  0.82931323  0.83094458  -0.00287647  1
  I  I106  1  0.82791943  0.83101013  0.33566381  1
  I  I107  1  0.83035586  0.82724798  0.66791354  1
  I  I108  1  0.00005444  0.16486664  0.16570138  1
  I  I109  1  -0.00003243  0.16603818  0.49740910  1
  I  I110  1  0.00332252  0.16520969  0.83686243  1
  I  I111  1  0.00043669  0.50680810  0.16051099  1
  I  I112  1  -0.00031192  0.50165154  0.49729715  1
  I  I113  1  -0.00015145  0.50253515  0.84187616  1
  I  I114  1  0.00348215  0.82796501  0.16480326  1
  I  I115  1  -0.00300154  0.83212923  0.50583874  1
  I  I116  1  -0.00284188  0.83198199  0.82986198  1
  I  I117  1  0.33594754  0.17118521  0.16574958  1
  I  I118  1  0.33372842  0.16389939  0.49946531  1
  I  I119  1  0.33039880  0.17289687  0.83545484  1
  I  I120  1  0.33326473  0.50065891  0.16585666  1
  I  I121  1  0.33738212  0.50681994  0.49583459  1
  I  I122  1  0.33102089  0.49889877  0.83720475  1
  I  I123  1  0.33098219  0.82783502  0.16449595  1
  I  I124  1  0.33661783  0.83000292  0.50410648  1
  I  I125  1  0.33532452  0.83290713  0.83092218  1
  I  I126  1  0.66264988  0.16893388  0.16638221  1
  I  I127  1  0.66630963  0.17001185  0.50085166  1
  I  I128  1  0.66653473  0.16878531  0.83371830  1
  I  I129  1  0.66630739  0.49644328  0.16579111  1
  I  I130  1  0.66311614  0.50344391  0.49465901  1
  I  I131  1  0.66919873  0.50431998  0.83749583  1
  I  I132  1  0.66689598  0.83319682  0.16612652  1
  I  I133  1  0.66570131  0.82862178  0.50310088  1
  I  I134  1  0.66715517  0.82759438  0.83118295  1
