# generated using pymatgen
data_Cs27Sn13Pb14I81
_symmetry_space_group_name_H-M   'P 1'
_cell_length_a   18.97704226
_cell_length_b   18.98165313
_cell_length_c   18.97305892
_cell_angle_alpha   90.00202838
_cell_angle_beta   90.00041007
_cell_angle_gamma   90.00058015
_symmetry_Int_Tables_number   1
_chemical_formula_structural   Cs27Sn13Pb14I81
_chemical_formula_sum   'Cs27 Sn13 Pb14 I81'
_cell_volume   6834.39243371
_cell_formula_units_Z   1
loop_
 _symmetry_equiv_pos_site_id
 _symmetry_equiv_pos_as_xyz
  1  'x, y, z'
loop_
 _atom_site_type_symbol
 _atom_site_label
 _atom_site_symmetry_multiplicity
 _atom_site_fract_x
 _atom_site_fract_y
 _atom_site_fract_z
 _atom_site_occupancy
  Cs  Cs0  1  0.00225096  -0.00241099  -0.00077366  1
  Cs  Cs1  1  -0.00035488  0.00151540  0.33340969  1
  Cs  Cs2  1  0.00030641  0.00396046  0.66800182  1
  Cs  Cs3  1  -0.00088183  0.33552290  -0.00067507  1
  Cs  Cs4  1  0.00059878  0.33358306  0.33233529  1
  Cs  Cs5  1  0.00097936  0.33129259  0.66678499  1
  Cs  Cs6  1  -0.00077087  0.66863543  -0.00127556  1
  Cs  Cs7  1  0.00271997  0.66501279  0.33251274  1
  Cs  Cs8  1  -0.00272948  0.66587120  0.66968248  1
  Cs  Cs9  1  0.33081168  0.00235883  -0.00014951  1
  Cs  Cs10  1  0.33201740  -0.00416874  0.33325609  1
  Cs  Cs11  1  0.33480473  0.00182480  0.66516655  1
  Cs  Cs12  1  0.34174826  0.33053419  0.00039408  1
  Cs  Cs13  1  0.33352261  0.33884366  0.33324805  1
  Cs  Cs14  1  0.33258300  0.32900539  0.66765901  1
  Cs  Cs15  1  0.33348065  0.66509624  0.00007995  1
  Cs  Cs16  1  0.32893674  0.66700585  0.33556827  1
  Cs  Cs17  1  0.33667560  0.66863442  0.66343179  1
  Cs  Cs18  1  0.66508721  0.00003310  0.00119917  1
  Cs  Cs19  1  0.66723976  0.00303189  0.33288447  1
  Cs  Cs20  1  0.66676356  -0.00183113  0.66572975  1
  Cs  Cs21  1  0.65954807  0.33259421  0.00751152  1
  Cs  Cs22  1  0.66643028  0.32951244  0.33115958  1
  Cs  Cs23  1  0.66698978  0.33632104  0.66421917  1
  Cs  Cs24  1  0.66677635  0.66597433  -0.00193401  1
  Cs  Cs25  1  0.66765550  0.66707924  0.33551325  1
  Cs  Cs26  1  0.66658112  0.66563656  0.66659894  1
  Sn  Sn27  1  0.83370832  0.83277786  0.50017473  1
  Sn  Sn28  1  0.49990772  0.83291927  0.16642794  1
  Sn  Sn29  1  0.16632624  0.16643110  0.16671558  1
  Sn  Sn30  1  0.16630541  0.50076443  0.83336433  1
  Sn  Sn31  1  0.83291929  0.50054197  0.50042198  1
  Sn  Sn32  1  0.83331546  0.83320063  0.16666228  1
  Sn  Sn33  1  0.83394049  0.83349606  0.83323051  1
  Sn  Sn34  1  0.16617478  0.83249170  0.83366528  1
  Sn  Sn35  1  0.83370344  0.49962013  0.83291211  1
  Sn  Sn36  1  0.50085617  0.49917639  0.50018299  1
  Sn  Sn37  1  0.50005329  0.16732619  0.50014809  1
  Sn  Sn38  1  0.16657612  0.83407464  0.16574881  1
  Sn  Sn39  1  0.83277015  0.16705620  0.83381345  1
  Pb  Pb40  1  0.50287789  0.16655595  0.83127174  1
  Pb  Pb41  1  0.16590870  0.50012186  0.50292446  1
  Pb  Pb42  1  0.49976643  0.83338482  0.83537166  1
  Pb  Pb43  1  0.50237555  0.83303996  0.49800838  1
  Pb  Pb44  1  0.16904220  0.16669075  0.49738868  1
  Pb  Pb45  1  0.50021307  0.50013992  0.83128036  1
  Pb  Pb46  1  0.16369248  0.83335286  0.50064111  1
  Pb  Pb47  1  0.49767270  0.16439057  0.16892274  1
  Pb  Pb48  1  0.16502265  0.16668827  0.83506666  1
  Pb  Pb49  1  0.83510575  0.16432165  0.16422876  1
  Pb  Pb50  1  0.83332447  0.50197921  0.16652374  1
  Pb  Pb51  1  0.50007124  0.50262368  0.16971510  1
  Pb  Pb52  1  0.83219531  0.16707361  0.50166245  1
  Pb  Pb53  1  0.16662402  0.50038658  0.16370085  1
  I  I54  1  0.16646091  -0.00248557  0.16086369  1
  I  I55  1  0.16742131  -0.00020075  0.50429515  1
  I  I56  1  0.16132533  -0.00317254  0.83636534  1
  I  I57  1  0.16661616  0.33088057  0.16630967  1
  I  I58  1  0.16224197  0.33350812  0.49958740  1
  I  I59  1  0.16094864  0.33593514  0.83318870  1
  I  I60  1  0.16593155  0.67046896  0.16520606  1
  I  I61  1  0.17208173  0.66680145  0.49478559  1
  I  I62  1  0.15783882  0.66794029  0.83903741  1
  I  I63  1  0.50328856  -0.00350686  0.16960256  1
  I  I64  1  0.50160868  0.00171144  0.49824271  1
  I  I65  1  0.50073628  -0.00015302  0.82965856  1
  I  I66  1  0.49788370  0.33318669  0.16553207  1
  I  I67  1  0.50670341  0.33430879  0.50052624  1
  I  I68  1  0.49895155  0.33342450  0.83564389  1
  I  I69  1  0.49816610  0.67079271  0.16766691  1
  I  I70  1  0.50297992  0.66418835  0.49905753  1
  I  I71  1  0.50341985  0.66682383  0.83128749  1
  I  I72  1  0.83141456  -0.00446431  0.16769419  1
  I  I73  1  0.83164924  -0.00289610  0.50072712  1
  I  I74  1  0.83697764  -0.00186787  0.83308228  1
  I  I75  1  0.83524440  0.33309542  0.16669354  1
  I  I76  1  0.83119740  0.33646845  0.50600908  1
  I  I77  1  0.83867771  0.33467549  0.82621797  1
  I  I78  1  0.83636868  0.67100874  0.16311017  1
  I  I79  1  0.82751358  0.66682138  0.50423542  1
  I  I80  1  0.83726889  0.66735118  0.83270526  1
  I  I81  1  0.16578386  0.16246920  0.00278165  1
  I  I82  1  0.16542025  0.15823591  0.32944132  1
  I  I83  1  0.16720157  0.16573575  0.66702315  1
  I  I84  1  0.15839725  0.50292608  -0.00411637  1
  I  I85  1  0.16689251  0.50035577  0.33333595  1
  I  I86  1  0.16423368  0.50658145  0.67083473  1
  I  I87  1  0.16154774  0.83319629  0.00005485  1
  I  I88  1  0.16609995  0.83740094  0.33019516  1
  I  I89  1  0.16195990  0.82929950  0.67031422  1
  I  I90  1  0.50011929  0.16585078  0.00037372  1
  I  I91  1  0.50246061  0.17063518  0.33652261  1
  I  I92  1  0.49937828  0.16893261  0.66332676  1
  I  I93  1  0.50056471  0.50049663  0.00003799  1
  I  I94  1  0.50697380  0.49606881  0.33759567  1
  I  I95  1  0.50252817  0.49875907  0.66327443  1
  I  I96  1  0.50474619  0.83433560  0.00344541  1
  I  I97  1  0.49927287  0.83315223  0.33004687  1
  I  I98  1  0.49991145  0.83336847  0.66630737  1
  I  I99  1  0.83424679  0.16726865  -0.00390604  1
  I  I100  1  0.83318938  0.16581230  0.33319917  1
  I  I101  1  0.83393561  0.16119949  0.66970948  1
  I  I102  1  0.83856307  0.50183447  -0.00365033  1
  I  I103  1  0.82899821  0.50512300  0.33658989  1
  I  I104  1  0.83272758  0.50575329  0.66723549  1
  I  I105  1  0.83436100  0.83325627  -0.00063328  1
  I  I106  1  0.83267150  0.82891620  0.33318670  1
  I  I107  1  0.83681695  0.83254220  0.66766048  1
  I  I108  1  0.00280549  0.15984752  0.16692415  1
  I  I109  1  -0.00020513  0.16640767  0.50001003  1
  I  I110  1  -0.00310912  0.16532836  0.83217676  1
  I  I111  1  -0.00003210  0.50120677  0.17226619  1
  I  I112  1  -0.00363189  0.50541794  0.50188275  1
  I  I113  1  -0.00163793  0.50181463  0.82824793  1
  I  I114  1  -0.00007975  0.83680204  0.16507132  1
  I  I115  1  -0.00458805  0.82761890  0.49628770  1
  I  I116  1  -0.00128501  0.83222957  0.83774210  1
  I  I117  1  0.33002854  0.15949357  0.16525623  1
  I  I118  1  0.33710045  0.17216484  0.50076482  1
  I  I119  1  0.33316499  0.16640471  0.83332328  1
  I  I120  1  0.33325499  0.50299989  0.16693084  1
  I  I121  1  0.33598328  0.49619288  0.50000596  1
  I  I122  1  0.33030289  0.50598041  0.83316590  1
  I  I123  1  0.33208724  0.83743179  0.16281494  1
  I  I124  1  0.33342603  0.83291946  0.49932781  1
  I  I125  1  0.32974784  0.82888402  0.83807520  1
  I  I126  1  0.66662047  0.16466015  0.16610236  1
  I  I127  1  0.66431444  0.16717630  0.50019532  1
  I  I128  1  0.67117505  0.16476622  0.83357889  1
  I  I129  1  0.66680281  0.50234478  0.16155476  1
  I  I130  1  0.66815993  0.50165237  0.50636975  1
  I  I131  1  0.67040791  0.50295270  0.83056359  1
  I  I132  1  0.66797238  0.83194511  0.16683391  1
  I  I133  1  0.67059853  0.83210855  0.50134307  1
  I  I134  1  0.67047695  0.83200287  0.83395175  1
