# generated using pymatgen
data_Cs27Sn14Pb13I81
_symmetry_space_group_name_H-M   'P 1'
_cell_length_a   18.97310593
_cell_length_b   18.97589673
_cell_length_c   18.97861281
_cell_angle_alpha   90.00048054
_cell_angle_beta   89.99697378
_cell_angle_gamma   89.99949496
_symmetry_Int_Tables_number   1
_chemical_formula_structural   Cs27Sn14Pb13I81
_chemical_formula_sum   'Cs27 Sn14 Pb13 I81'
_cell_volume   6832.90220162
_cell_formula_units_Z   1
loop_
 _symmetry_equiv_pos_site_id
 _symmetry_equiv_pos_as_xyz
  1  'x, y, z'
loop_
 _atom_site_type_symbol
 _atom_site_label
 _atom_site_symmetry_multiplicity
 _atom_site_fract_x
 _atom_site_fract_y
 _atom_site_fract_z
 _atom_site_occupancy
  Cs  Cs0  1  -0.00621234  -0.00094144  -0.00284492  1
  Cs  Cs1  1  0.00363526  -0.00205713  0.33516155  1
  Cs  Cs2  1  -0.00117416  0.00175341  0.66461005  1
  Cs  Cs3  1  0.00056996  0.33525115  -0.00365677  1
  Cs  Cs4  1  -0.00034544  0.33412872  0.33288152  1
  Cs  Cs5  1  0.00088799  0.33404657  0.67004345  1
  Cs  Cs6  1  -0.00263012  0.66514913  0.00181333  1
  Cs  Cs7  1  0.00059616  0.66679968  0.33374664  1
  Cs  Cs8  1  0.00072267  0.66509459  0.66462115  1
  Cs  Cs9  1  0.33585541  -0.00012446  0.00084459  1
  Cs  Cs10  1  0.32943056  -0.00350045  0.33159409  1
  Cs  Cs11  1  0.33404448  -0.00281846  0.67060816  1
  Cs  Cs12  1  0.33171362  0.33338747  -0.00155326  1
  Cs  Cs13  1  0.33513496  0.33396774  0.33314927  1
  Cs  Cs14  1  0.33453789  0.33388763  0.66907048  1
  Cs  Cs15  1  0.33372187  0.66578824  0.00138650  1
  Cs  Cs16  1  0.33311501  0.66736464  0.33347531  1
  Cs  Cs17  1  0.33400819  0.66625622  0.66539295  1
  Cs  Cs18  1  0.67212820  0.00635553  -0.00868717  1
  Cs  Cs19  1  0.66708592  0.00942227  0.33224463  1
  Cs  Cs20  1  0.66826445  0.00580377  0.67493564  1
  Cs  Cs21  1  0.66728281  0.33127616  0.00544810  1
  Cs  Cs22  1  0.66519320  0.32469574  0.33360768  1
  Cs  Cs23  1  0.66550736  0.33162474  0.66150138  1
  Cs  Cs24  1  0.66861707  0.66692884  -0.00141776  1
  Cs  Cs25  1  0.66565256  0.66527134  0.33321369  1
  Cs  Cs26  1  0.66599301  0.66581495  0.66770201  1
  Sn  Sn27  1  0.16655938  0.83293178  0.83370276  1
  Sn  Sn28  1  0.16747297  0.49998109  0.16757789  1
  Sn  Sn29  1  0.50066411  0.83330260  0.49924263  1
  Sn  Sn30  1  0.50003684  0.83284528  0.16718025  1
  Sn  Sn31  1  0.83387049  0.50098528  0.50044142  1
  Sn  Sn32  1  0.16614987  0.49974086  0.49927375  1
  Sn  Sn33  1  0.16711188  0.83328693  0.16622693  1
  Sn  Sn34  1  0.83255129  0.83267836  0.49949193  1
  Sn  Sn35  1  0.16699131  0.16695963  0.49941162  1
  Sn  Sn36  1  0.50111621  0.50050883  0.83437456  1
  Sn  Sn37  1  0.16682203  0.83318806  0.50018028  1
  Sn  Sn38  1  0.16674392  0.16659480  0.16730631  1
  Sn  Sn39  1  0.49925396  0.50111744  0.16610320  1
  Sn  Sn40  1  0.83184174  0.50057983  0.83234743  1
  Pb  Pb41  1  0.83291528  0.50013761  0.16764130  1
  Pb  Pb42  1  0.83572099  0.83111925  0.83063108  1
  Pb  Pb43  1  0.16674046  0.16354477  0.83355722  1
  Pb  Pb44  1  0.16679477  0.50179782  0.83342575  1
  Pb  Pb45  1  0.49845444  0.83164206  0.83395612  1
  Pb  Pb46  1  0.49961330  0.17024885  0.83344900  1
  Pb  Pb47  1  0.49671996  0.16264571  0.49993277  1
  Pb  Pb48  1  0.83246419  0.83337379  0.16913687  1
  Pb  Pb49  1  0.83684879  0.16647908  0.16684173  1
  Pb  Pb50  1  0.50010532  0.50142889  0.49922747  1
  Pb  Pb51  1  0.83364316  0.17039080  0.83300255  1
  Pb  Pb52  1  0.83591173  0.16691826  0.49992871  1
  Pb  Pb53  1  0.49755810  0.16602877  0.16665105  1
  I  I54  1  0.17035984  -0.00144734  0.17106096  1
  I  I55  1  0.16659140  -0.00170999  0.49706951  1
  I  I56  1  0.16763436  -0.00450807  0.83169064  1
  I  I57  1  0.16986564  0.33463686  0.17371980  1
  I  I58  1  0.16152611  0.33465407  0.49348707  1
  I  I59  1  0.16625944  0.33361785  0.83305274  1
  I  I60  1  0.17023374  0.66677936  0.16971483  1
  I  I61  1  0.16571215  0.66720814  0.49804176  1
  I  I62  1  0.16696369  0.66948043  0.83165675  1
  I  I63  1  0.49359162  -0.00376639  0.17332498  1
  I  I64  1  0.49958767  -0.00562253  0.49295582  1
  I  I65  1  0.49782964  -0.00036321  0.83305350  1
  I  I66  1  0.49592979  0.33650634  0.16208614  1
  I  I67  1  0.50010650  0.33332616  0.50075169  1
  I  I68  1  0.50117867  0.33877159  0.83850917  1
  I  I69  1  0.49058125  0.66659952  0.16720772  1
  I  I70  1  0.49388308  0.66950398  0.49940688  1
  I  I71  1  0.50209798  0.66361753  0.83444497  1
  I  I72  1  0.83363900  -0.00031962  0.16895304  1
  I  I73  1  0.83595632  -0.00316751  0.49785159  1
  I  I74  1  0.83482045  -0.00026060  0.83274144  1
  I  I75  1  0.83309191  0.33374886  0.16819826  1
  I  I76  1  0.83832979  0.33694423  0.50414613  1
  I  I77  1  0.83253151  0.33849028  0.82609994  1
  I  I78  1  0.83939882  0.66658747  0.16502089  1
  I  I79  1  0.84029622  0.66635715  0.50329882  1
  I  I80  1  0.83069147  0.66329499  0.83138658  1
  I  I81  1  0.16766393  0.16844595  0.00345684  1
  I  I82  1  0.16649588  0.16250175  0.33363405  1
  I  I83  1  0.16572634  0.16686673  0.66339173  1
  I  I84  1  0.16699197  0.50036444  0.00290870  1
  I  I85  1  0.16639517  0.50385229  0.33364747  1
  I  I86  1  0.16625515  0.50111991  0.66376933  1
  I  I87  1  0.17230648  0.83221905  0.00151565  1
  I  I88  1  0.16677679  0.83340631  0.33387305  1
  I  I89  1  0.16707325  0.83247809  0.66456612  1
  I  I90  1  0.49634128  0.16202387  0.00024154  1
  I  I91  1  0.50307797  0.17338291  0.33335905  1
  I  I92  1  0.49648443  0.16667811  0.66645263  1
  I  I93  1  0.49831382  0.50607913  0.00130760  1
  I  I94  1  0.49720882  0.50282965  0.33051091  1
  I  I95  1  0.49956093  0.50234865  0.66810806  1
  I  I96  1  0.49145953  0.82984370  0.00328967  1
  I  I97  1  0.49297470  0.82581756  0.33307927  1
  I  I98  1  0.49626362  0.83087040  0.66403751  1
  I  I99  1  0.83603982  0.16724109  -0.00019730  1
  I  I100  1  0.83048180  0.17033351  0.33370804  1
  I  I101  1  0.83721379  0.16386413  0.66630114  1
  I  I102  1  0.83415780  0.49942255  -0.00211320  1
  I  I103  1  0.83691414  0.50461724  0.33677411  1
  I  I104  1  0.83494814  0.50476921  0.66533766  1
  I  I105  1  0.83558509  0.83200925  -0.00019024  1
  I  I106  1  0.84028703  0.82537643  0.33739906  1
  I  I107  1  0.83475233  0.83070142  0.66241799  1
  I  I108  1  0.00548373  0.16682668  0.17197331  1
  I  I109  1  0.00417268  0.16158032  0.49536458  1
  I  I110  1  0.00047830  0.16908627  0.83411918  1
  I  I111  1  0.00348621  0.50091495  0.16724778  1
  I  I112  1  0.00158854  0.50466520  0.50042207  1
  I  I113  1  -0.00176024  0.50178747  0.83173496  1
  I  I114  1  0.00380479  0.83235356  0.16766860  1
  I  I115  1  0.00192689  0.83274540  0.50026476  1
  I  I116  1  0.00379871  0.83077022  0.83463866  1
  I  I117  1  0.32931028  0.16654160  0.17188982  1
  I  I118  1  0.32853026  0.16940113  0.49536680  1
  I  I119  1  0.33277463  0.16972850  0.83200952  1
  I  I120  1  0.33197894  0.50107116  0.16649616  1
  I  I121  1  0.33015755  0.50119391  0.49981696  1
  I  I122  1  0.33527746  0.50206989  0.83408733  1
  I  I123  1  0.33160056  0.83208263  0.17165500  1
  I  I124  1  0.33160534  0.83273023  0.49917639  1
  I  I125  1  0.33037714  0.83008329  0.82784794  1
  I  I126  1  0.66635903  0.16767950  0.16612471  1
  I  I127  1  0.66656493  0.16760543  0.50076200  1
  I  I128  1  0.66673022  0.16127925  0.83329690  1
  I  I129  1  0.66335794  0.50638439  0.16500789  1
  I  I130  1  0.66909344  0.50636086  0.50182519  1
  I  I131  1  0.66659997  0.50265711  0.83264574  1
  I  I132  1  0.66287522  0.82500603  0.17207606  1
  I  I133  1  0.66657014  0.82441891  0.49482790  1
  I  I134  1  0.66680626  0.83347021  0.83300090  1
