# generated using pymatgen
data_Cs27Sn13Pb14I81
_symmetry_space_group_name_H-M   'P 1'
_cell_length_a   18.99494368
_cell_length_b   18.98791726
_cell_length_c   18.99116082
_cell_angle_alpha   90.00123031
_cell_angle_beta   90.00093263
_cell_angle_gamma   90.00126195
_symmetry_Int_Tables_number   1
_chemical_formula_structural   Cs27Sn13Pb14I81
_chemical_formula_sum   'Cs27 Sn13 Pb14 I81'
_cell_volume   6849.62589044
_cell_formula_units_Z   1
loop_
 _symmetry_equiv_pos_site_id
 _symmetry_equiv_pos_as_xyz
  1  'x, y, z'
loop_
 _atom_site_type_symbol
 _atom_site_label
 _atom_site_symmetry_multiplicity
 _atom_site_fract_x
 _atom_site_fract_y
 _atom_site_fract_z
 _atom_site_occupancy
  Cs  Cs0  1  0.00015058  0.00139285  -0.00133475  1
  Cs  Cs1  1  -0.00588975  -0.00175253  0.32727303  1
  Cs  Cs2  1  -0.00131082  0.00091652  0.66913592  1
  Cs  Cs3  1  0.00256041  0.33016601  0.00364703  1
  Cs  Cs4  1  0.00709145  0.34415257  0.32719725  1
  Cs  Cs5  1  0.00056919  0.33288508  0.66560378  1
  Cs  Cs6  1  0.00104850  0.66809979  -0.00260291  1
  Cs  Cs7  1  -0.00676932  0.65940885  0.33593351  1
  Cs  Cs8  1  -0.00073694  0.66577901  0.66625229  1
  Cs  Cs9  1  0.33080732  -0.00366216  -0.00131341  1
  Cs  Cs10  1  0.33621534  0.00133202  0.33641672  1
  Cs  Cs11  1  0.33381580  -0.00008675  0.66558905  1
  Cs  Cs12  1  0.33333056  0.33619536  0.00837048  1
  Cs  Cs13  1  0.32743955  0.32736408  0.32958601  1
  Cs  Cs14  1  0.33198590  0.32984649  0.66270164  1
  Cs  Cs15  1  0.33449173  0.66791251  -0.00072643  1
  Cs  Cs16  1  0.33142502  0.66819269  0.33504509  1
  Cs  Cs17  1  0.33523688  0.66775337  0.66692068  1
  Cs  Cs18  1  0.66883937  -0.00051976  -0.00194364  1
  Cs  Cs19  1  0.66758806  0.00259980  0.33130374  1
  Cs  Cs20  1  0.66727913  0.00095992  0.66739618  1
  Cs  Cs21  1  0.66368316  0.33624077  0.00366371  1
  Cs  Cs22  1  0.66506686  0.32983701  0.32371828  1
  Cs  Cs23  1  0.66704477  0.33034658  0.66853893  1
  Cs  Cs24  1  0.66342971  0.66417498  -0.00159558  1
  Cs  Cs25  1  0.67463524  0.66578327  0.33684514  1
  Cs  Cs26  1  0.66543359  0.66561995  0.66693363  1
  Sn  Sn27  1  0.83316844  0.83306088  0.83292227  1
  Sn  Sn28  1  0.50013159  0.16618654  0.83327324  1
  Sn  Sn29  1  0.83231481  0.16713811  0.83243899  1
  Sn  Sn30  1  0.49972567  0.83235978  0.49992453  1
  Sn  Sn31  1  0.16657590  0.83361723  0.49985391  1
  Sn  Sn32  1  0.16674510  0.83253353  0.83279158  1
  Sn  Sn33  1  0.83409082  0.49960304  0.83288561  1
  Sn  Sn34  1  0.16728469  0.83305082  0.16726370  1
  Sn  Sn35  1  0.83387951  0.16729329  0.50031390  1
  Sn  Sn36  1  0.50007222  0.83417923  0.83314087  1
  Sn  Sn37  1  0.49954060  0.83299551  0.16697756  1
  Sn  Sn38  1  0.16648432  0.50059150  0.83279549  1
  Sn  Sn39  1  0.50006229  0.49983412  0.49991508  1
  Pb  Pb40  1  0.83311639  0.83478669  0.50222069  1
  Pb  Pb41  1  0.49986214  0.16370426  0.16344740  1
  Pb  Pb42  1  0.16694232  0.50339305  0.16404644  1
  Pb  Pb43  1  0.16694972  0.16683948  0.83333477  1
  Pb  Pb44  1  0.16672383  0.16348891  0.16681293  1
  Pb  Pb45  1  0.16878621  0.50222746  0.50239852  1
  Pb  Pb46  1  0.83094428  0.49690855  0.50222848  1
  Pb  Pb47  1  0.83318459  0.83306409  0.16390716  1
  Pb  Pb48  1  0.49942775  0.49963951  0.83204976  1
  Pb  Pb49  1  0.83348268  0.16673130  0.16614630  1
  Pb  Pb50  1  0.83320266  0.50025306  0.16350377  1
  Pb  Pb51  1  0.50154302  0.16634227  0.50167617  1
  Pb  Pb52  1  0.16346504  0.16389864  0.50000984  1
  Pb  Pb53  1  0.49977537  0.50320570  0.17043045  1
  I  I54  1  0.17014981  -0.00517229  0.16107803  1
  I  I55  1  0.17512311  -0.00487500  0.50510610  1
  I  I56  1  0.16475323  -0.00377780  0.83411399  1
  I  I57  1  0.16571741  0.33390827  0.16447846  1
  I  I58  1  0.16869008  0.33355473  0.50320181  1
  I  I59  1  0.16319504  0.33623535  0.83200947  1
  I  I60  1  0.17193926  0.67134048  0.16657767  1
  I  I61  1  0.16763306  0.67092002  0.49945695  1
  I  I62  1  0.16348273  0.66904915  0.83382467  1
  I  I63  1  0.49586496  -0.00457665  0.17150830  1
  I  I64  1  0.49672826  -0.00373313  0.49934959  1
  I  I65  1  0.50308996  -0.00231224  0.83163455  1
  I  I66  1  0.50134157  0.33338125  0.16566291  1
  I  I67  1  0.50315701  0.33540798  0.50701828  1
  I  I68  1  0.50436557  0.33094345  0.82905491  1
  I  I69  1  0.49564240  0.67138321  0.15729408  1
  I  I70  1  0.49673793  0.66940576  0.50416347  1
  I  I71  1  0.50222890  0.67007756  0.83494663  1
  I  I72  1  0.83411186  -0.00034437  0.16364943  1
  I  I73  1  0.83172934  0.00226046  0.50853610  1
  I  I74  1  0.83249252  -0.00059422  0.83032247  1
  I  I75  1  0.83245240  0.33333762  0.16457146  1
  I  I76  1  0.83035253  0.32971031  0.51037811  1
  I  I77  1  0.83255654  0.33291900  0.82825010  1
  I  I78  1  0.83301209  0.66705122  0.16623622  1
  I  I79  1  0.83468007  0.66660018  0.50129513  1
  I  I80  1  0.83372186  0.66753161  0.83445019  1
  I  I81  1  0.16428119  0.16428005  -0.00049558  1
  I  I82  1  0.16539163  0.16560077  0.33356845  1
  I  I83  1  0.16875338  0.16300154  0.66695515  1
  I  I84  1  0.16363657  0.50560088  -0.00425599  1
  I  I85  1  0.16712475  0.50075481  0.33346619  1
  I  I86  1  0.16300623  0.50750997  0.67031304  1
  I  I87  1  0.16949467  0.82997161  -0.00155783  1
  I  I88  1  0.17642308  0.83683445  0.33365605  1
  I  I89  1  0.16979004  0.82999610  0.66790676  1
  I  I90  1  0.50719600  0.16245142  -0.00488976  1
  I  I91  1  0.50326823  0.16584764  0.33331997  1
  I  I92  1  0.50246061  0.15948570  0.66989801  1
  I  I93  1  0.50092474  0.49974675  -0.00006496  1
  I  I94  1  0.50121971  0.50601908  0.33807320  1
  I  I95  1  0.50016858  0.50836262  0.66477811  1
  I  I96  1  0.49780102  0.83837629  -0.00159102  1
  I  I97  1  0.49158039  0.82883437  0.33402220  1
  I  I98  1  0.49754673  0.83344397  0.66757000  1
  I  I99  1  0.82998101  0.16519284  -0.00433093  1
  I  I100  1  0.83146813  0.16186686  0.33617189  1
  I  I101  1  0.82895775  0.16479656  0.66939114  1
  I  I102  1  0.83508169  0.49895513  -0.00551557  1
  I  I103  1  0.83233418  0.49898549  0.33380889  1
  I  I104  1  0.83640915  0.50377663  0.67063997  1
  I  I105  1  0.83343692  0.83629164  -0.00503389  1
  I  I106  1  0.83347354  0.83667872  0.33350437  1
  I  I107  1  0.83318076  0.83206578  0.67087672  1
  I  I108  1  -0.00008130  0.16218319  0.16278879  1
  I  I109  1  -0.00407251  0.16385429  0.51159745  1
  I  I110  1  -0.00314161  0.16289720  0.83018940  1
  I  I111  1  0.00018217  0.50279883  0.16967331  1
  I  I112  1  -0.00008736  0.50095010  0.49956765  1
  I  I113  1  -0.00033492  0.50544124  0.83243673  1
  I  I114  1  0.00308990  0.83447110  0.16524780  1
  I  I115  1  0.00262743  0.83634617  0.50170684  1
  I  I116  1  0.00031972  0.83318371  0.83356708  1
  I  I117  1  0.33358623  0.16877512  0.16466652  1
  I  I118  1  0.33339458  0.16781108  0.50233238  1
  I  I119  1  0.33621257  0.16091967  0.83252952  1
  I  I120  1  0.33344289  0.49851622  0.16124666  1
  I  I121  1  0.33646037  0.50316970  0.50533819  1
  I  I122  1  0.33097302  0.50595087  0.83189905  1
  I  I123  1  0.33355322  0.83329333  0.16013320  1
  I  I124  1  0.33408864  0.83035397  0.50525699  1
  I  I125  1  0.33350842  0.83330040  0.83365936  1
  I  I126  1  0.66654025  0.16303217  0.16785463  1
  I  I127  1  0.66928912  0.16297966  0.50566475  1
  I  I128  1  0.66725088  0.16168504  0.82936140  1
  I  I129  1  0.66630583  0.50260993  0.16338459  1
  I  I130  1  0.66361325  0.51075237  0.50465469  1
  I  I131  1  0.66892616  0.50320289  0.83131949  1
  I  I132  1  0.66341574  0.83422445  0.16607894  1
  I  I133  1  0.66349440  0.83095570  0.50100344  1
  I  I134  1  0.66615950  0.83411716  0.83322270  1
