# generated using pymatgen
data_Cs27Sn13Pb14I81
_symmetry_space_group_name_H-M   'P 1'
_cell_length_a   18.98620299
_cell_length_b   18.99328090
_cell_length_c   18.99350106
_cell_angle_alpha   89.99994885
_cell_angle_beta   89.99885887
_cell_angle_gamma   89.99702477
_symmetry_Int_Tables_number   1
_chemical_formula_structural   Cs27Sn13Pb14I81
_chemical_formula_sum   'Cs27 Sn13 Pb14 I81'
_cell_volume   6849.25184929
_cell_formula_units_Z   1
loop_
 _symmetry_equiv_pos_site_id
 _symmetry_equiv_pos_as_xyz
  1  'x, y, z'
loop_
 _atom_site_type_symbol
 _atom_site_label
 _atom_site_symmetry_multiplicity
 _atom_site_fract_x
 _atom_site_fract_y
 _atom_site_fract_z
 _atom_site_occupancy
  Cs  Cs0  1  -0.00741621  0.00289914  0.00375419  1
  Cs  Cs1  1  -0.00751110  -0.00341753  0.32991867  1
  Cs  Cs2  1  -0.00130753  -0.00104453  0.66436823  1
  Cs  Cs3  1  0.00085720  0.33281671  0.00128322  1
  Cs  Cs4  1  0.00104921  0.33044469  0.32817250  1
  Cs  Cs5  1  0.00205344  0.33502810  0.66944509  1
  Cs  Cs6  1  -0.00091101  0.66390992  0.00023846  1
  Cs  Cs7  1  -0.00190754  0.67084936  0.33866181  1
  Cs  Cs8  1  0.00361097  0.66548392  0.66160160  1
  Cs  Cs9  1  0.33460521  -0.00011260  0.00026399  1
  Cs  Cs10  1  0.33401959  -0.00208902  0.33338302  1
  Cs  Cs11  1  0.33285792  0.00038981  0.66615740  1
  Cs  Cs12  1  0.33250496  0.33308941  0.00112680  1
  Cs  Cs13  1  0.33557452  0.33400287  0.32985725  1
  Cs  Cs14  1  0.33245373  0.33129351  0.66799079  1
  Cs  Cs15  1  0.33470020  0.66697867  0.00012842  1
  Cs  Cs16  1  0.33505351  0.66922634  0.33018443  1
  Cs  Cs17  1  0.32960063  0.66958547  0.66957868  1
  Cs  Cs18  1  0.67037498  -0.00313527  -0.00087438  1
  Cs  Cs19  1  0.66859724  0.00330028  0.33241850  1
  Cs  Cs20  1  0.67237239  0.00250289  0.66932655  1
  Cs  Cs21  1  0.66659207  0.33437915  -0.00071584  1
  Cs  Cs22  1  0.66284786  0.33546482  0.34746062  1
  Cs  Cs23  1  0.66708267  0.33211885  0.65857651  1
  Cs  Cs24  1  0.66733561  0.66821685  -0.00128798  1
  Cs  Cs25  1  0.66716344  0.66269265  0.33478224  1
  Cs  Cs26  1  0.66941927  0.66676478  0.66887459  1
  Sn  Sn27  1  0.49927732  0.16732326  0.83424143  1
  Sn  Sn28  1  0.16695290  0.16736035  0.50017303  1
  Sn  Sn29  1  0.83337812  0.49964008  0.83406771  1
  Sn  Sn30  1  0.16666832  0.83393719  0.83479898  1
  Sn  Sn31  1  0.16707972  0.83332008  0.16550899  1
  Sn  Sn32  1  0.49986064  0.49904774  0.83335951  1
  Sn  Sn33  1  0.49995201  0.83343115  0.49955563  1
  Sn  Sn34  1  0.16699099  0.49982937  0.83316834  1
  Sn  Sn35  1  0.16735097  0.16636035  0.83300852  1
  Sn  Sn36  1  0.49996396  0.16628925  0.16580872  1
  Sn  Sn37  1  0.16753463  0.49867651  0.50006937  1
  Sn  Sn38  1  0.83307780  0.49958161  0.16631432  1
  Sn  Sn39  1  0.49939616  0.83416124  0.16743097  1
  Pb  Pb40  1  0.83716765  0.16681447  0.50013930  1
  Pb  Pb41  1  0.82925158  0.16985767  0.16659369  1
  Pb  Pb42  1  0.49788408  0.16474005  0.50062144  1
  Pb  Pb43  1  0.49856677  0.83396547  0.83364941  1
  Pb  Pb44  1  0.16530572  0.50218539  0.16664295  1
  Pb  Pb45  1  0.49702505  0.50227547  0.50317794  1
  Pb  Pb46  1  0.82952238  0.83329751  0.50002664  1
  Pb  Pb47  1  0.83254071  0.83113502  0.16658456  1
  Pb  Pb48  1  0.83343286  0.16932536  0.83334754  1
  Pb  Pb49  1  0.16826421  0.16430689  0.16643126  1
  Pb  Pb50  1  0.16772048  0.83382012  0.49982653  1
  Pb  Pb51  1  0.83625626  0.49980175  0.50039663  1
  Pb  Pb52  1  0.50191498  0.50005244  0.16470978  1
  Pb  Pb53  1  0.83712925  0.83067409  0.83328471  1
  I  I54  1  0.16916399  -0.00353841  0.16312745  1
  I  I55  1  0.16990838  0.00240775  0.50518572  1
  I  I56  1  0.17457633  0.00075765  0.83166567  1
  I  I57  1  0.16690528  0.33325855  0.16556617  1
  I  I58  1  0.16691765  0.33358706  0.50978317  1
  I  I59  1  0.16701418  0.33378274  0.82803862  1
  I  I60  1  0.17320658  0.66992197  0.16258351  1
  I  I61  1  0.16731898  0.66465247  0.50473819  1
  I  I62  1  0.16734466  0.66575540  0.83247139  1
  I  I63  1  0.49443212  -0.00045959  0.16441755  1
  I  I64  1  0.49433767  -0.00269059  0.50048757  1
  I  I65  1  0.49308214  0.00280274  0.83376247  1
  I  I66  1  0.50045430  0.33084463  0.16297920  1
  I  I67  1  0.50133998  0.33333653  0.49689284  1
  I  I68  1  0.49430931  0.33312770  0.83945943  1
  I  I69  1  0.49696440  0.66942099  0.16870943  1
  I  I70  1  0.49628361  0.66963591  0.49380757  1
  I  I71  1  0.49844976  0.66425905  0.83317919  1
  I  I72  1  0.83579229  0.00012318  0.16788287  1
  I  I73  1  0.83712447  -0.00003232  0.49954505  1
  I  I74  1  0.83239799  0.00018386  0.83279573  1
  I  I75  1  0.83632565  0.33716773  0.15970511  1
  I  I76  1  0.82806543  0.33365806  0.49932831  1
  I  I77  1  0.83904028  0.33729707  0.83789791  1
  I  I78  1  0.83209674  0.66367785  0.16076708  1
  I  I79  1  0.83724646  0.66629312  0.50035907  1
  I  I80  1  0.83052054  0.66242775  0.83745450  1
  I  I81  1  0.16918482  0.17036910  -0.00329021  1
  I  I82  1  0.16902509  0.17135041  0.33565162  1
  I  I83  1  0.17283390  0.16609524  0.66866353  1
  I  I84  1  0.16806394  0.49810310  -0.00351989  1
  I  I85  1  0.16430779  0.49719956  0.33583611  1
  I  I86  1  0.16473092  0.50255380  0.66891480  1
  I  I87  1  0.17390834  0.83119043  -0.00074699  1
  I  I88  1  0.16965704  0.83191525  0.33094793  1
  I  I89  1  0.16901940  0.83173437  0.66939304  1
  I  I90  1  0.49308989  0.16536845  -0.00116241  1
  I  I91  1  0.49853681  0.16377925  0.33105960  1
  I  I92  1  0.49718674  0.16956677  0.66993602  1
  I  I93  1  0.49386119  0.50133011  -0.00351708  1
  I  I94  1  0.50117025  0.49794844  0.33351711  1
  I  I95  1  0.50446332  0.49543194  0.67122193  1
  I  I96  1  0.49690163  0.83352514  0.00242627  1
  I  I97  1  0.49194042  0.83784829  0.33170102  1
  I  I98  1  0.49610104  0.83164694  0.66528345  1
  I  I99  1  0.83868964  0.16601390  0.00001319  1
  I  I100  1  0.83387472  0.16966919  0.33311279  1
  I  I101  1  0.82707082  0.16875245  0.66693933  1
  I  I102  1  0.83633315  0.50097640  -0.00169666  1
  I  I103  1  0.83417404  0.50145477  0.33096903  1
  I  I104  1  0.83214958  0.50026663  0.67005914  1
  I  I105  1  0.82922474  0.83359134  -0.00017016  1
  I  I106  1  0.84095156  0.82892004  0.33308698  1
  I  I107  1  0.83305126  0.83044758  0.66687523  1
  I  I108  1  -0.00009715  0.16507379  0.16727564  1
  I  I109  1  0.00548761  0.16996640  0.50773989  1
  I  I110  1  0.00367651  0.16701814  0.82877397  1
  I  I111  1  -0.00231392  0.50190117  0.16019337  1
  I  I112  1  0.00409848  0.49879481  0.50692561  1
  I  I113  1  0.00147170  0.50104942  0.83325475  1
  I  I114  1  0.00273084  0.83176834  0.16243228  1
  I  I115  1  0.00038058  0.83257581  0.49983939  1
  I  I116  1  0.00564225  0.83459618  0.83827288  1
  I  I117  1  0.33618083  0.16634359  0.16443045  1
  I  I118  1  0.33013617  0.17027558  0.50330849  1
  I  I119  1  0.33260950  0.17198529  0.83345300  1
  I  I120  1  0.33350530  0.49957238  0.16602059  1
  I  I121  1  0.32938578  0.49680290  0.50582745  1
  I  I122  1  0.33237849  0.49992904  0.82901387  1
  I  I123  1  0.33375774  0.83472058  0.16648078  1
  I  I124  1  0.33530264  0.83268274  0.49840591  1
  I  I125  1  0.33036941  0.82757249  0.83416607  1
  I  I126  1  0.66151079  0.15782927  0.15888508  1
  I  I127  1  0.66621665  0.16488253  0.49995645  1
  I  I128  1  0.66315762  0.16983526  0.83756834  1
  I  I129  1  0.66947268  0.50243146  0.15873485  1
  I  I130  1  0.66641678  0.50228745  0.50079097  1
  I  I131  1  0.66611510  0.49688688  0.83932413  1
  I  I132  1  0.66297179  0.83647037  0.17079298  1
  I  I133  1  0.66148819  0.83269100  0.49358665  1
  I  I134  1  0.66668766  0.83250029  0.83283741  1
