# generated using pymatgen
data_Cs27Sn14Pb13I81
_symmetry_space_group_name_H-M   'P 1'
_cell_length_a   18.97786919
_cell_length_b   18.97408506
_cell_length_c   18.97476395
_cell_angle_alpha   90.00041260
_cell_angle_beta   89.99952705
_cell_angle_gamma   90.00032268
_symmetry_Int_Tables_number   1
_chemical_formula_structural   Cs27Sn14Pb13I81
_chemical_formula_sum   'Cs27 Sn14 Pb13 I81'
_cell_volume   6832.57918714
_cell_formula_units_Z   1
loop_
 _symmetry_equiv_pos_site_id
 _symmetry_equiv_pos_as_xyz
  1  'x, y, z'
loop_
 _atom_site_type_symbol
 _atom_site_label
 _atom_site_symmetry_multiplicity
 _atom_site_fract_x
 _atom_site_fract_y
 _atom_site_fract_z
 _atom_site_occupancy
  Cs  Cs0  1  -0.00143314  0.00151284  0.00122624  1
  Cs  Cs1  1  0.00055854  -0.00049657  0.33234405  1
  Cs  Cs2  1  -0.00083769  0.00237132  0.66727293  1
  Cs  Cs3  1  -0.00017029  0.33079183  0.00108066  1
  Cs  Cs4  1  0.00136117  0.33284664  0.33325186  1
  Cs  Cs5  1  -0.00275313  0.33302764  0.66581607  1
  Cs  Cs6  1  0.00097545  0.66572696  0.00103507  1
  Cs  Cs7  1  0.00199764  0.66820559  0.33105134  1
  Cs  Cs8  1  0.00101186  0.66380330  0.66929084  1
  Cs  Cs9  1  0.33411250  0.00080706  -0.00313379  1
  Cs  Cs10  1  0.33111372  -0.00134198  0.33424161  1
  Cs  Cs11  1  0.33558795  0.00091580  0.66946934  1
  Cs  Cs12  1  0.33975471  0.33250483  0.00019275  1
  Cs  Cs13  1  0.33691465  0.33393249  0.33404106  1
  Cs  Cs14  1  0.34119087  0.33102126  0.66520832  1
  Cs  Cs15  1  0.33183676  0.66582695  -0.00705221  1
  Cs  Cs16  1  0.33092189  0.66812898  0.33245030  1
  Cs  Cs17  1  0.33083418  0.66777191  0.67507935  1
  Cs  Cs18  1  0.67002490  0.00127478  -0.00056055  1
  Cs  Cs19  1  0.66806818  -0.00370789  0.33259254  1
  Cs  Cs20  1  0.66692441  0.00041503  0.66946495  1
  Cs  Cs21  1  0.65997582  0.33220394  0.00029888  1
  Cs  Cs22  1  0.65801141  0.33625204  0.33969700  1
  Cs  Cs23  1  0.66166427  0.34339446  0.65744263  1
  Cs  Cs24  1  0.66778972  0.66552459  0.00002450  1
  Cs  Cs25  1  0.66573038  0.66958796  0.33327261  1
  Cs  Cs26  1  0.66733010  0.66042727  0.66612376  1
  Sn  Sn27  1  0.83377511  0.49933918  0.16678604  1
  Sn  Sn28  1  0.83398056  0.83371854  0.83347376  1
  Sn  Sn29  1  0.83377118  0.83343103  0.50033645  1
  Sn  Sn30  1  0.16623436  0.50085670  0.49939074  1
  Sn  Sn31  1  0.16578291  0.49995403  0.16721670  1
  Sn  Sn32  1  0.49957995  0.83326894  0.49947306  1
  Sn  Sn33  1  0.16605094  0.16664610  0.16584750  1
  Sn  Sn34  1  0.83393932  0.16655149  0.83381026  1
  Sn  Sn35  1  0.83373867  0.16736988  0.16655783  1
  Sn  Sn36  1  0.16569932  0.16687379  0.83415622  1
  Sn  Sn37  1  0.16663369  0.83254290  0.49975620  1
  Sn  Sn38  1  0.83343913  0.83335425  0.16662229  1
  Sn  Sn39  1  0.16699204  0.83337956  0.16679144  1
  Sn  Sn40  1  0.49958901  0.83350553  0.16683960  1
  Pb  Pb41  1  0.83353462  0.49889479  0.83605363  1
  Pb  Pb42  1  0.16640787  0.49642370  0.83362368  1
  Pb  Pb43  1  0.16431872  0.83522660  0.83335891  1
  Pb  Pb44  1  0.83575751  0.50271331  0.49700863  1
  Pb  Pb45  1  0.50138359  0.16647579  0.83343445  1
  Pb  Pb46  1  0.49940276  0.50307996  0.16662182  1
  Pb  Pb47  1  0.49634354  0.50371002  0.49955258  1
  Pb  Pb48  1  0.50326613  0.83333560  0.83335018  1
  Pb  Pb49  1  0.50014946  0.16352869  0.49968887  1
  Pb  Pb50  1  0.50010260  0.50019419  0.83351095  1
  Pb  Pb51  1  0.50021884  0.16392022  0.16688548  1
  Pb  Pb52  1  0.16661301  0.16654575  0.49965732  1
  Pb  Pb53  1  0.83323414  0.16497551  0.49950548  1
  I  I54  1  0.16422115  -0.00095657  0.16758246  1
  I  I55  1  0.16667062  -0.00368186  0.49587528  1
  I  I56  1  0.16445129  0.00296849  0.83761783  1
  I  I57  1  0.15847565  0.33323476  0.16717455  1
  I  I58  1  0.16519402  0.33605581  0.49593637  1
  I  I59  1  0.15864658  0.32869023  0.83746780  1
  I  I60  1  0.16345560  0.66770780  0.17205801  1
  I  I61  1  0.16614485  0.66847540  0.49126475  1
  I  I62  1  0.16638859  0.66671629  0.83524299  1
  I  I63  1  0.50032526  -0.00431206  0.17103998  1
  I  I64  1  0.49649464  -0.00503507  0.49529880  1
  I  I65  1  0.49732541  -0.00029610  0.83224436  1
  I  I66  1  0.50039943  0.33338497  0.16521411  1
  I  I67  1  0.49932549  0.33404177  0.50202659  1
  I  I68  1  0.50056912  0.33296257  0.83385642  1
  I  I69  1  0.50181821  0.67126754  0.17159265  1
  I  I70  1  0.50448322  0.67139756  0.49380318  1
  I  I71  1  0.50024498  0.66749281  0.83426517  1
  I  I72  1  0.83542561  -0.00134068  0.16638695  1
  I  I73  1  0.83666464  -0.00430070  0.49465500  1
  I  I74  1  0.83673956  -0.00060289  0.83824471  1
  I  I75  1  0.84314191  0.33259786  0.16020455  1
  I  I76  1  0.83523465  0.33381471  0.50094994  1
  I  I77  1  0.83905588  0.32945645  0.83944661  1
  I  I78  1  0.83558127  0.66834945  0.16718442  1
  I  I79  1  0.83052393  0.67140817  0.50054742  1
  I  I80  1  0.83214565  0.66945921  0.83415445  1
  I  I81  1  0.16225260  0.16505670  0.00192346  1
  I  I82  1  0.16161211  0.16506295  0.32966655  1
  I  I83  1  0.16196020  0.16482588  0.66942408  1
  I  I84  1  0.16268210  0.50472183  0.00381280  1
  I  I85  1  0.16234142  0.50029538  0.33168731  1
  I  I86  1  0.16770886  0.50647684  0.66384663  1
  I  I87  1  0.16703739  0.83037855  0.00351756  1
  I  I88  1  0.16324722  0.83494738  0.33201506  1
  I  I89  1  0.16704465  0.83017657  0.66374491  1
  I  I90  1  0.49886990  0.16352106  0.00026965  1
  I  I91  1  0.49966336  0.16818422  0.33291156  1
  I  I92  1  0.49778214  0.16359462  0.66679513  1
  I  I93  1  0.49800360  0.50304008  0.00069983  1
  I  I94  1  0.50305578  0.49743251  0.33317501  1
  I  I95  1  0.49925843  0.50209487  0.66602676  1
  I  I96  1  0.49935616  0.83355935  0.00318964  1
  I  I97  1  0.50444188  0.83383609  0.33272196  1
  I  I98  1  0.49838035  0.83356502  0.66343959  1
  I  I99  1  0.83840074  0.15954545  0.00135794  1
  I  I100  1  0.83935769  0.16399454  0.32942716  1
  I  I101  1  0.83930583  0.15867668  0.66982317  1
  I  I102  1  0.84069850  0.50719418  0.00431248  1
  I  I103  1  0.83565667  0.49979455  0.32887145  1
  I  I104  1  0.83383444  0.50071632  0.66629721  1
  I  I105  1  0.83324255  0.83395463  0.00175593  1
  I  I106  1  0.83310932  0.83357312  0.33200069  1
  I  I107  1  0.83370769  0.83936128  0.66643398  1
  I  I108  1  0.00012331  0.16169718  0.16304922  1
  I  I109  1  0.00008829  0.16299484  0.50057933  1
  I  I110  1  -0.00073147  0.16153012  0.83829810  1
  I  I111  1  0.00059634  0.50504730  0.16973806  1
  I  I112  1  0.00346347  0.50656263  0.49774666  1
  I  I113  1  0.00003879  0.50368394  0.83062156  1
  I  I114  1  -0.00022752  0.83362686  0.16907333  1
  I  I115  1  0.00028289  0.83057497  0.49579656  1
  I  I116  1  -0.00371245  0.83509825  0.83421255  1
  I  I117  1  0.32975158  0.16664471  0.16323116  1
  I  I118  1  0.33289314  0.16465188  0.50054023  1
  I  I119  1  0.33049870  0.16665222  0.83779323  1
  I  I120  1  0.32940711  0.49917286  0.17061093  1
  I  I121  1  0.32867677  0.50386458  0.49191627  1
  I  I122  1  0.33262525  0.49983448  0.83561313  1
  I  I123  1  0.33199401  0.83396468  0.17411584  1
  I  I124  1  0.33228603  0.83034593  0.49107881  1
  I  I125  1  0.33308087  0.83486392  0.83336907  1
  I  I126  1  0.67040240  0.16520898  0.16147941  1
  I  I127  1  0.66696120  0.16481118  0.49992650  1
  I  I128  1  0.67102641  0.15917792  0.84068482  1
  I  I129  1  0.66971112  0.50086320  0.16426737  1
  I  I130  1  0.66664096  0.50004934  0.50017612  1
  I  I131  1  0.66731386  0.49965159  0.83506661  1
  I  I132  1  0.66839157  0.83367987  0.16939390  1
  I  I133  1  0.66742053  0.83637131  0.49553139  1
  I  I134  1  0.67140222  0.84029369  0.83507481  1
