# generated using pymatgen
data_Cs27Sn13Pb14I81
_symmetry_space_group_name_H-M   'P 1'
_cell_length_a   18.98062488
_cell_length_b   18.97507925
_cell_length_c   18.97198107
_cell_angle_alpha   90.00010160
_cell_angle_beta   90.00211981
_cell_angle_gamma   90.00212279
_symmetry_Int_Tables_number   1
_chemical_formula_structural   Cs27Sn13Pb14I81
_chemical_formula_sum   'Cs27 Sn13 Pb14 I81'
_cell_volume   6832.92709076
_cell_formula_units_Z   1
loop_
 _symmetry_equiv_pos_site_id
 _symmetry_equiv_pos_as_xyz
  1  'x, y, z'
loop_
 _atom_site_type_symbol
 _atom_site_label
 _atom_site_symmetry_multiplicity
 _atom_site_fract_x
 _atom_site_fract_y
 _atom_site_fract_z
 _atom_site_occupancy
  Cs  Cs0  1  -0.00153321  -0.00176659  -0.00503361  1
  Cs  Cs1  1  0.00394027  0.00081022  0.33594482  1
  Cs  Cs2  1  0.00085389  0.00045962  0.66759213  1
  Cs  Cs3  1  0.00139583  0.33671431  0.00916918  1
  Cs  Cs4  1  0.00084146  0.33368730  0.32977855  1
  Cs  Cs5  1  -0.00009056  0.33708986  0.66449670  1
  Cs  Cs6  1  0.00175675  0.66622644  0.00020458  1
  Cs  Cs7  1  -0.00194381  0.66578276  0.33288387  1
  Cs  Cs8  1  -0.00221576  0.66469373  0.66673812  1
  Cs  Cs9  1  0.33473359  -0.00105035  0.00030897  1
  Cs  Cs10  1  0.32956938  0.00048164  0.33534808  1
  Cs  Cs11  1  0.32838997  -0.00167200  0.66442425  1
  Cs  Cs12  1  0.33332661  0.33342739  -0.00277148  1
  Cs  Cs13  1  0.33044734  0.32786918  0.33151962  1
  Cs  Cs14  1  0.33577397  0.33767064  0.67081901  1
  Cs  Cs15  1  0.33250615  0.66666688  -0.00062309  1
  Cs  Cs16  1  0.33931018  0.67030676  0.33453324  1
  Cs  Cs17  1  0.33663688  0.66431852  0.66590286  1
  Cs  Cs18  1  0.66632635  0.00344930  -0.00303527  1
  Cs  Cs19  1  0.66585744  -0.00023143  0.33361372  1
  Cs  Cs20  1  0.66932878  0.00189332  0.66889245  1
  Cs  Cs21  1  0.66562050  0.32251339  0.00141651  1
  Cs  Cs22  1  0.66849438  0.33234664  0.33336925  1
  Cs  Cs23  1  0.66444232  0.33366189  0.66640722  1
  Cs  Cs24  1  0.66629462  0.67001810  0.00374170  1
  Cs  Cs25  1  0.66558839  0.66694871  0.33320998  1
  Cs  Cs26  1  0.66769332  0.66478634  0.66459609  1
  Sn  Sn27  1  0.16757352  0.83365459  0.83380302  1
  Sn  Sn28  1  0.16661011  0.50041193  0.49976677  1
  Sn  Sn29  1  0.83401754  0.49982260  0.50053617  1
  Sn  Sn30  1  0.16627378  0.16678766  0.83349533  1
  Sn  Sn31  1  0.49997755  0.83278919  0.16585044  1
  Sn  Sn32  1  0.50024267  0.16647331  0.50018235  1
  Sn  Sn33  1  0.49944414  0.83302361  0.83348984  1
  Sn  Sn34  1  0.16674467  0.83313279  0.16613947  1
  Sn  Sn35  1  0.83337577  0.83347881  0.49937466  1
  Sn  Sn36  1  0.83334866  0.83343959  0.16744495  1
  Sn  Sn37  1  0.83285469  0.16676783  0.50010701  1
  Sn  Sn38  1  0.83292530  0.49981787  0.83377162  1
  Sn  Sn39  1  0.50019625  0.49995240  0.16643661  1
  Pb  Pb40  1  0.50051800  0.49796960  0.49804984  1
  Pb  Pb41  1  0.50272125  0.50207322  0.83582466  1
  Pb  Pb42  1  0.49800107  0.16410276  0.83099215  1
  Pb  Pb43  1  0.49989651  0.16578203  0.16851388  1
  Pb  Pb44  1  0.16507843  0.50067732  0.83210727  1
  Pb  Pb45  1  0.16629425  0.16903144  0.50188583  1
  Pb  Pb46  1  0.16444531  0.83133359  0.50045713  1
  Pb  Pb47  1  0.83362171  0.16348518  0.16908712  1
  Pb  Pb48  1  0.16911665  0.50258643  0.16908975  1
  Pb  Pb49  1  0.16663864  0.16397234  0.16375500  1
  Pb  Pb50  1  0.50229088  0.83508579  0.50015184  1
  Pb  Pb51  1  0.83566822  0.16966020  0.83126627  1
  Pb  Pb52  1  0.83344329  0.83199963  0.83339028  1
  Pb  Pb53  1  0.83145237  0.50173291  0.16694116  1
  I  I54  1  0.16962285  -0.00466777  0.16846483  1
  I  I55  1  0.16558305  -0.00022882  0.49854378  1
  I  I56  1  0.16926887  -0.00187245  0.83549085  1
  I  I57  1  0.16830650  0.33364311  0.16613113  1
  I  I58  1  0.16148064  0.33656260  0.50197362  1
  I  I59  1  0.16472770  0.33151631  0.82825936  1
  I  I60  1  0.16395047  0.67079149  0.16028797  1
  I  I61  1  0.16073098  0.66382400  0.50153690  1
  I  I62  1  0.16855376  0.66993765  0.83647243  1
  I  I63  1  0.50051879  -0.00404393  0.16397486  1
  I  I64  1  0.50516541  0.00267444  0.49860603  1
  I  I65  1  0.50084413  -0.00396296  0.84014039  1
  I  I66  1  0.50157256  0.33559677  0.16997920  1
  I  I67  1  0.50516097  0.33044007  0.49821171  1
  I  I68  1  0.49868407  0.33329566  0.83430529  1
  I  I69  1  0.50045692  0.66882398  0.16528194  1
  I  I70  1  0.50081621  0.66684625  0.50092906  1
  I  I71  1  0.49358611  0.67027383  0.83347203  1
  I  I72  1  0.83027550  -0.00505692  0.17037691  1
  I  I73  1  0.82872535  -0.00037603  0.49506459  1
  I  I74  1  0.83226591  -0.00006117  0.83226813  1
  I  I75  1  0.83102953  0.33341466  0.16670239  1
  I  I76  1  0.83300681  0.33392807  0.50584255  1
  I  I77  1  0.83445534  0.33723183  0.82689419  1
  I  I78  1  0.83418631  0.67017632  0.17219425  1
  I  I79  1  0.83777834  0.66651019  0.50006191  1
  I  I80  1  0.83515319  0.66447178  0.82636746  1
  I  I81  1  0.16722927  0.16602693  -0.00405008  1
  I  I82  1  0.16697255  0.16600033  0.33358019  1
  I  I83  1  0.16627860  0.15813667  0.66931872  1
  I  I84  1  0.16477171  0.49833430  0.00017473  1
  I  I85  1  0.15861591  0.49997176  0.33678754  1
  I  I86  1  0.16423322  0.50200275  0.66395028  1
  I  I87  1  0.16502270  0.83652000  0.00001890  1
  I  I88  1  0.16903270  0.83082039  0.33086561  1
  I  I89  1  0.16944363  0.83579594  0.66953059  1
  I  I90  1  0.49894439  0.16830518  -0.00024198  1
  I  I91  1  0.50385081  0.16494373  0.33648565  1
  I  I92  1  0.50500457  0.16636129  0.66337692  1
  I  I93  1  0.50059938  0.50344097  0.00347911  1
  I  I94  1  0.50174822  0.50871665  0.33053030  1
  I  I95  1  0.49874402  0.50082854  0.66663989  1
  I  I96  1  0.50138403  0.82966597  0.00092358  1
  I  I97  1  0.49848093  0.83105273  0.33046531  1
  I  I98  1  0.49627924  0.83538175  0.66913970  1
  I  I99  1  0.83382634  0.16708043  -0.00023267  1
  I  I100  1  0.83062554  0.17181069  0.33769921  1
  I  I101  1  0.83037951  0.16088626  0.66285790  1
  I  I102  1  0.83319051  0.50464944  -0.00197671  1
  I  I103  1  0.83561657  0.49915982  0.33654414  1
  I  I104  1  0.83672045  0.50340632  0.66466194  1
  I  I105  1  0.83342456  0.82959671  0.00249187  1
  I  I106  1  0.83285808  0.83117313  0.33348383  1
  I  I107  1  0.83337107  0.83395483  0.66401838  1
  I  I108  1  0.00010258  0.16666459  0.16960006  1
  I  I109  1  -0.00299457  0.16464613  0.50161121  1
  I  I110  1  0.00305207  0.15712499  0.83017376  1
  I  I111  1  -0.00006728  0.50193941  0.16579194  1
  I  I112  1  -0.00186495  0.49917981  0.50351240  1
  I  I113  1  -0.00282537  0.50318936  0.82991949  1
  I  I114  1  -0.00002744  0.83382179  0.16679453  1
  I  I115  1  -0.00373138  0.83692887  0.49670410  1
  I  I116  1  0.00247881  0.83536942  0.83590478  1
  I  I117  1  0.33330732  0.16504436  0.17185449  1
  I  I118  1  0.33526296  0.16739326  0.50033716  1
  I  I119  1  0.33024418  0.16539374  0.83002455  1
  I  I120  1  0.33663858  0.50667885  0.16872823  1
  I  I121  1  0.33140168  0.49900487  0.49905061  1
  I  I122  1  0.33347559  0.49886056  0.83125977  1
  I  I123  1  0.33367981  0.82933088  0.16179975  1
  I  I124  1  0.33330013  0.83360327  0.49783084  1
  I  I125  1  0.33285763  0.83624884  0.84057449  1
  I  I126  1  0.66676210  0.16455649  0.16491713  1
  I  I127  1  0.66809222  0.16790303  0.49992825  1
  I  I128  1  0.66678701  0.16570056  0.83354189  1
  I  I129  1  0.66392654  0.50842260  0.16920023  1
  I  I130  1  0.66992853  0.50207946  0.50209854  1
  I  I131  1  0.67016049  0.50299513  0.82452618  1
  I  I132  1  0.66632678  0.82872616  0.16768114  1
  I  I133  1  0.67042010  0.82851781  0.49665952  1
  I  I134  1  0.66463481  0.83081609  0.83626046  1
