# generated using pymatgen
data_Cs27Sn14Pb13I81
_symmetry_space_group_name_H-M   'P 1'
_cell_length_a   19.02392233
_cell_length_b   19.03805304
_cell_length_c   19.03693789
_cell_angle_alpha   90.00027310
_cell_angle_beta   89.99970841
_cell_angle_gamma   89.99772828
_symmetry_Int_Tables_number   1
_chemical_formula_structural   Cs27Sn14Pb13I81
_chemical_formula_sum   'Cs27 Sn14 Pb13 I81'
_cell_volume   6894.76850801
_cell_formula_units_Z   1
loop_
 _symmetry_equiv_pos_site_id
 _symmetry_equiv_pos_as_xyz
  1  'x, y, z'
loop_
 _atom_site_type_symbol
 _atom_site_label
 _atom_site_symmetry_multiplicity
 _atom_site_fract_x
 _atom_site_fract_y
 _atom_site_fract_z
 _atom_site_occupancy
  Cs  Cs0  1  -0.00288958  -0.00099940  -0.00120383  1
  Cs  Cs1  1  0.00366099  -0.00154048  0.33237770  1
  Cs  Cs2  1  0.00195499  0.00134854  0.66742408  1
  Cs  Cs3  1  0.00178253  0.33543854  0.00007891  1
  Cs  Cs4  1  0.00186292  0.33505845  0.33374386  1
  Cs  Cs5  1  -0.00052635  0.33898727  0.66646006  1
  Cs  Cs6  1  -0.00415056  0.66686865  0.00112373  1
  Cs  Cs7  1  -0.00083302  0.66607046  0.33554649  1
  Cs  Cs8  1  -0.00084165  0.66192261  0.66347005  1
  Cs  Cs9  1  0.33014162  -0.00220694  0.00150825  1
  Cs  Cs10  1  0.33068216  -0.00511741  0.33338872  1
  Cs  Cs11  1  0.33247136  -0.00180007  0.66694988  1
  Cs  Cs12  1  0.34029674  0.33872978  -0.00173949  1
  Cs  Cs13  1  0.33226480  0.33207742  0.33276051  1
  Cs  Cs14  1  0.33435790  0.33693863  0.66947966  1
  Cs  Cs15  1  0.33660469  0.66503271  -0.00315801  1
  Cs  Cs16  1  0.33281247  0.67129884  0.33583738  1
  Cs  Cs17  1  0.33550546  0.66637584  0.66583944  1
  Cs  Cs18  1  0.67888769  0.00557553  -0.01559323  1
  Cs  Cs19  1  0.66457924  0.00983252  0.33261077  1
  Cs  Cs20  1  0.66768726  0.01108121  0.67789885  1
  Cs  Cs21  1  0.65471966  0.32756057  0.01439171  1
  Cs  Cs22  1  0.66311933  0.32430432  0.32302355  1
  Cs  Cs23  1  0.67149095  0.32216544  0.66634919  1
  Cs  Cs24  1  0.66882609  0.66716645  0.00040995  1
  Cs  Cs25  1  0.66578275  0.66496819  0.33499351  1
  Cs  Cs26  1  0.66867419  0.66799848  0.66472550  1
  Sn  Sn27  1  0.16635883  0.83309228  0.50042845  1
  Sn  Sn28  1  0.16645391  0.83328640  0.83323184  1
  Sn  Sn29  1  0.83226071  0.83330886  0.49952805  1
  Sn  Sn30  1  0.16665523  0.16610663  0.83330205  1
  Sn  Sn31  1  0.50007627  0.83357849  0.16720376  1
  Sn  Sn32  1  0.16730359  0.50019131  0.49905503  1
  Sn  Sn33  1  0.16715673  0.83269656  0.16641454  1
  Sn  Sn34  1  0.16676156  0.16686081  0.50028130  1
  Sn  Sn35  1  0.50081164  0.50036302  0.50029862  1
  Sn  Sn36  1  0.16678973  0.50084866  0.16772044  1
  Sn  Sn37  1  0.83209306  0.50052149  0.50033089  1
  Sn  Sn38  1  0.50114982  0.83288891  0.49924087  1
  Sn  Sn39  1  0.83260287  0.49978008  0.83309346  1
  Sn  Sn40  1  0.16682773  0.16671571  0.16647235  1
  Pb  Pb41  1  0.16577070  0.50043192  0.83335232  1
  Pb  Pb42  1  0.49690391  0.16612399  0.50003011  1
  Pb  Pb43  1  0.49709639  0.50304703  0.16960502  1
  Pb  Pb44  1  0.49652511  0.16239584  0.16664471  1
  Pb  Pb45  1  0.49809233  0.83304899  0.83315849  1
  Pb  Pb46  1  0.83613862  0.16679442  0.49972382  1
  Pb  Pb47  1  0.50375902  0.50027546  0.83017628  1
  Pb  Pb48  1  0.83254865  0.83329354  0.16959633  1
  Pb  Pb49  1  0.83682221  0.17031732  0.83347691  1
  Pb  Pb50  1  0.83623852  0.83109467  0.83023565  1
  Pb  Pb51  1  0.83635366  0.16635193  0.16668106  1
  Pb  Pb52  1  0.83503415  0.50018637  0.16769808  1
  Pb  Pb53  1  0.49659763  0.16677005  0.83348797  1
  I  I54  1  0.17108183  -0.00084882  0.17062012  1
  I  I55  1  0.16628885  -0.00120024  0.49783658  1
  I  I56  1  0.16691670  -0.00064161  0.83153691  1
  I  I57  1  0.16239439  0.33353765  0.17138778  1
  I  I58  1  0.16568138  0.33409892  0.49692498  1
  I  I59  1  0.16326783  0.33126276  0.83248424  1
  I  I60  1  0.16967810  0.66736162  0.17071971  1
  I  I61  1  0.16600851  0.66683850  0.49780538  1
  I  I62  1  0.16540022  0.66932697  0.83273275  1
  I  I63  1  0.48966318  -0.00463857  0.17954990  1
  I  I64  1  0.49812659  -0.00362822  0.49437898  1
  I  I65  1  0.50446268  -0.00031992  0.82921142  1
  I  I66  1  0.50042644  0.33302906  0.16667747  1
  I  I67  1  0.49866817  0.33617033  0.50273682  1
  I  I68  1  0.49501348  0.33381018  0.83085836  1
  I  I69  1  0.49002293  0.67018247  0.16855818  1
  I  I70  1  0.49268257  0.66731363  0.49630143  1
  I  I71  1  0.49326280  0.66663556  0.83662924  1
  I  I72  1  0.83702894  -0.00044046  0.16968321  1
  I  I73  1  0.83543202  -0.00309817  0.49701076  1
  I  I74  1  0.83021721  0.00032435  0.83307341  1
  I  I75  1  0.83606264  0.33358634  0.16977827  1
  I  I76  1  0.83578528  0.33665603  0.50613305  1
  I  I77  1  0.83953776  0.33722314  0.81910856  1
  I  I78  1  0.83965075  0.66677297  0.16216395  1
  I  I79  1  0.84133780  0.66643709  0.50391282  1
  I  I80  1  0.83959483  0.66392884  0.83048831  1
  I  I81  1  0.16551619  0.16209127  0.00031806  1
  I  I82  1  0.16623935  0.16415798  0.33365276  1
  I  I83  1  0.16612441  0.16230382  0.66596094  1
  I  I84  1  0.16247377  0.49974684  0.00261148  1
  I  I85  1  0.16368733  0.49943607  0.33522301  1
  I  I86  1  0.16844049  0.50000416  0.66317523  1
  I  I87  1  0.17266974  0.83647296  0.00081449  1
  I  I88  1  0.16643439  0.83567521  0.33436828  1
  I  I89  1  0.16640027  0.83661587  0.66485288  1
  I  I90  1  0.49718706  0.16788379  0.00038703  1
  I  I91  1  0.49960289  0.17136290  0.33344217  1
  I  I92  1  0.49687652  0.16368205  0.66635424  1
  I  I93  1  0.49946886  0.49982754  0.00018038  1
  I  I94  1  0.50563461  0.50170015  0.33732150  1
  I  I95  1  0.48748317  0.50957157  0.66201542  1
  I  I96  1  0.48892541  0.83336516  0.00296595  1
  I  I97  1  0.49046732  0.82778404  0.33492849  1
  I  I98  1  0.49658869  0.82790695  0.66298852  1
  I  I99  1  0.83699245  0.16705999  -0.00037400  1
  I  I100  1  0.83556696  0.17019588  0.33366974  1
  I  I101  1  0.83605302  0.16303766  0.66644820  1
  I  I102  1  0.84219691  0.49980022  -0.00219847  1
  I  I103  1  0.83424874  0.50609566  0.33733256  1
  I  I104  1  0.83974461  0.50537427  0.66402451  1
  I  I105  1  0.83389026  0.83206698  -0.00017608  1
  I  I106  1  0.84306249  0.82346543  0.33751543  1
  I  I107  1  0.83452750  0.83062728  0.66236788  1
  I  I108  1  0.00562493  0.16233840  0.16817166  1
  I  I109  1  0.00485637  0.16596768  0.49927260  1
  I  I110  1  0.00434650  0.16001460  0.83295542  1
  I  I111  1  0.00402652  0.50268147  0.17407660  1
  I  I112  1  0.00130687  0.50248991  0.50040182  1
  I  I113  1  -0.00138579  0.50015189  0.82418080  1
  I  I114  1  0.00401168  0.83464671  0.16712240  1
  I  I115  1  0.00226829  0.83082651  0.50065081  1
  I  I116  1  0.00423555  0.83895482  0.83539403  1
  I  I117  1  0.32848407  0.17049886  0.16813978  1
  I  I118  1  0.32833870  0.16671694  0.49924541  1
  I  I119  1  0.32798658  0.16324245  0.83195264  1
  I  I120  1  0.32891923  0.49525875  0.17113364  1
  I  I121  1  0.33175270  0.50265764  0.49390472  1
  I  I122  1  0.33346349  0.49800501  0.83401881  1
  I  I123  1  0.33032164  0.83401241  0.17359581  1
  I  I124  1  0.33132729  0.83125981  0.49968347  1
  I  I125  1  0.32932760  0.83700761  0.82718375  1
  I  I126  1  0.66586412  0.16758393  0.16689806  1
  I  I127  1  0.66657330  0.16643484  0.50100444  1
  I  I128  1  0.66715414  0.16603477  0.83237078  1
  I  I129  1  0.66620421  0.50134394  0.16537009  1
  I  I130  1  0.66677043  0.51372096  0.50795676  1
  I  I131  1  0.67132917  0.50427041  0.82470453  1
  I  I132  1  0.66323434  0.82939754  0.17508080  1
  I  I133  1  0.66634207  0.81987144  0.49236183  1
  I  I134  1  0.66701151  0.83211173  0.83552980  1
