# generated using pymatgen
data_Cs27Sn14Pb13I81
_symmetry_space_group_name_H-M   'P 1'
_cell_length_a   18.97064540
_cell_length_b   18.98300956
_cell_length_c   18.97819728
_cell_angle_alpha   89.99822933
_cell_angle_beta   90.00046271
_cell_angle_gamma   90.00086836
_symmetry_Int_Tables_number   1
_chemical_formula_structural   Cs27Sn14Pb13I81
_chemical_formula_sum   'Cs27 Sn14 Pb13 I81'
_cell_volume   6834.42731651
_cell_formula_units_Z   1
loop_
 _symmetry_equiv_pos_site_id
 _symmetry_equiv_pos_as_xyz
  1  'x, y, z'
loop_
 _atom_site_type_symbol
 _atom_site_label
 _atom_site_symmetry_multiplicity
 _atom_site_fract_x
 _atom_site_fract_y
 _atom_site_fract_z
 _atom_site_occupancy
  Cs  Cs0  1  0.00163701  -0.00358586  -0.00111879  1
  Cs  Cs1  1  0.00204076  -0.00434732  0.33465753  1
  Cs  Cs2  1  0.00169834  0.00298142  0.66598245  1
  Cs  Cs3  1  -0.00389995  0.33726699  0.00028640  1
  Cs  Cs4  1  -0.00142074  0.33308397  0.33300863  1
  Cs  Cs5  1  0.00634837  0.33331035  0.66645923  1
  Cs  Cs6  1  -0.00079188  0.66636361  -0.00155882  1
  Cs  Cs7  1  0.00260766  0.67115288  0.33423724  1
  Cs  Cs8  1  0.00750313  0.66222502  0.66628587  1
  Cs  Cs9  1  0.33266846  -0.00206179  0.00038757  1
  Cs  Cs10  1  0.33025239  -0.00239361  0.33193489  1
  Cs  Cs11  1  0.32881678  0.00349748  0.66724568  1
  Cs  Cs12  1  0.33542581  0.33212390  0.00238629  1
  Cs  Cs13  1  0.33386083  0.33395335  0.33250756  1
  Cs  Cs14  1  0.33034399  0.33247512  0.66526153  1
  Cs  Cs15  1  0.33491572  0.66891497  0.00291078  1
  Cs  Cs16  1  0.33315832  0.66609441  0.33097297  1
  Cs  Cs17  1  0.33207107  0.66457148  0.66467361  1
  Cs  Cs18  1  0.66628963  0.00096648  -0.00123147  1
  Cs  Cs19  1  0.66779006  0.00131344  0.33527586  1
  Cs  Cs20  1  0.66705116  0.00008935  0.66736834  1
  Cs  Cs21  1  0.66823361  0.33232245  0.00112105  1
  Cs  Cs22  1  0.66723797  0.33162001  0.33323478  1
  Cs  Cs23  1  0.66605532  0.33224579  0.66602871  1
  Cs  Cs24  1  0.66667374  0.66655567  -0.00121032  1
  Cs  Cs25  1  0.66574088  0.66746572  0.33650690  1
  Cs  Cs26  1  0.66580566  0.66841074  0.66602785  1
  Sn  Sn27  1  0.50098306  0.49898661  0.50001556  1
  Sn  Sn28  1  0.50037403  0.49981456  0.83332493  1
  Sn  Sn29  1  0.83236104  0.16772842  0.50095659  1
  Sn  Sn30  1  0.16651898  0.16776125  0.16629825  1
  Sn  Sn31  1  0.50074773  0.83352428  0.83389583  1
  Sn  Sn32  1  0.50079809  0.16665932  0.83256468  1
  Sn  Sn33  1  0.49999970  0.50052205  0.16660301  1
  Sn  Sn34  1  0.50157298  0.83273014  0.16614928  1
  Sn  Sn35  1  0.83243443  0.49928962  0.50013681  1
  Sn  Sn36  1  0.16710902  0.49871400  0.16646110  1
  Sn  Sn37  1  0.83245179  0.83390077  0.83377015  1
  Sn  Sn38  1  0.83248585  0.16626017  0.83266703  1
  Sn  Sn39  1  0.83179533  0.83329980  0.16588967  1
  Sn  Sn40  1  0.50079130  0.16728543  0.50066020  1
  Pb  Pb41  1  0.83545849  0.16437198  0.16652577  1
  Pb  Pb42  1  0.83315627  0.83350419  0.50126739  1
  Pb  Pb43  1  0.49907775  0.16632012  0.16676157  1
  Pb  Pb44  1  0.16694584  0.83274386  0.16639904  1
  Pb  Pb45  1  0.16991365  0.49983364  0.83632376  1
  Pb  Pb46  1  0.16641963  0.16687993  0.83578375  1
  Pb  Pb47  1  0.16690281  0.83333557  0.50043155  1
  Pb  Pb48  1  0.16670995  0.16687274  0.49770501  1
  Pb  Pb49  1  0.16681680  0.83334648  0.83328311  1
  Pb  Pb50  1  0.83128547  0.50001365  0.83093138  1
  Pb  Pb51  1  0.49981406  0.83373317  0.50049915  1
  Pb  Pb52  1  0.16719913  0.49976803  0.49752939  1
  Pb  Pb53  1  0.83267511  0.50233218  0.16889252  1
  I  I54  1  0.16729324  0.00180820  0.16763996  1
  I  I55  1  0.16717080  0.00065672  0.49501559  1
  I  I56  1  0.17194590  0.00026452  0.83708394  1
  I  I57  1  0.17408313  0.33433262  0.16717454  1
  I  I58  1  0.16654155  0.33333993  0.49978784  1
  I  I59  1  0.16613259  0.33334873  0.83343156  1
  I  I60  1  0.16964710  0.66390049  0.16796611  1
  I  I61  1  0.16563072  0.66602438  0.49692186  1
  I  I62  1  0.16466743  0.66649543  0.83531034  1
  I  I63  1  0.50111421  -0.00264342  0.16384175  1
  I  I64  1  0.50475832  0.00340113  0.50183061  1
  I  I65  1  0.50389027  0.00016942  0.83432371  1
  I  I66  1  0.49661716  0.33592675  0.16486351  1
  I  I67  1  0.50350745  0.33363143  0.50198263  1
  I  I68  1  0.50327116  0.33301594  0.83383362  1
  I  I69  1  0.49712940  0.66607681  0.16437554  1
  I  I70  1  0.50375665  0.66347775  0.50131031  1
  I  I71  1  0.50359363  0.66679919  0.83477249  1
  I  I72  1  0.82832826  -0.00333309  0.16777562  1
  I  I73  1  0.82858236  0.00315700  0.49990868  1
  I  I74  1  0.82523331  0.00040027  0.83235571  1
  I  I75  1  0.83239342  0.33338646  0.16481416  1
  I  I76  1  0.82866779  0.33249709  0.50365634  1
  I  I77  1  0.82893955  0.33047004  0.83196904  1
  I  I78  1  0.83397487  0.67010279  0.16166618  1
  I  I79  1  0.82829280  0.66400979  0.49804590  1
  I  I80  1  0.82888196  0.66940973  0.83702955  1
  I  I81  1  0.16852981  0.17012006  0.00335636  1
  I  I82  1  0.16794875  0.16991086  0.33009233  1
  I  I83  1  0.16710277  0.16535312  0.66674982  1
  I  I84  1  0.17117136  0.49668195  0.00429441  1
  I  I85  1  0.17347491  0.49706847  0.32982517  1
  I  I86  1  0.16681147  0.50151519  0.66660360  1
  I  I87  1  0.16657575  0.83379990  0.00016773  1
  I  I88  1  0.16592627  0.83430153  0.33255818  1
  I  I89  1  0.16672183  0.83343919  0.66715362  1
  I  I90  1  0.50273131  0.16887429  -0.00289102  1
  I  I91  1  0.50274604  0.17010672  0.33594706  1
  I  I92  1  0.50325904  0.16906607  0.66716518  1
  I  I93  1  0.49451170  0.50085341  0.00008851  1
  I  I94  1  0.49915813  0.50020936  0.33323427  1
  I  I95  1  0.50593413  0.50054477  0.66654917  1
  I  I96  1  0.50293881  0.83032561  -0.00006222  1
  I  I97  1  0.50260032  0.83007428  0.33032883  1
  I  I98  1  0.50559836  0.83062101  0.67023392  1
  I  I99  1  0.82915262  0.16441439  -0.00297954  1
  I  I100  1  0.82966269  0.16910790  0.33613962  1
  I  I101  1  0.82871259  0.16356890  0.66701669  1
  I  I102  1  0.83374477  0.49758574  -0.00006310  1
  I  I103  1  0.82754326  0.49494923  0.33658603  1
  I  I104  1  0.82650567  0.50139961  0.66312066  1
  I  I105  1  0.82946468  0.83879552  -0.00066330  1
  I  I106  1  0.83043047  0.83281337  0.33105048  1
  I  I107  1  0.82624645  0.83486199  0.67023801  1
  I  I108  1  0.00301189  0.17175013  0.16709636  1
  I  I109  1  -0.00349575  0.16993984  0.50386506  1
  I  I110  1  -0.00362240  0.16068685  0.82965125  1
  I  I111  1  0.00197208  0.49768839  0.16957370  1
  I  I112  1  -0.00288854  0.49682755  0.49877615  1
  I  I113  1  -0.00022674  0.50052205  0.83270392  1
  I  I114  1  -0.00277241  0.83419648  0.16359331  1
  I  I115  1  -0.00077643  0.83297846  0.49696290  1
  I  I116  1  -0.00385621  0.83914120  0.83814578  1
  I  I117  1  0.33135914  0.16600734  0.16700565  1
  I  I118  1  0.33683158  0.17059922  0.50399497  1
  I  I119  1  0.33710306  0.16588231  0.82966267  1
  I  I120  1  0.33556292  0.50239515  0.16849080  1
  I  I121  1  0.33731296  0.49628039  0.50222347  1
  I  I122  1  0.33882334  0.50028369  0.82709817  1
  I  I123  1  0.33664788  0.83244683  0.16287010  1
  I  I124  1  0.33421722  0.83349060  0.49810275  1
  I  I125  1  0.33762573  0.83397859  0.83865423  1
  I  I126  1  0.66678971  0.16862839  0.16720194  1
  I  I127  1  0.66624263  0.17107795  0.50253743  1
  I  I128  1  0.66563950  0.16527247  0.83030927  1
  I  I129  1  0.66310880  0.50248710  0.16515598  1
  I  I130  1  0.66493441  0.49585515  0.49680479  1
  I  I131  1  0.66271431  0.50018813  0.83947339  1
  I  I132  1  0.66546404  0.82797950  0.16247382  1
  I  I133  1  0.66648393  0.83231169  0.49683742  1
  I  I134  1  0.66563194  0.83446805  0.83883839  1
