# generated using pymatgen
data_Cs27Sn14Pb13I81
_symmetry_space_group_name_H-M   'P 1'
_cell_length_a   18.98181577
_cell_length_b   18.97487383
_cell_length_c   18.97496356
_cell_angle_alpha   89.99846383
_cell_angle_beta   90.00077875
_cell_angle_gamma   90.00005587
_symmetry_Int_Tables_number   1
_chemical_formula_structural   Cs27Sn14Pb13I81
_chemical_formula_sum   'Cs27 Sn14 Pb13 I81'
_cell_volume   6834.35605887
_cell_formula_units_Z   1
loop_
 _symmetry_equiv_pos_site_id
 _symmetry_equiv_pos_as_xyz
  1  'x, y, z'
loop_
 _atom_site_type_symbol
 _atom_site_label
 _atom_site_symmetry_multiplicity
 _atom_site_fract_x
 _atom_site_fract_y
 _atom_site_fract_z
 _atom_site_occupancy
  Cs  Cs0  1  0.00015156  0.00116187  -0.00169630  1
  Cs  Cs1  1  0.00055246  0.00477711  0.33556747  1
  Cs  Cs2  1  0.00326014  -0.00036066  0.66875109  1
  Cs  Cs3  1  0.00348071  0.33177518  0.00531208  1
  Cs  Cs4  1  -0.00335919  0.33769044  0.33122263  1
  Cs  Cs5  1  0.00034584  0.33022120  0.66454451  1
  Cs  Cs6  1  -0.00018911  0.66672019  -0.00152490  1
  Cs  Cs7  1  0.00373070  0.66077734  0.33488921  1
  Cs  Cs8  1  0.00015536  0.66820276  0.66847060  1
  Cs  Cs9  1  0.33528592  -0.00034411  -0.00016152  1
  Cs  Cs10  1  0.33522758  -0.00112898  0.33597507  1
  Cs  Cs11  1  0.33042166  0.00096916  0.66586632  1
  Cs  Cs12  1  0.33214052  0.33161080  0.00046610  1
  Cs  Cs13  1  0.32771333  0.33503587  0.34005518  1
  Cs  Cs14  1  0.33586193  0.33262821  0.65905946  1
  Cs  Cs15  1  0.33521516  0.66726794  -0.00021797  1
  Cs  Cs16  1  0.32935043  0.66724215  0.33258576  1
  Cs  Cs17  1  0.33257542  0.66463202  0.66640118  1
  Cs  Cs18  1  0.66590362  -0.00160517  0.00000759  1
  Cs  Cs19  1  0.66558054  0.00010377  0.33274613  1
  Cs  Cs20  1  0.66725342  -0.00142471  0.66819095  1
  Cs  Cs21  1  0.66596878  0.33282114  -0.00036754  1
  Cs  Cs22  1  0.67444626  0.33161522  0.34181250  1
  Cs  Cs23  1  0.66441192  0.33519583  0.66091350  1
  Cs  Cs24  1  0.66541081  0.66787348  -0.00100417  1
  Cs  Cs25  1  0.66768714  0.66856375  0.33130993  1
  Cs  Cs26  1  0.66676091  0.66599269  0.66909673  1
  Sn  Sn27  1  0.50088964  0.83312307  0.50031409  1
  Sn  Sn28  1  0.50087958  0.16598744  0.83423337  1
  Sn  Sn29  1  0.16648038  0.83365835  0.16564502  1
  Sn  Sn30  1  0.49965038  0.83393293  0.83295017  1
  Sn  Sn31  1  0.83266606  0.83328230  0.49996347  1
  Sn  Sn32  1  0.83338499  0.83337813  0.83358482  1
  Sn  Sn33  1  0.16690695  0.83241811  0.83451051  1
  Sn  Sn34  1  0.50013468  0.16733772  0.16627692  1
  Sn  Sn35  1  0.50038915  0.49915332  0.16683859  1
  Sn  Sn36  1  0.83224562  0.16696014  0.83377014  1
  Sn  Sn37  1  0.49994614  0.83334999  0.16678457  1
  Sn  Sn38  1  0.16618541  0.50050298  0.83356197  1
  Sn  Sn39  1  0.83390288  0.83331006  0.16689446  1
  Sn  Sn40  1  0.83414300  0.49946147  0.83380280  1
  Pb  Pb41  1  0.16624625  0.16659526  0.49959764  1
  Pb  Pb42  1  0.83128912  0.50198764  0.16435790  1
  Pb  Pb43  1  0.49989125  0.49947008  0.83455764  1
  Pb  Pb44  1  0.50006130  0.16416170  0.49999354  1
  Pb  Pb45  1  0.16640774  0.50039301  0.50302337  1
  Pb  Pb46  1  0.83120640  0.16458056  0.16462366  1
  Pb  Pb47  1  0.16627803  0.83339727  0.50002663  1
  Pb  Pb48  1  0.83330997  0.50276075  0.50271492  1
  Pb  Pb49  1  0.16878526  0.50204808  0.16437170  1
  Pb  Pb50  1  0.16712023  0.16685264  0.83334569  1
  Pb  Pb51  1  0.83328362  0.16395030  0.50266518  1
  Pb  Pb52  1  0.16926063  0.16426736  0.16656551  1
  Pb  Pb53  1  0.50019805  0.50309404  0.49645292  1
  I  I54  1  0.16837072  -0.00481091  0.15854942  1
  I  I55  1  0.16761197  -0.00103148  0.50359176  1
  I  I56  1  0.16459605  -0.00352504  0.83615121  1
  I  I57  1  0.16974972  0.33355449  0.16427708  1
  I  I58  1  0.16923837  0.33369615  0.50328758  1
  I  I59  1  0.16344886  0.33623442  0.83300735  1
  I  I60  1  0.16973717  0.67080171  0.16432113  1
  I  I61  1  0.16786507  0.66740055  0.49846231  1
  I  I62  1  0.16394316  0.66896926  0.83671917  1
  I  I63  1  0.50008102  -0.00220179  0.16532436  1
  I  I64  1  0.50377925  -0.00426518  0.49626384  1
  I  I65  1  0.50279444  -0.00210311  0.83736832  1
  I  I66  1  0.49964438  0.33266571  0.15594571  1
  I  I67  1  0.49848704  0.33333850  0.50152083  1
  I  I68  1  0.50290502  0.33045921  0.83948469  1
  I  I69  1  0.50016100  0.66942097  0.16545630  1
  I  I70  1  0.50383595  0.67150589  0.50314225  1
  I  I71  1  0.50232318  0.67009248  0.83451555  1
  I  I72  1  0.83051053  -0.00461425  0.16355171  1
  I  I73  1  0.82814342  -0.00461788  0.50186186  1
  I  I74  1  0.83244707  -0.00205107  0.83319072  1
  I  I75  1  0.83062384  0.33328986  0.16386276  1
  I  I76  1  0.83363935  0.33335320  0.50159058  1
  I  I77  1  0.83238277  0.33322222  0.83446665  1
  I  I78  1  0.82948407  0.67117623  0.16327563  1
  I  I79  1  0.82854211  0.67127125  0.50262547  1
  I  I80  1  0.83326159  0.66889720  0.83308355  1
  I  I81  1  0.16524842  0.16732151  -0.00032769  1
  I  I82  1  0.17019890  0.16189564  0.33276236  1
  I  I83  1  0.16931123  0.16330455  0.66750740  1
  I  I84  1  0.16264979  0.50394002  -0.00359349  1
  I  I85  1  0.16932998  0.50240107  0.33286846  1
  I  I86  1  0.16480064  0.50928146  0.67160488  1
  I  I87  1  0.16767397  0.83001128  -0.00123453  1
  I  I88  1  0.16897253  0.83438662  0.33014014  1
  I  I89  1  0.16672036  0.83046286  0.67029077  1
  I  I90  1  0.50338993  0.15960014  -0.00089785  1
  I  I91  1  0.49838808  0.16270745  0.33018439  1
  I  I92  1  0.50300286  0.16199741  0.67022853  1
  I  I93  1  0.50053113  0.50741574  0.00222135  1
  I  I94  1  0.49965674  0.50180602  0.32840191  1
  I  I95  1  0.49935143  0.50031504  0.66668365  1
  I  I96  1  0.50158330  0.83358935  -0.00003490  1
  I  I97  1  0.50248038  0.83337525  0.33186540  1
  I  I98  1  0.50265433  0.83762865  0.66816682  1
  I  I99  1  0.83125869  0.16222623  -0.00390496  1
  I  I100  1  0.83152827  0.16399518  0.33317885  1
  I  I101  1  0.82666402  0.16426696  0.67148319  1
  I  I102  1  0.83584501  0.50477083  -0.00400344  1
  I  I103  1  0.83133940  0.50207085  0.33312740  1
  I  I104  1  0.83494701  0.50352749  0.67137901  1
  I  I105  1  0.83066681  0.83304723  -0.00123930  1
  I  I106  1  0.82787845  0.83346113  0.33255367  1
  I  I107  1  0.83027881  0.83315356  0.66854120  1
  I  I108  1  -0.00024728  0.16391394  0.16459178  1
  I  I109  1  -0.00058003  0.16091782  0.50420473  1
  I  I110  1  -0.00286007  0.16187723  0.83157713  1
  I  I111  1  -0.00006038  0.50234290  0.16728921  1
  I  I112  1  -0.00022579  0.50397512  0.49722719  1
  I  I113  1  -0.00064998  0.50676092  0.83333547  1
  I  I114  1  -0.00050044  0.83283218  0.16174990  1
  I  I115  1  -0.00321125  0.83358950  0.50217388  1
  I  I116  1  -0.00100803  0.83318219  0.83506963  1
  I  I117  1  0.33797153  0.16252258  0.15759882  1
  I  I118  1  0.33390891  0.16316626  0.50372036  1
  I  I119  1  0.33684113  0.16172755  0.83746844  1
  I  I120  1  0.33678775  0.50481366  0.16219239  1
  I  I121  1  0.33357826  0.50259466  0.50328370  1
  I  I122  1  0.33130322  0.50590458  0.83616213  1
  I  I123  1  0.33476368  0.83318045  0.16347694  1
  I  I124  1  0.33630386  0.83405040  0.49973771  1
  I  I125  1  0.33413538  0.83313621  0.83605560  1
  I  I126  1  0.66283941  0.16164854  0.16324732  1
  I  I127  1  0.66656870  0.16753371  0.49890039  1
  I  I128  1  0.66605529  0.16112596  0.83740041  1
  I  I129  1  0.66336150  0.50574184  0.16187721  1
  I  I130  1  0.66663001  0.49948069  0.50399092  1
  I  I131  1  0.66904465  0.50464735  0.83519352  1
  I  I132  1  0.66570969  0.83311773  0.16403588  1
  I  I133  1  0.66627029  0.83342905  0.50087647  1
  I  I134  1  0.66682585  0.83326971  0.83501301  1
