# generated using pymatgen
data_Cs27Sn14Pb13I81
_symmetry_space_group_name_H-M   'P 1'
_cell_length_a   18.96940294
_cell_length_b   18.96895275
_cell_length_c   18.99062216
_cell_angle_alpha   90.00068247
_cell_angle_beta   90.00008692
_cell_angle_gamma   89.99648840
_symmetry_Int_Tables_number   1
_chemical_formula_structural   Cs27Sn14Pb13I81
_chemical_formula_sum   'Cs27 Sn14 Pb13 I81'
_cell_volume   6833.39001419
_cell_formula_units_Z   1
loop_
 _symmetry_equiv_pos_site_id
 _symmetry_equiv_pos_as_xyz
  1  'x, y, z'
loop_
 _atom_site_type_symbol
 _atom_site_label
 _atom_site_symmetry_multiplicity
 _atom_site_fract_x
 _atom_site_fract_y
 _atom_site_fract_z
 _atom_site_occupancy
  Cs  Cs0  1  0.00272183  0.00072523  -0.00046822  1
  Cs  Cs1  1  0.00455182  0.00501248  0.33395776  1
  Cs  Cs2  1  -0.00006592  0.00131608  0.66596405  1
  Cs  Cs3  1  -0.00013275  0.33507665  0.00247156  1
  Cs  Cs4  1  -0.00273823  0.32772461  0.33272072  1
  Cs  Cs5  1  0.00197632  0.33293211  0.66690298  1
  Cs  Cs6  1  -0.00313723  0.66424970  -0.00253083  1
  Cs  Cs7  1  0.00057666  0.66719506  0.33472796  1
  Cs  Cs8  1  -0.00175517  0.66589952  0.66811220  1
  Cs  Cs9  1  0.33339050  -0.00070751  0.00193327  1
  Cs  Cs10  1  0.32471340  -0.00913463  0.33127333  1
  Cs  Cs11  1  0.33043772  -0.00038620  0.66634059  1
  Cs  Cs12  1  0.33404517  0.33323547  -0.00067203  1
  Cs  Cs13  1  0.33854526  0.33742787  0.33146753  1
  Cs  Cs14  1  0.33446239  0.33406757  0.66821532  1
  Cs  Cs15  1  0.33294731  0.66649770  0.00028559  1
  Cs  Cs16  1  0.33248987  0.66896788  0.33496175  1
  Cs  Cs17  1  0.33426604  0.66549190  0.66478197  1
  Cs  Cs18  1  0.66449948  -0.00214489  -0.00316843  1
  Cs  Cs19  1  0.66881821  0.00327664  0.33211091  1
  Cs  Cs20  1  0.66731042  0.00028585  0.66955573  1
  Cs  Cs21  1  0.66634271  0.33415694  0.00062780  1
  Cs  Cs22  1  0.66499409  0.33049810  0.33229370  1
  Cs  Cs23  1  0.66433499  0.33200712  0.66690331  1
  Cs  Cs24  1  0.66953627  0.66814600  -0.00082211  1
  Cs  Cs25  1  0.66658656  0.66786846  0.33752804  1
  Cs  Cs26  1  0.66767466  0.66775303  0.66516501  1
  Sn  Sn27  1  0.83288513  0.16628044  0.83347943  1
  Sn  Sn28  1  0.16593500  0.83232210  0.83334007  1
  Sn  Sn29  1  0.83427145  0.83429927  0.83329913  1
  Sn  Sn30  1  0.49933330  0.16596813  0.49991944  1
  Sn  Sn31  1  0.49964397  0.49991794  0.16555546  1
  Sn  Sn32  1  0.50064594  0.16742258  0.83339071  1
  Sn  Sn33  1  0.49947443  0.49964041  0.83415105  1
  Sn  Sn34  1  0.49980922  0.16675325  0.16650958  1
  Sn  Sn35  1  0.16561075  0.49974060  0.49995018  1
  Sn  Sn36  1  0.16749120  0.50074566  0.83349816  1
  Sn  Sn37  1  0.83345774  0.83339746  0.16680105  1
  Sn  Sn38  1  0.83395829  0.49995328  0.50008353  1
  Sn  Sn39  1  0.16704020  0.50005824  0.16654540  1
  Sn  Sn40  1  0.83344354  0.83315524  0.49985095  1
  Pb  Pb41  1  0.16703942  0.16702204  0.83339315  1
  Pb  Pb42  1  0.83280890  0.50148730  0.16923823  1
  Pb  Pb43  1  0.16422411  0.83110388  0.50239285  1
  Pb  Pb44  1  0.16947556  0.16928158  0.16664454  1
  Pb  Pb45  1  0.16965740  0.16946938  0.49987923  1
  Pb  Pb46  1  0.83122592  0.16442079  0.16388668  1
  Pb  Pb47  1  0.49971953  0.83299063  0.83322693  1
  Pb  Pb48  1  0.83301192  0.49983971  0.83175318  1
  Pb  Pb49  1  0.50004361  0.49895653  0.50003569  1
  Pb  Pb50  1  0.16416728  0.83061364  0.16420283  1
  Pb  Pb51  1  0.83189673  0.16663070  0.50202902  1
  Pb  Pb52  1  0.50179546  0.83273367  0.16672240  1
  Pb  Pb53  1  0.50230008  0.83658498  0.49997995  1
  I  I54  1  0.16790042  -0.00037844  0.16514808  1
  I  I55  1  0.16679664  -0.00019524  0.50197137  1
  I  I56  1  0.16506530  -0.00262101  0.83278211  1
  I  I57  1  0.16618558  0.33784132  0.16242942  1
  I  I58  1  0.15909359  0.33799659  0.50419535  1
  I  I59  1  0.16761560  0.33693345  0.83299709  1
  I  I60  1  0.17444772  0.66260741  0.16895182  1
  I  I61  1  0.16709679  0.66280806  0.49842790  1
  I  I62  1  0.16565535  0.66526529  0.83336285  1
  I  I63  1  0.50437811  0.00298096  0.16446330  1
  I  I64  1  0.50345050  0.00471866  0.50258967  1
  I  I65  1  0.50201702  0.00302807  0.83392186  1
  I  I66  1  0.49690637  0.33400895  0.16567327  1
  I  I67  1  0.50265382  0.33105778  0.50111379  1
  I  I68  1  0.50045715  0.33340028  0.83349581  1
  I  I69  1  0.49711680  0.66295273  0.16110253  1
  I  I70  1  0.49939868  0.66653897  0.50020971  1
  I  I71  1  0.49940962  0.66330033  0.83818043  1
  I  I72  1  0.83083395  -0.00361333  0.17109937  1
  I  I73  1  0.82918186  -0.00276572  0.50004025  1
  I  I74  1  0.83203880  -0.00098404  0.83116916  1
  I  I75  1  0.83515577  0.33338270  0.16678447  1
  I  I76  1  0.83613232  0.33589453  0.50214220  1
  I  I77  1  0.83129493  0.33120760  0.83050444  1
  I  I78  1  0.83142992  0.66934022  0.16030321  1
  I  I79  1  0.83581803  0.66681426  0.50318081  1
  I  I80  1  0.83401589  0.66921387  0.83416787  1
  I  I81  1  0.16725131  0.16817539  -0.00022627  1
  I  I82  1  0.16671172  0.16735157  0.33327253  1
  I  I83  1  0.16950644  0.16924138  0.66688686  1
  I  I84  1  0.17177170  0.50369324  -0.00076935  1
  I  I85  1  0.16784018  0.49863910  0.33319554  1
  I  I86  1  0.16717878  0.50376978  0.66758142  1
  I  I87  1  0.16095709  0.82790449  -0.00357169  1
  I  I88  1  0.16574993  0.83223644  0.33331972  1
  I  I89  1  0.16190834  0.82802868  0.67025662  1
  I  I90  1  0.50448639  0.17169547  -0.00079544  1
  I  I91  1  0.50130048  0.17373733  0.33264647  1
  I  I92  1  0.50464329  0.17161973  0.66821861  1
  I  I93  1  0.49283138  0.49208044  -0.00062325  1
  I  I94  1  0.49791453  0.49526083  0.33090373  1
  I  I95  1  0.49742050  0.49573829  0.66935458  1
  I  I96  1  0.50352789  0.83701610  -0.00023061  1
  I  I97  1  0.50273648  0.83225521  0.33331293  1
  I  I98  1  0.50275043  0.83212979  0.66686089  1
  I  I99  1  0.82775612  0.16272436  -0.00403439  1
  I  I100  1  0.83065117  0.16593973  0.33325123  1
  I  I101  1  0.82650488  0.16182116  0.66986627  1
  I  I102  1  0.83525616  0.50106683  -0.00005881  1
  I  I103  1  0.83597597  0.50566237  0.33700925  1
  I  I104  1  0.83588682  0.50485502  0.66403757  1
  I  I105  1  0.83595266  0.83715222  -0.00138336  1
  I  I106  1  0.82950293  0.82610325  0.33394086  1
  I  I107  1  0.83666308  0.83303368  0.66741650  1
  I  I108  1  -0.00014221  0.16764933  0.16537349  1
  I  I109  1  -0.00002401  0.16570746  0.50236504  1
  I  I110  1  -0.00259495  0.16520810  0.83150991  1
  I  I111  1  0.00257048  0.50374178  0.16281241  1
  I  I112  1  0.00030210  0.50466214  0.50162291  1
  I  I113  1  0.00249191  0.50101945  0.83523644  1
  I  I114  1  -0.00373922  0.83086559  0.16790162  1
  I  I115  1  -0.00396263  0.83192112  0.49904886  1
  I  I116  1  -0.00117578  0.83215033  0.83323585  1
  I  I117  1  0.33792443  0.16784906  0.16179471  1
  I  I118  1  0.33779862  0.17010429  0.50522482  1
  I  I119  1  0.33684028  0.16829668  0.83352153  1
  I  I120  1  0.33374964  0.49580086  0.16738389  1
  I  I121  1  0.33089729  0.49681194  0.50097677  1
  I  I122  1  0.33320970  0.49975585  0.83142401  1
  I  I123  1  0.33298131  0.83594088  0.16471733  1
  I  I124  1  0.33287676  0.83291944  0.50151239  1
  I  I125  1  0.33055573  0.83182617  0.83362088  1
  I  I126  1  0.66313229  0.17448269  0.16839632  1
  I  I127  1  0.66385998  0.17006818  0.49916543  1
  I  I128  1  0.66555193  0.16641051  0.83295501  1
  I  I129  1  0.66352272  0.49704352  0.16253747  1
  I  I130  1  0.66894524  0.50326298  0.50096548  1
  I  I131  1  0.66394687  0.49875228  0.83631862  1
  I  I132  1  0.66993777  0.83094196  0.16281535  1
  I  I133  1  0.67080197  0.82470064  0.50412427  1
  I  I134  1  0.66980009  0.83421243  0.83299435  1
