# generated using pymatgen
data_Cs27Sn14Pb13I81
_symmetry_space_group_name_H-M   'P 1'
_cell_length_a   18.97787976
_cell_length_b   18.97837045
_cell_length_c   18.96902856
_cell_angle_alpha   89.99629712
_cell_angle_beta   89.99835639
_cell_angle_gamma   90.00093629
_symmetry_Int_Tables_number   1
_chemical_formula_structural   Cs27Sn14Pb13I81
_chemical_formula_sum   'Cs27 Sn14 Pb13 I81'
_cell_volume   6832.06044058
_cell_formula_units_Z   1
loop_
 _symmetry_equiv_pos_site_id
 _symmetry_equiv_pos_as_xyz
  1  'x, y, z'
loop_
 _atom_site_type_symbol
 _atom_site_label
 _atom_site_symmetry_multiplicity
 _atom_site_fract_x
 _atom_site_fract_y
 _atom_site_fract_z
 _atom_site_occupancy
  Cs  Cs0  1  -0.00302017  0.00202329  0.00086961  1
  Cs  Cs1  1  0.00278863  -0.00238764  0.33331860  1
  Cs  Cs2  1  0.00586871  0.00080846  0.66730393  1
  Cs  Cs3  1  -0.00075006  0.33277204  -0.00019991  1
  Cs  Cs4  1  -0.00581571  0.33371996  0.33345147  1
  Cs  Cs5  1  -0.00000534  0.33583774  0.66596174  1
  Cs  Cs6  1  0.00095406  0.66612685  -0.00201333  1
  Cs  Cs7  1  0.00286746  0.66812947  0.33420187  1
  Cs  Cs8  1  0.00056919  0.66452073  0.66858334  1
  Cs  Cs9  1  0.33353288  0.00353195  -0.00087944  1
  Cs  Cs10  1  0.33341234  -0.00335903  0.33544256  1
  Cs  Cs11  1  0.33086057  0.01085805  0.66725762  1
  Cs  Cs12  1  0.33529295  0.33616884  -0.00111216  1
  Cs  Cs13  1  0.33594280  0.33657757  0.33076053  1
  Cs  Cs14  1  0.33319051  0.32692045  0.66914859  1
  Cs  Cs15  1  0.33260536  0.66077070  -0.00005422  1
  Cs  Cs16  1  0.33203793  0.66708050  0.33333924  1
  Cs  Cs17  1  0.33261732  0.66593662  0.66567964  1
  Cs  Cs18  1  0.67002046  -0.00234671  0.00236487  1
  Cs  Cs19  1  0.66562178  -0.00090893  0.33105178  1
  Cs  Cs20  1  0.66195175  -0.00427662  0.66735794  1
  Cs  Cs21  1  0.66813854  0.33463204  0.00166710  1
  Cs  Cs22  1  0.66988015  0.33166654  0.33469447  1
  Cs  Cs23  1  0.66624533  0.33207843  0.66095625  1
  Cs  Cs24  1  0.66598192  0.66802329  -0.00265276  1
  Cs  Cs25  1  0.66607732  0.66873888  0.33560247  1
  Cs  Cs26  1  0.66563176  0.66961455  0.66650190  1
  Sn  Sn27  1  0.83308161  0.16749213  0.83336676  1
  Sn  Sn28  1  0.50040822  0.83360382  0.16694732  1
  Sn  Sn29  1  0.83297552  0.83293790  0.16749223  1
  Sn  Sn30  1  0.16705352  0.83286042  0.83361886  1
  Sn  Sn31  1  0.16766104  0.49998545  0.50049817  1
  Sn  Sn32  1  0.83335485  0.16655024  0.16611261  1
  Sn  Sn33  1  0.50031857  0.83258155  0.49944637  1
  Sn  Sn34  1  0.16661071  0.16677847  0.16699972  1
  Sn  Sn35  1  0.16607928  0.50075881  0.83247856  1
  Sn  Sn36  1  0.83356490  0.49911561  0.83393416  1
  Sn  Sn37  1  0.49898876  0.50061020  0.50009322  1
  Sn  Sn38  1  0.83317884  0.83350792  0.49955030  1
  Sn  Sn39  1  0.83342807  0.50064069  0.16599575  1
  Sn  Sn40  1  0.50010070  0.16596456  0.16679074  1
  Pb  Pb41  1  0.16697391  0.83490952  0.16460353  1
  Pb  Pb42  1  0.49689902  0.83331811  0.83348046  1
  Pb  Pb43  1  0.16461215  0.16766780  0.83534786  1
  Pb  Pb44  1  0.16727255  0.83176864  0.50204495  1
  Pb  Pb45  1  0.50051068  0.49996530  0.83055337  1
  Pb  Pb46  1  0.50009447  0.16607631  0.49754799  1
  Pb  Pb47  1  0.16644842  0.17003576  0.49709451  1
  Pb  Pb48  1  0.16433471  0.49801672  0.16642958  1
  Pb  Pb49  1  0.83331846  0.16324594  0.50014484  1
  Pb  Pb50  1  0.83467105  0.83327423  0.83340774  1
  Pb  Pb51  1  0.50268245  0.50060737  0.16863153  1
  Pb  Pb52  1  0.50353364  0.16667768  0.83633477  1
  Pb  Pb53  1  0.83323892  0.50199942  0.50037257  1
  I  I54  1  0.16138581  0.00279429  0.16358063  1
  I  I55  1  0.16678038  -0.00007912  0.50226142  1
  I  I56  1  0.16483550  -0.00148750  0.83491806  1
  I  I57  1  0.16675280  0.33013147  0.16547824  1
  I  I58  1  0.17142020  0.33795232  0.50748636  1
  I  I59  1  0.16360552  0.33650579  0.83022078  1
  I  I60  1  0.16593718  0.66637406  0.16745386  1
  I  I61  1  0.16684615  0.66374744  0.50048866  1
  I  I62  1  0.15980469  0.66510386  0.83125747  1
  I  I63  1  0.50513930  -0.00058775  0.17189637  1
  I  I64  1  0.50546024  -0.00347355  0.49757187  1
  I  I65  1  0.49850586  -0.00007971  0.82811023  1
  I  I66  1  0.50114022  0.33099695  0.16777304  1
  I  I67  1  0.49620584  0.33597038  0.49930004  1
  I  I68  1  0.49507107  0.33337232  0.83336872  1
  I  I69  1  0.50498403  0.66971603  0.16896205  1
  I  I70  1  0.50050439  0.66763239  0.49368699  1
  I  I71  1  0.50445067  0.66667000  0.83841772  1
  I  I72  1  0.83242583  0.00019360  0.16573750  1
  I  I73  1  0.82690632  -0.00465446  0.49596931  1
  I  I74  1  0.83537363  0.00205083  0.83798450  1
  I  I75  1  0.83389549  0.33288518  0.16221461  1
  I  I76  1  0.83329839  0.33351191  0.49714922  1
  I  I77  1  0.83950746  0.33419949  0.84246114  1
  I  I78  1  0.82908474  0.66729357  0.16639184  1
  I  I79  1  0.83220177  0.66967550  0.49549554  1
  I  I80  1  0.83647974  0.66402214  0.83666698  1
  I  I81  1  0.16758845  0.16795221  0.00328032  1
  I  I82  1  0.16238526  0.16594332  0.32901501  1
  I  I83  1  0.16486944  0.16411210  0.66693873  1
  I  I84  1  0.16347868  0.50247016  -0.00270936  1
  I  I85  1  0.16871288  0.49840987  0.33559444  1
  I  I86  1  0.16314003  0.50460499  0.66751924  1
  I  I87  1  0.16488148  0.82652194  -0.00295790  1
  I  I88  1  0.16567517  0.83306906  0.33322565  1
  I  I89  1  0.16386810  0.83154488  0.66975678  1
  I  I90  1  0.49784035  0.16071770  0.00465315  1
  I  I91  1  0.50448483  0.16595362  0.32927664  1
  I  I92  1  0.50059639  0.16588916  0.66663930  1
  I  I93  1  0.49729131  0.50004238  0.00026898  1
  I  I94  1  0.49514740  0.50151667  0.33642789  1
  I  I95  1  0.50198784  0.50762261  0.66256256  1
  I  I96  1  0.50542227  0.83828799  0.00348182  1
  I  I97  1  0.50428059  0.83369055  0.33285754  1
  I  I98  1  0.50595323  0.82760219  0.66339082  1
  I  I99  1  0.83356691  0.16522431  0.00185410  1
  I  I100  1  0.83255532  0.17068192  0.32953217  1
  I  I101  1  0.83568443  0.17188748  0.66961474  1
  I  I102  1  0.83872842  0.50075896  0.00016939  1
  I  I103  1  0.83325861  0.49663714  0.33080306  1
  I  I104  1  0.83513015  0.49670323  0.66940078  1
  I  I105  1  0.83029927  0.83410357  0.00315095  1
  I  I106  1  0.83034109  0.83298561  0.33176576  1
  I  I107  1  0.82981633  0.83193410  0.66434596  1
  I  I108  1  -0.00176896  0.16678476  0.16250218  1
  I  I109  1  -0.00019487  0.16591384  0.49629133  1
  I  I110  1  -0.00314994  0.16693655  0.84115975  1
  I  I111  1  -0.00390311  0.50020959  0.16787691  1
  I  I112  1  0.00181175  0.50145309  0.50116909  1
  I  I113  1  -0.00034598  0.50031483  0.83131672  1
  I  I114  1  -0.00317235  0.83462374  0.16970026  1
  I  I115  1  -0.00229882  0.83229142  0.49560354  1
  I  I116  1  0.00225680  0.83160154  0.83345568  1
  I  I117  1  0.33399785  0.16172198  0.16837185  1
  I  I118  1  0.33326941  0.16222952  0.49858167  1
  I  I119  1  0.33323469  0.16645813  0.83522477  1
  I  I120  1  0.33339566  0.49867154  0.16487518  1
  I  I121  1  0.33332448  0.50622147  0.50321477  1
  I  I122  1  0.33030204  0.50470242  0.83209484  1
  I  I123  1  0.33635744  0.83846114  0.17046005  1
  I  I124  1  0.33636650  0.83005968  0.49469236  1
  I  I125  1  0.32926974  0.82610071  0.83433807  1
  I  I126  1  0.66771448  0.16550882  0.16297384  1
  I  I127  1  0.66678536  0.17336916  0.49913132  1
  I  I128  1  0.67151270  0.17194052  0.83886271  1
  I  I129  1  0.67080502  0.49572724  0.16270545  1
  I  I130  1  0.66466811  0.50238190  0.49876572  1
  I  I131  1  0.67025327  0.49614980  0.83736548  1
  I  I132  1  0.66763240  0.83800589  0.16989188  1
  I  I133  1  0.66629611  0.82711315  0.49651385  1
  I  I134  1  0.66669931  0.83353380  0.83277681  1
