# generated using pymatgen
data_Cs27Sn13Pb14I81
_symmetry_space_group_name_H-M   'P 1'
_cell_length_a   18.98301458
_cell_length_b   18.96469951
_cell_length_c   18.98308972
_cell_angle_alpha   89.99825267
_cell_angle_beta   90.00064079
_cell_angle_gamma   90.00043535
_symmetry_Int_Tables_number   1
_chemical_formula_structural   Cs27Sn13Pb14I81
_chemical_formula_sum   'Cs27 Sn13 Pb14 I81'
_cell_volume   6834.04834967
_cell_formula_units_Z   1
loop_
 _symmetry_equiv_pos_site_id
 _symmetry_equiv_pos_as_xyz
  1  'x, y, z'
loop_
 _atom_site_type_symbol
 _atom_site_label
 _atom_site_symmetry_multiplicity
 _atom_site_fract_x
 _atom_site_fract_y
 _atom_site_fract_z
 _atom_site_occupancy
  Cs  Cs0  1  -0.00219258  0.00753764  0.00054659  1
  Cs  Cs1  1  0.00212873  0.00563076  0.33020258  1
  Cs  Cs2  1  -0.00077693  0.00048203  0.67106385  1
  Cs  Cs3  1  0.00087126  0.33142115  0.00215082  1
  Cs  Cs4  1  -0.00348823  0.33062780  0.33460726  1
  Cs  Cs5  1  0.00038530  0.33048235  0.66138679  1
  Cs  Cs6  1  -0.00013034  0.66695509  -0.00144382  1
  Cs  Cs7  1  -0.00005287  0.66535281  0.33536828  1
  Cs  Cs8  1  0.00065407  0.66692108  0.66624171  1
  Cs  Cs9  1  0.32916154  -0.00247397  0.00369233  1
  Cs  Cs10  1  0.33564173  -0.00198489  0.33332431  1
  Cs  Cs11  1  0.33501278  0.00512992  0.66359054  1
  Cs  Cs12  1  0.33677497  0.33515472  -0.00300705  1
  Cs  Cs13  1  0.33365098  0.33525977  0.33321168  1
  Cs  Cs14  1  0.33521952  0.32876413  0.66964262  1
  Cs  Cs15  1  0.33281415  0.66612170  -0.00047334  1
  Cs  Cs16  1  0.33317128  0.66834413  0.33321207  1
  Cs  Cs17  1  0.33109755  0.66586133  0.66740818  1
  Cs  Cs18  1  0.67344966  -0.00038516  -0.00268731  1
  Cs  Cs19  1  0.66155945  -0.00062125  0.33525439  1
  Cs  Cs20  1  0.66510736  0.00435464  0.66871761  1
  Cs  Cs21  1  0.66267258  0.33408821  0.00113220  1
  Cs  Cs22  1  0.66977248  0.33390349  0.33242662  1
  Cs  Cs23  1  0.66364685  0.32719190  0.66429478  1
  Cs  Cs24  1  0.66843290  0.66613980  -0.00085271  1
  Cs  Cs25  1  0.66708840  0.66687500  0.33403770  1
  Cs  Cs26  1  0.66881862  0.66721698  0.66794161  1
  Sn  Sn27  1  0.16763739  0.83259895  0.83254354  1
  Sn  Sn28  1  0.16773058  0.50065378  0.50015643  1
  Sn  Sn29  1  0.83434063  0.83295151  0.49906161  1
  Sn  Sn30  1  0.16568657  0.83263382  0.50063508  1
  Sn  Sn31  1  0.83371848  0.83242580  0.16787292  1
  Sn  Sn32  1  0.16547200  0.50051233  0.83309467  1
  Sn  Sn33  1  0.49886210  0.83296604  0.83332008  1
  Sn  Sn34  1  0.16645813  0.50053485  0.16675078  1
  Sn  Sn35  1  0.83418807  0.50015490  0.83365264  1
  Sn  Sn36  1  0.49980847  0.16705950  0.16648807  1
  Sn  Sn37  1  0.49933942  0.50071003  0.49965048  1
  Sn  Sn38  1  0.83361095  0.50096623  0.16572229  1
  Sn  Sn39  1  0.49995463  0.49976054  0.16764015  1
  Pb  Pb40  1  0.16432246  0.83151774  0.16665470  1
  Pb  Pb41  1  0.50219221  0.83252498  0.16473278  1
  Pb  Pb42  1  0.16931067  0.16996151  0.16671580  1
  Pb  Pb43  1  0.83347300  0.50109313  0.50012186  1
  Pb  Pb44  1  0.83113999  0.16710280  0.16676396  1
  Pb  Pb45  1  0.83428672  0.83193614  0.83323452  1
  Pb  Pb46  1  0.83339141  0.17105380  0.83343349  1
  Pb  Pb47  1  0.49972768  0.16310236  0.83622275  1
  Pb  Pb48  1  0.16669262  0.16634228  0.49989800  1
  Pb  Pb49  1  0.49989016  0.50113731  0.83318767  1
  Pb  Pb50  1  0.16669678  0.16670696  0.83338869  1
  Pb  Pb51  1  0.83342363  0.16236793  0.49979491  1
  Pb  Pb52  1  0.49962801  0.83124864  0.50195775  1
  Pb  Pb53  1  0.49982603  0.16982603  0.49754683  1
  I  I54  1  0.16658210  -0.00023212  0.16627654  1
  I  I55  1  0.16215027  -0.00404825  0.50539253  1
  I  I56  1  0.17078726  -0.00385373  0.82821685  1
  I  I57  1  0.16103226  0.33902846  0.16689770  1
  I  I58  1  0.17043665  0.33755534  0.50061481  1
  I  I59  1  0.16299909  0.33769745  0.83343036  1
  I  I60  1  0.17187430  0.66276985  0.16641321  1
  I  I61  1  0.16669705  0.66563594  0.50082870  1
  I  I62  1  0.16694387  0.66558088  0.83268016  1
  I  I63  1  0.50267327  0.00170316  0.16368227  1
  I  I64  1  0.50038942  -0.00023948  0.49938614  1
  I  I65  1  0.49538244  -0.00478574  0.83330547  1
  I  I66  1  0.50161608  0.33625204  0.16963211  1
  I  I67  1  0.49492689  0.33831769  0.50083773  1
  I  I68  1  0.50074701  0.33350102  0.83145599  1
  I  I69  1  0.49872424  0.66303768  0.16905056  1
  I  I70  1  0.49833714  0.66326007  0.49238448  1
  I  I71  1  0.49867406  0.66874405  0.83598877  1
  I  I72  1  0.83155114  -0.00305406  0.17003132  1
  I  I73  1  0.83888967  -0.00594080  0.49427495  1
  I  I74  1  0.83282070  -0.00025480  0.83399913  1
  I  I75  1  0.83518213  0.33736903  0.16259473  1
  I  I76  1  0.83315071  0.33359360  0.50038253  1
  I  I77  1  0.83820933  0.33932454  0.83997968  1
  I  I78  1  0.83054963  0.66498489  0.16633263  1
  I  I79  1  0.83456510  0.66898826  0.49834072  1
  I  I80  1  0.83436923  0.66384406  0.83611855  1
  I  I81  1  0.16682389  0.16545198  0.00013898  1
  I  I82  1  0.16715559  0.16590241  0.33321598  1
  I  I83  1  0.16790169  0.17171964  0.66663866  1
  I  I84  1  0.16654162  0.50388499  -0.00006081  1
  I  I85  1  0.16819222  0.50397810  0.33348400  1
  I  I86  1  0.16638123  0.50501970  0.66665724  1
  I  I87  1  0.16999237  0.82793828  -0.00272122  1
  I  I88  1  0.16471930  0.82809257  0.33607117  1
  I  I89  1  0.16445826  0.82384910  0.66650720  1
  I  I90  1  0.50036173  0.17705590  0.00349607  1
  I  I91  1  0.50048158  0.16738584  0.32977649  1
  I  I92  1  0.50063046  0.16778950  0.66671469  1
  I  I93  1  0.49844352  0.49793868  0.00282543  1
  I  I94  1  0.49739308  0.49752130  0.33233231  1
  I  I95  1  0.49763103  0.50427588  0.66434008  1
  I  I96  1  0.49530342  0.83010955  -0.00289518  1
  I  I97  1  0.49868727  0.83502550  0.33324179  1
  I  I98  1  0.50135221  0.82882999  0.66958516  1
  I  I99  1  0.83280838  0.16046389  0.00026676  1
  I  I100  1  0.83306796  0.17226862  0.33308190  1
  I  I101  1  0.83171850  0.16710214  0.66666031  1
  I  I102  1  0.83513755  0.50631994  0.00131422  1
  I  I103  1  0.83444216  0.50212079  0.33052940  1
  I  I104  1  0.83597335  0.50378886  0.66891484  1
  I  I105  1  0.83130438  0.82997552  0.00220934  1
  I  I106  1  0.83668181  0.82575080  0.33302233  1
  I  I107  1  0.83428651  0.82985248  0.66453532  1
  I  I108  1  -0.00004648  0.16682225  0.16622458  1
  I  I109  1  0.00012354  0.17327931  0.49834661  1
  I  I110  1  0.00005709  0.16126933  0.83513501  1
  I  I111  1  -0.00006872  0.50590999  0.16544082  1
  I  I112  1  0.00300706  0.50263233  0.49836064  1
  I  I113  1  0.00113277  0.50672831  0.83682069  1
  I  I114  1  -0.00348222  0.82629052  0.16583750  1
  I  I115  1  0.00108739  0.82524254  0.50216437  1
  I  I116  1  0.00303215  0.82909175  0.83145241  1
  I  I117  1  0.33703293  0.17136806  0.16644704  1
  I  I118  1  0.33339281  0.16253608  0.49874756  1
  I  I119  1  0.33333674  0.17213198  0.83437015  1
  I  I120  1  0.33321953  0.49567223  0.16687682  1
  I  I121  1  0.33219689  0.50569921  0.49619577  1
  I  I122  1  0.33038896  0.50272923  0.83591771  1
  I  I123  1  0.33319397  0.83311309  0.16801475  1
  I  I124  1  0.33020504  0.83010531  0.50217516  1
  I  I125  1  0.33171773  0.82609552  0.82979755  1
  I  I126  1  0.66365295  0.17399132  0.16657264  1
  I  I127  1  0.66645524  0.16782837  0.49981070  1
  I  I128  1  0.66646562  0.16524595  0.83371096  1
  I  I129  1  0.66675727  0.49988711  0.16628226  1
  I  I130  1  0.66464751  0.50227131  0.49652944  1
  I  I131  1  0.66872812  0.50384152  0.83724962  1
  I  I132  1  0.67000120  0.82717524  0.16990984  1
  I  I133  1  0.66884209  0.83022506  0.49740399  1
  I  I134  1  0.66549075  0.83042508  0.83456163  1
