# generated using pymatgen
data_Cs27Sn13Pb14I81
_symmetry_space_group_name_H-M   'P 1'
_cell_length_a   18.97716313
_cell_length_b   18.97322251
_cell_length_c   18.98569708
_cell_angle_alpha   90.00090778
_cell_angle_beta   90.00094556
_cell_angle_gamma   89.99645409
_symmetry_Int_Tables_number   1
_chemical_formula_structural   Cs27Sn13Pb14I81
_chemical_formula_sum   'Cs27 Sn13 Pb14 I81'
_cell_volume   6835.95094048
_cell_formula_units_Z   1
loop_
 _symmetry_equiv_pos_site_id
 _symmetry_equiv_pos_as_xyz
  1  'x, y, z'
loop_
 _atom_site_type_symbol
 _atom_site_label
 _atom_site_symmetry_multiplicity
 _atom_site_fract_x
 _atom_site_fract_y
 _atom_site_fract_z
 _atom_site_occupancy
  Cs  Cs0  1  -0.00232561  -0.00163777  -0.00107441  1
  Cs  Cs1  1  -0.00054616  -0.00023603  0.33229442  1
  Cs  Cs2  1  0.00155464  0.00045013  0.66876867  1
  Cs  Cs3  1  -0.00164409  0.33425705  0.00232344  1
  Cs  Cs4  1  0.00049859  0.33572402  0.33273490  1
  Cs  Cs5  1  0.00167208  0.33180009  0.66358518  1
  Cs  Cs6  1  0.00073570  0.66735101  -0.00167881  1
  Cs  Cs7  1  0.00157281  0.66477177  0.33260885  1
  Cs  Cs8  1  0.00155050  0.66655183  0.66761888  1
  Cs  Cs9  1  0.33411688  0.00220302  0.00003337  1
  Cs  Cs10  1  0.33385438  -0.00105060  0.33326428  1
  Cs  Cs11  1  0.32926441  0.00411146  0.66688129  1
  Cs  Cs12  1  0.33458722  0.33563204  -0.00627850  1
  Cs  Cs13  1  0.33032567  0.33101210  0.33876544  1
  Cs  Cs14  1  0.33318110  0.33182196  0.66929269  1
  Cs  Cs15  1  0.33186056  0.66432541  0.00059108  1
  Cs  Cs16  1  0.33179156  0.66932706  0.33097975  1
  Cs  Cs17  1  0.33612949  0.66354035  0.67118985  1
  Cs  Cs18  1  0.66845041  0.00011764  0.00129278  1
  Cs  Cs19  1  0.66612870  -0.00075113  0.33215481  1
  Cs  Cs20  1  0.66826848  -0.00147089  0.66510470  1
  Cs  Cs21  1  0.66696065  0.33209749  0.00000070  1
  Cs  Cs22  1  0.66650769  0.33305150  0.33346243  1
  Cs  Cs23  1  0.66445060  0.33821452  0.66765261  1
  Cs  Cs24  1  0.66790811  0.66798436  0.00142273  1
  Cs  Cs25  1  0.66658828  0.66760179  0.33308868  1
  Cs  Cs26  1  0.66439050  0.66398894  0.66471545  1
  Sn  Sn27  1  0.83294804  0.16589225  0.49978315  1
  Sn  Sn28  1  0.83362140  0.83384631  0.49972351  1
  Sn  Sn29  1  0.49920493  0.83269529  0.16638490  1
  Sn  Sn30  1  0.83403359  0.16742173  0.16681395  1
  Sn  Sn31  1  0.49959732  0.83354549  0.50024682  1
  Sn  Sn32  1  0.16670355  0.83329225  0.49931415  1
  Sn  Sn33  1  0.83313686  0.16742505  0.83329532  1
  Sn  Sn34  1  0.50013835  0.83389128  0.83360875  1
  Sn  Sn35  1  0.83236526  0.49927964  0.16588874  1
  Sn  Sn36  1  0.16733562  0.83438539  0.16716554  1
  Sn  Sn37  1  0.16608561  0.16593850  0.16642527  1
  Sn  Sn38  1  0.50059927  0.50035433  0.16721754  1
  Sn  Sn39  1  0.83333537  0.49945384  0.83421960  1
  Pb  Pb40  1  0.50207878  0.16468924  0.50005129  1
  Pb  Pb41  1  0.16689232  0.49977204  0.16667617  1
  Pb  Pb42  1  0.83353261  0.83313358  0.16825289  1
  Pb  Pb43  1  0.16694437  0.50248670  0.50004696  1
  Pb  Pb44  1  0.16417664  0.16662422  0.83607920  1
  Pb  Pb45  1  0.16439841  0.16458572  0.49790643  1
  Pb  Pb46  1  0.50219242  0.50192154  0.83569552  1
  Pb  Pb47  1  0.83339481  0.49975556  0.49975081  1
  Pb  Pb48  1  0.50240515  0.16461806  0.83327673  1
  Pb  Pb49  1  0.83164084  0.83303475  0.83063509  1
  Pb  Pb50  1  0.16390807  0.49981707  0.83335450  1
  Pb  Pb51  1  0.16934180  0.83338727  0.83357470  1
  Pb  Pb52  1  0.49982773  0.50194765  0.49736691  1
  Pb  Pb53  1  0.49972276  0.16697434  0.16670438  1
  I  I54  1  0.16583502  -0.00111192  0.17047793  1
  I  I55  1  0.16890320  -0.00397404  0.49707181  1
  I  I56  1  0.16359293  -0.00018535  0.83285047  1
  I  I57  1  0.16324717  0.33045105  0.16606268  1
  I  I58  1  0.16321584  0.33265766  0.49712428  1
  I  I59  1  0.16989822  0.33305441  0.83575489  1
  I  I60  1  0.16738704  0.66983971  0.17110395  1
  I  I61  1  0.16245635  0.67200375  0.49168981  1
  I  I62  1  0.16270814  0.66707431  0.83534874  1
  I  I63  1  0.50017275  -0.00343715  0.16796787  1
  I  I64  1  0.49940684  -0.00469613  0.49514707  1
  I  I65  1  0.50296915  -0.00396687  0.83672966  1
  I  I66  1  0.50318868  0.33618157  0.16534256  1
  I  I67  1  0.50301677  0.33337727  0.49774447  1
  I  I68  1  0.49966517  0.33361194  0.83614226  1
  I  I69  1  0.50138053  0.66837124  0.16732328  1
  I  I70  1  0.50473866  0.67146170  0.50149857  1
  I  I71  1  0.50346405  0.67017631  0.83068653  1
  I  I72  1  0.83370774  0.00243388  0.16481302  1
  I  I73  1  0.83224201  -0.00040621  0.49912013  1
  I  I74  1  0.83155952  0.00262614  0.83645112  1
  I  I75  1  0.83346723  0.33260337  0.16800106  1
  I  I76  1  0.83397796  0.33013971  0.49912230  1
  I  I77  1  0.83296186  0.33277124  0.83362585  1
  I  I78  1  0.83228501  0.66434844  0.16376794  1
  I  I79  1  0.83258948  0.66983366  0.49927800  1
  I  I80  1  0.83136548  0.66425572  0.83813331  1
  I  I81  1  0.16085777  0.15908020  0.00439248  1
  I  I82  1  0.16049846  0.16436347  0.32977359  1
  I  I83  1  0.16442858  0.16390626  0.66650416  1
  I  I84  1  0.16780534  0.50385707  0.00056550  1
  I  I85  1  0.16278600  0.49906798  0.33280766  1
  I  I86  1  0.16372368  0.50313475  0.66669823  1
  I  I87  1  0.17028653  0.83600241  0.00354677  1
  I  I88  1  0.17095494  0.83687875  0.33254968  1
  I  I89  1  0.16553752  0.83279608  0.66343131  1
  I  I90  1  0.50293853  0.16175891  0.00033368  1
  I  I91  1  0.50418145  0.16419462  0.33304402  1
  I  I92  1  0.50237053  0.16361473  0.66665409  1
  I  I93  1  0.50238244  0.50711265  0.00368698  1
  I  I94  1  0.50824911  0.50630563  0.32900661  1
  I  I95  1  0.50348978  0.50375215  0.66691185  1
  I  I96  1  0.49675031  0.82967072  0.00152516  1
  I  I97  1  0.49983340  0.82968174  0.33291605  1
  I  I98  1  0.50286797  0.83502782  0.66578530  1
  I  I99  1  0.83662179  0.17083465  0.00091055  1
  I  I100  1  0.83650609  0.16576984  0.33249558  1
  I  I101  1  0.83116906  0.16478026  0.66649366  1
  I  I102  1  0.82966768  0.49284028  0.00133663  1
  I  I103  1  0.83028686  0.49766587  0.33012886  1
  I  I104  1  0.83352498  0.49815852  0.66925113  1
  I  I105  1  0.83256256  0.83559087  0.00002519  1
  I  I106  1  0.82914012  0.83684063  0.33615724  1
  I  I107  1  0.83353942  0.83696510  0.66263608  1
  I  I108  1  -0.00169676  0.16561288  0.16682202  1
  I  I109  1  -0.00409165  0.15987896  0.50177757  1
  I  I110  1  -0.00459377  0.16788365  0.83118414  1
  I  I111  1  -0.00316416  0.49942165  0.16338395  1
  I  I112  1  -0.00046348  0.50441723  0.49759137  1
  I  I113  1  -0.00492094  0.49896598  0.84128257  1
  I  I114  1  0.00228144  0.83400877  0.17170007  1
  I  I115  1  -0.00020424  0.83715215  0.49453619  1
  I  I116  1  -0.00024701  0.83301134  0.83332380  1
  I  I117  1  0.33053087  0.16355617  0.16792668  1
  I  I118  1  0.33291727  0.16491370  0.49684768  1
  I  I119  1  0.33323408  0.16499939  0.83512442  1
  I  I120  1  0.33617471  0.50391081  0.16775620  1
  I  I121  1  0.33353076  0.50151526  0.49701214  1
  I  I122  1  0.33394470  0.50248618  0.83522333  1
  I  I123  1  0.33394103  0.83320705  0.17139012  1
  I  I124  1  0.33363262  0.83138135  0.49686318  1
  I  I125  1  0.33733203  0.83232712  0.83013509  1
  I  I126  1  0.67008090  0.16638235  0.16644111  1
  I  I127  1  0.67109866  0.15991008  0.49587881  1
  I  I128  1  0.67120122  0.16913471  0.83748102  1
  I  I129  1  0.66774439  0.50159261  0.16356232  1
  I  I130  1  0.66693345  0.50387128  0.50040297  1
  I  I131  1  0.67027909  0.49644063  0.83552470  1
  I  I132  1  0.66428571  0.83269908  0.16804897  1
  I  I133  1  0.66657951  0.83733029  0.49911279  1
  I  I134  1  0.66390079  0.83388372  0.83546516  1
