# generated using pymatgen
data_Cs27Sn14Pb13I81
_symmetry_space_group_name_H-M   'P 1'
_cell_length_a   18.96406231
_cell_length_b   18.98064717
_cell_length_c   18.98076851
_cell_angle_alpha   90.00005580
_cell_angle_beta   89.99955562
_cell_angle_gamma   89.99986106
_symmetry_Int_Tables_number   1
_chemical_formula_structural   Cs27Sn14Pb13I81
_chemical_formula_sum   'Cs27 Sn14 Pb13 I81'
_cell_volume   6832.13095676
_cell_formula_units_Z   1
loop_
 _symmetry_equiv_pos_site_id
 _symmetry_equiv_pos_as_xyz
  1  'x, y, z'
loop_
 _atom_site_type_symbol
 _atom_site_label
 _atom_site_symmetry_multiplicity
 _atom_site_fract_x
 _atom_site_fract_y
 _atom_site_fract_z
 _atom_site_occupancy
  Cs  Cs0  1  -0.00010792  -0.00212455  -0.00189399  1
  Cs  Cs1  1  -0.00260109  0.00300661  0.33262033  1
  Cs  Cs2  1  -0.00059248  0.00171246  0.66843391  1
  Cs  Cs3  1  -0.00069896  0.33307335  -0.00073538  1
  Cs  Cs4  1  -0.00228436  0.33175113  0.33528490  1
  Cs  Cs5  1  -0.00000041  0.33253654  0.66590015  1
  Cs  Cs6  1  0.00344773  0.66963041  -0.00615235  1
  Cs  Cs7  1  0.00102508  0.66576273  0.33537769  1
  Cs  Cs8  1  0.00681419  0.66758421  0.67021447  1
  Cs  Cs9  1  0.33625811  0.00390915  0.01008130  1
  Cs  Cs10  1  0.33302073  -0.00882720  0.32726063  1
  Cs  Cs11  1  0.33627458  0.00074722  0.66443541  1
  Cs  Cs12  1  0.33473856  0.33230779  0.00863192  1
  Cs  Cs13  1  0.33126939  0.33510035  0.32656061  1
  Cs  Cs14  1  0.33472326  0.33302693  0.66772830  1
  Cs  Cs15  1  0.32637092  0.66578506  0.00498166  1
  Cs  Cs16  1  0.32799206  0.67576003  0.32707660  1
  Cs  Cs17  1  0.32772112  0.66794758  0.66543747  1
  Cs  Cs18  1  0.66583614  0.00089447  -0.00367834  1
  Cs  Cs19  1  0.66864828  -0.00305815  0.33558124  1
  Cs  Cs20  1  0.66566912  0.00011647  0.66711847  1
  Cs  Cs21  1  0.66532407  0.33460133  -0.00228026  1
  Cs  Cs22  1  0.66986449  0.33560897  0.33666372  1
  Cs  Cs23  1  0.66621843  0.33371416  0.66647784  1
  Cs  Cs24  1  0.66741208  0.66486008  -0.00268341  1
  Cs  Cs25  1  0.66627529  0.66645372  0.33354240  1
  Cs  Cs26  1  0.66619401  0.66513480  0.66823460  1
  Sn  Sn27  1  0.83284292  0.83302080  0.16719122  1
  Sn  Sn28  1  0.83302962  0.16663762  0.50036391  1
  Sn  Sn29  1  0.16728953  0.16693958  0.50067614  1
  Sn  Sn30  1  0.50016741  0.49971025  0.50042176  1
  Sn  Sn31  1  0.49965325  0.16744377  0.49981679  1
  Sn  Sn32  1  0.83288795  0.50051040  0.50058436  1
  Sn  Sn33  1  0.49975087  0.83196457  0.83322773  1
  Sn  Sn34  1  0.83320091  0.83285970  0.49993974  1
  Sn  Sn35  1  0.50029654  0.50111105  0.83242564  1
  Sn  Sn36  1  0.83285606  0.49916887  0.83285954  1
  Sn  Sn37  1  0.16650434  0.16689992  0.83264550  1
  Sn  Sn38  1  0.83305729  0.50039336  0.16650286  1
  Sn  Sn39  1  0.83293749  0.16663675  0.16634959  1
  Sn  Sn40  1  0.83392629  0.16758152  0.83311801  1
  Pb  Pb41  1  0.50201471  0.50013022  0.16726145  1
  Pb  Pb42  1  0.16737438  0.49777619  0.49996343  1
  Pb  Pb43  1  0.50298655  0.83302029  0.16375659  1
  Pb  Pb44  1  0.16743971  0.49732853  0.83318956  1
  Pb  Pb45  1  0.49981878  0.16757713  0.83188276  1
  Pb  Pb46  1  0.17064493  0.83695850  0.83325405  1
  Pb  Pb47  1  0.50322502  0.16680671  0.17072707  1
  Pb  Pb48  1  0.16406893  0.16674392  0.16694647  1
  Pb  Pb49  1  0.83234767  0.83319009  0.83296075  1
  Pb  Pb50  1  0.16315713  0.49985746  0.16680055  1
  Pb  Pb51  1  0.16309211  0.83351622  0.16654691  1
  Pb  Pb52  1  0.16360832  0.83640245  0.50030449  1
  Pb  Pb53  1  0.50189630  0.83237512  0.50136460  1
  I  I54  1  0.16426181  0.00039481  0.16644749  1
  I  I55  1  0.16600736  0.00479574  0.50456150  1
  I  I56  1  0.15775587  0.00461659  0.82818828  1
  I  I57  1  0.16525992  0.33291456  0.16601952  1
  I  I58  1  0.15959277  0.32954463  0.50406039  1
  I  I59  1  0.16396913  0.32951987  0.82815075  1
  I  I60  1  0.16503347  0.66676808  0.16665447  1
  I  I61  1  0.16561806  0.66672046  0.49937251  1
  I  I62  1  0.16316277  0.66668609  0.83434846  1
  I  I63  1  0.50316684  0.00009069  0.16499151  1
  I  I64  1  0.50294337  0.00255626  0.50302496  1
  I  I65  1  0.50220409  -0.00111850  0.83107023  1
  I  I66  1  0.50160744  0.33332218  0.16059865  1
  I  I67  1  0.50728841  0.33342674  0.50696968  1
  I  I68  1  0.50322582  0.33619696  0.83053039  1
  I  I69  1  0.50427618  0.66652871  0.17121600  1
  I  I70  1  0.50867318  0.66322155  0.50314687  1
  I  I71  1  0.51038163  0.66479474  0.82716125  1
  I  I72  1  0.83362150  0.00071816  0.17049044  1
  I  I73  1  0.83331434  0.00161202  0.49735133  1
  I  I74  1  0.83451116  0.00282655  0.83299809  1
  I  I75  1  0.83357829  0.33320173  0.16923780  1
  I  I76  1  0.83336872  0.33273363  0.49810972  1
  I  I77  1  0.83151074  0.33315774  0.83338719  1
  I  I78  1  0.83194371  0.66601273  0.17031858  1
  I  I79  1  0.82733112  0.66550926  0.49651507  1
  I  I80  1  0.83021618  0.66368428  0.83375521  1
  I  I81  1  0.16125424  0.16672646  -0.00291333  1
  I  I82  1  0.16384306  0.16780054  0.33657011  1
  I  I83  1  0.15904954  0.16711784  0.66603190  1
  I  I84  1  0.16655528  0.49685097  -0.00022067  1
  I  I85  1  0.16574957  0.49604319  0.33356741  1
  I  I86  1  0.16034156  0.50069555  0.66662062  1
  I  I87  1  0.16359888  0.83550471  -0.00029161  1
  I  I88  1  0.16996190  0.83557858  0.33354098  1
  I  I89  1  0.16211310  0.83211002  0.66681670  1
  I  I90  1  0.49979446  0.16601728  0.00014070  1
  I  I91  1  0.50056906  0.17279891  0.33884059  1
  I  I92  1  0.50610362  0.16695075  0.66378712  1
  I  I93  1  0.50580483  0.50292181  -0.00312082  1
  I  I94  1  0.50668071  0.49311685  0.33712208  1
  I  I95  1  0.51017597  0.49853001  0.66644483  1
  I  I96  1  0.50386828  0.82922543  -0.00409083  1
  I  I97  1  0.49944160  0.83451860  0.33334300  1
  I  I98  1  0.50576410  0.83368027  0.66905211  1
  I  I99  1  0.83802889  0.16860337  -0.00081123  1
  I  I100  1  0.83329934  0.16835405  0.33458645  1
  I  I101  1  0.83381150  0.16807002  0.66587441  1
  I  I102  1  0.82952365  0.49637704  -0.00081383  1
  I  I103  1  0.83027390  0.49694805  0.33434933  1
  I  I104  1  0.82924770  0.49620752  0.66642700  1
  I  I105  1  0.83110394  0.83448551  0.00225921  1
  I  I106  1  0.83256835  0.83525638  0.33396303  1
  I  I107  1  0.83092036  0.83567466  0.66405350  1
  I  I108  1  -0.00479924  0.16732503  0.17156071  1
  I  I109  1  -0.00226236  0.16628864  0.49990631  1
  I  I110  1  -0.00270679  0.17105718  0.82895046  1
  I  I111  1  -0.00603551  0.49830844  0.16764979  1
  I  I112  1  -0.00397881  0.49906401  0.49957754  1
  I  I113  1  -0.00354803  0.49806371  0.83320643  1
  I  I114  1  -0.00538855  0.83455490  0.16944914  1
  I  I115  1  -0.00512087  0.83228202  0.49698961  1
  I  I116  1  0.00004050  0.83148479  0.83421831  1
  I  I117  1  0.33347708  0.16621737  0.16509609  1
  I  I118  1  0.33369677  0.17229476  0.50895256  1
  I  I119  1  0.33105482  0.16544324  0.82611903  1
  I  I120  1  0.33351203  0.49947498  0.16603156  1
  I  I121  1  0.33712567  0.49362572  0.50757320  1
  I  I122  1  0.33699561  0.50277399  0.82631845  1
  I  I123  1  0.33347098  0.83411045  0.16601124  1
  I  I124  1  0.33343444  0.83421006  0.50185181  1
  I  I125  1  0.33809721  0.82687826  0.82970545  1
  I  I126  1  0.67179868  0.16716182  0.16415316  1
  I  I127  1  0.66850115  0.16713795  0.50023887  1
  I  I128  1  0.66986129  0.16702805  0.83308521  1
  I  I129  1  0.67111971  0.49861467  0.16683778  1
  I  I130  1  0.66861167  0.49465090  0.50068351  1
  I  I131  1  0.66838268  0.49735678  0.83291860  1
  I  I132  1  0.67122073  0.83425700  0.17190595  1
  I  I133  1  0.67043723  0.83907743  0.49681252  1
  I  I134  1  0.66484318  0.83508063  0.83309027  1
