# generated using pymatgen
data_Cs27Sn14Pb13I81
_symmetry_space_group_name_H-M   'P 1'
_cell_length_a   18.98286932
_cell_length_b   18.97240656
_cell_length_c   18.97393080
_cell_angle_alpha   90.00118248
_cell_angle_beta   90.00067269
_cell_angle_gamma   89.99963116
_symmetry_Int_Tables_number   1
_chemical_formula_structural   Cs27Sn14Pb13I81
_chemical_formula_sum   'Cs27 Sn14 Pb13 I81'
_cell_volume   6833.47472997
_cell_formula_units_Z   1
loop_
 _symmetry_equiv_pos_site_id
 _symmetry_equiv_pos_as_xyz
  1  'x, y, z'
loop_
 _atom_site_type_symbol
 _atom_site_label
 _atom_site_symmetry_multiplicity
 _atom_site_fract_x
 _atom_site_fract_y
 _atom_site_fract_z
 _atom_site_occupancy
  Cs  Cs0  1  -0.00235173  0.00396926  0.00238370  1
  Cs  Cs1  1  -0.00095127  0.01044029  0.33202807  1
  Cs  Cs2  1  0.00557726  -0.00088678  0.66519745  1
  Cs  Cs3  1  0.00297424  0.33322662  -0.00196683  1
  Cs  Cs4  1  0.00003271  0.33167265  0.33291318  1
  Cs  Cs5  1  -0.00195825  0.33421143  0.66907974  1
  Cs  Cs6  1  0.00027610  0.66549134  -0.00035392  1
  Cs  Cs7  1  0.00022734  0.66519618  0.33413281  1
  Cs  Cs8  1  0.00094389  0.66745322  0.66701217  1
  Cs  Cs9  1  0.33218577  0.00024479  0.00003718  1
  Cs  Cs10  1  0.33236619  0.00047421  0.33451274  1
  Cs  Cs11  1  0.32563438  0.00376306  0.66684917  1
  Cs  Cs12  1  0.33337032  0.33018129  -0.00383927  1
  Cs  Cs13  1  0.33408420  0.33725336  0.33182512  1
  Cs  Cs14  1  0.33647969  0.32470722  0.67599276  1
  Cs  Cs15  1  0.33428905  0.66703576  0.00283329  1
  Cs  Cs16  1  0.33420948  0.66544182  0.33307285  1
  Cs  Cs17  1  0.33022304  0.66908116  0.66488060  1
  Cs  Cs18  1  0.66905318  -0.00375488  0.00036844  1
  Cs  Cs19  1  0.66869554  0.00002325  0.33319284  1
  Cs  Cs20  1  0.66684820  -0.00019698  0.66741793  1
  Cs  Cs21  1  0.66397407  0.33611495  -0.00445198  1
  Cs  Cs22  1  0.66660720  0.33508598  0.33555511  1
  Cs  Cs23  1  0.66573160  0.32941552  0.66914982  1
  Cs  Cs24  1  0.66706281  0.66899301  0.00032655  1
  Cs  Cs25  1  0.66562562  0.66653123  0.33347284  1
  Cs  Cs26  1  0.66781329  0.66740780  0.66488025  1
  Sn  Sn27  1  0.83309875  0.50101267  0.49918085  1
  Sn  Sn28  1  0.16720496  0.50001744  0.49962068  1
  Sn  Sn29  1  0.83301974  0.16525405  0.83323912  1
  Sn  Sn30  1  0.49929293  0.83347244  0.16703040  1
  Sn  Sn31  1  0.49965368  0.50060097  0.49982678  1
  Sn  Sn32  1  0.50029366  0.83289005  0.83274641  1
  Sn  Sn33  1  0.50004893  0.49993022  0.16713638  1
  Sn  Sn34  1  0.50047846  0.83285337  0.50024665  1
  Sn  Sn35  1  0.50051538  0.16661559  0.16718174  1
  Sn  Sn36  1  0.83277054  0.83411933  0.83233598  1
  Sn  Sn37  1  0.16694261  0.83271562  0.16720541  1
  Sn  Sn38  1  0.83311257  0.50030103  0.16726978  1
  Sn  Sn39  1  0.16691897  0.50108333  0.16748213  1
  Sn  Sn40  1  0.83292554  0.83284565  0.50034142  1
  Pb  Pb41  1  0.50174545  0.16320492  0.83575996  1
  Pb  Pb42  1  0.16370138  0.16637074  0.83353318  1
  Pb  Pb43  1  0.83307989  0.16659199  0.50189833  1
  Pb  Pb44  1  0.83356387  0.83181792  0.16728559  1
  Pb  Pb45  1  0.83316030  0.50102945  0.83267408  1
  Pb  Pb46  1  0.50010286  0.16636006  0.49804575  1
  Pb  Pb47  1  0.16619757  0.83308418  0.83612444  1
  Pb  Pb48  1  0.16912138  0.16726458  0.16685306  1
  Pb  Pb49  1  0.49990129  0.50269616  0.83271046  1
  Pb  Pb50  1  0.16704343  0.50031756  0.83331401  1
  Pb  Pb51  1  0.16634600  0.83189190  0.49736731  1
  Pb  Pb52  1  0.83071252  0.17023915  0.16470814  1
  Pb  Pb53  1  0.16685076  0.17068975  0.49965195  1
  I  I54  1  0.17147271  -0.00286507  0.16522533  1
  I  I55  1  0.16631338  -0.00024242  0.49883200  1
  I  I56  1  0.16970471  -0.00051609  0.83530000  1
  I  I57  1  0.16651484  0.33732317  0.17083672  1
  I  I58  1  0.16546050  0.33926180  0.49106862  1
  I  I59  1  0.16480250  0.33332902  0.83494171  1
  I  I60  1  0.17204564  0.66553202  0.16903593  1
  I  I61  1  0.16649046  0.66348455  0.49712859  1
  I  I62  1  0.16297805  0.66695810  0.83309141  1
  I  I63  1  0.49547772  -0.00186152  0.16577911  1
  I  I64  1  0.50616729  -0.00395185  0.49822174  1
  I  I65  1  0.50255937  -0.00479099  0.83360296  1
  I  I66  1  0.50063980  0.33528328  0.17161494  1
  I  I67  1  0.50088915  0.33708609  0.49418604  1
  I  I68  1  0.50130496  0.33308234  0.83376173  1
  I  I69  1  0.49922923  0.66657713  0.16671875  1
  I  I70  1  0.50139619  0.66667601  0.49515618  1
  I  I71  1  0.50759135  0.67065860  0.83905396  1
  I  I72  1  0.83370153  -0.00000834  0.16864545  1
  I  I73  1  0.82724139  -0.00356610  0.50135597  1
  I  I74  1  0.82777190  -0.00203386  0.82940928  1
  I  I75  1  0.83441464  0.33842476  0.17151633  1
  I  I76  1  0.83301807  0.33715163  0.49703319  1
  I  I77  1  0.83444957  0.33166083  0.83492468  1
  I  I78  1  0.82925094  0.66359668  0.16532579  1
  I  I79  1  0.83176130  0.66624535  0.50231720  1
  I  I80  1  0.82909617  0.66990218  0.83269814  1
  I  I81  1  0.16690487  0.16947182  0.00041754  1
  I  I82  1  0.16433172  0.16296081  0.33289904  1
  I  I83  1  0.16833474  0.16770096  0.66669273  1
  I  I84  1  0.16607886  0.50311713  0.00403896  1
  I  I85  1  0.16690825  0.50444885  0.33233576  1
  I  I86  1  0.16456676  0.50087689  0.66294661  1
  I  I87  1  0.17128638  0.82625176  0.00417842  1
  I  I88  1  0.17195275  0.82968890  0.32952503  1
  I  I89  1  0.16915623  0.83184953  0.66626996  1
  I  I90  1  0.50052560  0.16984048  0.00364156  1
  I  I91  1  0.50058909  0.16312253  0.32989599  1
  I  I92  1  0.50098096  0.16906650  0.66698707  1
  I  I93  1  0.50023437  0.50062266  0.00354251  1
  I  I94  1  0.50042357  0.50405815  0.33248397  1
  I  I95  1  0.50168202  0.50447474  0.66279590  1
  I  I96  1  0.50080626  0.83292476  0.00110037  1
  I  I97  1  0.50068317  0.83173429  0.33303306  1
  I  I98  1  0.50630994  0.82677922  0.66565872  1
  I  I99  1  0.83202244  0.15932453  -0.00284390  1
  I  I100  1  0.83361463  0.16422732  0.33315442  1
  I  I101  1  0.83120342  0.16817165  0.66976705  1
  I  I102  1  0.83319423  0.50026335  0.00282450  1
  I  I103  1  0.83267774  0.50558805  0.33382914  1
  I  I104  1  0.83329158  0.50054364  0.66300747  1
  I  I105  1  0.82997735  0.83475892  -0.00185102  1
  I  I106  1  0.82928712  0.82909446  0.33616472  1
  I  I107  1  0.82502311  0.83066341  0.66598427  1
  I  I108  1  -0.00027997  0.16602759  0.16465280  1
  I  I109  1  -0.00021793  0.16533117  0.50019106  1
  I  I110  1  -0.00426123  0.16037885  0.83461672  1
  I  I111  1  0.00021416  0.50561091  0.17163965  1
  I  I112  1  -0.00079934  0.50397844  0.49383663  1
  I  I113  1  -0.00019217  0.50095238  0.83486779  1
  I  I114  1  0.00213477  0.82668102  0.16556370  1
  I  I115  1  -0.00293912  0.82814868  0.50479583  1
  I  I116  1  -0.00351872  0.83633139  0.82936200  1
  I  I117  1  0.33704965  0.17031400  0.16575114  1
  I  I118  1  0.33359706  0.16487376  0.50067854  1
  I  I119  1  0.33372434  0.16721237  0.83408855  1
  I  I120  1  0.33427645  0.50143360  0.17250269  1
  I  I121  1  0.33444052  0.50556280  0.49139328  1
  I  I122  1  0.33361341  0.50133527  0.83375011  1
  I  I123  1  0.33547156  0.82871032  0.16590127  1
  I  I124  1  0.33653079  0.82921996  0.50159429  1
  I  I125  1  0.33648345  0.83098330  0.83183581  1
  I  I126  1  0.66310937  0.16419735  0.16659062  1
  I  I127  1  0.66662836  0.17217818  0.49931653  1
  I  I128  1  0.66938769  0.16607253  0.83384723  1
  I  I129  1  0.66570541  0.50053408  0.17148593  1
  I  I130  1  0.66645340  0.50445448  0.49272843  1
  I  I131  1  0.66663173  0.49772778  0.83636645  1
  I  I132  1  0.66361442  0.83204347  0.16564323  1
  I  I133  1  0.66599385  0.82573923  0.49869936  1
  I  I134  1  0.66653029  0.83609765  0.83576618  1
