# generated using pymatgen
data_Cs27Sn13Pb14I81
_symmetry_space_group_name_H-M   'P 1'
_cell_length_a   18.97381943
_cell_length_b   18.96996558
_cell_length_c   18.99023558
_cell_angle_alpha   90.00094292
_cell_angle_beta   90.00013505
_cell_angle_gamma   89.99923833
_symmetry_Int_Tables_number   1
_chemical_formula_structural   Cs27Sn13Pb14I81
_chemical_formula_sum   'Cs27 Sn13 Pb14 I81'
_cell_volume   6835.20679365
_cell_formula_units_Z   1
loop_
 _symmetry_equiv_pos_site_id
 _symmetry_equiv_pos_as_xyz
  1  'x, y, z'
loop_
 _atom_site_type_symbol
 _atom_site_label
 _atom_site_symmetry_multiplicity
 _atom_site_fract_x
 _atom_site_fract_y
 _atom_site_fract_z
 _atom_site_occupancy
  Cs  Cs0  1  0.00066304  -0.00084102  0.00276959  1
  Cs  Cs1  1  -0.00108649  -0.00180924  0.33127751  1
  Cs  Cs2  1  -0.00116641  -0.00000629  0.66703876  1
  Cs  Cs3  1  -0.00153978  0.33818675  -0.00198482  1
  Cs  Cs4  1  -0.00128718  0.33455458  0.33439933  1
  Cs  Cs5  1  0.00549190  0.33181309  0.66700618  1
  Cs  Cs6  1  -0.00055367  0.66191618  -0.00051340  1
  Cs  Cs7  1  0.00280414  0.66745320  0.33142473  1
  Cs  Cs8  1  -0.00134149  0.66783382  0.66999978  1
  Cs  Cs9  1  0.33273461  0.00019888  0.00053058  1
  Cs  Cs10  1  0.33319114  0.00055210  0.33220426  1
  Cs  Cs11  1  0.33715087  0.00530787  0.66815422  1
  Cs  Cs12  1  0.33517160  0.33130357  -0.00454308  1
  Cs  Cs13  1  0.33408045  0.33293298  0.33755850  1
  Cs  Cs14  1  0.32565479  0.32785740  0.66677147  1
  Cs  Cs15  1  0.33328272  0.66742005  0.00184150  1
  Cs  Cs16  1  0.33202007  0.66640315  0.33200512  1
  Cs  Cs17  1  0.33507514  0.66640907  0.66642775  1
  Cs  Cs18  1  0.66575026  0.00219296  0.00004880  1
  Cs  Cs19  1  0.66738565  0.00129620  0.33370994  1
  Cs  Cs20  1  0.66354770  -0.00751983  0.66708815  1
  Cs  Cs21  1  0.66709362  0.33366665  0.00004147  1
  Cs  Cs22  1  0.66666675  0.33313064  0.33419392  1
  Cs  Cs23  1  0.66731107  0.33480904  0.66373949  1
  Cs  Cs24  1  0.66659394  0.66420375  -0.00238098  1
  Cs  Cs25  1  0.66575662  0.66542062  0.33461633  1
  Cs  Cs26  1  0.66624120  0.67086948  0.66702086  1
  Sn  Sn27  1  0.83309204  0.49971372  0.49978014  1
  Sn  Sn28  1  0.50044929  0.49998227  0.50018613  1
  Sn  Sn29  1  0.49989686  0.49981664  0.83296549  1
  Sn  Sn30  1  0.16645530  0.83385961  0.16651336  1
  Sn  Sn31  1  0.83443918  0.16626686  0.16648838  1
  Sn  Sn32  1  0.16672937  0.83342346  0.83350135  1
  Sn  Sn33  1  0.50025660  0.83261839  0.16682368  1
  Sn  Sn34  1  0.83322556  0.83348322  0.16661504  1
  Sn  Sn35  1  0.50004439  0.50045766  0.16672990  1
  Sn  Sn36  1  0.16682162  0.83356940  0.50018807  1
  Sn  Sn37  1  0.83317811  0.16697080  0.50018189  1
  Sn  Sn38  1  0.16572186  0.16658049  0.16679111  1
  Sn  Sn39  1  0.83306424  0.16640598  0.83331750  1
  Pb  Pb40  1  0.50232757  0.16878385  0.50007859  1
  Pb  Pb41  1  0.49780944  0.83136722  0.49778462  1
  Pb  Pb42  1  0.16417976  0.16422471  0.49764894  1
  Pb  Pb43  1  0.50238667  0.16880347  0.83319275  1
  Pb  Pb44  1  0.83502735  0.83518695  0.83613084  1
  Pb  Pb45  1  0.16892891  0.50214936  0.83334493  1
  Pb  Pb46  1  0.16639390  0.50200452  0.49999040  1
  Pb  Pb47  1  0.83155277  0.49800911  0.83049476  1
  Pb  Pb48  1  0.50010632  0.16670208  0.16673200  1
  Pb  Pb49  1  0.83136581  0.49974685  0.16829777  1
  Pb  Pb50  1  0.49803695  0.83168916  0.83574695  1
  Pb  Pb51  1  0.16446764  0.16452188  0.83589751  1
  Pb  Pb52  1  0.16913230  0.49941637  0.16661962  1
  Pb  Pb53  1  0.83487036  0.83322427  0.49806078  1
  I  I54  1  0.16759021  -0.00164509  0.16700573  1
  I  I55  1  0.16457744  -0.00370105  0.49954008  1
  I  I56  1  0.16686883  -0.00348703  0.83312287  1
  I  I57  1  0.16178392  0.33011922  0.16706984  1
  I  I58  1  0.16874490  0.33302605  0.49812395  1
  I  I59  1  0.16736589  0.33293627  0.83481158  1
  I  I60  1  0.16439663  0.67025287  0.16695506  1
  I  I61  1  0.16493012  0.67008299  0.49485377  1
  I  I62  1  0.16551382  0.67044698  0.83787337  1
  I  I63  1  0.49925350  -0.00305369  0.16638435  1
  I  I64  1  0.50070835  -0.00029738  0.49811832  1
  I  I65  1  0.49980938  -0.00019946  0.83532067  1
  I  I66  1  0.50080417  0.33637041  0.16717046  1
  I  I67  1  0.50113085  0.33751899  0.49496864  1
  I  I68  1  0.50035836  0.33723695  0.83801122  1
  I  I69  1  0.49936559  0.66723292  0.16716528  1
  I  I70  1  0.50705841  0.66312371  0.50120990  1
  I  I71  1  0.50057209  0.66353039  0.83183017  1
  I  I72  1  0.83257551  0.00023648  0.16908736  1
  I  I73  1  0.83688677  0.00272300  0.49965744  1
  I  I74  1  0.83358316  0.00325474  0.82893196  1
  I  I75  1  0.83638782  0.33013027  0.16567440  1
  I  I76  1  0.82862860  0.33292050  0.49647949  1
  I  I77  1  0.83285729  0.33000786  0.84050325  1
  I  I78  1  0.83637503  0.66940272  0.16908540  1
  I  I79  1  0.83012525  0.66418766  0.49743337  1
  I  I80  1  0.83389743  0.66673553  0.83336143  1
  I  I81  1  0.16207062  0.16039671  0.00383743  1
  I  I82  1  0.16209625  0.16069472  0.32972505  1
  I  I83  1  0.16540305  0.16496664  0.66665403  1
  I  I84  1  0.16794453  0.50246548  0.00019846  1
  I  I85  1  0.16936234  0.50313104  0.33319733  1
  I  I86  1  0.16878941  0.50248750  0.66657582  1
  I  I87  1  0.16760860  0.83736153  0.00183827  1
  I  I88  1  0.16651423  0.83595643  0.33147019  1
  I  I89  1  0.16500800  0.83002146  0.66663898  1
  I  I90  1  0.50248417  0.16987103  0.00031030  1
  I  I91  1  0.50190568  0.16906699  0.33309878  1
  I  I92  1  0.50074624  0.16795281  0.66660090  1
  I  I93  1  0.49901683  0.50459099  0.00081470  1
  I  I94  1  0.50369289  0.50418087  0.33321518  1
  I  I95  1  0.50535910  0.49968860  0.66594519  1
  I  I96  1  0.49826806  0.82784831  0.00411839  1
  I  I97  1  0.49784403  0.82802555  0.32942637  1
  I  I98  1  0.49839471  0.83130768  0.66666721  1
  I  I99  1  0.83646069  0.16126866  0.00155873  1
  I  I100  1  0.83668192  0.16675597  0.33248465  1
  I  I101  1  0.83243517  0.17313205  0.66601806  1
  I  I102  1  0.83137662  0.49940863  0.00004231  1
  I  I103  1  0.82743099  0.49531609  0.33598141  1
  I  I104  1  0.82798615  0.49640702  0.66262504  1
  I  I105  1  0.83492608  0.83783133  0.00447320  1
  I  I106  1  0.83549734  0.83788043  0.32974454  1
  I  I107  1  0.83605976  0.83414809  0.66667338  1
  I  I108  1  -0.00111954  0.15748106  0.16750303  1
  I  I109  1  -0.00389709  0.17390859  0.50094352  1
  I  I110  1  -0.00345098  0.16704146  0.83161082  1
  I  I111  1  -0.00020747  0.50292077  0.16882135  1
  I  I112  1  -0.00310439  0.49647271  0.49847819  1
  I  I113  1  -0.00021942  0.50020665  0.83218719  1
  I  I114  1  0.00049266  0.83890083  0.16750292  1
  I  I115  1  0.00277856  0.83155173  0.49588747  1
  I  I116  1  0.00310726  0.83337714  0.83588170  1
  I  I117  1  0.33063763  0.16257579  0.16634948  1
  I  I118  1  0.33289223  0.16795475  0.49799400  1
  I  I119  1  0.33300065  0.16735169  0.83544099  1
  I  I120  1  0.33741856  0.50492491  0.16963604  1
  I  I121  1  0.33647571  0.50376291  0.49836409  1
  I  I122  1  0.33724021  0.50047587  0.83241592  1
  I  I123  1  0.33251158  0.83257171  0.16675379  1
  I  I124  1  0.32987331  0.83059042  0.49628962  1
  I  I125  1  0.33000645  0.83236125  0.83645060  1
  I  I126  1  0.67018036  0.16345793  0.16712256  1
  I  I127  1  0.67097945  0.16732852  0.49497549  1
  I  I128  1  0.67063990  0.16638473  0.83808998  1
  I  I129  1  0.66329383  0.50414143  0.16561110  1
  I  I130  1  0.66643405  0.49600058  0.49839193  1
  I  I131  1  0.66354748  0.50034129  0.83694811  1
  I  I132  1  0.66691832  0.83382066  0.16761423  1
  I  I133  1  0.66673251  0.83475490  0.49772234  1
  I  I134  1  0.66667293  0.83355036  0.83478185  1
