# generated using pymatgen
data_Cs27Sn14Pb13I81
_symmetry_space_group_name_H-M   'P 1'
_cell_length_a   18.97665035
_cell_length_b   18.97665030
_cell_length_c   18.97223955
_cell_angle_alpha   89.99851473
_cell_angle_beta   90.00148529
_cell_angle_gamma   89.99993456
_symmetry_Int_Tables_number   1
_chemical_formula_structural   Cs27Sn14Pb13I81
_chemical_formula_sum   'Cs27 Sn14 Pb13 I81'
_cell_volume   6832.15498358
_cell_formula_units_Z   1
loop_
 _symmetry_equiv_pos_site_id
 _symmetry_equiv_pos_as_xyz
  1  'x, y, z'
loop_
 _atom_site_type_symbol
 _atom_site_label
 _atom_site_symmetry_multiplicity
 _atom_site_fract_x
 _atom_site_fract_y
 _atom_site_fract_z
 _atom_site_occupancy
  Cs  Cs0  1  0.00053924  0.00137611  -0.00140749  1
  Cs  Cs1  1  0.00137609  0.00053925  0.33474094  1
  Cs  Cs2  1  -0.00168654  -0.00168655  0.66666658  1
  Cs  Cs3  1  0.00160103  0.33104101  -0.00026173  1
  Cs  Cs4  1  -0.00172318  0.33143970  0.33208863  1
  Cs  Cs5  1  -0.00073425  0.33511839  0.66932991  1
  Cs  Cs6  1  -0.00231527  0.66682860  -0.00096569  1
  Cs  Cs7  1  -0.00378943  0.66485836  0.33670843  1
  Cs  Cs8  1  0.00108242  0.66686722  0.66582214  1
  Cs  Cs9  1  0.33143966  -0.00172312  0.00124472  1
  Cs  Cs10  1  0.33104115  0.00160098  0.33359513  1
  Cs  Cs11  1  0.33511838  -0.00073429  0.66400336  1
  Cs  Cs12  1  0.33064680  0.33597082  0.00420814  1
  Cs  Cs13  1  0.33597083  0.33064696  0.32912524  1
  Cs  Cs14  1  0.34254609  0.34254597  0.66666676  1
  Cs  Cs15  1  0.33575934  0.66596161  -0.00155640  1
  Cs  Cs16  1  0.33023746  0.66754465  0.33523074  1
  Cs  Cs17  1  0.33218027  0.65820237  0.66723703  1
  Cs  Cs18  1  0.66485840  -0.00378941  -0.00337539  1
  Cs  Cs19  1  0.66682849  -0.00231533  0.33429906  1
  Cs  Cs20  1  0.66686726  0.00108244  0.66751125  1
  Cs  Cs21  1  0.66754477  0.33023745  -0.00189751  1
  Cs  Cs22  1  0.66596169  0.33575925  0.33488970  1
  Cs  Cs23  1  0.65820232  0.33218049  0.66609642  1
  Cs  Cs24  1  0.66756545  0.67234682  0.00177742  1
  Cs  Cs25  1  0.67234683  0.66756525  0.33155582  1
  Cs  Cs26  1  0.66655685  0.66655684  0.66666670  1
  Sn  Sn27  1  0.83333620  0.50068191  0.83335455  1
  Sn  Sn28  1  0.16680409  0.50031088  0.16680053  1
  Sn  Sn29  1  0.16640649  0.16640649  0.16666665  1
  Sn  Sn30  1  0.83255309  0.83430032  0.50088724  1
  Sn  Sn31  1  0.50031090  0.16680407  0.16653281  1
  Sn  Sn32  1  0.16628623  0.16687792  0.50077383  1
  Sn  Sn33  1  0.16687787  0.16628623  0.83255948  1
  Sn  Sn34  1  0.16611727  0.83306561  0.16604189  1
  Sn  Sn35  1  0.50068191  0.83333622  0.49997880  1
  Sn  Sn36  1  0.49979668  0.49979664  0.16666667  1
  Sn  Sn37  1  0.83306559  0.16611722  0.16729149  1
  Sn  Sn38  1  0.83407711  0.16610355  0.49949203  1
  Sn  Sn39  1  0.83430036  0.83255305  0.83244616  1
  Sn  Sn40  1  0.16610353  0.83407716  0.83384129  1
  Pb  Pb41  1  0.83477674  0.16614669  0.83273272  1
  Pb  Pb42  1  0.49616619  0.16650566  0.83618589  1
  Pb  Pb43  1  0.83333070  0.49744727  0.16482074  1
  Pb  Pb44  1  0.16532620  0.50020933  0.83539908  1
  Pb  Pb45  1  0.16614664  0.83477673  0.50060057  1
  Pb  Pb46  1  0.50020942  0.16532621  0.49793427  1
  Pb  Pb47  1  0.49931764  0.83336906  0.83086351  1
  Pb  Pb48  1  0.16650566  0.49616613  0.49714750  1
  Pb  Pb49  1  0.49744730  0.83333067  0.16851258  1
  Pb  Pb50  1  0.83572147  0.83572147  0.16666667  1
  Pb  Pb51  1  0.50016830  0.50302985  0.49683318  1
  Pb  Pb52  1  0.83336916  0.49931766  0.50246983  1
  Pb  Pb53  1  0.50302987  0.50016826  0.83650015  1
  I  I54  1  0.16681562  0.00150032  0.16601580  1
  I  I55  1  0.16555885  0.00292884  0.49398413  1
  I  I56  1  0.16021492  -0.00010883  0.83985799  1
  I  I57  1  0.16746089  0.33158407  0.16656317  1
  I  I58  1  0.15975573  0.32783739  0.50026384  1
  I  I59  1  0.16319898  0.33057481  0.83586019  1
  I  I60  1  0.17207120  0.66699680  0.16128994  1
  I  I61  1  0.16665756  0.66665281  0.49885553  1
  I  I62  1  0.16431271  0.66978924  0.83816835  1
  I  I63  1  0.49800480  0.00272241  0.16850166  1
  I  I64  1  0.50118950  -0.00237891  0.49667687  1
  I  I65  1  0.50497631  -0.00004416  0.83659223  1
  I  I66  1  0.49387916  0.33217441  0.16707527  1
  I  I67  1  0.49992845  0.33330256  0.50103520  1
  I  I68  1  0.50194325  0.33324725  0.82976876  1
  I  I69  1  0.49442834  0.66426557  0.16803845  1
  I  I70  1  0.50557874  0.67079062  0.49825256  1
  I  I71  1  0.49552493  0.66683473  0.83531179  1
  I  I72  1  0.83397820  0.00386195  0.16601775  1
  I  I73  1  0.83382411  0.00011287  0.50149362  1
  I  I74  1  0.83634183  -0.00269405  0.83241103  1
  I  I75  1  0.83849482  0.32933133  0.16986562  1
  I  I76  1  0.83874109  0.32963083  0.49604793  1
  I  I77  1  0.83623483  0.33461801  0.83610094  1
  I  I78  1  0.83375834  0.66693154  0.16869703  1
  I  I79  1  0.82980208  0.66984516  0.50113127  1
  I  I80  1  0.83983847  0.66865151  0.82916968  1
  I  I81  1  0.16597186  0.16614619  0.00150370  1
  I  I82  1  0.16614604  0.16597170  0.33182957  1
  I  I83  1  0.15876642  0.15876652  0.66666666  1
  I  I84  1  0.16913283  0.49450797  0.00359624  1
  I  I85  1  0.16913612  0.50188724  0.32862290  1
  I  I86  1  0.16557275  0.50035123  0.66683501  1
  I  I87  1  0.16197064  0.83902772  0.00007130  1
  I  I88  1  0.16760689  0.83522425  0.33091527  1
  I  I89  1  0.16503301  0.83946426  0.66950821  1
  I  I90  1  0.50188755  0.16913595  0.00471044  1
  I  I91  1  0.49450784  0.16913279  0.32973709  1
  I  I92  1  0.50035114  0.16557291  0.66649838  1
  I  I93  1  0.49405205  0.49611652  0.00416849  1
  I  I94  1  0.49611644  0.49405224  0.32916483  1
  I  I95  1  0.50015007  0.50014979  0.66666669  1
  I  I96  1  0.50238345  0.83333788  0.00024777  1
  I  I97  1  0.50534306  0.83405160  0.33607797  1
  I  I98  1  0.49984262  0.83617677  0.66309545  1
  I  I99  1  0.83522394  0.16760683  0.00241808  1
  I  I100  1  0.83902796  0.16197082  0.33326203  1
  I  I101  1  0.83946423  0.16503288  0.66382514  1
  I  I102  1  0.83405164  0.50534317  -0.00274463  1
  I  I103  1  0.83333787  0.50238347  0.33308554  1
  I  I104  1  0.83617670  0.49984254  0.67023789  1
  I  I105  1  0.83607473  0.83131980  -0.00248829  1
  I  I106  1  0.83131987  0.83607467  0.33582161  1
  I  I107  1  0.83562531  0.83562542  0.66666665  1
  I  I108  1  0.00150034  0.16681594  0.16731721  1
  I  I109  1  -0.00010879  0.16021478  0.49347547  1
  I  I110  1  0.00292890  0.16555883  0.83934938  1
  I  I111  1  0.00272238  0.49800474  0.16483184  1
  I  I112  1  -0.00004419  0.50497654  0.49674096  1
  I  I113  1  -0.00237894  0.50118966  0.83665636  1
  I  I114  1  0.00386187  0.83397781  0.16731560  1
  I  I115  1  -0.00269405  0.83634171  0.50092240  1
  I  I116  1  0.00011286  0.83382391  0.83183959  1
  I  I117  1  0.33158407  0.16746056  0.16677006  1
  I  I118  1  0.33057476  0.16319907  0.49747316  1
  I  I119  1  0.32783735  0.15975607  0.83306939  1
  I  I120  1  0.33217440  0.49387939  0.16625809  1
  I  I121  1  0.33324728  0.50194303  0.50356473  1
  I  I122  1  0.33330256  0.49992843  0.83229793  1
  I  I123  1  0.32933126  0.83849493  0.16346768  1
  I  I124  1  0.33461797  0.83623487  0.49723254  1
  I  I125  1  0.32963084  0.83874096  0.83728553  1
  I  I126  1  0.66699682  0.17207126  0.17204376  1
  I  I127  1  0.66978921  0.16431254  0.49516479  1
  I  I128  1  0.66665274  0.16665735  0.83447763  1
  I  I129  1  0.66426552  0.49442839  0.16529485  1
  I  I130  1  0.66683463  0.49552476  0.49802140  1
  I  I131  1  0.67079057  0.50557863  0.83508087  1
  I  I132  1  0.66693153  0.83375842  0.16463630  1
  I  I133  1  0.66865145  0.83983880  0.50416359  1
  I  I134  1  0.66984516  0.82980235  0.83220226  1
