# generated using pymatgen
data_Cs27Sn14Pb13I81
_symmetry_space_group_name_H-M   'P 1'
_cell_length_a   18.98803372
_cell_length_b   18.96951097
_cell_length_c   18.96934982
_cell_angle_alpha   89.99649988
_cell_angle_beta   89.99980915
_cell_angle_gamma   89.99964587
_symmetry_Int_Tables_number   1
_chemical_formula_structural   Cs27Sn14Pb13I81
_chemical_formula_sum   'Cs27 Sn14 Pb13 I81'
_cell_volume   6832.64055106
_cell_formula_units_Z   1
loop_
 _symmetry_equiv_pos_site_id
 _symmetry_equiv_pos_as_xyz
  1  'x, y, z'
loop_
 _atom_site_type_symbol
 _atom_site_label
 _atom_site_symmetry_multiplicity
 _atom_site_fract_x
 _atom_site_fract_y
 _atom_site_fract_z
 _atom_site_occupancy
  Cs  Cs0  1  -0.00352007  -0.00205787  -0.00182517  1
  Cs  Cs1  1  -0.00080352  -0.00233527  0.33262369  1
  Cs  Cs2  1  -0.00264265  0.00431935  0.66940798  1
  Cs  Cs3  1  0.00150742  0.33360834  0.00269541  1
  Cs  Cs4  1  -0.00258848  0.33407423  0.33278125  1
  Cs  Cs5  1  0.00226183  0.33277344  0.66287728  1
  Cs  Cs6  1  0.00156477  0.66813133  -0.00125369  1
  Cs  Cs7  1  0.00179355  0.66829942  0.33749724  1
  Cs  Cs8  1  0.00091961  0.66421396  0.66513668  1
  Cs  Cs9  1  0.33161099  -0.00084562  0.00004456  1
  Cs  Cs10  1  0.33427098  -0.00905229  0.34084711  1
  Cs  Cs11  1  0.33407327  0.00779579  0.66009714  1
  Cs  Cs12  1  0.33337603  0.33578348  0.00148079  1
  Cs  Cs13  1  0.33351236  0.33311444  0.32889117  1
  Cs  Cs14  1  0.33278882  0.32596676  0.66510192  1
  Cs  Cs15  1  0.33318608  0.66427633  -0.00251505  1
  Cs  Cs16  1  0.33292384  0.67490429  0.33596408  1
  Cs  Cs17  1  0.33342185  0.66613361  0.67107101  1
  Cs  Cs18  1  0.67188806  -0.00193505  -0.00176429  1
  Cs  Cs19  1  0.66664063  -0.00189684  0.33486755  1
  Cs  Cs20  1  0.66818237  0.00318737  0.66665329  1
  Cs  Cs21  1  0.66541788  0.33465084  0.00277071  1
  Cs  Cs22  1  0.66923620  0.33353212  0.33057874  1
  Cs  Cs23  1  0.66547314  0.33365207  0.66668115  1
  Cs  Cs24  1  0.66557316  0.66649947  -0.00151224  1
  Cs  Cs25  1  0.66591437  0.66754271  0.33401116  1
  Cs  Cs26  1  0.66657172  0.66448188  0.66801923  1
  Sn  Sn27  1  0.49990373  0.16662130  0.16650219  1
  Sn  Sn28  1  0.83327808  0.16726522  0.16731787  1
  Sn  Sn29  1  0.49902228  0.83325749  0.83339336  1
  Sn  Sn30  1  0.16668002  0.49975903  0.16627918  1
  Sn  Sn31  1  0.16683919  0.16688265  0.16671582  1
  Sn  Sn32  1  0.49977156  0.49986589  0.16711508  1
  Sn  Sn33  1  0.49970928  0.50020852  0.83311033  1
  Sn  Sn34  1  0.83357128  0.49966440  0.83415290  1
  Sn  Sn35  1  0.83317707  0.16600331  0.49903554  1
  Sn  Sn36  1  0.83322862  0.83402724  0.50020494  1
  Sn  Sn37  1  0.16679069  0.50027427  0.83397916  1
  Sn  Sn38  1  0.16785462  0.83299218  0.83319997  1
  Sn  Sn39  1  0.49937336  0.49983028  0.49971075  1
  Sn  Sn40  1  0.83350253  0.49985838  0.16589938  1
  Pb  Pb41  1  0.83330164  0.83275454  0.16844027  1
  Pb  Pb42  1  0.50210009  0.16896131  0.49696878  1
  Pb  Pb43  1  0.16675361  0.16710700  0.83564884  1
  Pb  Pb44  1  0.16441848  0.83330969  0.50374600  1
  Pb  Pb45  1  0.16983514  0.49994619  0.49968119  1
  Pb  Pb46  1  0.83334832  0.83070621  0.83133013  1
  Pb  Pb47  1  0.50181861  0.83122673  0.50313735  1
  Pb  Pb48  1  0.16425544  0.16690393  0.49640128  1
  Pb  Pb49  1  0.50000762  0.16692178  0.83585135  1
  Pb  Pb50  1  0.83331235  0.16984732  0.83392488  1
  Pb  Pb51  1  0.50005774  0.83306509  0.16431260  1
  Pb  Pb52  1  0.16669325  0.83293178  0.16454478  1
  Pb  Pb53  1  0.83179004  0.49953570  0.49955670  1
  I  I54  1  0.16496167  0.00305904  0.16478291  1
  I  I55  1  0.16916887  0.00008303  0.49982094  1
  I  I56  1  0.17072554  -0.00277823  0.83499443  1
  I  I57  1  0.16651815  0.33474892  0.16093735  1
  I  I58  1  0.16379392  0.33354115  0.50655919  1
  I  I59  1  0.16753712  0.33713691  0.83547951  1
  I  I60  1  0.16671709  0.66285241  0.16452696  1
  I  I61  1  0.16243577  0.66650096  0.49405817  1
  I  I62  1  0.16720582  0.66460818  0.83941374  1
  I  I63  1  0.50153885  0.00303856  0.16426178  1
  I  I64  1  0.49987553  0.00012642  0.50009587  1
  I  I65  1  0.49584284  -0.00281411  0.83563256  1
  I  I66  1  0.50086960  0.33511105  0.16454228  1
  I  I67  1  0.50286782  0.33691964  0.50633211  1
  I  I68  1  0.49978467  0.33737156  0.83203595  1
  I  I69  1  0.50062166  0.66258242  0.16794928  1
  I  I70  1  0.50400349  0.66323310  0.49404175  1
  I  I71  1  0.50004859  0.66422998  0.83564675  1
  I  I72  1  0.83318660  0.00329153  0.16870343  1
  I  I73  1  0.83284220  0.00100230  0.49426838  1
  I  I74  1  0.83335501  -0.00001904  0.83522786  1
  I  I75  1  0.83301217  0.33406961  0.16882090  1
  I  I76  1  0.83173797  0.33103552  0.49755859  1
  I  I77  1  0.83220611  0.33808872  0.83271390  1
  I  I78  1  0.83250480  0.66273160  0.16404435  1
  I  I79  1  0.83129811  0.66805284  0.50126759  1
  I  I80  1  0.83234071  0.66255696  0.83743081  1
  I  I81  1  0.16318550  0.16925712  0.00395331  1
  I  I82  1  0.16838641  0.17525651  0.32823178  1
  I  I83  1  0.16479947  0.16695759  0.66659448  1
  I  I84  1  0.16968586  0.49976637  0.00024097  1
  I  I85  1  0.16456344  0.49452674  0.32952472  1
  I  I86  1  0.16487406  0.50535762  0.67010517  1
  I  I87  1  0.16884910  0.83047584  -0.00337197  1
  I  I88  1  0.16565606  0.83284392  0.33349806  1
  I  I89  1  0.17020988  0.82383020  0.67152735  1
  I  I90  1  0.50338339  0.17352766  0.00408370  1
  I  I91  1  0.49854911  0.17380239  0.32886399  1
  I  I92  1  0.50200905  0.16812099  0.66649208  1
  I  I93  1  0.50061059  0.49988072  0.00021009  1
  I  I94  1  0.50249249  0.49426507  0.33177346  1
  I  I95  1  0.50251292  0.50577595  0.66804887  1
  I  I96  1  0.49815725  0.82615483  -0.00349756  1
  I  I97  1  0.50108901  0.83188350  0.33355767  1
  I  I98  1  0.49722324  0.82545643  0.67092602  1
  I  I99  1  0.83317828  0.16911245  0.00381262  1
  I  I100  1  0.83336164  0.16990243  0.33156783  1
  I  I101  1  0.83274199  0.16409631  0.66416571  1
  I  I102  1  0.82936013  0.49559211  0.00089866  1
  I  I103  1  0.83288986  0.49866642  0.33009195  1
  I  I104  1  0.83237257  0.50099385  0.66912029  1
  I  I105  1  0.83334267  0.83605199  -0.00043741  1
  I  I106  1  0.83255339  0.83177656  0.33626547  1
  I  I107  1  0.83286771  0.83793302  0.66372846  1
  I  I108  1  -0.00055115  0.17394803  0.17020632  1
  I  I109  1  -0.00389556  0.16523259  0.49548402  1
  I  I110  1  -0.00010363  0.16558883  0.83502844  1
  I  I111  1  -0.00016725  0.49375587  0.15936422  1
  I  I112  1  -0.00005982  0.50015704  0.50091620  1
  I  I113  1  0.00037310  0.50377785  0.84009040  1
  I  I114  1  -0.00004549  0.83318092  0.16420966  1
  I  I115  1  -0.00344237  0.83493987  0.50032439  1
  I  I116  1  0.00238469  0.82826401  0.83272542  1
  I  I117  1  0.33343983  0.17566924  0.16267534  1
  I  I118  1  0.33358856  0.16759262  0.49988467  1
  I  I119  1  0.33340184  0.17024877  0.83525168  1
  I  I120  1  0.33359192  0.49287873  0.16281887  1
  I  I121  1  0.33768373  0.50072098  0.49977606  1
  I  I122  1  0.33360407  0.50521169  0.83725568  1
  I  I123  1  0.33340051  0.83470292  0.16917220  1
  I  I124  1  0.33352492  0.83199660  0.49813763  1
  I  I125  1  0.33352869  0.82264206  0.83575609  1
  I  I126  1  0.66713130  0.17453642  0.17022793  1
  I  I127  1  0.66992654  0.16398018  0.49410765  1
  I  I128  1  0.66674961  0.16603724  0.83564725  1
  I  I129  1  0.66654149  0.49443335  0.16388550  1
  I  I130  1  0.66407062  0.50002604  0.50067555  1
  I  I131  1  0.66598219  0.50346426  0.83585940  1
  I  I132  1  0.66668165  0.83267915  0.16370089  1
  I  I133  1  0.66947256  0.83653600  0.50142374  1
  I  I134  1  0.66433288  0.82762741  0.83288238  1
