# generated using pymatgen
data_Cs27Sn14Pb13I81
_symmetry_space_group_name_H-M   'P 1'
_cell_length_a   18.97353201
_cell_length_b   18.97898870
_cell_length_c   18.97439975
_cell_angle_alpha   90.00159984
_cell_angle_beta   89.99980405
_cell_angle_gamma   90.00091597
_symmetry_Int_Tables_number   1
_chemical_formula_structural   Cs27Sn14Pb13I81
_chemical_formula_sum   'Cs27 Sn14 Pb13 I81'
_cell_volume   6832.65192693
_cell_formula_units_Z   1
loop_
 _symmetry_equiv_pos_site_id
 _symmetry_equiv_pos_as_xyz
  1  'x, y, z'
loop_
 _atom_site_type_symbol
 _atom_site_label
 _atom_site_symmetry_multiplicity
 _atom_site_fract_x
 _atom_site_fract_y
 _atom_site_fract_z
 _atom_site_occupancy
  Cs  Cs0  1  -0.00036894  -0.00134461  0.00079919  1
  Cs  Cs1  1  0.00106265  0.00117681  0.33138603  1
  Cs  Cs2  1  -0.00065658  0.00166351  0.66742312  1
  Cs  Cs3  1  0.00260234  0.33546631  0.00333429  1
  Cs  Cs4  1  -0.00455350  0.33363337  0.33379663  1
  Cs  Cs5  1  -0.00078036  0.33257390  0.66317176  1
  Cs  Cs6  1  0.00121640  0.66832697  -0.00053185  1
  Cs  Cs7  1  -0.00102879  0.66549983  0.33201037  1
  Cs  Cs8  1  0.00107758  0.66718561  0.66877351  1
  Cs  Cs9  1  0.33158561  0.00113737  0.00122857  1
  Cs  Cs10  1  0.33537947  -0.00124968  0.33392157  1
  Cs  Cs11  1  0.33042810  -0.00273370  0.66353386  1
  Cs  Cs12  1  0.33927984  0.33467558  -0.00011527  1
  Cs  Cs13  1  0.33308459  0.33262029  0.33547723  1
  Cs  Cs14  1  0.33366048  0.33441363  0.66589760  1
  Cs  Cs15  1  0.33180181  0.66383253  -0.00173299  1
  Cs  Cs16  1  0.33470464  0.66909741  0.33507281  1
  Cs  Cs17  1  0.33301157  0.66667631  0.66616506  1
  Cs  Cs18  1  0.66944743  0.00499394  -0.00018580  1
  Cs  Cs19  1  0.66185078  -0.00434862  0.32994604  1
  Cs  Cs20  1  0.67056790  0.00063953  0.67053957  1
  Cs  Cs21  1  0.65367585  0.33250780  -0.00142201  1
  Cs  Cs22  1  0.67156376  0.33603068  0.33433873  1
  Cs  Cs23  1  0.66720448  0.33121562  0.66708140  1
  Cs  Cs24  1  0.66467881  0.66286782  -0.00115825  1
  Cs  Cs25  1  0.66749036  0.66819386  0.33342563  1
  Cs  Cs26  1  0.66663209  0.66704820  0.66603800  1
  Sn  Sn27  1  0.16657530  0.16687801  0.83395109  1
  Sn  Sn28  1  0.83432004  0.83402136  0.16732751  1
  Sn  Sn29  1  0.83421104  0.49949357  0.83372664  1
  Sn  Sn30  1  0.16749357  0.83352413  0.83338493  1
  Sn  Sn31  1  0.49921716  0.83372902  0.83362526  1
  Sn  Sn32  1  0.16555677  0.49960841  0.83243467  1
  Sn  Sn33  1  0.16712242  0.50072239  0.50054900  1
  Sn  Sn34  1  0.83464452  0.83346870  0.49938045  1
  Sn  Sn35  1  0.50000509  0.16732949  0.50008328  1
  Sn  Sn36  1  0.16552902  0.83253207  0.49984439  1
  Sn  Sn37  1  0.16595053  0.16608742  0.16598252  1
  Sn  Sn38  1  0.83406534  0.16616601  0.16638838  1
  Sn  Sn39  1  0.16607596  0.83397667  0.16676934  1
  Sn  Sn40  1  0.49930545  0.49905279  0.50012545  1
  Pb  Pb41  1  0.49924789  0.50167857  0.83124244  1
  Pb  Pb42  1  0.49985407  0.83332686  0.16367930  1
  Pb  Pb43  1  0.83586267  0.16956857  0.83587828  1
  Pb  Pb44  1  0.49713098  0.16419893  0.83106931  1
  Pb  Pb45  1  0.83390197  0.83220787  0.83403305  1
  Pb  Pb46  1  0.49981380  0.50026954  0.17020912  1
  Pb  Pb47  1  0.83092962  0.16373321  0.49772597  1
  Pb  Pb48  1  0.16743106  0.16663030  0.49956554  1
  Pb  Pb49  1  0.83343919  0.50020397  0.16377892  1
  Pb  Pb50  1  0.83395872  0.50212517  0.50180972  1
  Pb  Pb51  1  0.50001567  0.83314095  0.50169506  1
  Pb  Pb52  1  0.49953526  0.16657658  0.16889681  1
  Pb  Pb53  1  0.16685789  0.50001173  0.16700719  1
  I  I54  1  0.16297520  -0.00106359  0.16362139  1
  I  I55  1  0.16558677  -0.00305344  0.50278477  1
  I  I56  1  0.17184407  -0.00105559  0.83313800  1
  I  I57  1  0.16287576  0.33018734  0.16407251  1
  I  I58  1  0.17026096  0.33585738  0.50364977  1
  I  I59  1  0.16125643  0.33383562  0.83268373  1
  I  I60  1  0.16221001  0.67014765  0.16443473  1
  I  I61  1  0.16932460  0.66745969  0.50323492  1
  I  I62  1  0.16687038  0.66727566  0.83263142  1
  I  I63  1  0.49949134  -0.00016995  0.17090080  1
  I  I64  1  0.49874817  0.00144775  0.50086389  1
  I  I65  1  0.49523275  -0.00342494  0.82973562  1
  I  I66  1  0.49977261  0.33314921  0.16292103  1
  I  I67  1  0.49247769  0.33430954  0.50068855  1
  I  I68  1  0.50003440  0.33326144  0.83410067  1
  I  I69  1  0.50054083  0.66716335  0.16844375  1
  I  I70  1  0.49799212  0.66459939  0.50258783  1
  I  I71  1  0.49430066  0.66937028  0.83064085  1
  I  I72  1  0.83814729  -0.00115313  0.17005022  1
  I  I73  1  0.83886030  -0.00415977  0.50124413  1
  I  I74  1  0.83246858  0.00014458  0.83106248  1
  I  I75  1  0.83924786  0.33041053  0.16624011  1
  I  I76  1  0.83471200  0.33333555  0.49894770  1
  I  I77  1  0.83907464  0.33709203  0.83240006  1
  I  I78  1  0.83834853  0.67013873  0.16955391  1
  I  I79  1  0.83235807  0.67007668  0.49411159  1
  I  I80  1  0.83921723  0.66457668  0.83408707  1
  I  I81  1  0.16314948  0.16254341  -0.00005383  1
  I  I82  1  0.16526736  0.16313255  0.33059926  1
  I  I83  1  0.16986951  0.16405395  0.66903311  1
  I  I84  1  0.16214234  0.50343594  -0.00313093  1
  I  I85  1  0.17159838  0.50361764  0.33665408  1
  I  I86  1  0.16706845  0.50378690  0.66700094  1
  I  I87  1  0.16650801  0.83341917  -0.00029251  1
  I  I88  1  0.16261158  0.83344345  0.33357624  1
  I  I89  1  0.16743044  0.83267129  0.66674912  1
  I  I90  1  0.50189110  0.16535970  -0.00018779  1
  I  I91  1  0.49640767  0.16922337  0.33658583  1
  I  I92  1  0.49782934  0.17010965  0.66356900  1
  I  I93  1  0.50054445  0.50135004  -0.00057372  1
  I  I94  1  0.49326183  0.49812912  0.33847703  1
  I  I95  1  0.49731612  0.49799365  0.66357730  1
  I  I96  1  0.49501364  0.83241499  -0.00402902  1
  I  I97  1  0.49811349  0.83281089  0.33345168  1
  I  I98  1  0.49475397  0.83264013  0.66923330  1
  I  I99  1  0.83491109  0.15764558  0.00357861  1
  I  I100  1  0.84160016  0.16680053  0.32994648  1
  I  I101  1  0.83317639  0.16551488  0.66676296  1
  I  I102  1  0.84171608  0.50426167  -0.00382614  1
  I  I103  1  0.83256623  0.49898267  0.33332011  1
  I  I104  1  0.83588726  0.50363654  0.66952467  1
  I  I105  1  0.83681141  0.83556421  0.00287724  1
  I  I106  1  0.84032345  0.83540634  0.33307075  1
  I  I107  1  0.83550782  0.83011840  0.66469142  1
  I  I108  1  0.00125822  0.16142592  0.16348111  1
  I  I109  1  -0.00001465  0.16896143  0.50166892  1
  I  I110  1  0.00414926  0.15986098  0.83260015  1
  I  I111  1  0.00022889  0.49933902  0.17114294  1
  I  I112  1  0.00321005  0.50292934  0.50263677  1
  I  I113  1  0.00268845  0.50358703  0.82778411  1
  I  I114  1  0.00133591  0.83722048  0.16553740  1
  I  I115  1  0.00193377  0.82786867  0.50180710  1
  I  I116  1  0.00357505  0.83399962  0.83301606  1
  I  I117  1  0.32975098  0.16182407  0.16381939  1
  I  I118  1  0.33516471  0.16555036  0.49885080  1
  I  I119  1  0.32891220  0.17148830  0.84007066  1
  I  I120  1  0.33285262  0.50012657  0.16121578  1
  I  I121  1  0.33168135  0.50254796  0.50591731  1
  I  I122  1  0.32969142  0.49957786  0.83143213  1
  I  I123  1  0.32948593  0.83765337  0.17006556  1
  I  I124  1  0.33011073  0.83257559  0.49839129  1
  I  I125  1  0.33033909  0.83090910  0.83203237  1
  I  I126  1  0.66950587  0.16120748  0.16907900  1
  I  I127  1  0.66331487  0.17204966  0.49917762  1
  I  I128  1  0.66660047  0.16642237  0.83408618  1
  I  I129  1  0.66696889  0.50051308  0.16485672  1
  I  I130  1  0.66455154  0.49818928  0.50191819  1
  I  I131  1  0.66839890  0.50454924  0.83288005  1
  I  I132  1  0.66998092  0.83693902  0.17107620  1
  I  I133  1  0.66897393  0.83330325  0.49714331  1
  I  I134  1  0.66517501  0.82949304  0.83091782  1
