# generated using pymatgen
data_Cs27Sn13Pb14I81
_symmetry_space_group_name_H-M   'P 1'
_cell_length_a   18.98139177
_cell_length_b   18.98137366
_cell_length_c   18.97025314
_cell_angle_alpha   90.00023105
_cell_angle_beta   90.00000025
_cell_angle_gamma   90.00150590
_symmetry_Int_Tables_number   1
_chemical_formula_structural   Cs27Sn13Pb14I81
_chemical_formula_sum   'Cs27 Sn13 Pb14 I81'
_cell_volume   6834.84732280
_cell_formula_units_Z   1
loop_
 _symmetry_equiv_pos_site_id
 _symmetry_equiv_pos_as_xyz
  1  'x, y, z'
loop_
 _atom_site_type_symbol
 _atom_site_label
 _atom_site_symmetry_multiplicity
 _atom_site_fract_x
 _atom_site_fract_y
 _atom_site_fract_z
 _atom_site_occupancy
  Cs  Cs0  1  -0.00033595  0.00090563  -0.00024408  1
  Cs  Cs1  1  -0.00076662  -0.00264705  0.33623415  1
  Cs  Cs2  1  0.00020595  -0.00144381  0.66395575  1
  Cs  Cs3  1  0.00109042  0.33289077  -0.00160764  1
  Cs  Cs4  1  -0.00176316  0.33109058  0.33073831  1
  Cs  Cs5  1  0.00195115  0.34144311  0.66926694  1
  Cs  Cs6  1  -0.00132724  0.66628913  0.00142552  1
  Cs  Cs7  1  0.00258677  0.67015216  0.33342353  1
  Cs  Cs8  1  0.00196083  0.66258407  0.66093522  1
  Cs  Cs9  1  0.33457252  0.00060331  0.00041545  1
  Cs  Cs10  1  0.33524794  0.00402062  0.33230953  1
  Cs  Cs11  1  0.33168173  -0.00256912  0.66860316  1
  Cs  Cs12  1  0.33060515  0.33088277  -0.00045410  1
  Cs  Cs13  1  0.33739561  0.32959539  0.33453958  1
  Cs  Cs14  1  0.33176534  0.33525040  0.66645325  1
  Cs  Cs15  1  0.33664073  0.66907073  0.00080608  1
  Cs  Cs16  1  0.33109486  0.66606019  0.33515748  1
  Cs  Cs17  1  0.33225497  0.66738961  0.66175933  1
  Cs  Cs18  1  0.66621713  -0.00182527  -0.00126125  1
  Cs  Cs19  1  0.66530685  0.00400927  0.33591780  1
  Cs  Cs20  1  0.66699941  0.00135467  0.66828095  1
  Cs  Cs21  1  0.66876224  0.33480889  -0.00107862  1
  Cs  Cs22  1  0.66401253  0.33126647  0.34015190  1
  Cs  Cs23  1  0.66653528  0.33362065  0.66175559  1
  Cs  Cs24  1  0.66639000  0.66789938  -0.00010815  1
  Cs  Cs25  1  0.66696027  0.66522951  0.33216518  1
  Cs  Cs26  1  0.66694170  0.66386860  0.66587443  1
  Sn  Sn27  1  0.83327881  0.50003117  0.16621893  1
  Sn  Sn28  1  0.16547668  0.83314403  0.83408572  1
  Sn  Sn29  1  0.50040854  0.83358486  0.49974897  1
  Sn  Sn30  1  0.16622139  0.83297566  0.16552336  1
  Sn  Sn31  1  0.83456782  0.83368651  0.83386803  1
  Sn  Sn32  1  0.83385772  0.83369191  0.16579663  1
  Sn  Sn33  1  0.49993154  0.49982108  0.16570041  1
  Sn  Sn34  1  0.16681374  0.50044172  0.16623951  1
  Sn  Sn35  1  0.16625057  0.16675000  0.50021590  1
  Sn  Sn36  1  0.50052266  0.16765035  0.83384507  1
  Sn  Sn37  1  0.49994519  0.49899653  0.83417379  1
  Sn  Sn38  1  0.83271730  0.16621371  0.83404159  1
  Sn  Sn39  1  0.83307943  0.16629415  0.16587005  1
  Pb  Pb40  1  0.83536146  0.16664250  0.50107017  1
  Pb  Pb41  1  0.83129842  0.83339537  0.50013565  1
  Pb  Pb42  1  0.83176750  0.50029725  0.83503946  1
  Pb  Pb43  1  0.49817457  0.16475865  0.50313316  1
  Pb  Pb44  1  0.83353491  0.50007843  0.49676393  1
  Pb  Pb45  1  0.16817913  0.83465174  0.49941466  1
  Pb  Pb46  1  0.16672824  0.49731953  0.49681389  1
  Pb  Pb47  1  0.50267282  0.16916962  0.16444598  1
  Pb  Pb48  1  0.49995392  0.50175934  0.50004391  1
  Pb  Pb49  1  0.16912044  0.50292937  0.83574772  1
  Pb  Pb50  1  0.16445812  0.16618252  0.16786419  1
  Pb  Pb51  1  0.50047578  0.83304517  0.83206876  1
  Pb  Pb52  1  0.50025701  0.83166353  0.16847056  1
  Pb  Pb53  1  0.16584840  0.16472960  0.83186482  1
  I  I54  1  0.16237145  -0.00319420  0.16503344  1
  I  I55  1  0.16787979  0.00204120  0.49795653  1
  I  I56  1  0.16881278  -0.00324663  0.83929915  1
  I  I57  1  0.16578528  0.33591315  0.16953244  1
  I  I58  1  0.16716581  0.32998373  0.50025902  1
  I  I59  1  0.16533353  0.33355147  0.83274071  1
  I  I60  1  0.16219994  0.66720668  0.16366554  1
  I  I61  1  0.16846660  0.66671186  0.50127370  1
  I  I62  1  0.16211901  0.67085223  0.83411040  1
  I  I63  1  0.49928871  0.00015948  0.16680587  1
  I  I64  1  0.49938339  -0.00260438  0.50036720  1
  I  I65  1  0.50133026  0.00193192  0.83031718  1
  I  I66  1  0.49842782  0.33735803  0.16620072  1
  I  I67  1  0.49895202  0.33318364  0.49803661  1
  I  I68  1  0.50518397  0.33311414  0.83744302  1
  I  I69  1  0.50420918  0.66354963  0.16072809  1
  I  I70  1  0.49842211  0.66928607  0.50258824  1
  I  I71  1  0.50007042  0.66440158  0.83649591  1
  I  I72  1  0.83860386  -0.00075132  0.16292509  1
  I  I73  1  0.83271737  -0.00001131  0.49444969  1
  I  I74  1  0.83058653  -0.00015933  0.84132497  1
  I  I75  1  0.83412004  0.33334014  0.16290288  1
  I  I76  1  0.83296560  0.33313563  0.49936894  1
  I  I77  1  0.83075624  0.33064595  0.83783848  1
  I  I78  1  0.83344722  0.66713643  0.16297012  1
  I  I79  1  0.83279321  0.66695912  0.50126119  1
  I  I80  1  0.83413123  0.66967931  0.83809161  1
  I  I81  1  0.16839981  0.16782556  -0.00000627  1
  I  I82  1  0.16561340  0.16489992  0.33540482  1
  I  I83  1  0.16671578  0.16231673  0.66439293  1
  I  I84  1  0.16385482  0.49991820  0.00397547  1
  I  I85  1  0.16788716  0.50769285  0.32842311  1
  I  I86  1  0.16886667  0.50119453  0.66695356  1
  I  I87  1  0.16386951  0.83083051  0.00083418  1
  I  I88  1  0.16301608  0.83002924  0.32982650  1
  I  I89  1  0.16461979  0.83665466  0.66925312  1
  I  I90  1  0.49977486  0.16559002  -0.00345967  1
  I  I91  1  0.50068846  0.16720684  0.33323470  1
  I  I92  1  0.50685607  0.17210625  0.67087462  1
  I  I93  1  0.50062122  0.49830907  0.00079913  1
  I  I94  1  0.50086439  0.50276608  0.32989736  1
  I  I95  1  0.50082190  0.49771618  0.66982237  1
  I  I96  1  0.49925184  0.83410971  0.00004995  1
  I  I97  1  0.49919357  0.83137961  0.33580227  1
  I  I98  1  0.49869006  0.83231659  0.66470480  1
  I  I99  1  0.83065187  0.16555188  0.00008411  1
  I  I100  1  0.83570635  0.16667152  0.33020633  1
  I  I101  1  0.82956608  0.16009398  0.67061783  1
  I  I102  1  0.83476076  0.50035942  0.00370503  1
  I  I103  1  0.83005930  0.50033537  0.32746307  1
  I  I104  1  0.83064296  0.49991804  0.66717476  1
  I  I105  1  0.83614512  0.83404663  0.00075139  1
  I  I106  1  0.83700946  0.83280535  0.32950274  1
  I  I107  1  0.83560245  0.83945088  0.67033760  1
  I  I108  1  -0.00361706  0.17119106  0.16096234  1
  I  I109  1  0.00266012  0.16349833  0.49961744  1
  I  I110  1  -0.00335809  0.16379849  0.83674513  1
  I  I111  1  -0.00045979  0.50102871  0.16804109  1
  I  I112  1  0.00033211  0.50066318  0.50087360  1
  I  I113  1  0.00008473  0.49681438  0.83428504  1
  I  I114  1  -0.00047987  0.82863093  0.16396498  1
  I  I115  1  0.00004495  0.83477687  0.49968287  1
  I  I116  1  -0.00086393  0.83986994  0.83770739  1
  I  I117  1  0.33342579  0.16673672  0.16705086  1
  I  I118  1  0.33078002  0.16510765  0.49899134  1
  I  I119  1  0.33553380  0.16846501  0.83075965  1
  I  I120  1  0.33324691  0.50606363  0.16306995  1
  I  I121  1  0.33337176  0.50066515  0.49748789  1
  I  I122  1  0.33694152  0.49545458  0.83937677  1
  I  I123  1  0.33049024  0.82849787  0.16399350  1
  I  I124  1  0.33565658  0.83389995  0.50151034  1
  I  I125  1  0.33121405  0.83342639  0.83612219  1
  I  I126  1  0.67089731  0.16430089  0.16608270  1
  I  I127  1  0.66666225  0.16588616  0.49775359  1
  I  I128  1  0.66755007  0.16342696  0.83749093  1
  I  I129  1  0.66703726  0.50152579  0.16219130  1
  I  I130  1  0.66643323  0.50036305  0.49750842  1
  I  I131  1  0.66383817  0.50207222  0.83992776  1
  I  I132  1  0.67000408  0.83207017  0.16293761  1
  I  I133  1  0.66379984  0.83334085  0.50031219  1
  I  I134  1  0.66961241  0.83445034  0.83732048  1
