# generated using pymatgen
data_Cs27Sn13Pb14I81
_symmetry_space_group_name_H-M   'P 1'
_cell_length_a   18.96970686
_cell_length_b   18.98295362
_cell_length_c   18.98351564
_cell_angle_alpha   90.00108112
_cell_angle_beta   89.99925944
_cell_angle_gamma   90.00041196
_symmetry_Int_Tables_number   1
_chemical_formula_structural   Cs27Sn13Pb14I81
_chemical_formula_sum   'Cs27 Sn13 Pb14 I81'
_cell_volume   6835.98420944
_cell_formula_units_Z   1
loop_
 _symmetry_equiv_pos_site_id
 _symmetry_equiv_pos_as_xyz
  1  'x, y, z'
loop_
 _atom_site_type_symbol
 _atom_site_label
 _atom_site_symmetry_multiplicity
 _atom_site_fract_x
 _atom_site_fract_y
 _atom_site_fract_z
 _atom_site_occupancy
  Cs  Cs0  1  -0.00157125  -0.00150950  0.00243559  1
  Cs  Cs1  1  -0.00070531  -0.00094505  0.33317544  1
  Cs  Cs2  1  -0.00047131  -0.00033426  0.66434108  1
  Cs  Cs3  1  -0.00047785  0.33476612  -0.00055205  1
  Cs  Cs4  1  -0.00071132  0.33327204  0.33279500  1
  Cs  Cs5  1  0.00031468  0.33213883  0.66789977  1
  Cs  Cs6  1  -0.00054143  0.66614326  0.00008426  1
  Cs  Cs7  1  0.00050168  0.66750528  0.33327845  1
  Cs  Cs8  1  -0.00065537  0.66626362  0.66666638  1
  Cs  Cs9  1  0.33939074  0.00223255  -0.00334427  1
  Cs  Cs10  1  0.33538711  0.00211548  0.33477929  1
  Cs  Cs11  1  0.33924776  0.00536496  0.67011531  1
  Cs  Cs12  1  0.33464120  0.33043297  -0.00151172  1
  Cs  Cs13  1  0.33906502  0.33635270  0.33251158  1
  Cs  Cs14  1  0.33294653  0.32475392  0.67029783  1
  Cs  Cs15  1  0.33281070  0.66654302  -0.00050533  1
  Cs  Cs16  1  0.33269142  0.66317719  0.33630702  1
  Cs  Cs17  1  0.33457899  0.66827176  0.66424180  1
  Cs  Cs18  1  0.66365589  -0.00217328  0.00074081  1
  Cs  Cs19  1  0.66195799  -0.00018318  0.33221000  1
  Cs  Cs20  1  0.66364450  0.00120943  0.66696021  1
  Cs  Cs21  1  0.66791814  0.33405849  0.00042585  1
  Cs  Cs22  1  0.66216424  0.33406954  0.33505553  1
  Cs  Cs23  1  0.66882695  0.33407343  0.66332493  1
  Cs  Cs24  1  0.66603713  0.66865094  0.00100249  1
  Cs  Cs25  1  0.66221554  0.66636048  0.33256667  1
  Cs  Cs26  1  0.66591205  0.66596961  0.66663141  1
  Sn  Sn27  1  0.83416695  0.49941303  0.16766639  1
  Sn  Sn28  1  0.83405891  0.16558728  0.83414839  1
  Sn  Sn29  1  0.83399060  0.83247197  0.50055375  1
  Sn  Sn30  1  0.83424993  0.16736793  0.16600226  1
  Sn  Sn31  1  0.16629369  0.83340254  0.16679787  1
  Sn  Sn32  1  0.16545565  0.50026519  0.49965206  1
  Sn  Sn33  1  0.83463230  0.50108027  0.49886700  1
  Sn  Sn34  1  0.83435485  0.83423638  0.83255480  1
  Sn  Sn35  1  0.16568577  0.16687008  0.16683492  1
  Sn  Sn36  1  0.16557011  0.49977991  0.16721287  1
  Sn  Sn37  1  0.49984876  0.50018384  0.83327190  1
  Sn  Sn38  1  0.16582962  0.83335451  0.83299217  1
  Sn  Sn39  1  0.16577327  0.83292861  0.50027921  1
  Pb  Pb40  1  0.50364951  0.16923157  0.83359190  1
  Pb  Pb41  1  0.16826152  0.50180951  0.83303852  1
  Pb  Pb42  1  0.49991708  0.50013685  0.16477510  1
  Pb  Pb43  1  0.83451579  0.83316697  0.16714063  1
  Pb  Pb44  1  0.50050052  0.16684902  0.16660390  1
  Pb  Pb45  1  0.83345876  0.16641814  0.49920844  1
  Pb  Pb46  1  0.49955742  0.50005790  0.50224273  1
  Pb  Pb47  1  0.50042606  0.83165124  0.83324196  1
  Pb  Pb48  1  0.83234647  0.50047765  0.83329448  1
  Pb  Pb49  1  0.49998063  0.16679215  0.49994620  1
  Pb  Pb50  1  0.16422266  0.16378805  0.83577945  1
  Pb  Pb51  1  0.49986779  0.83315616  0.50006675  1
  Pb  Pb52  1  0.49594473  0.83303970  0.16676524  1
  Pb  Pb53  1  0.16651438  0.16668594  0.49747131  1
  I  I54  1  0.16144482  -0.00030116  0.16664617  1
  I  I55  1  0.16155010  -0.00362383  0.49861414  1
  I  I56  1  0.16573782  -0.00446705  0.83205062  1
  I  I57  1  0.16238982  0.33424800  0.17086643  1
  I  I58  1  0.16232667  0.33693993  0.49615661  1
  I  I59  1  0.16742409  0.33314237  0.83303239  1
  I  I60  1  0.16263494  0.66634871  0.16682578  1
  I  I61  1  0.16310960  0.66693442  0.49512570  1
  I  I62  1  0.16047499  0.66999133  0.83809522  1
  I  I63  1  0.50170847  0.00006982  0.16557410  1
  I  I64  1  0.50017324  -0.00036095  0.50056246  1
  I  I65  1  0.49779160  0.00015240  0.83335579  1
  I  I66  1  0.49568272  0.33354352  0.16539779  1
  I  I67  1  0.50082799  0.33400672  0.50106423  1
  I  I68  1  0.49944328  0.33647924  0.83350042  1
  I  I69  1  0.50227714  0.66635602  0.16470365  1
  I  I70  1  0.50026178  0.66651505  0.50086160  1
  I  I71  1  0.50263528  0.66430834  0.83395967  1
  I  I72  1  0.83825589  0.00216122  0.16540446  1
  I  I73  1  0.83852190  -0.00334091  0.50109354  1
  I  I74  1  0.83778419  -0.00101758  0.83375860  1
  I  I75  1  0.84106095  0.33389429  0.16511690  1
  I  I76  1  0.83699628  0.33658220  0.50037394  1
  I  I77  1  0.83009383  0.33153402  0.83483512  1
  I  I78  1  0.83762763  0.66397214  0.16609927  1
  I  I79  1  0.83764476  0.66653891  0.50104103  1
  I  I80  1  0.83566985  0.66950033  0.83297144  1
  I  I81  1  0.16440808  0.16881095  0.00391662  1
  I  I82  1  0.15895546  0.16204315  0.32920811  1
  I  I83  1  0.16655651  0.16769832  0.66686999  1
  I  I84  1  0.16338790  0.50147621  0.00320881  1
  I  I85  1  0.16329102  0.50492515  0.33273105  1
  I  I86  1  0.16311727  0.50581364  0.66344438  1
  I  I87  1  0.16206409  0.83214169  0.00016019  1
  I  I88  1  0.16197231  0.83248833  0.33354790  1
  I  I89  1  0.16192361  0.82646989  0.66607735  1
  I  I90  1  0.49739798  0.16744557  -0.00004133  1
  I  I91  1  0.50215764  0.16692615  0.33286611  1
  I  I92  1  0.50044646  0.16762246  0.66731558  1
  I  I93  1  0.50073803  0.50090468  -0.00262990  1
  I  I94  1  0.50001936  0.49959892  0.33343327  1
  I  I95  1  0.50192747  0.50142566  0.66945174  1
  I  I96  1  0.50090226  0.83184026  -0.00020910  1
  I  I97  1  0.50284853  0.83327708  0.33344962  1
  I  I98  1  0.49560964  0.83202049  0.66675658  1
  I  I99  1  0.83755753  0.16751072  0.00084299  1
  I  I100  1  0.83830559  0.16750829  0.32991183  1
  I  I101  1  0.83179649  0.16630278  0.66907654  1
  I  I102  1  0.83644536  0.49923621  0.00271401  1
  I  I103  1  0.83716925  0.49990484  0.33315352  1
  I  I104  1  0.83573394  0.50058824  0.66393375  1
  I  I105  1  0.83754973  0.83328271  -0.00218884  1
  I  I106  1  0.83826723  0.83261110  0.33599189  1
  I  I107  1  0.84108918  0.83258860  0.66662837  1
  I  I108  1  -0.00021368  0.16788043  0.16280327  1
  I  I109  1  -0.00010840  0.16684429  0.50262783  1
  I  I110  1  -0.00364359  0.16756211  0.83522440  1
  I  I111  1  0.00042383  0.49927818  0.16912886  1
  I  I112  1  -0.00017049  0.50479493  0.49636076  1
  I  I113  1  -0.00000480  0.49868614  0.83391496  1
  I  I114  1  0.00309317  0.83305728  0.16613687  1
  I  I115  1  0.00042233  0.82891774  0.50116691  1
  I  I116  1  -0.00022145  0.83517368  0.83279131  1
  I  I117  1  0.32970944  0.16652932  0.16787715  1
  I  I118  1  0.33264688  0.16675871  0.49850792  1
  I  I119  1  0.33321577  0.16582395  0.83428020  1
  I  I120  1  0.32942435  0.50053757  0.17032672  1
  I  I121  1  0.32953189  0.50571716  0.49473844  1
  I  I122  1  0.33567964  0.50332519  0.83426931  1
  I  I123  1  0.32695921  0.83256939  0.16627764  1
  I  I124  1  0.32909217  0.82804286  0.49894838  1
  I  I125  1  0.33002705  0.83035647  0.83414125  1
  I  I126  1  0.67071847  0.17172318  0.16326497  1
  I  I127  1  0.66747674  0.16725522  0.49823026  1
  I  I128  1  0.67145126  0.15952961  0.83990829  1
  I  I129  1  0.67032022  0.49503402  0.16972914  1
  I  I130  1  0.67019217  0.50344394  0.49687804  1
  I  I131  1  0.66491931  0.50119754  0.83370464  1
  I  I132  1  0.66696910  0.83329570  0.16592359  1
  I  I133  1  0.67057488  0.82932216  0.50532821  1
  I  I134  1  0.67047878  0.83599095  0.82886908  1
