# generated using pymatgen
data_Cs27Sn13Pb14I81
_symmetry_space_group_name_H-M   'P 1'
_cell_length_a   18.97919375
_cell_length_b   18.97814480
_cell_length_c   18.97436940
_cell_angle_alpha   90.00386984
_cell_angle_beta   90.00135599
_cell_angle_gamma   90.00227830
_symmetry_Int_Tables_number   1
_chemical_formula_structural   Cs27Sn13Pb14I81
_chemical_formula_sum   'Cs27 Sn13 Pb14 I81'
_cell_volume   6834.37594961
_cell_formula_units_Z   1
loop_
 _symmetry_equiv_pos_site_id
 _symmetry_equiv_pos_as_xyz
  1  'x, y, z'
loop_
 _atom_site_type_symbol
 _atom_site_label
 _atom_site_symmetry_multiplicity
 _atom_site_fract_x
 _atom_site_fract_y
 _atom_site_fract_z
 _atom_site_occupancy
  Cs  Cs0  1  -0.00019232  0.00062318  0.00059248  1
  Cs  Cs1  1  -0.00033191  0.00174077  0.33111540  1
  Cs  Cs2  1  0.00434407  -0.00000389  0.66730538  1
  Cs  Cs3  1  -0.00288963  0.33128842  0.00056382  1
  Cs  Cs4  1  0.00210223  0.33174829  0.33313348  1
  Cs  Cs5  1  -0.00122959  0.33175040  0.66704106  1
  Cs  Cs6  1  -0.00138939  0.66806819  0.00424631  1
  Cs  Cs7  1  -0.00306756  0.66672063  0.33400736  1
  Cs  Cs8  1  0.00045711  0.66762189  0.66180753  1
  Cs  Cs9  1  0.33158152  -0.00082682  -0.00102643  1
  Cs  Cs10  1  0.33926152  0.00125359  0.33426525  1
  Cs  Cs11  1  0.33108016  -0.00260875  0.66663589  1
  Cs  Cs12  1  0.33432127  0.33668624  0.00002599  1
  Cs  Cs13  1  0.33166277  0.33252705  0.33445203  1
  Cs  Cs14  1  0.33346291  0.33548863  0.66589643  1
  Cs  Cs15  1  0.33472338  0.66395734  -0.00043469  1
  Cs  Cs16  1  0.33473870  0.66643888  0.33151015  1
  Cs  Cs17  1  0.33161300  0.66374040  0.66821995  1
  Cs  Cs18  1  0.66824183  -0.00231964  0.00081247  1
  Cs  Cs19  1  0.66186483  0.00082500  0.33390446  1
  Cs  Cs20  1  0.66482698  -0.00027166  0.66563499  1
  Cs  Cs21  1  0.66755640  0.33557639  -0.00236542  1
  Cs  Cs22  1  0.66616012  0.33054361  0.33188557  1
  Cs  Cs23  1  0.66626302  0.33492453  0.66915179  1
  Cs  Cs24  1  0.66600760  0.66846257  0.00024575  1
  Cs  Cs25  1  0.66953313  0.66866871  0.33415843  1
  Cs  Cs26  1  0.66869643  0.66521793  0.66646779  1
  Sn  Sn27  1  0.16729629  0.49926323  0.50079265  1
  Sn  Sn28  1  0.16630707  0.83420964  0.16691729  1
  Sn  Sn29  1  0.49949698  0.49997502  0.50042064  1
  Sn  Sn30  1  0.83315792  0.83344692  0.83344999  1
  Sn  Sn31  1  0.50051067  0.83326262  0.83328621  1
  Sn  Sn32  1  0.83395021  0.16579643  0.16738166  1
  Sn  Sn33  1  0.16607299  0.16708655  0.49945560  1
  Sn  Sn34  1  0.16635908  0.16576965  0.16722378  1
  Sn  Sn35  1  0.49972355  0.16662129  0.83347717  1
  Sn  Sn36  1  0.16644108  0.49984161  0.83285379  1
  Sn  Sn37  1  0.83419067  0.83453262  0.16600057  1
  Sn  Sn38  1  0.83387480  0.16651668  0.49962967  1
  Sn  Sn39  1  0.49928385  0.49997094  0.83247327  1
  Pb  Pb40  1  0.16640450  0.83087654  0.83535904  1
  Pb  Pb41  1  0.49985751  0.83025611  0.50284661  1
  Pb  Pb42  1  0.16656901  0.49961116  0.16712465  1
  Pb  Pb43  1  0.50016764  0.83341234  0.16475486  1
  Pb  Pb44  1  0.83332829  0.49969569  0.16676789  1
  Pb  Pb45  1  0.83152293  0.16451161  0.83345639  1
  Pb  Pb46  1  0.16668636  0.83337555  0.49703231  1
  Pb  Pb47  1  0.83360203  0.49725177  0.49998082  1
  Pb  Pb48  1  0.16847011  0.16864323  0.83348081  1
  Pb  Pb49  1  0.50016401  0.49995622  0.16691241  1
  Pb  Pb50  1  0.49995361  0.16672985  0.16425464  1
  Pb  Pb51  1  0.83345374  0.83631405  0.49961939  1
  Pb  Pb52  1  0.83358188  0.50276663  0.83328363  1
  Pb  Pb53  1  0.49954585  0.16844786  0.50215928  1
  I  I54  1  0.16243032  0.00099879  0.16995386  1
  I  I55  1  0.16196818  0.00342140  0.49890566  1
  I  I56  1  0.16906756  -0.00002820  0.83109083  1
  I  I57  1  0.16223856  0.33006956  0.16749822  1
  I  I58  1  0.16695374  0.33296972  0.49775319  1
  I  I59  1  0.17292887  0.33652545  0.83411046  1
  I  I60  1  0.16270594  0.66926319  0.16501447  1
  I  I61  1  0.17151123  0.66341835  0.50342823  1
  I  I62  1  0.17243877  0.66309663  0.82909644  1
  I  I63  1  0.49887144  0.00011202  0.16437558  1
  I  I64  1  0.49976249  0.00024249  0.50222945  1
  I  I65  1  0.50479670  -0.00050153  0.83532389  1
  I  I66  1  0.50055305  0.33310969  0.16210149  1
  I  I67  1  0.49882143  0.33627372  0.50734265  1
  I  I68  1  0.49589158  0.33444779  0.83020009  1
  I  I69  1  0.49943801  0.66685687  0.16444394  1
  I  I70  1  0.49358027  0.66214127  0.50474456  1
  I  I71  1  0.50000585  0.66616065  0.83035090  1
  I  I72  1  0.83841540  0.00018506  0.16542572  1
  I  I73  1  0.83940945  0.00419630  0.49950294  1
  I  I74  1  0.82777851  -0.00327876  0.83518790  1
  I  I75  1  0.83801305  0.32929739  0.17029570  1
  I  I76  1  0.83460587  0.32936421  0.49412570  1
  I  I77  1  0.83119980  0.33311170  0.83452968  1
  I  I78  1  0.83703664  0.67040071  0.16173623  1
  I  I79  1  0.83280611  0.66673305  0.49958271  1
  I  I80  1  0.82798118  0.67064316  0.83999520  1
  I  I81  1  0.16323960  0.16440447  0.00282765  1
  I  I82  1  0.16296960  0.16948077  0.33349359  1
  I  I83  1  0.16337568  0.16970945  0.66392095  1
  I  I84  1  0.17261453  0.50069236  -0.00252699  1
  I  I85  1  0.17160082  0.49830123  0.33659374  1
  I  I86  1  0.17155234  0.49530299  0.66611063  1
  I  I87  1  0.16540729  0.83829752  0.00313597  1
  I  I88  1  0.15903190  0.83179713  0.32909348  1
  I  I89  1  0.16684537  0.83542241  0.66678909  1
  I  I90  1  0.49995865  0.16972672  -0.00388553  1
  I  I91  1  0.50053870  0.16917890  0.33354582  1
  I  I92  1  0.50079255  0.16506586  0.67009282  1
  I  I93  1  0.49533085  0.50024876  -0.00396047  1
  I  I94  1  0.49449207  0.49823110  0.33691948  1
  I  I95  1  0.49510824  0.50012044  0.66792142  1
  I  I96  1  0.50129533  0.83005755  -0.00374335  1
  I  I97  1  0.50103552  0.83136533  0.33336439  1
  I  I98  1  0.50562836  0.83596625  0.67132680  1
  I  I99  1  0.83710022  0.16450014  0.00292818  1
  I  I100  1  0.83677687  0.16225060  0.33256495  1
  I  I101  1  0.83660875  0.16662956  0.66423641  1
  I  I102  1  0.83316878  0.49524988  -0.00021572  1
  I  I103  1  0.83234777  0.50568297  0.33352722  1
  I  I104  1  0.83341030  0.49982138  0.66670109  1
  I  I105  1  0.83281716  0.83857805  0.00069436  1
  I  I106  1  0.83837915  0.83390079  0.32984427  1
  I  I107  1  0.82764570  0.83326086  0.66936835  1
  I  I108  1  0.00025886  0.16296574  0.16973680  1
  I  I109  1  0.00102840  0.17248605  0.49685905  1
  I  I110  1  0.00010712  0.16723978  0.83307132  1
  I  I111  1  0.00029127  0.50123669  0.16523038  1
  I  I112  1  0.00350114  0.49829125  0.50439862  1
  I  I113  1  0.00305182  0.50049137  0.82922398  1
  I  I114  1  -0.00071541  0.83684754  0.15973586  1
  I  I115  1  0.00007437  0.82753967  0.50623819  1
  I  I116  1  -0.00244528  0.83246953  0.83636142  1
  I  I117  1  0.32993271  0.16307920  0.17039100  1
  I  I118  1  0.33021303  0.16932024  0.49607553  1
  I  I119  1  0.33645583  0.16263007  0.83348884  1
  I  I120  1  0.33303039  0.50057010  0.16518380  1
  I  I121  1  0.33236646  0.49387370  0.50517369  1
  I  I122  1  0.33425522  0.50191820  0.82987365  1
  I  I123  1  0.33042192  0.83695821  0.16587851  1
  I  I124  1  0.33318950  0.83868719  0.49899391  1
  I  I125  1  0.33594280  0.83381456  0.83488751  1
  I  I126  1  0.67002394  0.16200935  0.17062147  1
  I  I127  1  0.66899053  0.16714239  0.49625650  1
  I  I128  1  0.66351467  0.17181722  0.83309689  1
  I  I129  1  0.66673393  0.49972888  0.16591215  1
  I  I130  1  0.66378999  0.49935917  0.50604612  1
  I  I131  1  0.66330895  0.49826942  0.82918131  1
  I  I132  1  0.67004253  0.83771397  0.16389440  1
  I  I133  1  0.66670060  0.83345116  0.49606539  1
  I  I134  1  0.66628136  0.83163146  0.83946121  1
