# generated using pymatgen
data_Cs27Sn14Pb13I81
_symmetry_space_group_name_H-M   'P 1'
_cell_length_a   18.96431693
_cell_length_b   18.95622043
_cell_length_c   18.96006160
_cell_angle_alpha   89.99910880
_cell_angle_beta   89.99892840
_cell_angle_gamma   89.99862487
_symmetry_Int_Tables_number   1
_chemical_formula_structural   Cs27Sn14Pb13I81
_chemical_formula_sum   'Cs27 Sn14 Pb13 I81'
_cell_volume   6815.98613785
_cell_formula_units_Z   1
loop_
 _symmetry_equiv_pos_site_id
 _symmetry_equiv_pos_as_xyz
  1  'x, y, z'
loop_
 _atom_site_type_symbol
 _atom_site_label
 _atom_site_symmetry_multiplicity
 _atom_site_fract_x
 _atom_site_fract_y
 _atom_site_fract_z
 _atom_site_occupancy
  Cs  Cs0  1  0.00047887  0.00183318  0.00257791  1
  Cs  Cs1  1  0.00042829  -0.00006042  0.33319288  1
  Cs  Cs2  1  0.00250407  0.00167818  0.66513467  1
  Cs  Cs3  1  -0.00120443  0.33230093  -0.00007571  1
  Cs  Cs4  1  -0.00025477  0.33392932  0.33248798  1
  Cs  Cs5  1  -0.00089251  0.33363575  0.66827006  1
  Cs  Cs6  1  -0.00293163  0.66639081  -0.00909437  1
  Cs  Cs7  1  -0.00051965  0.66742200  0.33456215  1
  Cs  Cs8  1  -0.00008940  0.66380819  0.67044037  1
  Cs  Cs9  1  0.33306386  -0.00036401  -0.00101408  1
  Cs  Cs10  1  0.33083355  0.00175049  0.33407878  1
  Cs  Cs11  1  0.33226737  -0.00096808  0.66694772  1
  Cs  Cs12  1  0.33446062  0.33367702  0.00354586  1
  Cs  Cs13  1  0.33416595  0.33599592  0.32920191  1
  Cs  Cs14  1  0.33516599  0.33386175  0.66690910  1
  Cs  Cs15  1  0.33487842  0.66648117  0.00003407  1
  Cs  Cs16  1  0.33264832  0.66266911  0.33457455  1
  Cs  Cs17  1  0.33362140  0.66757819  0.66599367  1
  Cs  Cs18  1  0.66660705  -0.00699043  0.00230756  1
  Cs  Cs19  1  0.66542176  0.00053690  0.33437074  1
  Cs  Cs20  1  0.66481261  0.00183993  0.66325470  1
  Cs  Cs21  1  0.66739101  0.33363156  -0.00092326  1
  Cs  Cs22  1  0.66645684  0.33223488  0.33387764  1
  Cs  Cs23  1  0.66609701  0.33314652  0.66628578  1
  Cs  Cs24  1  0.66818074  0.67567915  0.00062683  1
  Cs  Cs25  1  0.66829003  0.66701226  0.33375607  1
  Cs  Cs26  1  0.66594800  0.66454297  0.66602146  1
  Sn  Sn27  1  0.83289995  0.16652747  0.83421017  1
  Sn  Sn28  1  0.83369670  0.83257214  0.50003502  1
  Sn  Sn29  1  0.83341115  0.49965167  0.16710545  1
  Sn  Sn30  1  0.16636724  0.83353409  0.16726551  1
  Sn  Sn31  1  0.83276441  0.50061988  0.49930881  1
  Sn  Sn32  1  0.16646401  0.83388824  0.49919448  1
  Sn  Sn33  1  0.50024913  0.49951336  0.83299424  1
  Sn  Sn34  1  0.16596150  0.16609510  0.16682052  1
  Sn  Sn35  1  0.16671514  0.16658649  0.49972593  1
  Sn  Sn36  1  0.16690535  0.16675494  0.83350319  1
  Sn  Sn37  1  0.50020650  0.16724318  0.83350602  1
  Sn  Sn38  1  0.49979620  0.83265276  0.49989934  1
  Sn  Sn39  1  0.50083401  0.50054285  0.50053853  1
  Sn  Sn40  1  0.83368310  0.16732273  0.16604089  1
  Pb  Pb41  1  0.16956413  0.49732203  0.83355246  1
  Pb  Pb42  1  0.16659683  0.83527209  0.83330704  1
  Pb  Pb43  1  0.49998526  0.83326318  0.83116837  1
  Pb  Pb44  1  0.83339188  0.83651403  0.83016834  1
  Pb  Pb45  1  0.83510820  0.16706000  0.49963424  1
  Pb  Pb46  1  0.49737911  0.16722381  0.50156046  1
  Pb  Pb47  1  0.16658096  0.50034561  0.50003098  1
  Pb  Pb48  1  0.49685070  0.83330309  0.16976427  1
  Pb  Pb49  1  0.83554151  0.83359745  0.16866963  1
  Pb  Pb50  1  0.50297264  0.50014544  0.16663097  1
  Pb  Pb51  1  0.83113173  0.49818130  0.83320154  1
  Pb  Pb52  1  0.16390505  0.50042945  0.16645761  1
  Pb  Pb53  1  0.50019440  0.16654641  0.16391259  1
  I  I54  1  0.16120516  0.00168725  0.16792998  1
  I  I55  1  0.16637227  -0.00013909  0.50009014  1
  I  I56  1  0.16908370  0.00422910  0.83214610  1
  I  I57  1  0.16505595  0.32977616  0.16728069  1
  I  I58  1  0.16613432  0.33030261  0.50010460  1
  I  I59  1  0.16384728  0.32848727  0.83232380  1
  I  I60  1  0.16702946  0.66978519  0.17496553  1
  I  I61  1  0.16722491  0.66998219  0.49449180  1
  I  I62  1  0.16807721  0.66662724  0.83305217  1
  I  I63  1  0.50480085  0.00005173  0.16670588  1
  I  I64  1  0.50210727  -0.00242621  0.50147300  1
  I  I65  1  0.49875059  0.00327250  0.83193969  1
  I  I66  1  0.49550551  0.33326970  0.17149255  1
  I  I67  1  0.50395961  0.33613738  0.50278169  1
  I  I68  1  0.49953621  0.33262514  0.82633085  1
  I  I69  1  0.49950916  0.66665106  0.16148992  1
  I  I70  1  0.49859680  0.66634292  0.50558259  1
  I  I71  1  0.50077293  0.66373886  0.83028947  1
  I  I72  1  0.83614889  0.00301282  0.16380343  1
  I  I73  1  0.83161462  -0.00224503  0.50086523  1
  I  I74  1  0.83193724  0.00489855  0.83818243  1
  I  I75  1  0.83859698  0.33223966  0.16898710  1
  I  I76  1  0.82996652  0.33579155  0.49957222  1
  I  I77  1  0.83599974  0.32977956  0.83174575  1
  I  I78  1  0.83362991  0.66437263  0.17035597  1
  I  I79  1  0.83411430  0.66622871  0.49445533  1
  I  I80  1  0.83140974  0.66655313  0.83603883  1
  I  I81  1  0.16581159  0.16322916  0.00039225  1
  I  I82  1  0.16170613  0.16213345  0.33300352  1
  I  I83  1  0.16632671  0.16288987  0.66662030  1
  I  I84  1  0.16675586  0.50088182  0.00007441  1
  I  I85  1  0.17092424  0.49434824  0.33344887  1
  I  I86  1  0.16215120  0.49892091  0.66651567  1
  I  I87  1  0.16580490  0.83815719  0.00298238  1
  I  I88  1  0.16672779  0.84248546  0.33475905  1
  I  I89  1  0.16730699  0.83802994  0.66301401  1
  I  I90  1  0.49544122  0.17332910  -0.00441036  1
  I  I91  1  0.49974246  0.16684102  0.33352547  1
  I  I92  1  0.50073644  0.16748446  0.66978006  1
  I  I93  1  0.49910417  0.49305017  -0.00290861  1
  I  I94  1  0.50117957  0.50418345  0.33669304  1
  I  I95  1  0.50538915  0.49920479  0.66539521  1
  I  I96  1  0.49859909  0.83283795  0.00005880  1
  I  I97  1  0.50248003  0.82819785  0.33813698  1
  I  I98  1  0.49707935  0.83306959  0.66260823  1
  I  I99  1  0.83843083  0.17278029  0.00048095  1
  I  I100  1  0.83883513  0.16749974  0.33088842  1
  I  I101  1  0.83478204  0.16628638  0.66880850  1
  I  I102  1  0.83386459  0.49595432  0.00234464  1
  I  I103  1  0.82857760  0.49719635  0.33445362  1
  I  I104  1  0.83150690  0.50220546  0.66373126  1
  I  I105  1  0.83508376  0.83067277  0.00019521  1
  I  I106  1  0.83184936  0.83449612  0.33703436  1
  I  I107  1  0.83617365  0.82863546  0.66180393  1
  I  I108  1  0.00047729  0.16683755  0.16257162  1
  I  I109  1  0.00318563  0.16311071  0.50370985  1
  I  I110  1  0.00031830  0.16536799  0.83358094  1
  I  I111  1  -0.00399321  0.49698438  0.17396951  1
  I  I112  1  -0.00302539  0.50196054  0.49600380  1
  I  I113  1  -0.00043278  0.49881650  0.83238517  1
  I  I114  1  0.00336101  0.83664875  0.17422251  1
  I  I115  1  0.00058409  0.83455162  0.49601678  1
  I  I116  1  -0.00001918  0.83362216  0.83006513  1
  I  I117  1  0.32988744  0.16277536  0.16678106  1
  I  I118  1  0.32922835  0.16271612  0.49996613  1
  I  I119  1  0.33280597  0.16995923  0.83178107  1
  I  I120  1  0.33335542  0.49895769  0.16741499  1
  I  I121  1  0.33621068  0.50219180  0.50464704  1
  I  I122  1  0.33757186  0.49487972  0.82593584  1
  I  I123  1  0.32881616  0.84082989  0.17118948  1
  I  I124  1  0.33279706  0.83401875  0.49739395  1
  I  I125  1  0.33329336  0.83588285  0.83098724  1
  I  I126  1  0.67008542  0.17095201  0.16354335  1
  I  I127  1  0.66666798  0.16373760  0.50072399  1
  I  I128  1  0.66680500  0.17118624  0.83582560  1
  I  I129  1  0.67089456  0.49279645  0.16934480  1
  I  I130  1  0.66682986  0.50663149  0.50021024  1
  I  I131  1  0.66345078  0.49221188  0.83015124  1
  I  I132  1  0.66702853  0.83398201  0.16766682  1
  I  I133  1  0.66677906  0.82926177  0.50180976  1
  I  I134  1  0.66669271  0.83713300  0.83264350  1
