# generated using pymatgen
data_Cs27Sn13Pb14I81
_symmetry_space_group_name_H-M   'P 1'
_cell_length_a   18.96911350
_cell_length_b   18.98757875
_cell_length_c   18.97792315
_cell_angle_alpha   89.99898210
_cell_angle_beta   89.99692249
_cell_angle_gamma   90.00075322
_symmetry_Int_Tables_number   1
_chemical_formula_structural   Cs27Sn13Pb14I81
_chemical_formula_sum   'Cs27 Sn13 Pb14 I81'
_cell_volume   6835.42159652
_cell_formula_units_Z   1
loop_
 _symmetry_equiv_pos_site_id
 _symmetry_equiv_pos_as_xyz
  1  'x, y, z'
loop_
 _atom_site_type_symbol
 _atom_site_label
 _atom_site_symmetry_multiplicity
 _atom_site_fract_x
 _atom_site_fract_y
 _atom_site_fract_z
 _atom_site_occupancy
  Cs  Cs0  1  0.00143392  -0.00014791  -0.00188613  1
  Cs  Cs1  1  -0.00136700  -0.00015679  0.33469978  1
  Cs  Cs2  1  0.00036021  0.00008299  0.66612648  1
  Cs  Cs3  1  0.00077153  0.33719072  -0.00076729  1
  Cs  Cs4  1  -0.00118305  0.33407658  0.33107262  1
  Cs  Cs5  1  0.00034713  0.33369300  0.66915923  1
  Cs  Cs6  1  -0.00016677  0.66378410  0.00170169  1
  Cs  Cs7  1  -0.00030500  0.66676429  0.33107515  1
  Cs  Cs8  1  -0.00058808  0.66643956  0.66669572  1
  Cs  Cs9  1  0.33464702  -0.00102357  0.00157498  1
  Cs  Cs10  1  0.33301356  0.00268667  0.32961857  1
  Cs  Cs11  1  0.33129383  -0.00270691  0.66779246  1
  Cs  Cs12  1  0.33222503  0.33525481  -0.00178848  1
  Cs  Cs13  1  0.33608479  0.33186687  0.33524128  1
  Cs  Cs14  1  0.33353074  0.33364564  0.66746311  1
  Cs  Cs15  1  0.33418343  0.66561055  0.00038463  1
  Cs  Cs16  1  0.33234190  0.66548449  0.33731073  1
  Cs  Cs17  1  0.33561496  0.66711448  0.66470160  1
  Cs  Cs18  1  0.66242679  -0.00004239  0.00353634  1
  Cs  Cs19  1  0.66844829  0.00378904  0.33031827  1
  Cs  Cs20  1  0.66834443  -0.00092679  0.66399454  1
  Cs  Cs21  1  0.66685525  0.33367917  -0.00029195  1
  Cs  Cs22  1  0.66389609  0.32468096  0.33255813  1
  Cs  Cs23  1  0.66668041  0.33500198  0.66725462  1
  Cs  Cs24  1  0.66592160  0.66682958  -0.00027149  1
  Cs  Cs25  1  0.66737282  0.67349080  0.33346494  1
  Cs  Cs26  1  0.66502525  0.66499785  0.66745710  1
  Sn  Sn27  1  0.16646152  0.16679222  0.49929009  1
  Sn  Sn28  1  0.83245191  0.16661619  0.83331531  1
  Sn  Sn29  1  0.50030289  0.50021646  0.16642974  1
  Sn  Sn30  1  0.83389092  0.49984720  0.50029215  1
  Sn  Sn31  1  0.50075495  0.16727168  0.83303050  1
  Sn  Sn32  1  0.83404850  0.83323539  0.83343176  1
  Sn  Sn33  1  0.16594353  0.83293907  0.83350776  1
  Sn  Sn34  1  0.83267396  0.50002092  0.83273843  1
  Sn  Sn35  1  0.16654970  0.83382925  0.16666366  1
  Sn  Sn36  1  0.16555099  0.49976140  0.50037410  1
  Sn  Sn37  1  0.50077460  0.49911597  0.83420967  1
  Sn  Sn38  1  0.16637332  0.83340468  0.49981169  1
  Sn  Sn39  1  0.16629397  0.16643349  0.16711816  1
  Pb  Pb40  1  0.83587162  0.16670667  0.16403991  1
  Pb  Pb41  1  0.49782251  0.83120396  0.16674399  1
  Pb  Pb42  1  0.16671756  0.16485402  0.83338967  1
  Pb  Pb43  1  0.83550181  0.16878669  0.50209696  1
  Pb  Pb44  1  0.49826874  0.83380536  0.49976740  1
  Pb  Pb45  1  0.16836308  0.49990974  0.16933474  1
  Pb  Pb46  1  0.50092881  0.50000852  0.50003249  1
  Pb  Pb47  1  0.50051679  0.83324791  0.83317404  1
  Pb  Pb48  1  0.49772609  0.16847953  0.16426955  1
  Pb  Pb49  1  0.16689893  0.50241685  0.83145178  1
  Pb  Pb50  1  0.83523613  0.83143637  0.50190060  1
  Pb  Pb51  1  0.83556777  0.83341202  0.16426081  1
  Pb  Pb52  1  0.49794883  0.16647017  0.50264987  1
  Pb  Pb53  1  0.83068356  0.49992141  0.16719552  1
  I  I54  1  0.16709765  -0.00049470  0.17039104  1
  I  I55  1  0.16843207  -0.00034144  0.50077164  1
  I  I56  1  0.16342416  -0.00303280  0.82916101  1
  I  I57  1  0.16837047  0.33094991  0.17027303  1
  I  I58  1  0.16369640  0.33343900  0.49633904  1
  I  I59  1  0.16489286  0.33345448  0.83314717  1
  I  I60  1  0.16832888  0.66930113  0.16650500  1
  I  I61  1  0.16369880  0.66674832  0.50091230  1
  I  I62  1  0.16345181  0.67036835  0.83391694  1
  I  I63  1  0.49866732  0.00027228  0.16388189  1
  I  I64  1  0.49728465  0.00028482  0.50383315  1
  I  I65  1  0.50112100  0.00263108  0.83242624  1
  I  I66  1  0.49653369  0.33630380  0.16402745  1
  I  I67  1  0.49480331  0.33352018  0.49916433  1
  I  I68  1  0.50610297  0.33429739  0.83632121  1
  I  I69  1  0.49772420  0.66322422  0.15860926  1
  I  I70  1  0.49565365  0.66628345  0.50301249  1
  I  I71  1  0.50198807  0.66364945  0.83604180  1
  I  I72  1  0.83188871  0.00005170  0.16474586  1
  I  I73  1  0.83616624  0.00009574  0.50367686  1
  I  I74  1  0.83553513  -0.00006264  0.83436564  1
  I  I75  1  0.83775939  0.33345552  0.16352903  1
  I  I76  1  0.84013386  0.33681516  0.50704070  1
  I  I77  1  0.82921985  0.33401822  0.82950744  1
  I  I78  1  0.83623130  0.66650512  0.16369076  1
  I  I79  1  0.83959197  0.66321463  0.50693862  1
  I  I80  1  0.83410881  0.66590019  0.82942291  1
  I  I81  1  0.16708078  0.16125924  0.00189244  1
  I  I82  1  0.16736766  0.16226147  0.33388525  1
  I  I83  1  0.16674550  0.16593988  0.66440003  1
  I  I84  1  0.16497972  0.50011325  -0.00011541  1
  I  I85  1  0.16310951  0.50451671  0.33727085  1
  I  I86  1  0.16754511  0.49904890  0.66348839  1
  I  I87  1  0.16327760  0.83847466  -0.00030239  1
  I  I88  1  0.16916114  0.83307510  0.33377105  1
  I  I89  1  0.16324030  0.83383071  0.66668628  1
  I  I90  1  0.50083935  0.16878280  -0.00379254  1
  I  I91  1  0.49902086  0.16948630  0.33306318  1
  I  I92  1  0.50072526  0.17446861  0.67091955  1
  I  I93  1  0.50357820  0.49680683  -0.00213821  1
  I  I94  1  0.49584461  0.50140757  0.33107985  1
  I  I95  1  0.50059313  0.49684805  0.66979603  1
  I  I96  1  0.49553063  0.83395377  -0.00037959  1
  I  I97  1  0.49726781  0.82863399  0.33308744  1
  I  I98  1  0.49495437  0.83037387  0.66714013  1
  I  I99  1  0.83294845  0.16997290  -0.00472706  1
  I  I100  1  0.83321486  0.16910165  0.33356026  1
  I  I101  1  0.83324556  0.16520314  0.67065294  1
  I  I102  1  0.83199043  0.50005149  -0.00359242  1
  I  I103  1  0.83882813  0.50092335  0.33652651  1
  I  I104  1  0.83262734  0.50021272  0.66840571  1
  I  I105  1  0.84005681  0.82967401  -0.00463427  1
  I  I106  1  0.83518466  0.82961926  0.33352722  1
  I  I107  1  0.84025064  0.83494367  0.67060205  1
  I  I108  1  0.00423146  0.16400567  0.16819332  1
  I  I109  1  0.00415108  0.16433022  0.49997688  1
  I  I110  1  -0.00236580  0.16926680  0.83300448  1
  I  I111  1  0.00016386  0.50013430  0.16387627  1
  I  I112  1  0.00083057  0.50031063  0.50662216  1
  I  I113  1  -0.00268808  0.49740069  0.83083590  1
  I  I114  1  0.00450523  0.83490877  0.16862490  1
  I  I115  1  0.00429724  0.83489565  0.49930751  1
  I  I116  1  0.00046704  0.83371417  0.83291081  1
  I  I117  1  0.32958724  0.16277535  0.16809482  1
  I  I118  1  0.32879461  0.16948186  0.49925420  1
  I  I119  1  0.33530127  0.17087159  0.83304487  1
  I  I120  1  0.33584608  0.50034941  0.15953483  1
  I  I121  1  0.33043657  0.50132892  0.50039272  1
  I  I122  1  0.33582587  0.49656601  0.83515200  1
  I  I123  1  0.32871470  0.83699361  0.16310609  1
  I  I124  1  0.32797442  0.82889046  0.50480128  1
  I  I125  1  0.33024935  0.83387041  0.83243639  1
  I  I126  1  0.66645578  0.16808545  0.16762104  1
  I  I127  1  0.66706236  0.16969488  0.49938637  1
  I  I128  1  0.66721739  0.16665868  0.83327801  1
  I  I129  1  0.66298925  0.49933777  0.16459508  1
  I  I130  1  0.66984265  0.50036358  0.50406918  1
  I  I131  1  0.66748274  0.50154942  0.83095686  1
  I  I132  1  0.66671963  0.83163826  0.16427069  1
  I  I133  1  0.66749546  0.82918906  0.50352448  1
  I  I134  1  0.66996439  0.83224898  0.83268574  1
