# generated using pymatgen
data_Cs27Sn13Pb14I81
_symmetry_space_group_name_H-M   'P 1'
_cell_length_a   18.98163047
_cell_length_b   18.97269288
_cell_length_c   18.98163044
_cell_angle_alpha   89.99982011
_cell_angle_beta   89.99683163
_cell_angle_gamma   89.99981992
_symmetry_Int_Tables_number   1
_chemical_formula_structural   Cs27Sn13Pb14I81
_chemical_formula_sum   'Cs27 Sn13 Pb14 I81'
_cell_volume   6835.90477029
_cell_formula_units_Z   1
loop_
 _symmetry_equiv_pos_site_id
 _symmetry_equiv_pos_as_xyz
  1  'x, y, z'
loop_
 _atom_site_type_symbol
 _atom_site_label
 _atom_site_symmetry_multiplicity
 _atom_site_fract_x
 _atom_site_fract_y
 _atom_site_fract_z
 _atom_site_occupancy
  Cs  Cs0  1  -0.00009482  0.00013833  -0.00009488  1
  Cs  Cs1  1  -0.00050973  -0.00098861  0.33097455  1
  Cs  Cs2  1  0.00010069  -0.00085658  0.66859747  1
  Cs  Cs3  1  0.00289537  0.33146333  0.00289557  1
  Cs  Cs4  1  -0.00094673  0.33970671  0.33264247  1
  Cs  Cs5  1  0.00105056  0.33762748  0.66408297  1
  Cs  Cs6  1  -0.00093051  0.66372667  -0.00093048  1
  Cs  Cs7  1  0.00142403  0.66223351  0.33482796  1
  Cs  Cs8  1  -0.00149930  0.66063608  0.66532096  1
  Cs  Cs9  1  0.33097454  -0.00098864  -0.00050972  1
  Cs  Cs10  1  0.33414799  0.00081229  0.33414814  1
  Cs  Cs11  1  0.33250029  -0.00006372  0.66639072  1
  Cs  Cs12  1  0.33264252  0.33970668  -0.00094677  1
  Cs  Cs13  1  0.33485335  0.32989090  0.33485345  1
  Cs  Cs14  1  0.33311358  0.33253270  0.66666684  1
  Cs  Cs15  1  0.33482803  0.66223335  0.00142402  1
  Cs  Cs16  1  0.33271610  0.66804884  0.33271617  1
  Cs  Cs17  1  0.33419280  0.66752255  0.66600326  1
  Cs  Cs18  1  0.66859733  -0.00085661  0.00010076  1
  Cs  Cs19  1  0.66639068  -0.00006372  0.33250037  1
  Cs  Cs20  1  0.66760934  -0.00097052  0.66760929  1
  Cs  Cs21  1  0.66408306  0.33762751  0.00105076  1
  Cs  Cs22  1  0.66666652  0.33253284  0.33311371  1
  Cs  Cs23  1  0.66575752  0.33459076  0.66575756  1
  Cs  Cs24  1  0.66532089  0.66063603  -0.00149942  1
  Cs  Cs25  1  0.66600341  0.66752268  0.33419267  1
  Cs  Cs26  1  0.66697329  0.66693057  0.66697316  1
  Sn  Sn27  1  0.83288284  0.83444536  0.49936990  1
  Sn  Sn28  1  0.49992340  0.50099309  0.49992343  1
  Sn  Sn29  1  0.83364372  0.16552458  0.49988213  1
  Sn  Sn30  1  0.83399250  0.16559576  0.16663017  1
  Sn  Sn31  1  0.16721311  0.83385944  0.83409425  1
  Sn  Sn32  1  0.16562683  0.83429960  0.16562683  1
  Sn  Sn33  1  0.83409423  0.83385945  0.16721307  1
  Sn  Sn34  1  0.49988217  0.16552454  0.83364380  1
  Sn  Sn35  1  0.16663014  0.16559576  0.83399249  1
  Sn  Sn36  1  0.49936988  0.83444536  0.83288283  1
  Sn  Sn37  1  0.50079968  0.83298728  0.50079971  1
  Sn  Sn38  1  0.83350162  0.16629490  0.83350168  1
  Sn  Sn39  1  0.16600627  0.16540422  0.16600627  1
  Pb  Pb40  1  0.50215423  0.16565199  0.50215423  1
  Pb  Pb41  1  0.49986369  0.16643125  0.16374292  1
  Pb  Pb42  1  0.16374293  0.16643123  0.49986369  1
  Pb  Pb43  1  0.49993564  0.50048835  0.83151630  1
  Pb  Pb44  1  0.16663085  0.50007774  0.16663086  1
  Pb  Pb45  1  0.16670365  0.50028597  0.83334269  1
  Pb  Pb46  1  0.49996919  0.49999644  0.16984481  1
  Pb  Pb47  1  0.50006723  0.83349997  0.16621663  1
  Pb  Pb48  1  0.16621661  0.83350000  0.50006723  1
  Pb  Pb49  1  0.16984480  0.49999645  0.49996923  1
  Pb  Pb50  1  0.83338370  0.49614405  0.83338372  1
  Pb  Pb51  1  0.83360083  0.83443247  0.83360080  1
  Pb  Pb52  1  0.83334266  0.50028598  0.16670359  1
  Pb  Pb53  1  0.83151634  0.50048837  0.49993560  1
  I  I54  1  0.16191896  0.00005004  0.16191900  1
  I  I55  1  0.17273556  -0.00005408  0.50057398  1
  I  I56  1  0.16800553  0.00057032  0.83711928  1
  I  I57  1  0.16183587  0.32945136  0.16183593  1
  I  I58  1  0.16660791  0.33287922  0.50042271  1
  I  I59  1  0.16695964  0.32924511  0.83748374  1
  I  I60  1  0.16288099  0.67060286  0.16288086  1
  I  I61  1  0.16150359  0.66717832  0.50028594  1
  I  I62  1  0.17228625  0.67067738  0.83736800  1
  I  I63  1  0.50057407  -0.00005410  0.17273549  1
  I  I64  1  0.50242293  -0.00320625  0.50242268  1
  I  I65  1  0.49909502  -0.00037274  0.82691042  1
  I  I66  1  0.50042290  0.33287923  0.16660805  1
  I  I67  1  0.50158904  0.33477105  0.50158889  1
  I  I68  1  0.50042317  0.33002692  0.83238720  1
  I  I69  1  0.50028586  0.66717833  0.16150331  1
  I  I70  1  0.50587603  0.66893471  0.50587628  1
  I  I71  1  0.49549719  0.67043530  0.83176052  1
  I  I72  1  0.83711939  0.00057032  0.16800549  1
  I  I73  1  0.82691021  -0.00037277  0.49909502  1
  I  I74  1  0.83259304  0.00309787  0.83259305  1
  I  I75  1  0.83748384  0.32924511  0.16695946  1
  I  I76  1  0.83238747  0.33002692  0.50042351  1
  I  I77  1  0.83279534  0.32700690  0.83279499  1
  I  I78  1  0.83736796  0.67067737  0.17228639  1
  I  I79  1  0.83176046  0.67043532  0.49549701  1
  I  I80  1  0.83288861  0.66698701  0.83288881  1
  I  I81  1  0.16161572  0.16252482  -0.00058377  1
  I  I82  1  0.16323151  0.16237735  0.32975827  1
  I  I83  1  0.16657598  0.16254031  0.67022086  1
  I  I84  1  0.16832753  0.49962457  -0.00002137  1
  I  I85  1  0.16742559  0.49972191  0.33313760  1
  I  I86  1  0.16531295  0.49917748  0.66681418  1
  I  I87  1  0.16674753  0.83847052  -0.00020335  1
  I  I88  1  0.16641644  0.83787018  0.33020431  1
  I  I89  1  0.16828976  0.83863370  0.66985584  1
  I  I90  1  0.50486543  0.15988734  -0.00446698  1
  I  I91  1  0.49973652  0.16803987  0.33344625  1
  I  I92  1  0.49925961  0.16567994  0.67032795  1
  I  I93  1  0.50003850  0.49997689  -0.00027418  1
  I  I94  1  0.50122956  0.50664465  0.33785447  1
  I  I95  1  0.50153000  0.50164762  0.66385790  1
  I  I96  1  0.49960082  0.83907776  -0.00330248  1
  I  I97  1  0.50113634  0.82862666  0.33615076  1
  I  I98  1  0.50026456  0.83353270  0.66689460  1
  I  I99  1  0.83404285  0.16202013  0.00023052  1
  I  I100  1  0.83684058  0.16284836  0.33285096  1
  I  I101  1  0.83219334  0.16248684  0.66686691  1
  I  I102  1  0.83130295  0.50230272  0.00012607  1
  I  I103  1  0.83127988  0.49477125  0.33341614  1
  I  I104  1  0.83331102  0.50043507  0.66642487  1
  I  I105  1  0.83388569  0.83851032  0.00261303  1
  I  I106  1  0.83229317  0.84122896  0.33345421  1
  I  I107  1  0.83164909  0.83797282  0.66431719  1
  I  I108  1  -0.00058378  0.16252487  0.16161567  1
  I  I109  1  -0.00446698  0.15988713  0.50486551  1
  I  I110  1  0.00023055  0.16201999  0.83404285  1
  I  I111  1  -0.00002136  0.49962469  0.16832741  1
  I  I112  1  -0.00027418  0.49997711  0.50003856  1
  I  I113  1  0.00012606  0.50230290  0.83130297  1
  I  I114  1  -0.00020334  0.83847038  0.16674789  1
  I  I115  1  -0.00330250  0.83907773  0.49960055  1
  I  I116  1  0.00261301  0.83851034  0.83388562  1
  I  I117  1  0.32975831  0.16237742  0.16323145  1
  I  I118  1  0.33344626  0.16803987  0.49973661  1
  I  I119  1  0.33285097  0.16284832  0.83684039  1
  I  I120  1  0.33313761  0.49972180  0.16742605  1
  I  I121  1  0.33785447  0.50664448  0.50122879  1
  I  I122  1  0.33341611  0.49477155  0.83128017  1
  I  I123  1  0.33020431  0.83787024  0.16641605  1
  I  I124  1  0.33615076  0.82862685  0.50113656  1
  I  I125  1  0.33345419  0.84122896  0.83229330  1
  I  I126  1  0.67022083  0.16254023  0.16657599  1
  I  I127  1  0.67032793  0.16568009  0.49925939  1
  I  I128  1  0.66686690  0.16248706  0.83219344  1
  I  I129  1  0.66681425  0.49917757  0.16531265  1
  I  I130  1  0.66385790  0.50164763  0.50153063  1
  I  I131  1  0.66642483  0.50043475  0.83331080  1
  I  I132  1  0.66985578  0.83863375  0.16828988  1
  I  I133  1  0.66689458  0.83353254  0.50026463  1
  I  I134  1  0.66431718  0.83797294  0.83164897  1
