# generated using pymatgen
data_Cs27Sn13Pb14I81
_symmetry_space_group_name_H-M   'P 1'
_cell_length_a   18.98503924
_cell_length_b   19.00004222
_cell_length_c   18.98910540
_cell_angle_alpha   89.99993090
_cell_angle_beta   89.99873243
_cell_angle_gamma   90.00196323
_symmetry_Int_Tables_number   1
_chemical_formula_structural   Cs27Sn13Pb14I81
_chemical_formula_sum   'Cs27 Sn13 Pb14 I81'
_cell_volume   6849.68452653
_cell_formula_units_Z   1
loop_
 _symmetry_equiv_pos_site_id
 _symmetry_equiv_pos_as_xyz
  1  'x, y, z'
loop_
 _atom_site_type_symbol
 _atom_site_label
 _atom_site_symmetry_multiplicity
 _atom_site_fract_x
 _atom_site_fract_y
 _atom_site_fract_z
 _atom_site_occupancy
  Cs  Cs0  1  0.00053081  -0.00014598  -0.00196351  1
  Cs  Cs1  1  0.00045853  -0.00198516  0.33144220  1
  Cs  Cs2  1  0.00036743  -0.00313706  0.67746574  1
  Cs  Cs3  1  -0.00252093  0.33172046  0.00284365  1
  Cs  Cs4  1  -0.00229169  0.33423411  0.33132239  1
  Cs  Cs5  1  0.00457156  0.33210164  0.66626336  1
  Cs  Cs6  1  0.00100436  0.66774657  0.00185679  1
  Cs  Cs7  1  -0.00070420  0.66799727  0.33212212  1
  Cs  Cs8  1  0.00071464  0.67076088  0.66833544  1
  Cs  Cs9  1  0.33572580  -0.00068946  0.00007843  1
  Cs  Cs10  1  0.33380122  -0.00010240  0.33488163  1
  Cs  Cs11  1  0.33291748  0.00439790  0.66671413  1
  Cs  Cs12  1  0.33698678  0.33479107  -0.00127722  1
  Cs  Cs13  1  0.33230839  0.33208438  0.34181967  1
  Cs  Cs14  1  0.32634031  0.33982748  0.65728294  1
  Cs  Cs15  1  0.33777190  0.66509037  -0.00253712  1
  Cs  Cs16  1  0.33814115  0.66910355  0.33375221  1
  Cs  Cs17  1  0.33051296  0.65443275  0.67024923  1
  Cs  Cs18  1  0.66403945  0.00208852  -0.00175222  1
  Cs  Cs19  1  0.66538599  -0.00111009  0.33578411  1
  Cs  Cs20  1  0.66695216  -0.00387068  0.66704672  1
  Cs  Cs21  1  0.66730320  0.33244215  -0.00028838  1
  Cs  Cs22  1  0.67025768  0.33275448  0.33301960  1
  Cs  Cs23  1  0.66663126  0.33416613  0.66555726  1
  Cs  Cs24  1  0.66245640  0.66306163  0.00156195  1
  Cs  Cs25  1  0.66248728  0.67014047  0.33480080  1
  Cs  Cs26  1  0.66733103  0.66962278  0.66341981  1
  Sn  Sn27  1  0.16671077  0.83357061  0.49948194  1
  Sn  Sn28  1  0.16638389  0.50011232  0.16676357  1
  Sn  Sn29  1  0.83376827  0.49950282  0.49967844  1
  Sn  Sn30  1  0.16630905  0.83321651  0.16743854  1
  Sn  Sn31  1  0.49999164  0.16680186  0.16633032  1
  Sn  Sn32  1  0.49971930  0.16649581  0.83338430  1
  Sn  Sn33  1  0.83338197  0.83356621  0.16645623  1
  Sn  Sn34  1  0.16690528  0.16675157  0.16656504  1
  Sn  Sn35  1  0.83387547  0.16658790  0.49963498  1
  Sn  Sn36  1  0.49977754  0.83386831  0.83315139  1
  Sn  Sn37  1  0.83387533  0.50043096  0.16691128  1
  Sn  Sn38  1  0.83327098  0.16600380  0.16724171  1
  Sn  Sn39  1  0.83359129  0.49990820  0.83331686  1
  Pb  Pb40  1  0.50279335  0.49998440  0.49967068  1
  Pb  Pb41  1  0.83498272  0.83372671  0.49798105  1
  Pb  Pb42  1  0.16375003  0.49976417  0.83620164  1
  Pb  Pb43  1  0.49996459  0.49700014  0.16707882  1
  Pb  Pb44  1  0.16960576  0.16697147  0.83576584  1
  Pb  Pb45  1  0.83169656  0.16832986  0.83326978  1
  Pb  Pb46  1  0.50235754  0.16660487  0.50018955  1
  Pb  Pb47  1  0.50216609  0.49899022  0.83327821  1
  Pb  Pb48  1  0.49659765  0.83345301  0.50317379  1
  Pb  Pb49  1  0.83135333  0.83102779  0.83647862  1
  Pb  Pb50  1  0.16367236  0.50222639  0.49697015  1
  Pb  Pb51  1  0.49966520  0.83559155  0.16558487  1
  Pb  Pb52  1  0.16333509  0.16453216  0.49769715  1
  Pb  Pb53  1  0.16915374  0.83334422  0.83412808  1
  I  I54  1  0.16324497  -0.00001396  0.17006694  1
  I  I55  1  0.16491026  -0.00282518  0.49198532  1
  I  I56  1  0.16297349  0.00005087  0.83570093  1
  I  I57  1  0.16212233  0.33307579  0.16396886  1
  I  I58  1  0.16869694  0.33340171  0.49988140  1
  I  I59  1  0.16939717  0.33339854  0.83439385  1
  I  I60  1  0.15700852  0.66690936  0.16987041  1
  I  I61  1  0.16432136  0.66962498  0.49348273  1
  I  I62  1  0.17007958  0.66663560  0.83574407  1
  I  I63  1  0.50149428  0.00347090  0.16425487  1
  I  I64  1  0.50376259  0.00002922  0.49761322  1
  I  I65  1  0.50127335  0.00088631  0.83963661  1
  I  I66  1  0.50189138  0.32898321  0.15908955  1
  I  I67  1  0.49682500  0.33304146  0.50208588  1
  I  I68  1  0.50336516  0.33012473  0.84096132  1
  I  I69  1  0.50087379  0.66671465  0.16399622  1
  I  I70  1  0.50334459  0.66698117  0.50117989  1
  I  I71  1  0.50100805  0.66876511  0.83454082  1
  I  I72  1  0.83577508  0.00085649  0.17133930  1
  I  I73  1  0.83328562  0.00259237  0.49288694  1
  I  I74  1  0.83384695  -0.00012107  0.83321112  1
  I  I75  1  0.83528501  0.33334015  0.16675619  1
  I  I76  1  0.83221015  0.33344808  0.49357997  1
  I  I77  1  0.83023061  0.33609264  0.83952225  1
  I  I78  1  0.84055780  0.66606466  0.16589842  1
  I  I79  1  0.83471827  0.66402749  0.49894193  1
  I  I80  1  0.83089704  0.66324065  0.83311125  1
  I  I81  1  0.15935781  0.16340689  0.00497551  1
  I  I82  1  0.17140537  0.16912926  0.32881102  1
  I  I83  1  0.16637735  0.16394857  0.66628555  1
  I  I84  1  0.16055078  0.50289204  0.00464129  1
  I  I85  1  0.15972545  0.49656377  0.32901788  1
  I  I86  1  0.16619471  0.50250936  0.66626259  1
  I  I87  1  0.16283993  0.83368044  0.00405355  1
  I  I88  1  0.16195124  0.83359801  0.33062102  1
  I  I89  1  0.16646572  0.83370263  0.66421181  1
  I  I90  1  0.50249489  0.16288702  0.00152046  1
  I  I91  1  0.49886927  0.16730627  0.33007693  1
  I  I92  1  0.50480655  0.16127013  0.66963402  1
  I  I93  1  0.50274077  0.50166361  0.00027929  1
  I  I94  1  0.50231279  0.49944486  0.33292749  1
  I  I95  1  0.50173444  0.49868154  0.66678170  1
  I  I96  1  0.49936485  0.83562847  -0.00208417  1
  I  I97  1  0.50217814  0.83392593  0.33331669  1
  I  I98  1  0.50207896  0.84153204  0.67065296  1
  I  I99  1  0.83504913  0.16790404  0.00374755  1
  I  I100  1  0.83141817  0.17179592  0.33082697  1
  I  I101  1  0.83037238  0.17200544  0.66398699  1
  I  I102  1  0.83626804  0.49965211  0.00199105  1
  I  I103  1  0.83761856  0.49773704  0.33181084  1
  I  I104  1  0.82961674  0.49432072  0.66609610  1
  I  I105  1  0.84023038  0.83507040  0.00471732  1
  I  I106  1  0.83416437  0.82970672  0.32946921  1
  I  I107  1  0.83462559  0.83300665  0.66676154  1
  I  I108  1  -0.00073215  0.16740987  0.17146053  1
  I  I109  1  -0.00434257  0.17207268  0.49319281  1
  I  I110  1  -0.00013488  0.16767924  0.83375874  1
  I  I111  1  -0.00152500  0.49613578  0.16622190  1
  I  I112  1  -0.00416480  0.49524888  0.50086512  1
  I  I113  1  -0.00428617  0.49999946  0.83234737  1
  I  I114  1  -0.00015914  0.83652779  0.16932592  1
  I  I115  1  0.00258949  0.83265483  0.49621721  1
  I  I116  1  0.00002586  0.83183181  0.83200830  1
  I  I117  1  0.33290839  0.16538850  0.16021145  1
  I  I118  1  0.33292454  0.16524878  0.49901461  1
  I  I119  1  0.33761519  0.16158606  0.84072779  1
  I  I120  1  0.33009839  0.50178979  0.16533529  1
  I  I121  1  0.33244426  0.50073887  0.49971835  1
  I  I122  1  0.33328678  0.50137045  0.83568242  1
  I  I123  1  0.33009569  0.83311859  0.16883236  1
  I  I124  1  0.32923746  0.83460237  0.48886176  1
  I  I125  1  0.33666722  0.83801378  0.83718055  1
  I  I126  1  0.66795619  0.16719623  0.16602650  1
  I  I127  1  0.67039856  0.17031123  0.49257939  1
  I  I128  1  0.66403945  0.16380013  0.84142899  1
  I  I129  1  0.67053419  0.50030091  0.16622927  1
  I  I130  1  0.67166539  0.49711636  0.49592185  1
  I  I131  1  0.67021233  0.49955792  0.83840810  1
  I  I132  1  0.66949861  0.83228418  0.16488767  1
  I  I133  1  0.66682892  0.83241101  0.49923466  1
  I  I134  1  0.66397033  0.83795110  0.83560308  1
