# generated using pymatgen
data_Cs27Sn13Pb14I81
_symmetry_space_group_name_H-M   'P 1'
_cell_length_a   18.97914060
_cell_length_b   18.98421631
_cell_length_c   18.97382413
_cell_angle_alpha   90.00047023
_cell_angle_beta   89.99976365
_cell_angle_gamma   90.00064661
_symmetry_Int_Tables_number   1
_chemical_formula_structural   Cs27Sn13Pb14I81
_chemical_formula_sum   'Cs27 Sn13 Pb14 I81'
_cell_volume   6836.34682556
_cell_formula_units_Z   1
loop_
 _symmetry_equiv_pos_site_id
 _symmetry_equiv_pos_as_xyz
  1  'x, y, z'
loop_
 _atom_site_type_symbol
 _atom_site_label
 _atom_site_symmetry_multiplicity
 _atom_site_fract_x
 _atom_site_fract_y
 _atom_site_fract_z
 _atom_site_occupancy
  Cs  Cs0  1  -0.00074400  0.00171730  0.00063258  1
  Cs  Cs1  1  0.00185685  -0.00263915  0.33367594  1
  Cs  Cs2  1  -0.00019189  -0.00151415  0.66564152  1
  Cs  Cs3  1  -0.00070835  0.33187049  0.00016912  1
  Cs  Cs4  1  0.00082191  0.33477634  0.33399930  1
  Cs  Cs5  1  -0.00042020  0.33418612  0.66706721  1
  Cs  Cs6  1  -0.00005235  0.66619535  0.00069989  1
  Cs  Cs7  1  0.00011775  0.66764644  0.33346756  1
  Cs  Cs8  1  -0.00098800  0.66722456  0.66611966  1
  Cs  Cs9  1  0.33317076  -0.00095598  0.00071607  1
  Cs  Cs10  1  0.33240776  0.00148002  0.33309146  1
  Cs  Cs11  1  0.33391991  0.00049322  0.66492521  1
  Cs  Cs12  1  0.33343540  0.33398659  -0.00026688  1
  Cs  Cs13  1  0.33297620  0.33096919  0.33445236  1
  Cs  Cs14  1  0.33441206  0.33149121  0.66652191  1
  Cs  Cs15  1  0.33417573  0.66635003  0.00028865  1
  Cs  Cs16  1  0.33324943  0.66809506  0.33234764  1
  Cs  Cs17  1  0.33475905  0.66736363  0.66725786  1
  Cs  Cs18  1  0.66775836  0.00652884  0.00748793  1
  Cs  Cs19  1  0.66580019  0.00194710  0.32779743  1
  Cs  Cs20  1  0.66697047  -0.00285512  0.66716742  1
  Cs  Cs21  1  0.66604079  0.33181429  0.00134395  1
  Cs  Cs22  1  0.66538793  0.33144685  0.32991161  1
  Cs  Cs23  1  0.66587710  0.33172076  0.67160965  1
  Cs  Cs24  1  0.66476299  0.66004884  0.00681745  1
  Cs  Cs25  1  0.66668414  0.66613514  0.33353676  1
  Cs  Cs26  1  0.66635976  0.66860374  0.66550663  1
  Sn  Sn27  1  0.50068230  0.83329590  0.83303864  1
  Sn  Sn28  1  0.50006383  0.50058692  0.50048933  1
  Sn  Sn29  1  0.16641987  0.16738963  0.16611786  1
  Sn  Sn30  1  0.16655146  0.49930102  0.16669686  1
  Sn  Sn31  1  0.83282362  0.49972036  0.50046953  1
  Sn  Sn32  1  0.16651144  0.50001858  0.83325934  1
  Sn  Sn33  1  0.50073884  0.83267491  0.50069409  1
  Sn  Sn34  1  0.16697899  0.50023014  0.50010530  1
  Sn  Sn35  1  0.83327008  0.16651065  0.50034869  1
  Sn  Sn36  1  0.83244233  0.83352246  0.50065175  1
  Sn  Sn37  1  0.16658079  0.83336031  0.83286952  1
  Sn  Sn38  1  0.83269746  0.83299133  0.83325596  1
  Sn  Sn39  1  0.16654107  0.16660595  0.83373149  1
  Pb  Pb40  1  0.83485691  0.50197368  0.83161057  1
  Pb  Pb41  1  0.49748537  0.49998197  0.16929468  1
  Pb  Pb42  1  0.49714048  0.16690028  0.16656942  1
  Pb  Pb43  1  0.16661721  0.83322339  0.16370663  1
  Pb  Pb44  1  0.50001862  0.83322325  0.16687305  1
  Pb  Pb45  1  0.16685826  0.83132106  0.50183647  1
  Pb  Pb46  1  0.83330639  0.83318847  0.16665829  1
  Pb  Pb47  1  0.83550948  0.49994420  0.16897272  1
  Pb  Pb48  1  0.16500134  0.16893154  0.50023304  1
  Pb  Pb49  1  0.49795905  0.16400907  0.83320610  1
  Pb  Pb50  1  0.83525898  0.16451663  0.83155173  1
  Pb  Pb51  1  0.50280717  0.16637307  0.50018715  1
  Pb  Pb52  1  0.83599088  0.16684638  0.16902973  1
  Pb  Pb53  1  0.49821361  0.50185388  0.83141116  1
  I  I54  1  0.16618101  0.00282806  0.16259639  1
  I  I55  1  0.16618551  -0.00006120  0.49958677  1
  I  I56  1  0.16644073  -0.00046238  0.83770222  1
  I  I57  1  0.16621026  0.33419467  0.16274630  1
  I  I58  1  0.16660481  0.33726994  0.50393309  1
  I  I59  1  0.16611768  0.33396199  0.83301283  1
  I  I60  1  0.16670961  0.66345020  0.16757920  1
  I  I61  1  0.16261372  0.66298060  0.49954601  1
  I  I62  1  0.16647990  0.66665396  0.83182479  1
  I  I63  1  0.49658009  -0.00008497  0.16973115  1
  I  I64  1  0.50328452  -0.00361375  0.50426859  1
  I  I65  1  0.49656637  -0.00464372  0.82484216  1
  I  I66  1  0.50038609  0.33364453  0.16970347  1
  I  I67  1  0.49832899  0.33657586  0.49858135  1
  I  I68  1  0.49675543  0.33348484  0.83081751  1
  I  I69  1  0.49599581  0.66653082  0.16542476  1
  I  I70  1  0.50310065  0.66688522  0.50383969  1
  I  I71  1  0.49635762  0.67032596  0.82977412  1
  I  I72  1  0.83720670  0.00004439  0.16992438  1
  I  I73  1  0.83044785  -0.00142142  0.50445595  1
  I  I74  1  0.83704335  -0.00389297  0.82574972  1
  I  I75  1  0.83370365  0.33341570  0.16944009  1
  I  I76  1  0.83675650  0.33435824  0.49826932  1
  I  I77  1  0.83746693  0.33336832  0.82946422  1
  I  I78  1  0.83741738  0.66653068  0.16900398  1
  I  I79  1  0.83396583  0.66685542  0.50381242  1
  I  I80  1  0.83745382  0.67042860  0.82597434  1
  I  I81  1  0.16635809  0.17081603  -0.00091653  1
  I  I82  1  0.16476927  0.17200358  0.33116089  1
  I  I83  1  0.16524552  0.16661101  0.66950530  1
  I  I84  1  0.16671707  0.50043736  -0.00078083  1
  I  I85  1  0.16605685  0.49498000  0.33412242  1
  I  I86  1  0.16591688  0.50074870  0.66648933  1
  I  I87  1  0.16674697  0.82888346  -0.00484911  1
  I  I88  1  0.16652316  0.83351938  0.33348296  1
  I  I89  1  0.16625435  0.83388211  0.67016642  1
  I  I90  1  0.50195281  0.16404773  -0.00024710  1
  I  I91  1  0.49697965  0.16385360  0.33377461  1
  I  I92  1  0.49505247  0.16851085  0.66648636  1
  I  I93  1  0.49693332  0.50301656  -0.00012283  1
  I  I94  1  0.49837668  0.50724821  0.33809080  1
  I  I95  1  0.49695503  0.50245002  0.66274319  1
  I  I96  1  0.49719848  0.83413258  -0.00357096  1
  I  I97  1  0.50473116  0.82914330  0.33731212  1
  I  I98  1  0.49984885  0.82927563  0.66604142  1
  I  I99  1  0.83379991  0.16353346  -0.00014918  1
  I  I100  1  0.83598055  0.16404891  0.33746454  1
  I  I101  1  0.83743903  0.16870335  0.66333462  1
  I  I102  1  0.83638571  0.50307926  -0.00017770  1
  I  I103  1  0.83650011  0.50388348  0.33829353  1
  I  I104  1  0.83765103  0.49917220  0.66252318  1
  I  I105  1  0.83602012  0.83378550  -0.00363403  1
  I  I106  1  0.82943621  0.83258689  0.33760556  1
  I  I107  1  0.83424225  0.83291241  0.66557008  1
  I  I108  1  0.00403802  0.17098754  0.16226375  1
  I  I109  1  -0.00276020  0.16494184  0.50038471  1
  I  I110  1  0.00403117  0.16481972  0.83564541  1
  I  I111  1  0.00435959  0.49712053  0.16871314  1
  I  I112  1  0.00028568  0.50036758  0.49997242  1
  I  I113  1  0.00411182  0.50274337  0.83025187  1
  I  I114  1  0.00028243  0.83290792  0.16866971  1
  I  I115  1  -0.00274285  0.83246391  0.50381177  1
  I  I116  1  0.00038948  0.83302020  0.82845842  1
  I  I117  1  0.32857519  0.17043268  0.16472702  1
  I  I118  1  0.33313725  0.16641640  0.49903517  1
  I  I119  1  0.32876467  0.16536367  0.83519881  1
  I  I120  1  0.32877454  0.49683158  0.16839649  1
  I  I121  1  0.33274305  0.50500737  0.50004071  1
  I  I122  1  0.32903658  0.50251262  0.83056236  1
  I  I123  1  0.33302923  0.83384946  0.16830162  1
  I  I124  1  0.33590100  0.82833127  0.50423510  1
  I  I125  1  0.33282983  0.83293692  0.82905160  1
  I  I126  1  0.66702020  0.16519718  0.16813385  1
  I  I127  1  0.67070579  0.17059807  0.50089561  1
  I  I128  1  0.66692616  0.16557474  0.83125980  1
  I  I129  1  0.66653948  0.50119210  0.16790419  1
  I  I130  1  0.66706456  0.50250695  0.50036286  1
  I  I131  1  0.66660104  0.50156148  0.83099979  1
  I  I132  1  0.66665368  0.83376619  0.16305214  1
  I  I133  1  0.66719503  0.82788321  0.50869322  1
  I  I134  1  0.66690966  0.83317064  0.82479959  1
