# generated using pymatgen
data_Cs27Sn13Pb14I81
_symmetry_space_group_name_H-M   'P 1'
_cell_length_a   19.00130386
_cell_length_b   18.99239817
_cell_length_c   18.98156098
_cell_angle_alpha   89.99858362
_cell_angle_beta   89.99910018
_cell_angle_gamma   89.99998067
_symmetry_Int_Tables_number   1
_chemical_formula_structural   Cs27Sn13Pb14I81
_chemical_formula_sum   'Cs27 Sn13 Pb14 I81'
_cell_volume   6850.07196375
_cell_formula_units_Z   1
loop_
 _symmetry_equiv_pos_site_id
 _symmetry_equiv_pos_as_xyz
  1  'x, y, z'
loop_
 _atom_site_type_symbol
 _atom_site_label
 _atom_site_symmetry_multiplicity
 _atom_site_fract_x
 _atom_site_fract_y
 _atom_site_fract_z
 _atom_site_occupancy
  Cs  Cs0  1  -0.00102674  0.00586011  -0.00030059  1
  Cs  Cs1  1  -0.00246558  -0.00495201  0.33112479  1
  Cs  Cs2  1  -0.00027218  -0.00469557  0.66711452  1
  Cs  Cs3  1  -0.00027502  0.32686767  -0.00840441  1
  Cs  Cs4  1  0.00048279  0.33782410  0.33420243  1
  Cs  Cs5  1  -0.00146736  0.33328542  0.67101169  1
  Cs  Cs6  1  0.00199466  0.66632722  -0.00054679  1
  Cs  Cs7  1  0.00108905  0.66691688  0.33310918  1
  Cs  Cs8  1  0.00038611  0.66968686  0.66833576  1
  Cs  Cs9  1  0.33268402  -0.00025170  0.00317498  1
  Cs  Cs10  1  0.33196147  0.00354095  0.33506820  1
  Cs  Cs11  1  0.33636690  -0.00055454  0.66419939  1
  Cs  Cs12  1  0.33115552  0.33243353  0.00206642  1
  Cs  Cs13  1  0.33361631  0.33385065  0.33376886  1
  Cs  Cs14  1  0.33270286  0.33128055  0.66487363  1
  Cs  Cs15  1  0.33841379  0.66718943  -0.00214500  1
  Cs  Cs16  1  0.32853219  0.66378631  0.33309388  1
  Cs  Cs17  1  0.33356873  0.66831397  0.66865627  1
  Cs  Cs18  1  0.66825758  -0.00272482  0.00984129  1
  Cs  Cs19  1  0.67029710  -0.00184311  0.32721075  1
  Cs  Cs20  1  0.66291325  0.00153803  0.66525482  1
  Cs  Cs21  1  0.66871898  0.33421307  0.00074805  1
  Cs  Cs22  1  0.66586352  0.33499268  0.33596392  1
  Cs  Cs23  1  0.66848848  0.33117048  0.66452288  1
  Cs  Cs24  1  0.65618699  0.66834008  -0.00215328  1
  Cs  Cs25  1  0.67048803  0.66538512  0.33113238  1
  Cs  Cs26  1  0.66558177  0.66705629  0.66972561  1
  Sn  Sn27  1  0.83454322  0.50016962  0.16674592  1
  Sn  Sn28  1  0.16631188  0.49918402  0.49994559  1
  Sn  Sn29  1  0.50034093  0.16652800  0.50023976  1
  Sn  Sn30  1  0.83341757  0.83329718  0.83346527  1
  Sn  Sn31  1  0.16592741  0.16741669  0.50005984  1
  Sn  Sn32  1  0.49997565  0.50047865  0.50010746  1
  Sn  Sn33  1  0.83370076  0.16694472  0.49999437  1
  Sn  Sn34  1  0.50020843  0.83311059  0.49936788  1
  Sn  Sn35  1  0.83376096  0.49951808  0.49982942  1
  Sn  Sn36  1  0.50015380  0.16663407  0.83322637  1
  Sn  Sn37  1  0.16530425  0.50056368  0.16695034  1
  Sn  Sn38  1  0.16617686  0.83337674  0.83456324  1
  Sn  Sn39  1  0.16667661  0.83259794  0.16556516  1
  Pb  Pb40  1  0.16673134  0.50169528  0.83339995  1
  Pb  Pb41  1  0.83331078  0.50182374  0.83337963  1
  Pb  Pb42  1  0.49968839  0.49993577  0.16880087  1
  Pb  Pb43  1  0.50009768  0.16687508  0.16718140  1
  Pb  Pb44  1  0.83562941  0.83044476  0.16403508  1
  Pb  Pb45  1  0.16639367  0.16744969  0.16909005  1
  Pb  Pb46  1  0.83104046  0.83280902  0.50119687  1
  Pb  Pb47  1  0.49991834  0.49693997  0.83070503  1
  Pb  Pb48  1  0.49703854  0.83314744  0.16976367  1
  Pb  Pb49  1  0.83097493  0.16426146  0.83102565  1
  Pb  Pb50  1  0.16859651  0.16403408  0.83055883  1
  Pb  Pb51  1  0.83365717  0.16976375  0.16930601  1
  Pb  Pb52  1  0.49986732  0.83557073  0.83174963  1
  Pb  Pb53  1  0.16814438  0.83302512  0.49983356  1
  I  I54  1  0.16884962  -0.00265681  0.16463701  1
  I  I55  1  0.16879236  0.00226916  0.50087004  1
  I  I56  1  0.16307594  -0.00374749  0.83740088  1
  I  I57  1  0.16456260  0.33700939  0.17138345  1
  I  I58  1  0.17175800  0.33427861  0.49451311  1
  I  I59  1  0.16809256  0.33302573  0.83550240  1
  I  I60  1  0.16306942  0.66566453  0.17141076  1
  I  I61  1  0.16716332  0.66371183  0.49915396  1
  I  I62  1  0.16429252  0.66978658  0.82994153  1
  I  I63  1  0.49831894  -0.00015191  0.17048470  1
  I  I64  1  0.49807641  0.00114445  0.50509219  1
  I  I65  1  0.49877919  0.00279734  0.82182502  1
  I  I66  1  0.49696231  0.33355694  0.16828021  1
  I  I67  1  0.49974970  0.33325780  0.50338218  1
  I  I68  1  0.50010322  0.32942943  0.82540385  1
  I  I69  1  0.50219970  0.66655394  0.16839803  1
  I  I70  1  0.49883854  0.66582608  0.49923510  1
  I  I71  1  0.50029048  0.66695537  0.83081572  1
  I  I72  1  0.83364431  -0.00021643  0.16773324  1
  I  I73  1  0.83297898  0.00253511  0.50362538  1
  I  I74  1  0.83849373  -0.00328138  0.82986912  1
  I  I75  1  0.83980169  0.33770479  0.16847636  1
  I  I76  1  0.82862335  0.33395135  0.49677789  1
  I  I77  1  0.83183371  0.33314477  0.83488156  1
  I  I78  1  0.83564824  0.66305337  0.17685571  1
  I  I79  1  0.83368541  0.66324764  0.49751152  1
  I  I80  1  0.83702887  0.66953485  0.82870791  1
  I  I81  1  0.16989499  0.16921995  -0.00014612  1
  I  I82  1  0.17145773  0.16522334  0.33773459  1
  I  I83  1  0.16603378  0.17179393  0.66217917  1
  I  I84  1  0.16138328  0.50274993  0.00346470  1
  I  I85  1  0.16688763  0.50287606  0.33490315  1
  I  I86  1  0.16676600  0.49750863  0.66290555  1
  I  I87  1  0.16360845  0.82689319  0.00023811  1
  I  I88  1  0.16971127  0.83191700  0.33142057  1
  I  I89  1  0.16510943  0.83398963  0.66837114  1
  I  I90  1  0.49907742  0.16428533  -0.00297114  1
  I  I91  1  0.49900953  0.16754634  0.33808165  1
  I  I92  1  0.49950632  0.16649217  0.66348517  1
  I  I93  1  0.50043545  0.49920326  0.00010344  1
  I  I94  1  0.49943780  0.49621067  0.33787826  1
  I  I95  1  0.49980320  0.50257442  0.66156352  1
  I  I96  1  0.50196504  0.83559332  0.00003720  1
  I  I97  1  0.49952470  0.83690475  0.33793329  1
  I  I98  1  0.49665279  0.83149050  0.66349827  1
  I  I99  1  0.83076423  0.16755137  -0.00013603  1
  I  I100  1  0.82920971  0.16564424  0.33807686  1
  I  I101  1  0.83453904  0.17411796  0.66245858  1
  I  I102  1  0.83989661  0.50217114  0.00320545  1
  I  I103  1  0.83331770  0.49701976  0.33535766  1
  I  I104  1  0.83326617  0.49677102  0.66286138  1
  I  I105  1  0.83342097  0.83262459  -0.00356098  1
  I  I106  1  0.83319290  0.83598981  0.33322433  1
  I  I107  1  0.84062495  0.83142408  0.66873244  1
  I  I108  1  0.00009052  0.16309832  0.16845946  1
  I  I109  1  0.00001795  0.17397236  0.49882859  1
  I  I110  1  -0.00004463  0.16700378  0.83144469  1
  I  I111  1  0.00084569  0.50537270  0.17888604  1
  I  I112  1  0.00021304  0.49320940  0.49553738  1
  I  I113  1  0.00006383  0.49895284  0.82709817  1
  I  I114  1  0.00341036  0.83113038  0.16904054  1
  I  I115  1  0.00003159  0.83465930  0.49950219  1
  I  I116  1  0.00088002  0.83254757  0.83351542  1
  I  I117  1  0.33309572  0.16822185  0.16994134  1
  I  I118  1  0.33375041  0.16866121  0.50315831  1
  I  I119  1  0.33611333  0.16469484  0.82428235  1
  I  I120  1  0.32981968  0.50388232  0.17209261  1
  I  I121  1  0.33292943  0.49745351  0.49643674  1
  I  I122  1  0.33331378  0.50389760  0.83277650  1
  I  I123  1  0.32929309  0.82602307  0.16003364  1
  I  I124  1  0.33595705  0.83416405  0.50212488  1
  I  I125  1  0.33077600  0.83389245  0.83532511  1
  I  I126  1  0.66691456  0.16722360  0.16893778  1
  I  I127  1  0.66620259  0.17013166  0.50452181  1
  I  I128  1  0.66355852  0.16495428  0.82334253  1
  I  I129  1  0.66957355  0.49865824  0.17227960  1
  I  I130  1  0.66690080  0.49715447  0.49670104  1
  I  I131  1  0.66662631  0.50473434  0.83378833  1
  I  I132  1  0.66679893  0.83266068  0.16534216  1
  I  I133  1  0.66327134  0.83377620  0.50429910  1
  I  I134  1  0.66855585  0.83326396  0.82849820  1
