# generated using pymatgen
data_Cs27Sn14Pb13I81
_symmetry_space_group_name_H-M   'P 1'
_cell_length_a   18.97214347
_cell_length_b   18.97789103
_cell_length_c   18.97684431
_cell_angle_alpha   90.00019392
_cell_angle_beta   89.99744183
_cell_angle_gamma   89.99983563
_symmetry_Int_Tables_number   1
_chemical_formula_structural   Cs27Sn14Pb13I81
_chemical_formula_sum   'Cs27 Sn14 Pb13 I81'
_cell_volume   6832.63691483
_cell_formula_units_Z   1
loop_
 _symmetry_equiv_pos_site_id
 _symmetry_equiv_pos_as_xyz
  1  'x, y, z'
loop_
 _atom_site_type_symbol
 _atom_site_label
 _atom_site_symmetry_multiplicity
 _atom_site_fract_x
 _atom_site_fract_y
 _atom_site_fract_z
 _atom_site_occupancy
  Cs  Cs0  1  -0.00404418  -0.00351051  0.00247974  1
  Cs  Cs1  1  -0.00097905  -0.00118733  0.33333434  1
  Cs  Cs2  1  -0.00042354  -0.00068754  0.66477991  1
  Cs  Cs3  1  0.00019288  0.33414573  -0.00166836  1
  Cs  Cs4  1  0.00026369  0.33160464  0.33257801  1
  Cs  Cs5  1  0.00246947  0.33678565  0.66962181  1
  Cs  Cs6  1  0.00128873  0.66809731  -0.00150132  1
  Cs  Cs7  1  0.00227888  0.66863185  0.33449214  1
  Cs  Cs8  1  -0.00147538  0.66467678  0.66684410  1
  Cs  Cs9  1  0.33532871  -0.00079342  -0.00000784  1
  Cs  Cs10  1  0.33133327  0.00111719  0.33429010  1
  Cs  Cs11  1  0.34137233  0.00802404  0.66724830  1
  Cs  Cs12  1  0.33341957  0.33499560  -0.00196123  1
  Cs  Cs13  1  0.33469964  0.33457716  0.33434241  1
  Cs  Cs14  1  0.32957910  0.31942608  0.67048918  1
  Cs  Cs15  1  0.33340534  0.66563107  0.00201302  1
  Cs  Cs16  1  0.33183192  0.66467347  0.33156375  1
  Cs  Cs17  1  0.33457394  0.66998902  0.66712318  1
  Cs  Cs18  1  0.66846707  0.00076405  -0.00061468  1
  Cs  Cs19  1  0.67082798  0.00023070  0.33221126  1
  Cs  Cs20  1  0.66255014  -0.00190221  0.66855855  1
  Cs  Cs21  1  0.66650712  0.33398440  0.00381519  1
  Cs  Cs22  1  0.66453112  0.33866213  0.33133851  1
  Cs  Cs23  1  0.66769946  0.33758734  0.66320266  1
  Cs  Cs24  1  0.66466163  0.66616137  0.00018081  1
  Cs  Cs25  1  0.66393393  0.66298467  0.33428554  1
  Cs  Cs26  1  0.66644980  0.66647191  0.66343826  1
  Sn  Sn27  1  0.50108279  0.83418496  0.16696733  1
  Sn  Sn28  1  0.16560412  0.49897733  0.16726917  1
  Sn  Sn29  1  0.83394442  0.83386958  0.83294945  1
  Sn  Sn30  1  0.83396898  0.83395740  0.50021112  1
  Sn  Sn31  1  0.16635702  0.83369655  0.83172618  1
  Sn  Sn32  1  0.16622554  0.83287488  0.50165063  1
  Sn  Sn33  1  0.16750993  0.16759968  0.16652186  1
  Sn  Sn34  1  0.83358910  0.16614586  0.83183916  1
  Sn  Sn35  1  0.83229905  0.83198161  0.16688951  1
  Sn  Sn36  1  0.83463768  0.50143740  0.16658193  1
  Sn  Sn37  1  0.83354071  0.16609071  0.50143058  1
  Sn  Sn38  1  0.49978826  0.50006749  0.83272277  1
  Sn  Sn39  1  0.49887033  0.16559151  0.16680799  1
  Sn  Sn40  1  0.16687022  0.50044466  0.49975690  1
  Pb  Pb41  1  0.49991121  0.83331027  0.49734291  1
  Pb  Pb42  1  0.50301513  0.16873142  0.83560227  1
  Pb  Pb43  1  0.50040131  0.83219886  0.83533836  1
  Pb  Pb44  1  0.83196923  0.50061490  0.83547177  1
  Pb  Pb45  1  0.50337608  0.16658343  0.49727132  1
  Pb  Pb46  1  0.49597642  0.49983669  0.50335395  1
  Pb  Pb47  1  0.16461703  0.16615166  0.49819742  1
  Pb  Pb48  1  0.49945196  0.50009840  0.16584194  1
  Pb  Pb49  1  0.16844200  0.50209310  0.83312230  1
  Pb  Pb50  1  0.16424245  0.16355088  0.83599252  1
  Pb  Pb51  1  0.16638855  0.83322034  0.16692071  1
  Pb  Pb52  1  0.83520618  0.50037420  0.49771058  1
  Pb  Pb53  1  0.83346804  0.16656623  0.16677743  1
  I  I54  1  0.16678421  0.00165804  0.16642247  1
  I  I55  1  0.16300814  -0.00308823  0.50023118  1
  I  I56  1  0.16548944  -0.00434716  0.82976259  1
  I  I57  1  0.16549492  0.33441687  0.17195582  1
  I  I58  1  0.16511578  0.33556492  0.49575073  1
  I  I59  1  0.16652669  0.33305649  0.83191534  1
  I  I60  1  0.16594185  0.66462734  0.16721026  1
  I  I61  1  0.16042578  0.66772401  0.49649043  1
  I  I62  1  0.15994456  0.66998923  0.83574242  1
  I  I63  1  0.50053907  -0.00045392  0.16533740  1
  I  I64  1  0.49457127  -0.00012702  0.50167721  1
  I  I65  1  0.49834414  0.00011819  0.83424152  1
  I  I66  1  0.50081013  0.33133720  0.16450525  1
  I  I67  1  0.50216841  0.33332482  0.49632228  1
  I  I68  1  0.50004666  0.33603592  0.83766691  1
  I  I69  1  0.50163524  0.66892570  0.16444993  1
  I  I70  1  0.50497358  0.66661057  0.49678165  1
  I  I71  1  0.50165968  0.66477049  0.83891838  1
  I  I72  1  0.83310595  -0.00276971  0.16637803  1
  I  I73  1  0.83957263  -0.00183825  0.49639643  1
  I  I74  1  0.83674476  -0.00164012  0.83703368  1
  I  I75  1  0.83356849  0.33523065  0.16642738  1
  I  I76  1  0.83446873  0.33105186  0.50179426  1
  I  I77  1  0.83070483  0.33105229  0.83210841  1
  I  I78  1  0.83298104  0.66816376  0.16599828  1
  I  I79  1  0.83560564  0.66999413  0.50200232  1
  I  I80  1  0.83592722  0.67014745  0.83227770  1
  I  I81  1  0.16748837  0.17158763  0.00389615  1
  I  I82  1  0.16657748  0.16531425  0.33008481  1
  I  I83  1  0.16704195  0.17010235  0.66679781  1
  I  I84  1  0.16459171  0.49840098  0.00286864  1
  I  I85  1  0.16282994  0.50329631  0.33216536  1
  I  I86  1  0.16718101  0.50381141  0.66400954  1
  I  I87  1  0.16301400  0.83355522  -0.00161092  1
  I  I88  1  0.16304413  0.83266483  0.33548720  1
  I  I89  1  0.15715963  0.82587396  0.66585765  1
  I  I90  1  0.49931948  0.16307506  0.00352026  1
  I  I91  1  0.49851326  0.16403379  0.32907835  1
  I  I92  1  0.49827892  0.16842867  0.66683464  1
  I  I93  1  0.49905634  0.50077813  -0.00139653  1
  I  I94  1  0.50199510  0.49964218  0.33334350  1
  I  I95  1  0.50325933  0.50312744  0.67045104  1
  I  I96  1  0.50349610  0.83581042  0.00341950  1
  I  I97  1  0.50412657  0.83549445  0.32906359  1
  I  I98  1  0.50182723  0.83059768  0.66671778  1
  I  I99  1  0.83324539  0.16301232  -0.00162145  1
  I  I100  1  0.83418974  0.16250889  0.33508645  1
  I  I101  1  0.83395575  0.15846940  0.66669969  1
  I  I102  1  0.83851861  0.50302521  0.00365117  1
  I  I103  1  0.83351893  0.50270718  0.32954174  1
  I  I104  1  0.83301663  0.50096327  0.66655976  1
  I  I105  1  0.83437301  0.83438206  0.00019370  1
  I  I106  1  0.83446240  0.83492618  0.33325105  1
  I  I107  1  0.83879109  0.83808290  0.66666607  1
  I  I108  1  0.00187922  0.16759686  0.16696995  1
  I  I109  1  -0.00327744  0.16413223  0.49914847  1
  I  I110  1  -0.00365185  0.16652883  0.83338745  1
  I  I111  1  0.00044890  0.49980867  0.16860223  1
  I  I112  1  0.00304220  0.50218442  0.49794042  1
  I  I113  1  0.00005491  0.49846964  0.83368181  1
  I  I114  1  -0.00282915  0.83322734  0.16618505  1
  I  I115  1  -0.00090377  0.83334147  0.49719205  1
  I  I116  1  -0.00135892  0.83546681  0.83689619  1
  I  I117  1  0.33302455  0.16594150  0.16681531  1
  I  I118  1  0.33312471  0.16681696  0.49987545  1
  I  I119  1  0.33321572  0.16621261  0.83324712  1
  I  I120  1  0.33044860  0.50017521  0.16868727  1
  I  I121  1  0.32832650  0.50798754  0.48987912  1
  I  I122  1  0.33569460  0.50358681  0.83821397  1
  I  I123  1  0.33502125  0.83373740  0.16561926  1
  I  I124  1  0.32983348  0.82808872  0.50167031  1
  I  I125  1  0.33083007  0.82931218  0.83235947  1
  I  I126  1  0.66510419  0.16588358  0.16609125  1
  I  I127  1  0.67148489  0.15939077  0.50126806  1
  I  I128  1  0.67073118  0.15883249  0.83339186  1
  I  I129  1  0.66879907  0.50016603  0.16454713  1
  I  I130  1  0.66675536  0.49990423  0.49793141  1
  I  I131  1  0.66459307  0.50146006  0.83886771  1
  I  I132  1  0.66853328  0.83363240  0.16566993  1
  I  I133  1  0.67033907  0.83756979  0.50227387  1
  I  I134  1  0.67020815  0.83594657  0.83242769  1
