# generated using pymatgen
data_Cs27Sn14Pb13I81
_symmetry_space_group_name_H-M   'P 1'
_cell_length_a   18.97010726
_cell_length_b   18.96915583
_cell_length_c   18.98801278
_cell_angle_alpha   90.00035050
_cell_angle_beta   90.00061851
_cell_angle_gamma   90.00281713
_symmetry_Int_Tables_number   1
_chemical_formula_structural   Cs27Sn14Pb13I81
_chemical_formula_sum   'Cs27 Sn14 Pb13 I81'
_cell_volume   6832.77792103
_cell_formula_units_Z   1
loop_
 _symmetry_equiv_pos_site_id
 _symmetry_equiv_pos_as_xyz
  1  'x, y, z'
loop_
 _atom_site_type_symbol
 _atom_site_label
 _atom_site_symmetry_multiplicity
 _atom_site_fract_x
 _atom_site_fract_y
 _atom_site_fract_z
 _atom_site_occupancy
  Cs  Cs0  1  0.00271746  -0.00237522  -0.00248577  1
  Cs  Cs1  1  0.00165648  -0.00049603  0.33516195  1
  Cs  Cs2  1  -0.00047902  -0.00086370  0.66689851  1
  Cs  Cs3  1  -0.00143815  0.33736327  0.00646662  1
  Cs  Cs4  1  -0.00173544  0.33509023  0.33399617  1
  Cs  Cs5  1  -0.00003914  0.33306533  0.65953836  1
  Cs  Cs6  1  0.00064807  0.66680374  0.00180180  1
  Cs  Cs7  1  -0.00098917  0.66650991  0.33201191  1
  Cs  Cs8  1  -0.00333399  0.66876486  0.66657506  1
  Cs  Cs9  1  0.33259585  0.00116861  0.00053317  1
  Cs  Cs10  1  0.33476564  -0.00114450  0.33088023  1
  Cs  Cs11  1  0.33158979  0.00105895  0.66959486  1
  Cs  Cs12  1  0.33547305  0.33144186  -0.00138479  1
  Cs  Cs13  1  0.33131292  0.33222321  0.33466832  1
  Cs  Cs14  1  0.33354936  0.33828460  0.66655604  1
  Cs  Cs15  1  0.33138477  0.66575114  -0.00184179  1
  Cs  Cs16  1  0.33676608  0.66847669  0.33629648  1
  Cs  Cs17  1  0.33579501  0.65902902  0.66699146  1
  Cs  Cs18  1  0.66589444  0.00127313  -0.00360513  1
  Cs  Cs19  1  0.66324183  -0.00114066  0.33285348  1
  Cs  Cs20  1  0.66806026  0.00164882  0.67130933  1
  Cs  Cs21  1  0.66646164  0.33211325  0.00371951  1
  Cs  Cs22  1  0.66957419  0.33081654  0.32791568  1
  Cs  Cs23  1  0.66598773  0.33508221  0.66703533  1
  Cs  Cs24  1  0.66737903  0.66710175  -0.00084616  1
  Cs  Cs25  1  0.66531760  0.66943611  0.33601233  1
  Cs  Cs26  1  0.66869626  0.66385340  0.66507040  1
  Sn  Sn27  1  0.83382290  0.83312012  0.49911106  1
  Sn  Sn28  1  0.16787632  0.83368664  0.83307501  1
  Sn  Sn29  1  0.16720623  0.16597988  0.16592296  1
  Sn  Sn30  1  0.49906270  0.16600908  0.83299083  1
  Sn  Sn31  1  0.16705418  0.16643834  0.83403462  1
  Sn  Sn32  1  0.83318192  0.50049183  0.50056829  1
  Sn  Sn33  1  0.16653322  0.83329794  0.50016584  1
  Sn  Sn34  1  0.49997592  0.16638665  0.50029792  1
  Sn  Sn35  1  0.49902238  0.16739745  0.16668283  1
  Sn  Sn36  1  0.83390391  0.83393250  0.16730722  1
  Sn  Sn37  1  0.16604345  0.83403761  0.16679891  1
  Sn  Sn38  1  0.83373164  0.49967751  0.83291991  1
  Sn  Sn39  1  0.49939929  0.49954745  0.16668221  1
  Sn  Sn40  1  0.49906575  0.83349540  0.83314154  1
  Pb  Pb41  1  0.16860461  0.16461774  0.50002524  1
  Pb  Pb42  1  0.49952847  0.83395556  0.16460328  1
  Pb  Pb43  1  0.50165064  0.49948443  0.83492416  1
  Pb  Pb44  1  0.50008293  0.83503728  0.50299608  1
  Pb  Pb45  1  0.16436200  0.50299486  0.49984109  1
  Pb  Pb46  1  0.50237037  0.49738669  0.49748917  1
  Pb  Pb47  1  0.83115040  0.16588427  0.49996168  1
  Pb  Pb48  1  0.16422934  0.49935465  0.83339709  1
  Pb  Pb49  1  0.83438866  0.16941171  0.83350986  1
  Pb  Pb50  1  0.83410211  0.16362741  0.16651024  1
  Pb  Pb51  1  0.16911084  0.49998252  0.16666174  1
  Pb  Pb52  1  0.83372798  0.83220655  0.83316181  1
  Pb  Pb53  1  0.83141035  0.50257181  0.16718023  1
  I  I54  1  0.16902645  -0.00055644  0.16583825  1
  I  I55  1  0.15970083  -0.00362820  0.50030852  1
  I  I56  1  0.17023964  -0.00082055  0.83458967  1
  I  I57  1  0.16930115  0.32977367  0.16059133  1
  I  I58  1  0.16558629  0.33303697  0.50003741  1
  I  I59  1  0.17138560  0.32953589  0.83903867  1
  I  I60  1  0.16363186  0.67035461  0.16544829  1
  I  I61  1  0.16678276  0.67168285  0.49968326  1
  I  I62  1  0.17005996  0.67021887  0.83438692  1
  I  I63  1  0.49935269  0.00299908  0.16794979  1
  I  I64  1  0.50208359  0.00280379  0.49407004  1
  I  I65  1  0.49821064  0.00089095  0.83603293  1
  I  I66  1  0.49671253  0.33113011  0.16418533  1
  I  I67  1  0.50051580  0.32945834  0.50568013  1
  I  I68  1  0.49670649  0.32975443  0.83220958  1
  I  I69  1  0.50169225  0.66537370  0.16407051  1
  I  I70  1  0.49843371  0.66682491  0.49927547  1
  I  I71  1  0.49675077  0.66911963  0.83601576  1
  I  I72  1  0.83195784  -0.00430370  0.17235991  1
  I  I73  1  0.83678452  -0.00363203  0.49600087  1
  I  I74  1  0.83157615  0.00001375  0.83291036  1
  I  I75  1  0.83489306  0.33334537  0.16724745  1
  I  I76  1  0.83047724  0.33589966  0.50484608  1
  I  I77  1  0.83166739  0.33706825  0.82713108  1
  I  I78  1  0.83757155  0.67040129  0.16701078  1
  I  I79  1  0.83665385  0.66792690  0.50033647  1
  I  I80  1  0.83196857  0.66456717  0.83243132  1
  I  I81  1  0.17539067  0.15740015  0.00011432  1
  I  I82  1  0.17156219  0.16210197  0.33044703  1
  I  I83  1  0.17061389  0.16194139  0.66963461  1
  I  I84  1  0.16234727  0.50557916  0.00003089  1
  I  I85  1  0.16467485  0.49858103  0.33319603  1
  I  I86  1  0.16922346  0.49907185  0.66667825  1
  I  I87  1  0.16607147  0.83718815  0.00007003  1
  I  I88  1  0.16120303  0.83703010  0.33264785  1
  I  I89  1  0.16508425  0.83814184  0.66733276  1
  I  I90  1  0.49638996  0.16677027  -0.00009607  1
  I  I91  1  0.49737182  0.17096637  0.33199197  1
  I  I92  1  0.49760851  0.16064762  0.66815424  1
  I  I93  1  0.50367826  0.49512349  0.00249724  1
  I  I94  1  0.50194946  0.49637683  0.32984956  1
  I  I95  1  0.50040246  0.49944745  0.66654533  1
  I  I96  1  0.49818076  0.83774613  -0.00308430  1
  I  I97  1  0.49884452  0.83396601  0.33335292  1
  I  I98  1  0.49730008  0.83893214  0.67070754  1
  I  I99  1  0.82747303  0.16750168  0.00003585  1
  I  I100  1  0.83215965  0.17140869  0.33321013  1
  I  I101  1  0.83255201  0.16261931  0.66674951  1
  I  I102  1  0.83176883  0.50147593  -0.00152814  1
  I  I103  1  0.83141667  0.50312470  0.33590383  1
  I  I104  1  0.83225726  0.50701924  0.66589253  1
  I  I105  1  0.83566111  0.83144121  0.00194731  1
  I  I106  1  0.83999202  0.82778974  0.33380035  1
  I  I107  1  0.83582957  0.83084500  0.66423229  1
  I  I108  1  0.00375802  0.16425312  0.16103114  1
  I  I109  1  0.00024109  0.16893037  0.50011446  1
  I  I110  1  0.00395896  0.16097728  0.83826678  1
  I  I111  1  -0.00011067  0.49739286  0.16686683  1
  I  I112  1  -0.00388703  0.49963227  0.50299431  1
  I  I113  1  -0.00350604  0.50198183  0.83038044  1
  I  I114  1  0.00131358  0.83752855  0.16474201  1
  I  I115  1  0.00010079  0.83045405  0.50125059  1
  I  I116  1  0.00316853  0.83675037  0.83360444  1
  I  I117  1  0.33366128  0.16400808  0.16583184  1
  I  I118  1  0.33658176  0.16393185  0.49925418  1
  I  I119  1  0.33395457  0.16176620  0.83488908  1
  I  I120  1  0.33693797  0.50040379  0.16479621  1
  I  I121  1  0.33369307  0.50136347  0.49922286  1
  I  I122  1  0.33330237  0.50147991  0.83486606  1
  I  I123  1  0.33029985  0.83440689  0.16926210  1
  I  I124  1  0.33062440  0.83689772  0.49582964  1
  I  I125  1  0.33238154  0.83723410  0.83466226  1
  I  I126  1  0.66353545  0.16942263  0.16583395  1
  I  I127  1  0.66291649  0.16464060  0.49998270  1
  I  I128  1  0.66337235  0.16237573  0.83423922  1
  I  I129  1  0.66373238  0.49411098  0.16569152  1
  I  I130  1  0.67002746  0.50842997  0.50402919  1
  I  I131  1  0.66933981  0.50219163  0.83015836  1
  I  I132  1  0.66852786  0.83205251  0.16996307  1
  I  I133  1  0.66939897  0.83061992  0.49601315  1
  I  I134  1  0.66449390  0.83693621  0.83453936  1
