# generated using pymatgen
data_Cs27Sn14Pb13I81
_symmetry_space_group_name_H-M   'P 1'
_cell_length_a   18.97932680
_cell_length_b   18.97636680
_cell_length_c   18.97279086
_cell_angle_alpha   89.99911243
_cell_angle_beta   89.99911249
_cell_angle_gamma   89.99838840
_symmetry_Int_Tables_number   1
_chemical_formula_structural   Cs27Sn14Pb13I81
_chemical_formula_sum   'Cs27 Sn14 Pb13 I81'
_cell_volume   6833.21505934
_cell_formula_units_Z   1
loop_
 _symmetry_equiv_pos_site_id
 _symmetry_equiv_pos_as_xyz
  1  'x, y, z'
loop_
 _atom_site_type_symbol
 _atom_site_label
 _atom_site_symmetry_multiplicity
 _atom_site_fract_x
 _atom_site_fract_y
 _atom_site_fract_z
 _atom_site_occupancy
  Cs  Cs0  1  0.00019347  0.00018432  -0.00062883  1
  Cs  Cs1  1  0.00051693  0.00125577  0.33641036  1
  Cs  Cs2  1  -0.00268789  -0.00047529  0.66805039  1
  Cs  Cs3  1  -0.00279041  0.33228221  -0.00098978  1
  Cs  Cs4  1  0.00139509  0.32926400  0.34131854  1
  Cs  Cs5  1  0.00298391  0.33848375  0.66112518  1
  Cs  Cs6  1  0.00010294  0.66686175  0.00025190  1
  Cs  Cs7  1  -0.00394191  0.66923141  0.33142869  1
  Cs  Cs8  1  0.00105188  0.66348053  0.66709205  1
  Cs  Cs9  1  0.33290855  -0.00032199  -0.00028743  1
  Cs  Cs10  1  0.33310316  -0.00039733  0.33179575  1
  Cs  Cs11  1  0.33533388  -0.00192839  0.67017364  1
  Cs  Cs12  1  0.33295222  0.33137984  0.00035084  1
  Cs  Cs13  1  0.33222024  0.33133896  0.33391880  1
  Cs  Cs14  1  0.33429419  0.34537874  0.66644605  1
  Cs  Cs15  1  0.33205693  0.66972047  0.00208894  1
  Cs  Cs16  1  0.33452804  0.66915091  0.33087918  1
  Cs  Cs17  1  0.33362906  0.66098573  0.66686990  1
  Cs  Cs18  1  0.66706296  0.00100743  -0.00091014  1
  Cs  Cs19  1  0.66575202  -0.00026968  0.33357304  1
  Cs  Cs20  1  0.66792662  0.00091875  0.66791994  1
  Cs  Cs21  1  0.67033560  0.33094889  -0.00001552  1
  Cs  Cs22  1  0.66614223  0.33421678  0.33221334  1
  Cs  Cs23  1  0.66316837  0.34162718  0.66534803  1
  Cs  Cs24  1  0.66926903  0.66656405  0.00167888  1
  Cs  Cs25  1  0.66715058  0.66632515  0.33216111  1
  Cs  Cs26  1  0.66492136  0.65800803  0.66409852  1
  Sn  Sn27  1  0.49974284  0.16549654  0.49961732  1
  Sn  Sn28  1  0.49902694  0.49988572  0.16644734  1
  Sn  Sn29  1  0.50018919  0.83370931  0.16712104  1
  Sn  Sn30  1  0.16594205  0.83426734  0.83309574  1
  Sn  Sn31  1  0.16688938  0.50030160  0.16653516  1
  Sn  Sn32  1  0.83295128  0.16548143  0.16638730  1
  Sn  Sn33  1  0.16637999  0.83291333  0.16671397  1
  Sn  Sn34  1  0.83343109  0.83475381  0.16587214  1
  Sn  Sn35  1  0.16608000  0.16607212  0.83294667  1
  Sn  Sn36  1  0.83382841  0.83393522  0.83393599  1
  Sn  Sn37  1  0.16744157  0.83384068  0.50016176  1
  Sn  Sn38  1  0.49925716  0.83460493  0.49943341  1
  Sn  Sn39  1  0.83437226  0.16592379  0.83362298  1
  Sn  Sn40  1  0.50069890  0.16644241  0.16725473  1
  Pb  Pb41  1  0.16951791  0.16423337  0.50353237  1
  Pb  Pb42  1  0.16653546  0.50043337  0.83604806  1
  Pb  Pb43  1  0.83081669  0.16647853  0.50056010  1
  Pb  Pb44  1  0.83366168  0.49997883  0.83361722  1
  Pb  Pb45  1  0.83289042  0.83332253  0.50040692  1
  Pb  Pb46  1  0.83389590  0.49953321  0.16681293  1
  Pb  Pb47  1  0.16676379  0.50336467  0.49641580  1
  Pb  Pb48  1  0.16634390  0.16637596  0.16548495  1
  Pb  Pb49  1  0.50022576  0.16664455  0.83303941  1
  Pb  Pb50  1  0.49999185  0.50014514  0.83712640  1
  Pb  Pb51  1  0.50043817  0.83312436  0.83309988  1
  Pb  Pb52  1  0.49979575  0.50054498  0.49684915  1
  Pb  Pb53  1  0.83355101  0.49996289  0.49961724  1
  I  I54  1  0.16952010  -0.00344577  0.16769676  1
  I  I55  1  0.16845640  -0.00385390  0.49245544  1
  I  I56  1  0.16318270  -0.00162057  0.83690633  1
  I  I57  1  0.17088677  0.33516533  0.16283803  1
  I  I58  1  0.16704544  0.33321874  0.50036192  1
  I  I59  1  0.16334398  0.33042123  0.83670091  1
  I  I60  1  0.17029949  0.66917369  0.16483048  1
  I  I61  1  0.17371951  0.67166247  0.50595345  1
  I  I62  1  0.16273434  0.67059977  0.83187714  1
  I  I63  1  0.50017719  -0.00067713  0.17056020  1
  I  I64  1  0.49678352  -0.00103828  0.49044070  1
  I  I65  1  0.49877721  -0.00015421  0.83761632  1
  I  I66  1  0.50007452  0.33234816  0.16963065  1
  I  I67  1  0.50239355  0.33061109  0.49662237  1
  I  I68  1  0.49968302  0.33300696  0.83245105  1
  I  I69  1  0.49953434  0.66830554  0.16978140  1
  I  I70  1  0.49675093  0.67022988  0.49668602  1
  I  I71  1  0.50021673  0.66710047  0.83211713  1
  I  I72  1  0.82981616  -0.00089925  0.16253412  1
  I  I73  1  0.83467549  -0.00025533  0.49905381  1
  I  I74  1  0.83783303  -0.00051858  0.83874304  1
  I  I75  1  0.82905547  0.32982165  0.16186679  1
  I  I76  1  0.83138393  0.33268446  0.49877268  1
  I  I77  1  0.83619335  0.32950692  0.83989682  1
  I  I78  1  0.83117821  0.67021414  0.16325975  1
  I  I79  1  0.83029199  0.66748556  0.49929512  1
  I  I80  1  0.83762965  0.67051883  0.83887398  1
  I  I81  1  0.16834535  0.16077973  -0.00233247  1
  I  I82  1  0.16404382  0.16730462  0.33349359  1
  I  I83  1  0.16091917  0.15995375  0.67127413  1
  I  I84  1  0.17164672  0.50724212  0.00370910  1
  I  I85  1  0.17146218  0.50404036  0.32858841  1
  I  I86  1  0.16620431  0.49996636  0.66656887  1
  I  I87  1  0.16702117  0.83266906  0.00085954  1
  I  I88  1  0.16773152  0.82816165  0.33209746  1
  I  I89  1  0.16673391  0.83982621  0.66729853  1
  I  I90  1  0.50076477  0.16546054  0.00342267  1
  I  I91  1  0.50506824  0.16585633  0.33119730  1
  I  I92  1  0.49968567  0.15918518  0.66379653  1
  I  I93  1  0.49624304  0.50105689  0.00536522  1
  I  I94  1  0.49624445  0.50072369  0.32901192  1
  I  I95  1  0.50142484  0.49944824  0.66623300  1
  I  I96  1  0.49730909  0.83420487  0.00359089  1
  I  I97  1  0.49701949  0.83354757  0.33153556  1
  I  I98  1  0.49693403  0.83946438  0.66348698  1
  I  I99  1  0.83032706  0.16281307  0.00094118  1
  I  I100  1  0.83119953  0.16253999  0.33007080  1
  I  I101  1  0.83606119  0.16002785  0.67029023  1
  I  I102  1  0.83138988  0.50031874  0.00046764  1
  I  I103  1  0.83310409  0.50138595  0.33233734  1
  I  I104  1  0.83216523  0.50094795  0.66699666  1
  I  I105  1  0.83574246  0.83649146  0.00138279  1
  I  I106  1  0.83557805  0.83637529  0.32978067  1
  I  I107  1  0.83677083  0.83853115  0.67008873  1
  I  I108  1  -0.00267308  0.16378377  0.16320668  1
  I  I109  1  0.00023528  0.16628717  0.49655928  1
  I  I110  1  -0.00053485  0.16123627  0.84152966  1
  I  I111  1  0.00288349  0.50592685  0.16515709  1
  I  I112  1  0.00069054  0.50088111  0.49721454  1
  I  I113  1  0.00020352  0.50021651  0.83722307  1
  I  I114  1  0.00036834  0.83186238  0.16643575  1
  I  I115  1  0.00284290  0.83209609  0.49635727  1
  I  I116  1  0.00057009  0.83713146  0.83746958  1
  I  I117  1  0.33598574  0.16462070  0.16813377  1
  I  I118  1  0.33711549  0.16398405  0.49189869  1
  I  I119  1  0.33072981  0.16059184  0.83547439  1
  I  I120  1  0.33384443  0.50429216  0.16632301  1
  I  I121  1  0.33333904  0.49729278  0.50257263  1
  I  I122  1  0.33302866  0.49915931  0.83179321  1
  I  I123  1  0.33337149  0.83256525  0.16665423  1
  I  I124  1  0.33363905  0.83735247  0.49561721  1
  I  I125  1  0.33023206  0.83774919  0.83697212  1
  I  I126  1  0.66627973  0.16398787  0.16435301  1
  I  I127  1  0.66284655  0.15881115  0.49896694  1
  I  I128  1  0.66978663  0.16070560  0.83602454  1
  I  I129  1  0.66381080  0.50291245  0.16766895  1
  I  I130  1  0.66597067  0.50265771  0.49875073  1
  I  I131  1  0.66686276  0.50043508  0.83385595  1
  I  I132  1  0.66631635  0.83300464  0.16673440  1
  I  I133  1  0.66330997  0.83669376  0.49551049  1
  I  I134  1  0.66992909  0.83883492  0.83804975  1
