# generated using pymatgen
data_Cs27Sn14Pb13I81
_symmetry_space_group_name_H-M   'P 1'
_cell_length_a   18.98217920
_cell_length_b   18.97519156
_cell_length_c   18.96935710
_cell_angle_alpha   90.00179391
_cell_angle_beta   89.99761086
_cell_angle_gamma   90.00062645
_symmetry_Int_Tables_number   1
_chemical_formula_structural   Cs27Sn14Pb13I81
_chemical_formula_sum   'Cs27 Sn14 Pb13 I81'
_cell_volume   6832.58195587
_cell_formula_units_Z   1
loop_
 _symmetry_equiv_pos_site_id
 _symmetry_equiv_pos_as_xyz
  1  'x, y, z'
loop_
 _atom_site_type_symbol
 _atom_site_label
 _atom_site_symmetry_multiplicity
 _atom_site_fract_x
 _atom_site_fract_y
 _atom_site_fract_z
 _atom_site_occupancy
  Cs  Cs0  1  -0.00257112  -0.00297011  0.00198663  1
  Cs  Cs1  1  -0.00166570  0.00212468  0.33544675  1
  Cs  Cs2  1  -0.00028297  0.00242505  0.66303974  1
  Cs  Cs3  1  -0.00099613  0.33807088  0.00022454  1
  Cs  Cs4  1  -0.00009172  0.32993846  0.33281203  1
  Cs  Cs5  1  0.00085085  0.33118709  0.66874760  1
  Cs  Cs6  1  0.00784165  0.66378422  -0.00054073  1
  Cs  Cs7  1  0.00122313  0.66800811  0.33288536  1
  Cs  Cs8  1  -0.00256724  0.66578529  0.66745516  1
  Cs  Cs9  1  0.33523782  -0.00505320  -0.01045654  1
  Cs  Cs10  1  0.33504047  0.00136005  0.33301808  1
  Cs  Cs11  1  0.33229964  0.00121785  0.67459159  1
  Cs  Cs12  1  0.33270089  0.33248971  0.00133894  1
  Cs  Cs13  1  0.33678776  0.33480311  0.33155247  1
  Cs  Cs14  1  0.33491301  0.32942640  0.66903994  1
  Cs  Cs15  1  0.32484694  0.67363750  -0.00101756  1
  Cs  Cs16  1  0.33111740  0.66545948  0.33632598  1
  Cs  Cs17  1  0.33365694  0.66880133  0.66075760  1
  Cs  Cs18  1  0.66549931  -0.00105921  0.00041649  1
  Cs  Cs19  1  0.66770363  0.00059716  0.33175419  1
  Cs  Cs20  1  0.66821067  -0.00005536  0.66768719  1
  Cs  Cs21  1  0.66768824  0.33265107  0.00087472  1
  Cs  Cs22  1  0.66506713  0.33310928  0.33213673  1
  Cs  Cs23  1  0.66680890  0.33683618  0.66796638  1
  Cs  Cs24  1  0.66745248  0.66711353  0.00043325  1
  Cs  Cs25  1  0.66614553  0.66636504  0.33437265  1
  Cs  Cs26  1  0.66879721  0.66388096  0.66448790  1
  Sn  Sn27  1  0.16632775  0.83314814  0.49977867  1
  Sn  Sn28  1  0.16523411  0.49980813  0.49988448  1
  Sn  Sn29  1  0.16711167  0.16623015  0.16645800  1
  Sn  Sn30  1  0.83448096  0.50038918  0.49897441  1
  Sn  Sn31  1  0.50035869  0.16561380  0.49972511  1
  Sn  Sn32  1  0.50047441  0.49998407  0.16511810  1
  Sn  Sn33  1  0.50032996  0.83503716  0.49970018  1
  Sn  Sn34  1  0.83328751  0.16749757  0.16568611  1
  Sn  Sn35  1  0.83314306  0.16600668  0.83442357  1
  Sn  Sn36  1  0.83312404  0.83382663  0.83278496  1
  Sn  Sn37  1  0.83260543  0.49958479  0.16765616  1
  Sn  Sn38  1  0.49968326  0.50044521  0.83517889  1
  Sn  Sn39  1  0.83326718  0.83261875  0.50051240  1
  Sn  Sn40  1  0.49964445  0.16692825  0.16699613  1
  Pb  Pb41  1  0.17000092  0.49992865  0.83024672  1
  Pb  Pb42  1  0.50233883  0.83058910  0.83064615  1
  Pb  Pb43  1  0.83231448  0.50026168  0.83374236  1
  Pb  Pb44  1  0.16678683  0.83636049  0.16916511  1
  Pb  Pb45  1  0.16681649  0.49842543  0.16863876  1
  Pb  Pb46  1  0.83148040  0.16702485  0.49964121  1
  Pb  Pb47  1  0.16943258  0.16671619  0.49846801  1
  Pb  Pb48  1  0.50024541  0.49986736  0.49931883  1
  Pb  Pb49  1  0.49993848  0.83298540  0.16844963  1
  Pb  Pb50  1  0.16347076  0.16678039  0.83659188  1
  Pb  Pb51  1  0.83335281  0.83266362  0.16678028  1
  Pb  Pb52  1  0.50210584  0.16815556  0.83404879  1
  Pb  Pb53  1  0.16347665  0.83334605  0.83033757  1
  I  I54  1  0.16497394  0.00442670  0.17038456  1
  I  I55  1  0.16284334  -0.00275479  0.49738272  1
  I  I56  1  0.17005829  0.00008261  0.83121656  1
  I  I57  1  0.16613185  0.33053012  0.17130212  1
  I  I58  1  0.16285917  0.33579397  0.49809770  1
  I  I59  1  0.16365346  0.33331608  0.82808821  1
  I  I60  1  0.16613722  0.66657424  0.16610226  1
  I  I61  1  0.16915526  0.66692314  0.49898822  1
  I  I62  1  0.16411451  0.66664788  0.83722623  1
  I  I63  1  0.50237255  0.00347821  0.17107760  1
  I  I64  1  0.50137204  -0.00002260  0.49360597  1
  I  I65  1  0.49981108  -0.00021138  0.83456676  1
  I  I66  1  0.50162905  0.33270901  0.17068198  1
  I  I67  1  0.50060181  0.33134836  0.49844878  1
  I  I68  1  0.50427513  0.33586169  0.82974405  1
  I  I69  1  0.50720216  0.66307823  0.16576645  1
  I  I70  1  0.50040669  0.66876836  0.50076262  1
  I  I71  1  0.50411257  0.66305785  0.83719503  1
  I  I72  1  0.83217197  0.00313126  0.16663802  1
  I  I73  1  0.83515754  -0.00239312  0.50072516  1
  I  I74  1  0.83203818  0.00011216  0.83228243  1
  I  I75  1  0.83225580  0.33298794  0.16734930  1
  I  I76  1  0.83537513  0.33606692  0.49929138  1
  I  I77  1  0.83107562  0.33123519  0.83409628  1
  I  I78  1  0.82726713  0.66324315  0.16889474  1
  I  I79  1  0.83087119  0.66680978  0.50070222  1
  I  I80  1  0.83035268  0.66888705  0.82965467  1
  I  I81  1  0.17285651  0.16880838  0.00460474  1
  I  I82  1  0.16082546  0.16659995  0.33069570  1
  I  I83  1  0.16713209  0.16658380  0.66655223  1
  I  I84  1  0.16362840  0.49848527  0.00024275  1
  I  I85  1  0.16777211  0.50405469  0.33667929  1
  I  I86  1  0.16114607  0.50362724  0.66197915  1
  I  I87  1  0.16553157  0.83383765  -0.00021240  1
  I  I88  1  0.16314914  0.82871906  0.33759411  1
  I  I89  1  0.17005855  0.83013370  0.66203899  1
  I  I90  1  0.49946741  0.17056301  0.00350412  1
  I  I91  1  0.50299913  0.16919910  0.33229750  1
  I  I92  1  0.50171848  0.16559562  0.66438302  1
  I  I93  1  0.50841327  0.49206087  0.00195311  1
  I  I94  1  0.50159552  0.49792759  0.33089632  1
  I  I95  1  0.50128649  0.50015847  0.66774580  1
  I  I96  1  0.50214378  0.83580371  -0.00036014  1
  I  I97  1  0.50409233  0.83233821  0.33727283  1
  I  I98  1  0.49795453  0.83726353  0.66219531  1
  I  I99  1  0.83107646  0.16690012  0.00153507  1
  I  I100  1  0.83395639  0.16749719  0.33043128  1
  I  I101  1  0.83021266  0.16613384  0.66829988  1
  I  I102  1  0.82975782  0.49792830  0.00294610  1
  I  I103  1  0.83027517  0.49955815  0.33342466  1
  I  I104  1  0.83373871  0.50094276  0.66401244  1
  I  I105  1  0.83147431  0.83553216  -0.00245721  1
  I  I106  1  0.83328730  0.83267199  0.33679410  1
  I  I107  1  0.83284219  0.83323077  0.66487728  1
  I  I108  1  -0.00154197  0.17048107  0.16325805  1
  I  I109  1  -0.00014820  0.16462046  0.49889891  1
  I  I110  1  -0.00473467  0.16436470  0.83548467  1
  I  I111  1  -0.00301444  0.49562248  0.16932616  1
  I  I112  1  -0.00159806  0.50765994  0.49486835  1
  I  I113  1  -0.00007460  0.50031347  0.83517501  1
  I  I114  1  -0.00023872  0.83415006  0.16889053  1
  I  I115  1  -0.00094936  0.82814551  0.50372215  1
  I  I116  1  -0.00445351  0.83622233  0.82801273  1
  I  I117  1  0.33485868  0.17205951  0.17534394  1
  I  I118  1  0.33735290  0.16531230  0.49420579  1
  I  I119  1  0.33355903  0.16820572  0.83257617  1
  I  I120  1  0.33630090  0.49448242  0.16627957  1
  I  I121  1  0.33176670  0.50342489  0.50005749  1
  I  I122  1  0.33780321  0.49793831  0.83773718  1
  I  I123  1  0.33343157  0.83216195  0.17013224  1
  I  I124  1  0.33348780  0.83083917  0.49657285  1
  I  I125  1  0.33342376  0.83260879  0.83225383  1
  I  I126  1  0.66673151  0.17126271  0.16761552  1
  I  I127  1  0.66374960  0.16401718  0.49457931  1
  I  I128  1  0.66987633  0.16367368  0.83792954  1
  I  I129  1  0.66716456  0.49179920  0.17007352  1
  I  I130  1  0.66910753  0.50307804  0.49933108  1
  I  I131  1  0.66460184  0.49930742  0.83072316  1
  I  I132  1  0.66684450  0.83727413  0.17044356  1
  I  I133  1  0.66747671  0.83208325  0.50339177  1
  I  I134  1  0.67000155  0.83689035  0.82662934  1
