# generated using pymatgen
data_Cs27Sn13Pb14I81
_symmetry_space_group_name_H-M   'P 1'
_cell_length_a   18.97121815
_cell_length_b   18.98441492
_cell_length_c   18.97564859
_cell_angle_alpha   90.00028041
_cell_angle_beta   89.99669923
_cell_angle_gamma   90.00025130
_symmetry_Int_Tables_number   1
_chemical_formula_structural   Cs27Sn13Pb14I81
_chemical_formula_sum   'Cs27 Sn13 Pb14 I81'
_cell_volume   6834.22170866
_cell_formula_units_Z   1
loop_
 _symmetry_equiv_pos_site_id
 _symmetry_equiv_pos_as_xyz
  1  'x, y, z'
loop_
 _atom_site_type_symbol
 _atom_site_label
 _atom_site_symmetry_multiplicity
 _atom_site_fract_x
 _atom_site_fract_y
 _atom_site_fract_z
 _atom_site_occupancy
  Cs  Cs0  1  0.00065486  0.00281381  -0.00020065  1
  Cs  Cs1  1  0.00044207  -0.00334047  0.33219662  1
  Cs  Cs2  1  -0.00009307  0.00055919  0.66887291  1
  Cs  Cs3  1  -0.00253618  0.32763646  0.00203433  1
  Cs  Cs4  1  0.00107018  0.33367029  0.33511163  1
  Cs  Cs5  1  -0.00263113  0.33429393  0.66343591  1
  Cs  Cs6  1  0.00243392  0.66776608  -0.00103258  1
  Cs  Cs7  1  -0.00216197  0.67056777  0.33144938  1
  Cs  Cs8  1  0.00068982  0.66522172  0.66924462  1
  Cs  Cs9  1  0.33351243  -0.00091518  0.00104142  1
  Cs  Cs10  1  0.33264863  0.00129403  0.33196281  1
  Cs  Cs11  1  0.33510939  0.00129041  0.66651441  1
  Cs  Cs12  1  0.33535199  0.33189197  0.00075072  1
  Cs  Cs13  1  0.33202735  0.33217487  0.33823807  1
  Cs  Cs14  1  0.33249320  0.33842052  0.65930176  1
  Cs  Cs15  1  0.33270740  0.66740677  -0.00201089  1
  Cs  Cs16  1  0.33436550  0.66683551  0.33255485  1
  Cs  Cs17  1  0.33130338  0.65834759  0.66929523  1
  Cs  Cs18  1  0.66419902  0.00210483  -0.00219566  1
  Cs  Cs19  1  0.66614595  -0.00602042  0.33628662  1
  Cs  Cs20  1  0.66549682  -0.00123056  0.66691161  1
  Cs  Cs21  1  0.66662522  0.33302032  0.00113314  1
  Cs  Cs22  1  0.66734086  0.33850557  0.33244766  1
  Cs  Cs23  1  0.67006649  0.33417687  0.66677189  1
  Cs  Cs24  1  0.66505800  0.66431456  0.00108374  1
  Cs  Cs25  1  0.66832605  0.66814145  0.33393239  1
  Cs  Cs26  1  0.66730679  0.66773139  0.66532655  1
  Sn  Sn27  1  0.83335315  0.50086768  0.83337788  1
  Sn  Sn28  1  0.49920271  0.83417493  0.16571718  1
  Sn  Sn29  1  0.50054843  0.83380347  0.83401481  1
  Sn  Sn30  1  0.49934149  0.16583005  0.16617847  1
  Sn  Sn31  1  0.83254227  0.83266723  0.83384617  1
  Sn  Sn32  1  0.16750490  0.16684476  0.16595908  1
  Sn  Sn33  1  0.49869639  0.16628989  0.83360386  1
  Sn  Sn34  1  0.16754230  0.83334143  0.16733117  1
  Sn  Sn35  1  0.16673852  0.49978437  0.16630530  1
  Sn  Sn36  1  0.16790666  0.16693499  0.83331433  1
  Sn  Sn37  1  0.16725515  0.83348926  0.49992816  1
  Sn  Sn38  1  0.83310816  0.16665886  0.49962393  1
  Sn  Sn39  1  0.83354761  0.49954030  0.50039384  1
  Pb  Pb40  1  0.16744013  0.83489090  0.83376483  1
  Pb  Pb41  1  0.16437465  0.49653395  0.83541965  1
  Pb  Pb42  1  0.16444474  0.50256901  0.49771575  1
  Pb  Pb43  1  0.50203099  0.49960473  0.83339336  1
  Pb  Pb44  1  0.49729075  0.83328899  0.50040129  1
  Pb  Pb45  1  0.83283312  0.16660572  0.83205179  1
  Pb  Pb46  1  0.83552745  0.50006915  0.16645270  1
  Pb  Pb47  1  0.83522587  0.83306205  0.50245968  1
  Pb  Pb48  1  0.50236622  0.16663547  0.49971554  1
  Pb  Pb49  1  0.83254492  0.16636430  0.16936891  1
  Pb  Pb50  1  0.50274761  0.50019274  0.49990220  1
  Pb  Pb51  1  0.16510945  0.16509022  0.49974100  1
  Pb  Pb52  1  0.49753759  0.49997130  0.16658585  1
  Pb  Pb53  1  0.83281701  0.83357783  0.16381063  1
  I  I54  1  0.17006635  0.00008486  0.16698850  1
  I  I55  1  0.16274941  -0.00251478  0.49447471  1
  I  I56  1  0.16382979  0.00271987  0.83806844  1
  I  I57  1  0.16867594  0.33180023  0.16149282  1
  I  I58  1  0.16603644  0.33344071  0.49915023  1
  I  I59  1  0.17033023  0.32864400  0.83832306  1
  I  I60  1  0.16867812  0.66807736  0.17162297  1
  I  I61  1  0.16451130  0.67025952  0.49564933  1
  I  I62  1  0.16746648  0.66659662  0.83385492  1
  I  I63  1  0.49163407  -0.00015548  0.16199528  1
  I  I64  1  0.50456922  -0.00005841  0.50059713  1
  I  I65  1  0.50286305  -0.00012325  0.83741044  1
  I  I66  1  0.49730901  0.32975888  0.16196888  1
  I  I67  1  0.49765824  0.33305812  0.49966491  1
  I  I68  1  0.49850739  0.32969926  0.83884238  1
  I  I69  1  0.49611840  0.67020480  0.16255699  1
  I  I70  1  0.50186214  0.66711761  0.49913290  1
  I  I71  1  0.50235073  0.66992989  0.83762296  1
  I  I72  1  0.83944443  -0.00003171  0.16775788  1
  I  I73  1  0.83484774  0.00175510  0.50121363  1
  I  I74  1  0.83278376  -0.00206670  0.83156760  1
  I  I75  1  0.83366520  0.33317057  0.16267526  1
  I  I76  1  0.83440383  0.33388341  0.50655056  1
  I  I77  1  0.83468585  0.33524127  0.83033390  1
  I  I78  1  0.83402580  0.66688045  0.17058418  1
  I  I79  1  0.83549397  0.66423918  0.50269726  1
  I  I80  1  0.82929536  0.66713153  0.82768529  1
  I  I81  1  0.16782979  0.16415324  0.00100095  1
  I  I82  1  0.16963022  0.16780434  0.32981114  1
  I  I83  1  0.16855953  0.16282889  0.66922299  1
  I  I84  1  0.16429378  0.50612208  0.00323164  1
  I  I85  1  0.16466143  0.49484402  0.32979642  1
  I  I86  1  0.16709626  0.50093141  0.66673622  1
  I  I87  1  0.16685930  0.83213844  0.00307784  1
  I  I88  1  0.16971621  0.83554525  0.33108955  1
  I  I89  1  0.16422062  0.83655644  0.66519150  1
  I  I90  1  0.49678354  0.16224078  -0.00002120  1
  I  I91  1  0.49559641  0.16201247  0.32962228  1
  I  I92  1  0.49756092  0.16155988  0.67009599  1
  I  I93  1  0.50400836  0.50004395  0.00002182  1
  I  I94  1  0.50284118  0.50000684  0.33290304  1
  I  I95  1  0.49686984  0.50023804  0.66699828  1
  I  I96  1  0.49833154  0.83738426  0.00021958  1
  I  I97  1  0.49773541  0.83817607  0.32993622  1
  I  I98  1  0.50367210  0.83849409  0.67023838  1
  I  I99  1  0.83479782  0.16733962  -0.00000781  1
  I  I100  1  0.83487933  0.17319081  0.33696686  1
  I  I101  1  0.83472307  0.16777877  0.66441000  1
  I  I102  1  0.83417939  0.50391678  -0.00295082  1
  I  I103  1  0.83493925  0.49511109  0.33607584  1
  I  I104  1  0.83406399  0.49940139  0.66696649  1
  I  I105  1  0.83498763  0.82860158  -0.00414335  1
  I  I106  1  0.83171942  0.83232531  0.33335367  1
  I  I107  1  0.82989596  0.83308617  0.67028623  1
  I  I108  1  0.00336022  0.16580737  0.16268310  1
  I  I109  1  -0.00268454  0.16965276  0.50157359  1
  I  I110  1  0.00208969  0.16577268  0.83715655  1
  I  I111  1  0.00370814  0.49996442  0.16649255  1
  I  I112  1  -0.00330608  0.49590864  0.50431434  1
  I  I113  1  -0.00347145  0.50555528  0.82986569  1
  I  I114  1  0.00324523  0.83402981  0.16941666  1
  I  I115  1  0.00293028  0.83406684  0.49398853  1
  I  I116  1  -0.00167591  0.83167775  0.83241342  1
  I  I117  1  0.33248634  0.16540277  0.16248804  1
  I  I118  1  0.33330041  0.16506214  0.50073999  1
  I  I119  1  0.33378879  0.15944434  0.83781121  1
  I  I120  1  0.32949111  0.50064490  0.16612334  1
  I  I121  1  0.33264620  0.50071431  0.49969344  1
  I  I122  1  0.33304377  0.50321315  0.83435123  1
  I  I123  1  0.33281512  0.83409178  0.16474260  1
  I  I124  1  0.32950105  0.83578130  0.49881399  1
  I  I125  1  0.33621530  0.83688192  0.83497087  1
  I  I126  1  0.66288167  0.16173932  0.16194720  1
  I  I127  1  0.67022236  0.17005848  0.50141437  1
  I  I128  1  0.66377419  0.16543374  0.83699674  1
  I  I129  1  0.66663664  0.49974305  0.16779759  1
  I  I130  1  0.67127836  0.49669102  0.50298884  1
  I  I131  1  0.67027894  0.49931063  0.82987336  1
  I  I132  1  0.66306572  0.83877240  0.16496232  1
  I  I133  1  0.66673272  0.83261408  0.49735723  1
  I  I134  1  0.66579998  0.83602735  0.83757521  1
