# generated using pymatgen
data_Cs27Sn14Pb13I81
_symmetry_space_group_name_H-M   'P 1'
_cell_length_a   18.96644395
_cell_length_b   18.98523024
_cell_length_c   18.97630328
_cell_angle_alpha   90.00079869
_cell_angle_beta   89.99610615
_cell_angle_gamma   89.99972238
_symmetry_Int_Tables_number   1
_chemical_formula_structural   Cs27Sn14Pb13I81
_chemical_formula_sum   'Cs27 Sn14 Pb13 I81'
_cell_volume   6833.03101614
_cell_formula_units_Z   1
loop_
 _symmetry_equiv_pos_site_id
 _symmetry_equiv_pos_as_xyz
  1  'x, y, z'
loop_
 _atom_site_type_symbol
 _atom_site_label
 _atom_site_symmetry_multiplicity
 _atom_site_fract_x
 _atom_site_fract_y
 _atom_site_fract_z
 _atom_site_occupancy
  Cs  Cs0  1  -0.00003246  0.00202083  0.00161415  1
  Cs  Cs1  1  -0.00027095  -0.00310644  0.33579581  1
  Cs  Cs2  1  0.00079491  -0.00560166  0.66248444  1
  Cs  Cs3  1  -0.00201132  0.33260244  0.00033026  1
  Cs  Cs4  1  -0.00051266  0.33550682  0.33367817  1
  Cs  Cs5  1  -0.00212622  0.33311078  0.66630809  1
  Cs  Cs6  1  0.00218721  0.66577266  -0.00321908  1
  Cs  Cs7  1  0.00054529  0.66504035  0.33773874  1
  Cs  Cs8  1  -0.00336962  0.67218351  0.66639521  1
  Cs  Cs9  1  0.33319443  -0.00033364  -0.00167378  1
  Cs  Cs10  1  0.33309461  0.00164120  0.33255355  1
  Cs  Cs11  1  0.33419334  0.00123782  0.66856205  1
  Cs  Cs12  1  0.33228930  0.33222695  -0.00106898  1
  Cs  Cs13  1  0.33172169  0.33863870  0.33349715  1
  Cs  Cs14  1  0.33466060  0.33171904  0.66712514  1
  Cs  Cs15  1  0.33251023  0.66814380  0.00078045  1
  Cs  Cs16  1  0.33410214  0.65583316  0.32994541  1
  Cs  Cs17  1  0.33456256  0.66726354  0.66853812  1
  Cs  Cs18  1  0.67085964  0.00093562  0.00536989  1
  Cs  Cs19  1  0.66734949  -0.00050912  0.33105728  1
  Cs  Cs20  1  0.66295421  0.00087036  0.66579777  1
  Cs  Cs21  1  0.67146671  0.32997287  -0.00212979  1
  Cs  Cs22  1  0.66777142  0.33427535  0.33571200  1
  Cs  Cs23  1  0.66635567  0.33403106  0.66501229  1
  Cs  Cs24  1  0.66753206  0.66981367  0.00224805  1
  Cs  Cs25  1  0.66516095  0.66627016  0.32939614  1
  Cs  Cs26  1  0.66780667  0.66711134  0.66754309  1
  Sn  Sn27  1  0.16709272  0.83394353  0.16628683  1
  Sn  Sn28  1  0.49922174  0.16693863  0.16658061  1
  Sn  Sn29  1  0.16710751  0.16656507  0.83390675  1
  Sn  Sn30  1  0.49929418  0.83377964  0.50000739  1
  Sn  Sn31  1  0.50049961  0.16607656  0.49974213  1
  Sn  Sn32  1  0.49957395  0.16648043  0.83374891  1
  Sn  Sn33  1  0.49954505  0.49990023  0.83360791  1
  Sn  Sn34  1  0.49956722  0.83375983  0.83295727  1
  Sn  Sn35  1  0.83296336  0.49934857  0.49926099  1
  Sn  Sn36  1  0.16762551  0.83388462  0.83417222  1
  Sn  Sn37  1  0.16745652  0.16591111  0.16612534  1
  Sn  Sn38  1  0.16738324  0.49967721  0.83305889  1
  Sn  Sn39  1  0.83274780  0.16709639  0.50021884  1
  Sn  Sn40  1  0.83330447  0.49994787  0.16711648  1
  Pb  Pb41  1  0.16501563  0.49955512  0.16441417  1
  Pb  Pb42  1  0.49788431  0.83532859  0.16649333  1
  Pb  Pb43  1  0.83402924  0.16786873  0.16902520  1
  Pb  Pb44  1  0.83020550  0.83348501  0.49990700  1
  Pb  Pb45  1  0.16412581  0.50005135  0.50339172  1
  Pb  Pb46  1  0.16727126  0.16670302  0.49994274  1
  Pb  Pb47  1  0.83304958  0.83385185  0.83356596  1
  Pb  Pb48  1  0.50154920  0.49994106  0.50208067  1
  Pb  Pb49  1  0.83319811  0.49995078  0.83302435  1
  Pb  Pb50  1  0.83367977  0.16627690  0.83081248  1
  Pb  Pb51  1  0.83681672  0.83080588  0.16670748  1
  Pb  Pb52  1  0.17012876  0.83327123  0.49976160  1
  Pb  Pb53  1  0.50197399  0.49701400  0.16351768  1
  I  I54  1  0.16988342  0.00111667  0.15812903  1
  I  I55  1  0.16047349  0.00012501  0.50361629  1
  I  I56  1  0.17310974  0.00028420  0.83737074  1
  I  I57  1  0.16900904  0.33024868  0.16234860  1
  I  I58  1  0.17039255  0.33321457  0.50008870  1
  I  I59  1  0.17233497  0.33243467  0.83664831  1
  I  I60  1  0.16446365  0.66889267  0.16177472  1
  I  I61  1  0.16602474  0.66673260  0.49917503  1
  I  I62  1  0.17198059  0.66726158  0.83705383  1
  I  I63  1  0.49982181  0.00362255  0.16293736  1
  I  I64  1  0.50550480  0.00157158  0.50581972  1
  I  I65  1  0.49401741  0.00064381  0.83074216  1
  I  I66  1  0.49344559  0.32890584  0.16819567  1
  I  I67  1  0.50243662  0.33024969  0.50181411  1
  I  I68  1  0.49460255  0.33220504  0.83286445  1
  I  I69  1  0.50004855  0.66652141  0.16748377  1
  I  I70  1  0.50075879  0.66909116  0.50619021  1
  I  I71  1  0.49465401  0.66725041  0.82739984  1
  I  I72  1  0.83178346  0.00020598  0.16767159  1
  I  I73  1  0.83153116  0.00287562  0.50143389  1
  I  I74  1  0.83362481  0.00024635  0.83145988  1
  I  I75  1  0.83501694  0.33560776  0.16806542  1
  I  I76  1  0.82726594  0.33277324  0.49753097  1
  I  I77  1  0.83364062  0.33320497  0.83427398  1
  I  I78  1  0.83306842  0.66299685  0.17279627  1
  I  I79  1  0.83359651  0.66390588  0.49738443  1
  I  I80  1  0.83352298  0.66656942  0.83082684  1
  I  I81  1  0.17379674  0.16637926  -0.00091032  1
  I  I82  1  0.16927424  0.16193806  0.33018186  1
  I  I83  1  0.16944366  0.16627970  0.67012661  1
  I  I84  1  0.16784389  0.49995519  -0.00365175  1
  I  I85  1  0.16664198  0.50034366  0.33314011  1
  I  I86  1  0.16928543  0.49898476  0.67168552  1
  I  I87  1  0.17242304  0.83352001  -0.00168304  1
  I  I88  1  0.16599848  0.84002284  0.33034761  1
  I  I89  1  0.16749436  0.83434599  0.67021840  1
  I  I90  1  0.49525502  0.16741350  -0.00100029  1
  I  I91  1  0.50073515  0.16111493  0.33371803  1
  I  I92  1  0.50031611  0.16635568  0.66757083  1
  I  I93  1  0.49796391  0.50173158  -0.00449371  1
  I  I94  1  0.49997452  0.50056837  0.33313037  1
  I  I95  1  0.49859021  0.49558948  0.67020009  1
  I  I96  1  0.49772740  0.83291422  -0.00331517  1
  I  I97  1  0.50035014  0.83938221  0.33563836  1
  I  I98  1  0.49546775  0.83794197  0.66819989  1
  I  I99  1  0.83049884  0.16937696  0.00020060  1
  I  I100  1  0.82855551  0.16917634  0.33675754  1
  I  I101  1  0.82905300  0.17406890  0.66301263  1
  I  I102  1  0.83387285  0.49951312  0.00188608  1
  I  I103  1  0.83349339  0.49485453  0.33404420  1
  I  I104  1  0.83313784  0.49541265  0.66412980  1
  I  I105  1  0.82757642  0.83049601  0.00024394  1
  I  I106  1  0.83362673  0.83492541  0.33339950  1
  I  I107  1  0.83903814  0.83022794  0.66649354  1
  I  I108  1  0.00326482  0.16491697  0.16189436  1
  I  I109  1  -0.00239172  0.17198987  0.50038713  1
  I  I110  1  0.00371735  0.16808240  0.83759583  1
  I  I111  1  -0.00266421  0.49771552  0.16846829  1
  I  I112  1  -0.00391821  0.49300680  0.49774698  1
  I  I113  1  0.00306737  0.49987409  0.83376565  1
  I  I114  1  0.00474554  0.84111819  0.15934545  1
  I  I115  1  0.00016556  0.83338289  0.50116522  1
  I  I116  1  0.00394137  0.83208100  0.83679693  1
  I  I117  1  0.33329901  0.16350048  0.16701251  1
  I  I118  1  0.33689565  0.16200006  0.50164675  1
  I  I119  1  0.33408051  0.16701492  0.83158752  1
  I  I120  1  0.33335302  0.50144296  0.16820302  1
  I  I121  1  0.33361678  0.49941338  0.49863082  1
  I  I122  1  0.33351579  0.49948584  0.83334397  1
  I  I123  1  0.32994590  0.83447716  0.16387759  1
  I  I124  1  0.33771443  0.84192974  0.50399793  1
  I  I125  1  0.33353339  0.83344671  0.83266783  1
  I  I126  1  0.66385881  0.16841540  0.16310894  1
  I  I127  1  0.66495388  0.16725080  0.50102593  1
  I  I128  1  0.66294460  0.16768839  0.83573284  1
  I  I129  1  0.66952597  0.49808693  0.16880247  1
  I  I130  1  0.66944201  0.49764478  0.49947638  1
  I  I131  1  0.66355608  0.49896181  0.83264872  1
  I  I132  1  0.66635327  0.83398330  0.16597154  1
  I  I133  1  0.66239584  0.83517903  0.50764894  1
  I  I134  1  0.66253864  0.83223478  0.82825690  1
