# generated using pymatgen
data_Cs27Sn13Pb14I81
_symmetry_space_group_name_H-M   'P 1'
_cell_length_a   18.98288585
_cell_length_b   18.97438868
_cell_length_c   18.97537219
_cell_angle_alpha   90.00337372
_cell_angle_beta   89.99919234
_cell_angle_gamma   89.99949415
_symmetry_Int_Tables_number   1
_chemical_formula_structural   Cs27Sn13Pb14I81
_chemical_formula_sum   'Cs27 Sn13 Pb14 I81'
_cell_volume   6834.71376185
_cell_formula_units_Z   1
loop_
 _symmetry_equiv_pos_site_id
 _symmetry_equiv_pos_as_xyz
  1  'x, y, z'
loop_
 _atom_site_type_symbol
 _atom_site_label
 _atom_site_symmetry_multiplicity
 _atom_site_fract_x
 _atom_site_fract_y
 _atom_site_fract_z
 _atom_site_occupancy
  Cs  Cs0  1  -0.00322629  -0.00177727  0.00361621  1
  Cs  Cs1  1  0.00142962  0.00110851  0.33198260  1
  Cs  Cs2  1  0.00397277  0.00022877  0.66451597  1
  Cs  Cs3  1  -0.00417106  0.33918932  -0.00883399  1
  Cs  Cs4  1  -0.00280189  0.33571521  0.33414196  1
  Cs  Cs5  1  0.00168266  0.33597955  0.67254519  1
  Cs  Cs6  1  0.00265558  0.66541169  -0.00037301  1
  Cs  Cs7  1  -0.00448100  0.66311424  0.33221687  1
  Cs  Cs8  1  -0.00258154  0.66505347  0.66763649  1
  Cs  Cs9  1  0.33430138  -0.00064555  0.00090401  1
  Cs  Cs10  1  0.33256475  -0.00013018  0.33455131  1
  Cs  Cs11  1  0.33093836  0.00080560  0.66443771  1
  Cs  Cs12  1  0.33179241  0.33581825  0.00052777  1
  Cs  Cs13  1  0.33453323  0.33351516  0.33216952  1
  Cs  Cs14  1  0.33254377  0.33071237  0.66728379  1
  Cs  Cs15  1  0.33323865  0.66583349  0.00089537  1
  Cs  Cs16  1  0.33434293  0.66615516  0.33370105  1
  Cs  Cs17  1  0.33579297  0.66901475  0.66461015  1
  Cs  Cs18  1  0.66798600  0.00094988  0.00047124  1
  Cs  Cs19  1  0.66665564  0.00081995  0.33297087  1
  Cs  Cs20  1  0.66513162  -0.00086775  0.66671149  1
  Cs  Cs21  1  0.67142682  0.32893234  -0.00115661  1
  Cs  Cs22  1  0.66585700  0.33407510  0.33487729  1
  Cs  Cs23  1  0.66693240  0.33344652  0.66590453  1
  Cs  Cs24  1  0.66385817  0.66916721  0.00208097  1
  Cs  Cs25  1  0.66769046  0.66356727  0.33286573  1
  Cs  Cs26  1  0.66569015  0.66746799  0.66544545  1
  Sn  Sn27  1  0.50001250  0.50046955  0.83266739  1
  Sn  Sn28  1  0.16775883  0.83406218  0.16618699  1
  Sn  Sn29  1  0.83285532  0.16564448  0.50012800  1
  Sn  Sn30  1  0.83315643  0.83443794  0.50053478  1
  Sn  Sn31  1  0.16712845  0.16655886  0.16641639  1
  Sn  Sn32  1  0.83317863  0.83356888  0.83233402  1
  Sn  Sn33  1  0.16766048  0.49998840  0.49995818  1
  Sn  Sn34  1  0.49965648  0.83286422  0.83395273  1
  Sn  Sn35  1  0.49884357  0.49902691  0.50093841  1
  Sn  Sn36  1  0.49907934  0.83427433  0.16609312  1
  Sn  Sn37  1  0.16711111  0.83363120  0.83383078  1
  Sn  Sn38  1  0.50044574  0.16722115  0.49938705  1
  Sn  Sn39  1  0.49905859  0.16578675  0.16738296  1
  Pb  Pb40  1  0.83328078  0.83326898  0.16658791  1
  Pb  Pb41  1  0.50013531  0.49958788  0.16641146  1
  Pb  Pb42  1  0.83344858  0.16396709  0.83040514  1
  Pb  Pb43  1  0.16415715  0.83149535  0.49927352  1
  Pb  Pb44  1  0.49984698  0.16638098  0.83355855  1
  Pb  Pb45  1  0.83273539  0.49962848  0.50023830  1
  Pb  Pb46  1  0.50143787  0.83351861  0.49957653  1
  Pb  Pb47  1  0.16932275  0.50259138  0.83116987  1
  Pb  Pb48  1  0.83343825  0.16668506  0.16870415  1
  Pb  Pb49  1  0.83326882  0.49971032  0.16612666  1
  Pb  Pb50  1  0.16675712  0.16424504  0.83659545  1
  Pb  Pb51  1  0.16676477  0.50001181  0.16843966  1
  Pb  Pb52  1  0.16669125  0.16871238  0.49812164  1
  Pb  Pb53  1  0.83014880  0.50283949  0.83324254  1
  I  I54  1  0.17117304  -0.00116535  0.16447723  1
  I  I55  1  0.16824150  -0.00013466  0.50176734  1
  I  I56  1  0.17060423  -0.00452682  0.83162414  1
  I  I57  1  0.17272631  0.33024359  0.17144455  1
  I  I58  1  0.16702879  0.33638606  0.49748247  1
  I  I59  1  0.16753023  0.33370145  0.83379873  1
  I  I60  1  0.17088433  0.67023058  0.16352438  1
  I  I61  1  0.17279386  0.66397176  0.49882918  1
  I  I62  1  0.16418787  0.67084287  0.83990826  1
  I  I63  1  0.49659463  -0.00058289  0.16714450  1
  I  I64  1  0.50290235  0.00239920  0.49895511  1
  I  I65  1  0.50072024  -0.00366119  0.83398240  1
  I  I66  1  0.49592931  0.33002129  0.16881550  1
  I  I67  1  0.50236863  0.33288279  0.49930074  1
  I  I68  1  0.49961425  0.33594258  0.83154798  1
  I  I69  1  0.49647381  0.66981564  0.16581073  1
  I  I70  1  0.49854634  0.66460428  0.50077219  1
  I  I71  1  0.50043539  0.66828111  0.83239059  1
  I  I72  1  0.83287422  -0.00023653  0.16567459  1
  I  I73  1  0.82736880  -0.00012214  0.50362555  1
  I  I74  1  0.82893454  -0.00446383  0.83243646  1
  I  I75  1  0.83220785  0.33269029  0.17045644  1
  I  I76  1  0.83109969  0.33045227  0.49621567  1
  I  I77  1  0.83236128  0.33343709  0.83328507  1
  I  I78  1  0.83243549  0.66747086  0.17154445  1
  I  I79  1  0.83320873  0.66936313  0.50350666  1
  I  I80  1  0.83534201  0.67121543  0.82573652  1
  I  I81  1  0.17519677  0.16521208  0.00471195  1
  I  I82  1  0.16865363  0.15884696  0.33038026  1
  I  I83  1  0.16688027  0.16590330  0.66646478  1
  I  I84  1  0.16755871  0.49864618  -0.00025415  1
  I  I85  1  0.17316219  0.50276173  0.33639583  1
  I  I86  1  0.16832914  0.50090912  0.66334397  1
  I  I87  1  0.16571734  0.83669632  0.00008844  1
  I  I88  1  0.17089794  0.83575562  0.33025115  1
  I  I89  1  0.16920484  0.83047415  0.66916715  1
  I  I90  1  0.49582090  0.16520435  0.00319456  1
  I  I91  1  0.50047675  0.16617581  0.33359439  1
  I  I92  1  0.50464580  0.16744514  0.66363710  1
  I  I93  1  0.50050252  0.50336799  -0.00278047  1
  I  I94  1  0.49747073  0.49976673  0.33630494  1
  I  I95  1  0.49692729  0.50173511  0.66585750  1
  I  I96  1  0.50178889  0.83252185  -0.00038265  1
  I  I97  1  0.49681176  0.83404432  0.33065619  1
  I  I98  1  0.49871768  0.83213391  0.66912197  1
  I  I99  1  0.83183138  0.16595888  0.00000714  1
  I  I100  1  0.83131539  0.15949531  0.33686739  1
  I  I101  1  0.82587893  0.16508070  0.66229964  1
  I  I102  1  0.83238676  0.50144470  -0.00072710  1
  I  I103  1  0.83163440  0.50422556  0.33415186  1
  I  I104  1  0.83517614  0.49904634  0.66654373  1
  I  I105  1  0.83255523  0.83169347  -0.00298004  1
  I  I106  1  0.83287197  0.83628547  0.33608458  1
  I  I107  1  0.83220760  0.83666446  0.66704970  1
  I  I108  1  0.00310743  0.15978753  0.16916037  1
  I  I109  1  -0.00240050  0.16304617  0.49818657  1
  I  I110  1  0.00008784  0.16549824  0.83275588  1
  I  I111  1  0.00054647  0.50137351  0.17129036  1
  I  I112  1  0.00211416  0.50165503  0.49736027  1
  I  I113  1  0.00015821  0.50090001  0.83162967  1
  I  I114  1  0.00310100  0.83715235  0.16448697  1
  I  I115  1  -0.00359115  0.83707287  0.50351541  1
  I  I116  1  0.00022200  0.83543200  0.83322999  1
  I  I117  1  0.33463532  0.16133259  0.17334896  1
  I  I118  1  0.33636278  0.16887839  0.49783459  1
  I  I119  1  0.33354233  0.16391957  0.82723736  1
  I  I120  1  0.33359783  0.50080137  0.16644739  1
  I  I121  1  0.33521549  0.49595699  0.50299854  1
  I  I122  1  0.33702613  0.50652880  0.83127685  1
  I  I123  1  0.33399476  0.83687948  0.15951568  1
  I  I124  1  0.33334930  0.83478724  0.50251713  1
  I  I125  1  0.33411290  0.82899603  0.83835446  1
  I  I126  1  0.66319112  0.16205526  0.16862722  1
  I  I127  1  0.66517197  0.16830469  0.49430885  1
  I  I128  1  0.66641171  0.16460498  0.83774941  1
  I  I129  1  0.66585047  0.50211241  0.17034507  1
  I  I130  1  0.66330892  0.49925926  0.50320038  1
  I  I131  1  0.66224249  0.50555482  0.82625296  1
  I  I132  1  0.66337005  0.83688697  0.16363210  1
  I  I133  1  0.66923344  0.83260409  0.50359800  1
  I  I134  1  0.66569401  0.82922626  0.83307023  1
