# generated using pymatgen
data_Cs27Sn14Pb13I81
_symmetry_space_group_name_H-M   'P 1'
_cell_length_a   18.98214800
_cell_length_b   18.97777209
_cell_length_c   18.96755533
_cell_angle_alpha   90.00149217
_cell_angle_beta   89.99963385
_cell_angle_gamma   90.00006900
_symmetry_Int_Tables_number   1
_chemical_formula_structural   Cs27Sn14Pb13I81
_chemical_formula_sum   'Cs27 Sn14 Pb13 I81'
_cell_volume   6832.85085825
_cell_formula_units_Z   1
loop_
 _symmetry_equiv_pos_site_id
 _symmetry_equiv_pos_as_xyz
  1  'x, y, z'
loop_
 _atom_site_type_symbol
 _atom_site_label
 _atom_site_symmetry_multiplicity
 _atom_site_fract_x
 _atom_site_fract_y
 _atom_site_fract_z
 _atom_site_occupancy
  Cs  Cs0  1  0.00036767  -0.00169553  0.00256627  1
  Cs  Cs1  1  -0.00220795  -0.00100586  0.33153048  1
  Cs  Cs2  1  0.00086195  0.00016519  0.67153646  1
  Cs  Cs3  1  -0.00588047  0.33502310  -0.00570240  1
  Cs  Cs4  1  0.00028830  0.33209373  0.33460676  1
  Cs  Cs5  1  0.00477221  0.33532985  0.67114270  1
  Cs  Cs6  1  -0.00057231  0.66737618  -0.00279838  1
  Cs  Cs7  1  0.00033816  0.66828726  0.33355231  1
  Cs  Cs8  1  0.00419916  0.66460409  0.66816179  1
  Cs  Cs9  1  0.33289104  -0.00277344  0.00133731  1
  Cs  Cs10  1  0.33347708  0.00019773  0.33208141  1
  Cs  Cs11  1  0.33467233  0.01006282  0.66688865  1
  Cs  Cs12  1  0.33723628  0.33105329  0.00326327  1
  Cs  Cs13  1  0.33065847  0.33373070  0.33417004  1
  Cs  Cs14  1  0.32852511  0.32738432  0.66348263  1
  Cs  Cs15  1  0.33589531  0.66886789  -0.00070595  1
  Cs  Cs16  1  0.33237253  0.66583383  0.33216303  1
  Cs  Cs17  1  0.33288373  0.66444498  0.66961161  1
  Cs  Cs18  1  0.66676463  -0.00022136  0.00000202  1
  Cs  Cs19  1  0.66898763  -0.00144324  0.33565686  1
  Cs  Cs20  1  0.66416011  0.00037833  0.66356712  1
  Cs  Cs21  1  0.66906357  0.33675514  -0.00278903  1
  Cs  Cs22  1  0.66878148  0.33695369  0.33178182  1
  Cs  Cs23  1  0.66663660  0.33196394  0.66962633  1
  Cs  Cs24  1  0.66451993  0.66443812  0.00006864  1
  Cs  Cs25  1  0.66687369  0.66528843  0.33613044  1
  Cs  Cs26  1  0.66501203  0.66887220  0.66320191  1
  Sn  Sn27  1  0.50024944  0.49994162  0.50109273  1
  Sn  Sn28  1  0.83307269  0.16611353  0.16735984  1
  Sn  Sn29  1  0.16623082  0.50014749  0.16629034  1
  Sn  Sn30  1  0.83346315  0.16775156  0.49949579  1
  Sn  Sn31  1  0.16660065  0.83310180  0.16766326  1
  Sn  Sn32  1  0.83284177  0.83353470  0.16603330  1
  Sn  Sn33  1  0.49977810  0.50049277  0.83193648  1
  Sn  Sn34  1  0.83207693  0.83327662  0.83410902  1
  Sn  Sn35  1  0.16708566  0.83355850  0.49966295  1
  Sn  Sn36  1  0.50055382  0.83393237  0.16652648  1
  Sn  Sn37  1  0.16608622  0.16690244  0.16683769  1
  Sn  Sn38  1  0.50099851  0.83282783  0.83374594  1
  Sn  Sn39  1  0.83308624  0.49899086  0.49997360  1
  Sn  Sn40  1  0.50079371  0.16575857  0.16697927  1
  Pb  Pb41  1  0.49857703  0.50023673  0.16679300  1
  Pb  Pb42  1  0.83501779  0.83343135  0.50024019  1
  Pb  Pb43  1  0.83123128  0.50275620  0.83035512  1
  Pb  Pb44  1  0.50017558  0.16627326  0.83570380  1
  Pb  Pb45  1  0.49764368  0.83193658  0.50011994  1
  Pb  Pb46  1  0.83315289  0.16414856  0.83351820  1
  Pb  Pb47  1  0.16980110  0.49996084  0.83632201  1
  Pb  Pb48  1  0.83550004  0.50029841  0.16812498  1
  Pb  Pb49  1  0.16663107  0.50154167  0.49834454  1
  Pb  Pb50  1  0.16655845  0.16669623  0.83661359  1
  Pb  Pb51  1  0.16395004  0.16419593  0.49777482  1
  Pb  Pb52  1  0.16744836  0.83346206  0.83362727  1
  Pb  Pb53  1  0.50220516  0.16934817  0.49709215  1
  I  I54  1  0.16663131  -0.00074246  0.17026320  1
  I  I55  1  0.16570715  -0.00350675  0.49347174  1
  I  I56  1  0.16858965  -0.00041326  0.83321447  1
  I  I57  1  0.16897349  0.33247848  0.16671187  1
  I  I58  1  0.16841952  0.33309826  0.49724252  1
  I  I59  1  0.16782924  0.33355940  0.83424326  1
  I  I60  1  0.16769497  0.66824210  0.17085376  1
  I  I61  1  0.16379647  0.66929169  0.49161287  1
  I  I62  1  0.16402852  0.66689275  0.83633594  1
  I  I63  1  0.49573800  -0.00133461  0.16144537  1
  I  I64  1  0.50040135  0.00014480  0.50242707  1
  I  I65  1  0.50300182  -0.00348176  0.83662199  1
  I  I66  1  0.49875863  0.33092480  0.16723966  1
  I  I67  1  0.50013244  0.33724784  0.50385560  1
  I  I68  1  0.49909524  0.33606174  0.83212202  1
  I  I69  1  0.49936065  0.66968675  0.16576516  1
  I  I70  1  0.50640806  0.66405529  0.49742236  1
  I  I71  1  0.50357259  0.66789598  0.83711479  1
  I  I72  1  0.83689747  -0.00052200  0.16858409  1
  I  I73  1  0.83584558  0.00203387  0.49699601  1
  I  I74  1  0.82745699  -0.00390327  0.83327392  1
  I  I75  1  0.83329895  0.33051589  0.16973376  1
  I  I76  1  0.82925273  0.33311004  0.49156820  1
  I  I77  1  0.83188832  0.33352121  0.83663961  1
  I  I78  1  0.83323173  0.66996130  0.16503723  1
  I  I79  1  0.83089481  0.66475917  0.49925687  1
  I  I80  1  0.83237744  0.67051267  0.84000229  1
  I  I81  1  0.16426979  0.16173046  0.00571394  1
  I  I82  1  0.16923560  0.16783815  0.32911671  1
  I  I83  1  0.16571070  0.16439968  0.66614971  1
  I  I84  1  0.16736147  0.50356633  0.00457606  1
  I  I85  1  0.16996946  0.49940154  0.33015392  1
  I  I86  1  0.16471150  0.50372910  0.66661934  1
  I  I87  1  0.16669920  0.83454505  0.00390715  1
  I  I88  1  0.16596299  0.83303235  0.33030990  1
  I  I89  1  0.16405558  0.83046366  0.66427586  1
  I  I90  1  0.50135990  0.16780703  0.00438402  1
  I  I91  1  0.49705679  0.16100785  0.32889878  1
  I  I92  1  0.50161462  0.16367388  0.66639475  1
  I  I93  1  0.49684674  0.50180246  -0.00176883  1
  I  I94  1  0.50226239  0.50014139  0.33532992  1
  I  I95  1  0.50473989  0.50824604  0.66676015  1
  I  I96  1  0.49842547  0.83094938  0.00148968  1
  I  I97  1  0.50210808  0.83539376  0.32995690  1
  I  I98  1  0.50408894  0.82949612  0.66945674  1
  I  I99  1  0.83448209  0.16425672  0.00383099  1
  I  I100  1  0.83352485  0.16382356  0.33143678  1
  I  I101  1  0.83271065  0.16858446  0.66375545  1
  I  I102  1  0.83319980  0.49747111  -0.00011203  1
  I  I103  1  0.82670312  0.50186272  0.33594810  1
  I  I104  1  0.83301018  0.49568203  0.66248599  1
  I  I105  1  0.83554155  0.83859858  0.00214964  1
  I  I106  1  0.83168318  0.83449756  0.33020845  1
  I  I107  1  0.83023506  0.83277285  0.66904561  1
  I  I108  1  -0.00040753  0.16237624  0.17123029  1
  I  I109  1  -0.00372488  0.17230696  0.49262759  1
  I  I110  1  -0.00040032  0.16437084  0.83507961  1
  I  I111  1  0.00328483  0.50164724  0.17043874  1
  I  I112  1  -0.00248524  0.49827445  0.49604373  1
  I  I113  1  -0.00014742  0.50128732  0.83257625  1
  I  I114  1  -0.00014228  0.83582499  0.16704616  1
  I  I115  1  0.00248135  0.83160792  0.49368914  1
  I  I116  1  -0.00241535  0.83495178  0.83685256  1
  I  I117  1  0.33325943  0.16385707  0.16446392  1
  I  I118  1  0.33324571  0.16736423  0.49912393  1
  I  I119  1  0.33363994  0.16416988  0.83468054  1
  I  I120  1  0.33070304  0.50072923  0.16847277  1
  I  I121  1  0.33582298  0.50369813  0.50163478  1
  I  I122  1  0.33761310  0.50913613  0.82786892  1
  I  I123  1  0.33342330  0.83547274  0.16649284  1
  I  I124  1  0.33023100  0.83017719  0.49303992  1
  I  I125  1  0.33672585  0.82828093  0.83860312  1
  I  I126  1  0.66726647  0.15911430  0.17034165  1
  I  I127  1  0.66997826  0.16547568  0.49292237  1
  I  I128  1  0.66664709  0.16848655  0.83692178  1
  I  I129  1  0.66670772  0.49972766  0.16588797  1
  I  I130  1  0.66665446  0.49851692  0.50088452  1
  I  I131  1  0.66339508  0.50214176  0.83533274  1
  I  I132  1  0.66667743  0.83990605  0.16218446  1
  I  I133  1  0.66667067  0.83383100  0.49750711  1
  I  I134  1  0.66605412  0.82982103  0.84205289  1
