# generated using pymatgen
data_Cs27Sn13Pb14I81
_symmetry_space_group_name_H-M   'P 1'
_cell_length_a   18.97133834
_cell_length_b   18.97539834
_cell_length_c   18.98387251
_cell_angle_alpha   90.00100039
_cell_angle_beta   89.99864360
_cell_angle_gamma   89.99899272
_symmetry_Int_Tables_number   1
_chemical_formula_structural   Cs27Sn13Pb14I81
_chemical_formula_sum   'Cs27 Sn13 Pb14 I81'
_cell_volume   6833.97962149
_cell_formula_units_Z   1
loop_
 _symmetry_equiv_pos_site_id
 _symmetry_equiv_pos_as_xyz
  1  'x, y, z'
loop_
 _atom_site_type_symbol
 _atom_site_label
 _atom_site_symmetry_multiplicity
 _atom_site_fract_x
 _atom_site_fract_y
 _atom_site_fract_z
 _atom_site_occupancy
  Cs  Cs0  1  -0.00261391  0.00360667  0.00058631  1
  Cs  Cs1  1  -0.00005974  -0.00092372  0.33582349  1
  Cs  Cs2  1  0.00047761  0.00037723  0.66433824  1
  Cs  Cs3  1  -0.00030874  0.33273505  -0.00139432  1
  Cs  Cs4  1  0.00298515  0.33167839  0.33146746  1
  Cs  Cs5  1  -0.00105839  0.33191914  0.67186724  1
  Cs  Cs6  1  -0.00020921  0.66207243  -0.00029144  1
  Cs  Cs7  1  -0.00551521  0.66954962  0.33285674  1
  Cs  Cs8  1  0.00167148  0.66731581  0.66823595  1
  Cs  Cs9  1  0.33701554  -0.00203642  0.00018894  1
  Cs  Cs10  1  0.33225646  0.00029452  0.33351642  1
  Cs  Cs11  1  0.33298756  -0.00378688  0.66590151  1
  Cs  Cs12  1  0.33253778  0.33489916  0.00229915  1
  Cs  Cs13  1  0.33379408  0.33460602  0.33427464  1
  Cs  Cs14  1  0.33550176  0.33329384  0.65907060  1
  Cs  Cs15  1  0.33330795  0.66641716  -0.00041005  1
  Cs  Cs16  1  0.33460646  0.66505405  0.33175511  1
  Cs  Cs17  1  0.33167867  0.66974284  0.67057218  1
  Cs  Cs18  1  0.66615887  0.00189208  -0.00305089  1
  Cs  Cs19  1  0.66732029  -0.00247725  0.33180086  1
  Cs  Cs20  1  0.66693238  0.00117808  0.67408323  1
  Cs  Cs21  1  0.66652219  0.33193627  0.00017366  1
  Cs  Cs22  1  0.66304520  0.33526440  0.33771264  1
  Cs  Cs23  1  0.66525384  0.33607228  0.66188661  1
  Cs  Cs24  1  0.66697091  0.66608791  0.00188065  1
  Cs  Cs25  1  0.66994555  0.66731055  0.33556775  1
  Cs  Cs26  1  0.66665994  0.66326524  0.66155907  1
  Sn  Sn27  1  0.16696588  0.16651204  0.83397597  1
  Sn  Sn28  1  0.83325811  0.16665159  0.49988213  1
  Sn  Sn29  1  0.49945696  0.50092268  0.16581176  1
  Sn  Sn30  1  0.16691974  0.83329396  0.16644193  1
  Sn  Sn31  1  0.16712086  0.50031350  0.16764916  1
  Sn  Sn32  1  0.49980819  0.83368452  0.49923421  1
  Sn  Sn33  1  0.83377773  0.16687804  0.16702211  1
  Sn  Sn34  1  0.16610099  0.16635489  0.16579960  1
  Sn  Sn35  1  0.49945397  0.83248287  0.16744525  1
  Sn  Sn36  1  0.83376222  0.83324202  0.83368305  1
  Sn  Sn37  1  0.16610907  0.50027788  0.49917081  1
  Sn  Sn38  1  0.83414058  0.16598281  0.83331310  1
  Sn  Sn39  1  0.49982991  0.49975960  0.83426405  1
  Pb  Pb40  1  0.16853038  0.49769034  0.83379762  1
  Pb  Pb41  1  0.49810278  0.50208388  0.49923269  1
  Pb  Pb42  1  0.83137393  0.83542734  0.50237928  1
  Pb  Pb43  1  0.83108778  0.49946714  0.83341676  1
  Pb  Pb44  1  0.49956568  0.16901361  0.83333616  1
  Pb  Pb45  1  0.50230508  0.16378236  0.49995148  1
  Pb  Pb46  1  0.16457205  0.83573797  0.83599617  1
  Pb  Pb47  1  0.83647869  0.49793199  0.49984765  1
  Pb  Pb48  1  0.83326381  0.49736516  0.16680989  1
  Pb  Pb49  1  0.49949154  0.16664335  0.16675276  1
  Pb  Pb50  1  0.50183474  0.83127741  0.83408002  1
  Pb  Pb51  1  0.83313888  0.83544440  0.16502789  1
  Pb  Pb52  1  0.16513484  0.16802618  0.49978087  1
  Pb  Pb53  1  0.16817944  0.83109746  0.49761177  1
  I  I54  1  0.16697322  0.00050111  0.16204291  1
  I  I55  1  0.16701038  -0.00011681  0.49943123  1
  I  I56  1  0.16539718  0.00389906  0.83783363  1
  I  I57  1  0.16650626  0.33326254  0.16661687  1
  I  I58  1  0.16793712  0.33588857  0.49389409  1
  I  I59  1  0.15936627  0.32985875  0.83955661  1
  I  I60  1  0.17238566  0.66626471  0.17082914  1
  I  I61  1  0.16784482  0.66317380  0.49568460  1
  I  I62  1  0.16515163  0.66663304  0.83336577  1
  I  I63  1  0.49718720  -0.00293920  0.17032479  1
  I  I64  1  0.49889331  -0.00395499  0.49335968  1
  I  I65  1  0.49977828  -0.00010910  0.83366475  1
  I  I66  1  0.49745517  0.33624980  0.16275562  1
  I  I67  1  0.50076443  0.33364524  0.50013664  1
  I  I68  1  0.50146387  0.33674697  0.84015427  1
  I  I69  1  0.49211450  0.66656941  0.16552653  1
  I  I70  1  0.50046664  0.66957613  0.49828605  1
  I  I71  1  0.50078401  0.66361419  0.83549932  1
  I  I72  1  0.83710365  0.00367088  0.16756146  1
  I  I73  1  0.83458772  0.00353403  0.49752605  1
  I  I74  1  0.83490533  0.00184214  0.83396107  1
  I  I75  1  0.83739819  0.32899331  0.16268667  1
  I  I76  1  0.83204613  0.32956421  0.50279225  1
  I  I77  1  0.83673647  0.32953997  0.83409454  1
  I  I78  1  0.83579085  0.66682371  0.16400490  1
  I  I79  1  0.83271251  0.66694887  0.50214429  1
  I  I80  1  0.83093048  0.66906785  0.83445055  1
  I  I81  1  0.15833078  0.16895349  0.00146505  1
  I  I82  1  0.16243758  0.16568428  0.32984774  1
  I  I83  1  0.16194066  0.16984393  0.66919483  1
  I  I84  1  0.16904682  0.50084409  0.00343874  1
  I  I85  1  0.17294335  0.49622393  0.33079815  1
  I  I86  1  0.16853978  0.49669532  0.66486548  1
  I  I87  1  0.17333198  0.82875078  0.00421811  1
  I  I88  1  0.16734359  0.83903671  0.32912864  1
  I  I89  1  0.16819189  0.83312436  0.66682070  1
  I  I90  1  0.50476333  0.16319229  0.00019877  1
  I  I91  1  0.50094044  0.17120665  0.33311741  1
  I  I92  1  0.49970654  0.16779659  0.66673237  1
  I  I93  1  0.49485841  0.50473204  0.00198336  1
  I  I94  1  0.49734659  0.50103338  0.33004421  1
  I  I95  1  0.49954220  0.50021973  0.66834352  1
  I  I96  1  0.49702514  0.83137031  0.00324629  1
  I  I97  1  0.49732649  0.82827190  0.33133594  1
  I  I98  1  0.50298367  0.83203387  0.66495970  1
  I  I99  1  0.83763025  0.16326960  -0.00016025  1
  I  I100  1  0.83763603  0.16763591  0.33238084  1
  I  I101  1  0.83727155  0.16273126  0.66787168  1
  I  I102  1  0.83638789  0.49754323  0.00015800  1
  I  I103  1  0.82861426  0.49804017  0.33317497  1
  I  I104  1  0.83198107  0.49752288  0.66671037  1
  I  I105  1  0.83116117  0.84077649  -0.00252200  1
  I  I106  1  0.83419612  0.83585688  0.33313534  1
  I  I107  1  0.83105552  0.83976305  0.67010321  1
  I  I108  1  0.00094608  0.16702877  0.16546217  1
  I  I109  1  -0.00298305  0.16699398  0.50000658  1
  I  I110  1  -0.00073793  0.16456224  0.83489919  1
  I  I111  1  0.00356510  0.50216376  0.17006993  1
  I  I112  1  0.00426665  0.50013002  0.49297878  1
  I  I113  1  0.00019520  0.50085552  0.83361323  1
  I  I114  1  0.00289088  0.83101165  0.16454925  1
  I  I115  1  -0.00000581  0.83290894  0.49938788  1
  I  I116  1  -0.00325731  0.83528724  0.83431230  1
  I  I117  1  0.32977197  0.16703383  0.16167230  1
  I  I118  1  0.33307306  0.16770086  0.50043953  1
  I  I119  1  0.33015083  0.16880483  0.84026983  1
  I  I120  1  0.33271466  0.49797502  0.16630759  1
  I  I121  1  0.33048449  0.49747476  0.49760065  1
  I  I122  1  0.33619477  0.49957050  0.83591395  1
  I  I123  1  0.33328774  0.83507993  0.16931509  1
  I  I124  1  0.33626535  0.83359609  0.49972658  1
  I  I125  1  0.33327839  0.83462579  0.83142427  1
  I  I126  1  0.66950321  0.16614325  0.16480571  1
  I  I127  1  0.67066491  0.16783338  0.50029365  1
  I  I128  1  0.67002750  0.16343108  0.83495208  1
  I  I129  1  0.66339805  0.50310005  0.16267594  1
  I  I130  1  0.66646824  0.49923504  0.50033048  1
  I  I131  1  0.66318760  0.49847817  0.83942043  1
  I  I132  1  0.66377870  0.82997365  0.16895284  1
  I  I133  1  0.66351255  0.83199643  0.49215850  1
  I  I134  1  0.66950547  0.84141446  0.83570002  1
