# generated using pymatgen
data_Cs27Sn14Pb13I81
_symmetry_space_group_name_H-M   'P 1'
_cell_length_a   18.97539338
_cell_length_b   18.96935052
_cell_length_c   18.98153264
_cell_angle_alpha   89.99972833
_cell_angle_beta   90.00059387
_cell_angle_gamma   89.99765745
_symmetry_Int_Tables_number   1
_chemical_formula_structural   Cs27Sn14Pb13I81
_chemical_formula_sum   'Cs27 Sn14 Pb13 I81'
_cell_volume   6832.41952991
_cell_formula_units_Z   1
loop_
 _symmetry_equiv_pos_site_id
 _symmetry_equiv_pos_as_xyz
  1  'x, y, z'
loop_
 _atom_site_type_symbol
 _atom_site_label
 _atom_site_symmetry_multiplicity
 _atom_site_fract_x
 _atom_site_fract_y
 _atom_site_fract_z
 _atom_site_occupancy
  Cs  Cs0  1  0.00720173  0.00309519  -0.00043378  1
  Cs  Cs1  1  -0.00229059  0.00565478  0.33590948  1
  Cs  Cs2  1  0.00148776  0.00622104  0.66439768  1
  Cs  Cs3  1  -0.01090193  0.33139714  0.00214413  1
  Cs  Cs4  1  0.00010194  0.32266150  0.33364838  1
  Cs  Cs5  1  -0.00261453  0.32631879  0.66317989  1
  Cs  Cs6  1  0.00126115  0.66558486  -0.00101720  1
  Cs  Cs7  1  0.00026150  0.66758779  0.33322734  1
  Cs  Cs8  1  -0.00054323  0.66763251  0.66756633  1
  Cs  Cs9  1  0.33343818  -0.00025889  -0.00190624  1
  Cs  Cs10  1  0.33609291  -0.00190234  0.33141716  1
  Cs  Cs11  1  0.33360275  -0.00059821  0.67272574  1
  Cs  Cs12  1  0.33511653  0.33458697  0.00078582  1
  Cs  Cs13  1  0.33178712  0.33555219  0.33625415  1
  Cs  Cs14  1  0.33168116  0.33557751  0.66287535  1
  Cs  Cs15  1  0.33271019  0.66765308  0.00063356  1
  Cs  Cs16  1  0.33381174  0.66574051  0.33259276  1
  Cs  Cs17  1  0.33213020  0.66462866  0.66698946  1
  Cs  Cs18  1  0.66249955  -0.00247496  -0.00030753  1
  Cs  Cs19  1  0.66555315  -0.00300263  0.33523153  1
  Cs  Cs20  1  0.66721783  0.00066965  0.66438238  1
  Cs  Cs21  1  0.67282284  0.33448632  -0.00343349  1
  Cs  Cs22  1  0.66598967  0.33465302  0.33127647  1
  Cs  Cs23  1  0.66760777  0.33356248  0.67241924  1
  Cs  Cs24  1  0.66704201  0.66637303  0.00028614  1
  Cs  Cs25  1  0.66609455  0.66814540  0.33366954  1
  Cs  Cs26  1  0.66727780  0.66688933  0.66581460  1
  Sn  Sn27  1  0.49888980  0.83384562  0.50021410  1
  Sn  Sn28  1  0.83298384  0.83321349  0.83410406  1
  Sn  Sn29  1  0.83348249  0.50037433  0.49950261  1
  Sn  Sn30  1  0.49939918  0.49991409  0.16574784  1
  Sn  Sn31  1  0.16748377  0.83293668  0.49922850  1
  Sn  Sn32  1  0.83383074  0.83309812  0.16565881  1
  Sn  Sn33  1  0.49977955  0.83294932  0.16661857  1
  Sn  Sn34  1  0.49979707  0.16704355  0.16734611  1
  Sn  Sn35  1  0.49987050  0.16600470  0.49940661  1
  Sn  Sn36  1  0.49898345  0.50108639  0.83424634  1
  Sn  Sn37  1  0.16698115  0.50048558  0.16578456  1
  Sn  Sn38  1  0.16658335  0.83255331  0.16774233  1
  Sn  Sn39  1  0.16700399  0.50004061  0.83433106  1
  Sn  Sn40  1  0.50086334  0.83211027  0.83336087  1
  Pb  Pb41  1  0.50115946  0.50027824  0.50002838  1
  Pb  Pb42  1  0.49979018  0.16704363  0.83354891  1
  Pb  Pb43  1  0.16435387  0.50181655  0.49930866  1
  Pb  Pb44  1  0.83014000  0.16296804  0.16651018  1
  Pb  Pb45  1  0.16989708  0.16325684  0.49984730  1
  Pb  Pb46  1  0.83371579  0.50194455  0.16843609  1
  Pb  Pb47  1  0.82990212  0.16963733  0.49981504  1
  Pb  Pb48  1  0.16707616  0.17120141  0.83382828  1
  Pb  Pb49  1  0.83344124  0.83252910  0.49999962  1
  Pb  Pb50  1  0.16678224  0.83216622  0.83356017  1
  Pb  Pb51  1  0.83344350  0.50194886  0.83166104  1
  Pb  Pb52  1  0.83308822  0.16259851  0.83354803  1
  Pb  Pb53  1  0.16925861  0.16696474  0.16642591  1
  I  I54  1  0.16693008  -0.00367797  0.17070297  1
  I  I55  1  0.16544282  -0.00504673  0.49395702  1
  I  I56  1  0.16605178  -0.00030325  0.83274822  1
  I  I57  1  0.17215830  0.33699174  0.16284916  1
  I  I58  1  0.16618220  0.33334444  0.50090267  1
  I  I59  1  0.17543520  0.33932130  0.83804093  1
  I  I60  1  0.17241155  0.66761650  0.16675979  1
  I  I61  1  0.17435000  0.66985082  0.49807914  1
  I  I62  1  0.16904949  0.66429882  0.83459842  1
  I  I63  1  0.50088083  -0.00204371  0.16739875  1
  I  I64  1  0.49757747  -0.00211334  0.49618357  1
  I  I65  1  0.50406992  -0.00348568  0.83524939  1
  I  I66  1  0.49460358  0.33453359  0.16797711  1
  I  I67  1  0.50366999  0.33141284  0.49639174  1
  I  I68  1  0.49584971  0.33692843  0.83535461  1
  I  I69  1  0.49972129  0.66778489  0.16668485  1
  I  I70  1  0.49848071  0.66982561  0.49769001  1
  I  I71  1  0.50033286  0.66751712  0.83581836  1
  I  I72  1  0.83388405  -0.00538638  0.16485748  1
  I  I73  1  0.83515601  -0.00000304  0.50052438  1
  I  I74  1  0.82515381  -0.00562566  0.83560912  1
  I  I75  1  0.83327155  0.33332882  0.16905945  1
  I  I76  1  0.83300846  0.33713079  0.50036970  1
  I  I77  1  0.83285507  0.33362314  0.83067295  1
  I  I78  1  0.82748283  0.67015683  0.16441378  1
  I  I79  1  0.82944460  0.66528342  0.50006753  1
  I  I80  1  0.83008293  0.66982707  0.83652000  1
  I  I81  1  0.17065755  0.15871967  0.00033138  1
  I  I82  1  0.16532343  0.17199148  0.33324020  1
  I  I83  1  0.16906690  0.16539284  0.66658180  1
  I  I84  1  0.17194965  0.50820444  0.00112335  1
  I  I85  1  0.17209896  0.50374999  0.32994363  1
  I  I86  1  0.17146247  0.50333546  0.66898488  1
  I  I87  1  0.16899610  0.83162899  0.00307081  1
  I  I88  1  0.17054778  0.82700081  0.33192946  1
  I  I89  1  0.17029389  0.83088871  0.66464516  1
  I  I90  1  0.49923514  0.16265885  0.00309291  1
  I  I91  1  0.50016335  0.16230305  0.33260901  1
  I  I92  1  0.50037132  0.16243814  0.66402719  1
  I  I93  1  0.49709319  0.50379688  0.00076517  1
  I  I94  1  0.49780577  0.50282636  0.33028965  1
  I  I95  1  0.49801547  0.50360837  0.66926385  1
  I  I96  1  0.50087503  0.83346206  0.00099217  1
  I  I97  1  0.50029083  0.83348643  0.33224802  1
  I  I98  1  0.50059078  0.83317811  0.66679037  1
  I  I99  1  0.83046278  0.17211276  0.00024134  1
  I  I100  1  0.83458101  0.16473153  0.33318579  1
  I  I101  1  0.83079758  0.16529106  0.66646529  1
  I  I102  1  0.83306326  0.49930104  0.00011584  1
  I  I103  1  0.83045074  0.50544959  0.33559683  1
  I  I104  1  0.83104754  0.50486162  0.66439126  1
  I  I105  1  0.82781981  0.83101694  0.00062539  1
  I  I106  1  0.82971914  0.83068887  0.33074039  1
  I  I107  1  0.82893938  0.82967735  0.66890755  1
  I  I108  1  -0.00003343  0.16720271  0.16643844  1
  I  I109  1  0.00002163  0.16616961  0.50109447  1
  I  I110  1  0.00000165  0.16568629  0.83234227  1
  I  I111  1  0.00312933  0.50722802  0.16335702  1
  I  I112  1  -0.00274400  0.50638127  0.50088126  1
  I  I113  1  0.00265996  0.50377582  0.83673196  1
  I  I114  1  0.00085568  0.82619407  0.16682406  1
  I  I115  1  0.00242239  0.82812314  0.49718882  1
  I  I116  1  -0.00203957  0.82995569  0.83609511  1
  I  I117  1  0.33747995  0.16143985  0.17033125  1
  I  I118  1  0.33764183  0.16763665  0.49522574  1
  I  I119  1  0.33388018  0.15939798  0.83311953  1
  I  I120  1  0.33460432  0.50527665  0.16394524  1
  I  I121  1  0.33340184  0.49813217  0.50088662  1
  I  I122  1  0.33481717  0.50719334  0.83612358  1
  I  I123  1  0.33464699  0.83294353  0.16761536  1
  I  I124  1  0.33484570  0.83551798  0.49663507  1
  I  I125  1  0.33652223  0.83211319  0.83470510  1
  I  I126  1  0.66184542  0.16769913  0.17062942  1
  I  I127  1  0.66234195  0.15770710  0.49586633  1
  I  I128  1  0.66610426  0.17238101  0.83300579  1
  I  I129  1  0.66327804  0.50121514  0.16441464  1
  I  I130  1  0.66835341  0.50352012  0.49985324  1
  I  I131  1  0.66354263  0.50169805  0.83627826  1
  I  I132  1  0.66477899  0.83330781  0.16684159  1
  I  I133  1  0.66346486  0.83512743  0.49759221  1
  I  I134  1  0.66450019  0.82763970  0.83615893  1
