# generated using pymatgen
data_Cs27Sn13Pb14I81
_symmetry_space_group_name_H-M   'P 1'
_cell_length_a   18.97694590
_cell_length_b   18.97694587
_cell_length_c   18.97866641
_cell_angle_alpha   89.99888387
_cell_angle_beta   89.99888387
_cell_angle_gamma   90.00082012
_symmetry_Int_Tables_number   1
_chemical_formula_structural   Cs27Sn13Pb14I81
_chemical_formula_sum   'Cs27 Sn13 Pb14 I81'
_cell_volume   6834.68227732
_cell_formula_units_Z   1
loop_
 _symmetry_equiv_pos_site_id
 _symmetry_equiv_pos_as_xyz
  1  'x, y, z'
loop_
 _atom_site_type_symbol
 _atom_site_label
 _atom_site_symmetry_multiplicity
 _atom_site_fract_x
 _atom_site_fract_y
 _atom_site_fract_z
 _atom_site_occupancy
  Cs  Cs0  1  -0.00049308  0.00106955  -0.00259417  1
  Cs  Cs1  1  -0.00017676  -0.00142959  0.33664955  1
  Cs  Cs2  1  -0.00093283  -0.00098580  0.66853537  1
  Cs  Cs3  1  -0.00056997  0.33276322  -0.00007729  1
  Cs  Cs4  1  0.00575017  0.33908335  0.33719054  1
  Cs  Cs5  1  0.00150513  0.33483832  0.66391739  1
  Cs  Cs6  1  0.00122286  0.66471636  0.00167439  1
  Cs  Cs7  1  -0.00831908  0.66302434  0.33143966  1
  Cs  Cs8  1  0.00238818  0.66709783  0.66573894  1
  Cs  Cs9  1  0.33404838  -0.00170945  0.00188198  1
  Cs  Cs10  1  0.33282432  0.00598790  0.33138803  1
  Cs  Cs11  1  0.33240926  -0.00346587  0.66703060  1
  Cs  Cs12  1  0.33138299  0.33455622  0.00167430  1
  Cs  Cs13  1  0.32969117  0.32501441  0.33143987  1
  Cs  Cs14  1  0.33376440  0.33572148  0.66573889  1
  Cs  Cs15  1  0.33427226  0.66760551  -0.00002647  1
  Cs  Cs16  1  0.33391056  0.66724387  0.33747025  1
  Cs  Cs17  1  0.33398434  0.66731777  0.66615324  1
  Cs  Cs18  1  0.66641019  -0.00025633  -0.00003676  1
  Cs  Cs19  1  0.66826256  0.00159577  0.33195193  1
  Cs  Cs20  1  0.66881266  0.00214600  0.66792188  1
  Cs  Cs21  1  0.66773609  0.33284036  -0.00259405  1
  Cs  Cs22  1  0.66523702  0.33315635  0.33664970  1
  Cs  Cs23  1  0.66568080  0.33240053  0.66853541  1
  Cs  Cs24  1  0.66495725  0.66738156  0.00188186  1
  Cs  Cs25  1  0.67265483  0.66615760  0.33138807  1
  Cs  Cs26  1  0.66320100  0.66574261  0.66703072  1
  Sn  Sn27  1  0.16682259  0.16607785  0.83333546  1
  Sn  Sn28  1  0.83358612  0.16691950  0.83393094  1
  Sn  Sn29  1  0.16732643  0.83309989  0.49962759  1
  Sn  Sn30  1  0.49955226  0.16720760  0.83344726  1
  Sn  Sn31  1  0.49976658  0.50065982  0.49962764  1
  Sn  Sn32  1  0.83274454  0.50015584  0.83333542  1
  Sn  Sn33  1  0.16601872  0.83394851  0.83360590  1
  Sn  Sn34  1  0.49972533  0.49993091  0.16678934  1
  Sn  Sn35  1  0.83387426  0.83288560  0.83344728  1
  Sn  Sn36  1  0.49978806  0.83312134  0.49990314  1
  Sn  Sn37  1  0.50061518  0.49935206  0.83360588  1
  Sn  Sn38  1  0.16659759  0.83305865  0.16678931  1
  Sn  Sn39  1  0.83369204  0.16702537  0.16640249  1
  Pb  Pb40  1  0.83078222  0.49996976  0.50259562  1
  Pb  Pb41  1  0.49831603  0.83164926  0.16974260  1
  Pb  Pb42  1  0.16683641  0.50016975  0.83339851  1
  Pb  Pb43  1  0.83537471  0.83515902  0.16406972  1
  Pb  Pb44  1  0.16911767  0.50245098  0.49990313  1
  Pb  Pb45  1  0.16884882  0.50218214  0.16667358  1
  Pb  Pb46  1  0.49994327  0.16648933  0.50220739  1
  Pb  Pb47  1  0.83315609  0.83327661  0.50220738  1
  Pb  Pb48  1  0.49992466  0.83325800  0.83222810  1
  Pb  Pb49  1  0.83353414  0.16686746  0.50012180  1
  Pb  Pb50  1  0.16425218  0.16474511  0.16439503  1
  Pb  Pb51  1  0.16663640  0.16411555  0.50259565  1
  Pb  Pb52  1  0.50182572  0.16870801  0.16406973  1
  Pb  Pb53  1  0.83141188  0.49758551  0.16439504  1
  I  I54  1  0.16806418  -0.00340856  0.16754374  1
  I  I55  1  0.17407122  -0.00426529  0.49920455  1
  I  I56  1  0.16376195  -0.00081137  0.83250531  1
  I  I57  1  0.16714792  0.33304781  0.16424837  1
  I  I58  1  0.16750786  0.33327028  0.50188419  1
  I  I59  1  0.16478533  0.33042806  0.83421916  1
  I  I60  1  0.16672397  0.67063586  0.16155989  1
  I  I61  1  0.16935166  0.67089181  0.50610074  1
  I  I62  1  0.16409215  0.67020017  0.83241717  1
  I  I63  1  0.49992002  0.00014304  0.16619825  1
  I  I64  1  0.49554157  -0.00303669  0.50360331  1
  I  I65  1  0.50248584  0.00232526  0.83095285  1
  I  I66  1  0.50022968  0.33682045  0.17034899  1
  I  I67  1  0.50255744  0.33650228  0.50054529  1
  I  I68  1  0.50348824  0.33397866  0.83112246  1
  I  I69  1  0.49975350  0.66357641  0.15915224  1
  I  I70  1  0.49512649  0.66632182  0.50469797  1
  I  I71  1  0.50299977  0.66386605  0.83383144  1
  I  I72  1  0.83217217  0.00285037  0.15849635  1
  I  I73  1  0.83036030  -0.00021817  0.50366885  1
  I  I74  1  0.83374330  0.00048064  0.83586764  1
  I  I75  1  0.83254995  0.33006286  0.15729285  1
  I  I76  1  0.83050140  0.33351163  0.50354308  1
  I  I77  1  0.83149720  0.33280989  0.83686344  1
  I  I78  1  0.83357960  0.66653766  0.16481394  1
  I  I79  1  0.83509340  0.66675982  0.50226597  1
  I  I80  1  0.83273680  0.66672302  0.83159990  1
  I  I81  1  0.16868773  0.16033454  -0.00421517  1
  I  I82  1  0.16559705  0.16509575  0.33312281  1
  I  I83  1  0.16397598  0.16150955  0.67140584  1
  I  I84  1  0.17046057  0.50379394  -0.00042400  1
  I  I85  1  0.16786312  0.50119676  0.33338498  1
  I  I86  1  0.16854864  0.50188191  0.66703175  1
  I  I87  1  0.16228274  0.83712785  -0.00162028  1
  I  I88  1  0.17374538  0.83210148  0.33391149  1
  I  I89  1  0.16694009  0.83720823  0.66769655  1
  I  I90  1  0.49874088  0.17075626  -0.00449641  1
  I  I91  1  0.50217486  0.16745010  0.33313894  1
  I  I92  1  0.50313131  0.17136406  0.67103535  1
  I  I93  1  0.50379436  0.49561616  -0.00162027  1
  I  I94  1  0.49876815  0.50707870  0.33391143  1
  I  I95  1  0.50387505  0.50027317  0.66769657  1
  I  I96  1  0.49882015  0.83215364  -0.00012298  1
  I  I97  1  0.49485298  0.82818663  0.33777185  1
  I  I98  1  0.49470621  0.82803933  0.66458745  1
  I  I99  1  0.83296731  0.16630052  -0.00314424  1
  I  I100  1  0.83144435  0.16477777  0.33020737  1
  I  I101  1  0.83258188  0.16591511  0.67124871  1
  I  I102  1  0.82700125  0.50202104  -0.00421516  1
  I  I103  1  0.83176249  0.49893056  0.33312283  1
  I  I104  1  0.82817586  0.49730938  0.67140587  1
  I  I105  1  0.83742338  0.83207427  -0.00449641  1
  I  I106  1  0.83411686  0.83550807  0.33313897  1
  I  I107  1  0.83803017  0.83646467  0.67103534  1
  I  I108  1  -0.00327044  0.16588312  0.15729292  1
  I  I109  1  0.00017831  0.16383482  0.50354307  1
  I  I110  1  -0.00052341  0.16483066  0.83686345  1
  I  I111  1  -0.00028550  0.50048154  0.16424834  1
  I  I112  1  -0.00006306  0.50084124  0.50188438  1
  I  I113  1  -0.00290529  0.49811878  0.83421895  1
  I  I114  1  0.00348711  0.83356286  0.17034911  1
  I  I115  1  0.00316892  0.83589066  0.50054567  1
  I  I116  1  0.00064530  0.83682127  0.83112204  1
  I  I117  1  0.33320428  0.16691302  0.16481400  1
  I  I118  1  0.33342653  0.16842669  0.50226592  1
  I  I119  1  0.33338969  0.16607013  0.83159981  1
  I  I120  1  0.33730251  0.50005714  0.16156006  1
  I  I121  1  0.33755843  0.50268455  0.50610066  1
  I  I122  1  0.33686683  0.49742502  0.83241717  1
  I  I123  1  0.33024310  0.83308686  0.15915229  1
  I  I124  1  0.33298850  0.82846038  0.50469808  1
  I  I125  1  0.33053275  0.83633358  0.83383149  1
  I  I126  1  0.66951703  0.16550568  0.15849618  1
  I  I127  1  0.66644851  0.16369394  0.50366893  1
  I  I128  1  0.66714731  0.16707651  0.83586766  1
  I  I129  1  0.66325810  0.50139753  0.16754356  1
  I  I130  1  0.66240135  0.50740488  0.49920440  1
  I  I131  1  0.66585524  0.49709575  0.83250552  1
  I  I132  1  0.66680964  0.83325330  0.16619826  1
  I  I133  1  0.66362999  0.82887452  0.50360291  1
  I  I134  1  0.66899194  0.83581907  0.83095327  1
