# generated using pymatgen
data_Cs27Sn13Pb14I81
_symmetry_space_group_name_H-M   'P 1'
_cell_length_a   18.97839619
_cell_length_b   18.97515424
_cell_length_c   18.97660218
_cell_angle_alpha   89.99767600
_cell_angle_beta   90.00067285
_cell_angle_gamma   89.99868948
_symmetry_Int_Tables_number   1
_chemical_formula_structural   Cs27Sn13Pb14I81
_chemical_formula_sum   'Cs27 Sn13 Pb14 I81'
_cell_volume   6833.81592003
_cell_formula_units_Z   1
loop_
 _symmetry_equiv_pos_site_id
 _symmetry_equiv_pos_as_xyz
  1  'x, y, z'
loop_
 _atom_site_type_symbol
 _atom_site_label
 _atom_site_symmetry_multiplicity
 _atom_site_fract_x
 _atom_site_fract_y
 _atom_site_fract_z
 _atom_site_occupancy
  Cs  Cs0  1  0.00083475  0.00093777  0.00060674  1
  Cs  Cs1  1  -0.00005592  0.00011860  0.33353508  1
  Cs  Cs2  1  0.00020572  0.00159322  0.66578243  1
  Cs  Cs3  1  0.00034998  0.33075082  -0.00224518  1
  Cs  Cs4  1  0.00026037  0.33458428  0.34126031  1
  Cs  Cs5  1  0.00226714  0.33068162  0.66386792  1
  Cs  Cs6  1  0.00035640  0.66534791  -0.00046554  1
  Cs  Cs7  1  -0.01048427  0.66469361  0.32898005  1
  Cs  Cs8  1  0.00054383  0.66656200  0.66993888  1
  Cs  Cs9  1  0.33419519  -0.00021575  0.00118423  1
  Cs  Cs10  1  0.33228990  -0.00080007  0.33307918  1
  Cs  Cs11  1  0.33484217  -0.00166801  0.66561865  1
  Cs  Cs12  1  0.33388810  0.33253745  0.00391705  1
  Cs  Cs13  1  0.33700482  0.34159135  0.33506385  1
  Cs  Cs14  1  0.33021695  0.33678684  0.66273033  1
  Cs  Cs15  1  0.32939005  0.66878578  0.00002961  1
  Cs  Cs16  1  0.33448522  0.66681359  0.33383763  1
  Cs  Cs17  1  0.33381070  0.66784535  0.66650327  1
  Cs  Cs18  1  0.66483590  0.00276119  -0.00134026  1
  Cs  Cs19  1  0.66763143  -0.00142896  0.33468371  1
  Cs  Cs20  1  0.66466965  -0.00028080  0.66731589  1
  Cs  Cs21  1  0.66495207  0.32981297  0.00045270  1
  Cs  Cs22  1  0.66242895  0.34235749  0.33385501  1
  Cs  Cs23  1  0.66759885  0.33537992  0.66696877  1
  Cs  Cs24  1  0.67004554  0.66674737  -0.00246555  1
  Cs  Cs25  1  0.67295458  0.66168640  0.33289969  1
  Cs  Cs26  1  0.66592185  0.66527400  0.66829490  1
  Sn  Sn27  1  0.16576428  0.83459629  0.83328415  1
  Sn  Sn28  1  0.49995708  0.49991085  0.83394912  1
  Sn  Sn29  1  0.16686277  0.83344820  0.49949702  1
  Sn  Sn30  1  0.16716164  0.83398910  0.16706673  1
  Sn  Sn31  1  0.83263626  0.49932365  0.83364366  1
  Sn  Sn32  1  0.49989188  0.83357042  0.16754937  1
  Sn  Sn33  1  0.49954725  0.83416303  0.49867624  1
  Sn  Sn34  1  0.83394659  0.16653705  0.16653143  1
  Sn  Sn35  1  0.16641245  0.16559960  0.83392861  1
  Sn  Sn36  1  0.83388891  0.16641356  0.83390806  1
  Sn  Sn37  1  0.50002568  0.16596159  0.49985015  1
  Sn  Sn38  1  0.16596673  0.16620978  0.16644030  1
  Sn  Sn39  1  0.83413009  0.83406354  0.83336553  1
  Pb  Pb40  1  0.49918245  0.16858935  0.83163027  1
  Pb  Pb41  1  0.83364530  0.49622301  0.16391593  1
  Pb  Pb42  1  0.16641157  0.49966489  0.16663689  1
  Pb  Pb43  1  0.83325598  0.83348486  0.50254733  1
  Pb  Pb44  1  0.49995262  0.50126587  0.50206788  1
  Pb  Pb45  1  0.49969447  0.16494376  0.16894306  1
  Pb  Pb46  1  0.83356154  0.49996334  0.50282007  1
  Pb  Pb47  1  0.16633708  0.49948766  0.83349907  1
  Pb  Pb48  1  0.83084104  0.16655569  0.49984152  1
  Pb  Pb49  1  0.83355475  0.83528126  0.16426710  1
  Pb  Pb50  1  0.49995186  0.50357540  0.16382924  1
  Pb  Pb51  1  0.16861933  0.16489118  0.49949767  1
  Pb  Pb52  1  0.16654655  0.50406168  0.49974751  1
  Pb  Pb53  1  0.49952732  0.83209200  0.83339423  1
  I  I54  1  0.16681800  -0.00080449  0.16454122  1
  I  I55  1  0.16936582  -0.00340301  0.50176491  1
  I  I56  1  0.15974559  -0.00075986  0.83367869  1
  I  I57  1  0.16317326  0.32918217  0.15888726  1
  I  I58  1  0.16877886  0.33299312  0.50148829  1
  I  I59  1  0.16433690  0.32971529  0.83777958  1
  I  I60  1  0.17169950  0.67083093  0.16494933  1
  I  I61  1  0.17478730  0.67258618  0.50328106  1
  I  I62  1  0.16433005  0.67007109  0.83329012  1
  I  I63  1  0.49789658  -0.00316700  0.16587561  1
  I  I64  1  0.49666315  -0.00164267  0.49927652  1
  I  I65  1  0.50299440  -0.00009252  0.83360837  1
  I  I66  1  0.49977742  0.33323709  0.16837149  1
  I  I67  1  0.50068547  0.33121581  0.50201207  1
  I  I68  1  0.50447546  0.33611097  0.83072518  1
  I  I69  1  0.49358726  0.67169645  0.17239922  1
  I  I70  1  0.49463743  0.67050107  0.49839986  1
  I  I71  1  0.50464668  0.66445554  0.83187479  1
  I  I72  1  0.83430564  0.00300791  0.15938117  1
  I  I73  1  0.83309609  -0.00003246  0.50443742  1
  I  I74  1  0.83773347  0.00050620  0.83628477  1
  I  I75  1  0.83827881  0.32825244  0.16058987  1
  I  I76  1  0.83102180  0.33298360  0.50177114  1
  I  I77  1  0.83274906  0.33229294  0.83720829  1
  I  I78  1  0.83306181  0.66679229  0.16531627  1
  I  I79  1  0.83192433  0.66702946  0.50137666  1
  I  I80  1  0.83298807  0.66728201  0.83152795  1
  I  I81  1  0.16314227  0.15881286  -0.00075498  1
  I  I82  1  0.16254410  0.16127556  0.33016586  1
  I  I83  1  0.16312361  0.16326956  0.66955186  1
  I  I84  1  0.16783958  0.50578867  -0.00033608  1
  I  I85  1  0.16858725  0.49713463  0.33328929  1
  I  I86  1  0.16676223  0.49945806  0.66708885  1
  I  I87  1  0.16789648  0.83639639  -0.00027980  1
  I  I88  1  0.17364939  0.83845789  0.33260795  1
  I  I89  1  0.16732165  0.83661580  0.66765036  1
  I  I90  1  0.50048189  0.16632298  0.00011130  1
  I  I91  1  0.49977883  0.16358139  0.33651923  1
  I  I92  1  0.50001904  0.15956435  0.66406057  1
  I  I93  1  0.50424972  0.49993862  -0.00385760  1
  I  I94  1  0.49950012  0.49774304  0.33330866  1
  I  I95  1  0.50474275  0.50240794  0.66980328  1
  I  I96  1  0.49651980  0.83151673  0.00207295  1
  I  I97  1  0.49092701  0.83819749  0.33363270  1
  I  I98  1  0.49707339  0.83482887  0.66446598  1
  I  I99  1  0.83633241  0.16653437  -0.00163331  1
  I  I100  1  0.83819875  0.16353785  0.33020914  1
  I  I101  1  0.83703626  0.16719116  0.67042975  1
  I  I102  1  0.82959056  0.50381659  -0.00434142  1
  I  I103  1  0.83297608  0.49988355  0.33286033  1
  I  I104  1  0.82902547  0.49844271  0.67163876  1
  I  I105  1  0.83582318  0.83107531  -0.00402344  1
  I  I106  1  0.83532826  0.83517191  0.33299992  1
  I  I107  1  0.83628004  0.83547460  0.67120416  1
  I  I108  1  0.00090053  0.15986096  0.16088543  1
  I  I109  1  0.00024261  0.16574457  0.50093178  1
  I  I110  1  -0.00008114  0.16754511  0.83619451  1
  I  I111  1  -0.00015752  0.50683290  0.16360405  1
  I  I112  1  0.00007737  0.49959449  0.50285815  1
  I  I113  1  -0.00301952  0.50123344  0.83363188  1
  I  I114  1  0.00325112  0.83516440  0.16867867  1
  I  I115  1  0.00328782  0.83380130  0.49877624  1
  I  I116  1  0.00087800  0.83136970  0.83296169  1
  I  I117  1  0.33013652  0.16314366  0.16104553  1
  I  I118  1  0.33618836  0.16332774  0.50221076  1
  I  I119  1  0.32997821  0.16206596  0.83669415  1
  I  I120  1  0.33344384  0.49531656  0.16302148  1
  I  I121  1  0.33353541  0.49682153  0.50472447  1
  I  I122  1  0.33538304  0.50171838  0.83176606  1
  I  I123  1  0.33194082  0.83868981  0.16406009  1
  I  I124  1  0.33316965  0.83750853  0.50267837  1
  I  I125  1  0.33016333  0.83585839  0.83336000  1
  I  I126  1  0.66898181  0.16440733  0.16110145  1
  I  I127  1  0.66315883  0.15909846  0.50184642  1
  I  I128  1  0.66954744  0.16437218  0.83610075  1
  I  I129  1  0.66675618  0.50028626  0.16717633  1
  I  I130  1  0.66648686  0.50177932  0.50001976  1
  I  I131  1  0.66787512  0.50141188  0.83256656  1
  I  I132  1  0.66442007  0.83505990  0.16926156  1
  I  I133  1  0.66339996  0.83667509  0.49765604  1
  I  I134  1  0.66903357  0.83491017  0.83342898  1
