# generated using pymatgen
data_Cs27Sn13Pb14I81
_symmetry_space_group_name_H-M   'P 1'
_cell_length_a   18.98399598
_cell_length_b   18.97594717
_cell_length_c   18.97029970
_cell_angle_alpha   90.00059078
_cell_angle_beta   90.00060661
_cell_angle_gamma   89.99877093
_symmetry_Int_Tables_number   1
_chemical_formula_structural   Cs27Sn13Pb14I81
_chemical_formula_sum   'Cs27 Sn13 Pb14 I81'
_cell_volume   6833.84757232
_cell_formula_units_Z   1
loop_
 _symmetry_equiv_pos_site_id
 _symmetry_equiv_pos_as_xyz
  1  'x, y, z'
loop_
 _atom_site_type_symbol
 _atom_site_label
 _atom_site_symmetry_multiplicity
 _atom_site_fract_x
 _atom_site_fract_y
 _atom_site_fract_z
 _atom_site_occupancy
  Cs  Cs0  1  0.00661213  0.00127875  -0.00538084  1
  Cs  Cs1  1  -0.00130638  -0.00058338  0.33466233  1
  Cs  Cs2  1  -0.00188530  0.00316265  0.66978883  1
  Cs  Cs3  1  0.00212044  0.33505738  -0.00027893  1
  Cs  Cs4  1  -0.00218850  0.33394830  0.33312847  1
  Cs  Cs5  1  -0.00053656  0.33155295  0.66747946  1
  Cs  Cs6  1  0.00019112  0.66443118  0.00009128  1
  Cs  Cs7  1  -0.00184938  0.66704069  0.33409342  1
  Cs  Cs8  1  0.00005954  0.66588027  0.66588515  1
  Cs  Cs9  1  0.32670519  -0.00462755  0.00799992  1
  Cs  Cs10  1  0.33251906  0.00093671  0.32980836  1
  Cs  Cs11  1  0.33479341  0.00041250  0.66607325  1
  Cs  Cs12  1  0.33179128  0.32960209  -0.00071714  1
  Cs  Cs13  1  0.33625648  0.33345244  0.33403369  1
  Cs  Cs14  1  0.33523217  0.33556103  0.66594960  1
  Cs  Cs15  1  0.33177563  0.67521843  -0.00015851  1
  Cs  Cs16  1  0.33463280  0.66554466  0.33647501  1
  Cs  Cs17  1  0.33398011  0.66432648  0.66401509  1
  Cs  Cs18  1  0.66484980  -0.00438579  -0.00088496  1
  Cs  Cs19  1  0.66814595  0.00085634  0.33559658  1
  Cs  Cs20  1  0.66751024  0.00150235  0.66646105  1
  Cs  Cs21  1  0.66544092  0.33636369  0.00348935  1
  Cs  Cs22  1  0.66728382  0.33421518  0.32843449  1
  Cs  Cs23  1  0.66524137  0.33005637  0.66765142  1
  Cs  Cs24  1  0.66569202  0.66705137  0.00086468  1
  Cs  Cs25  1  0.66928441  0.66504485  0.33144045  1
  Cs  Cs26  1  0.66650889  0.66786730  0.66777826  1
  Sn  Sn27  1  0.16637385  0.83447600  0.50008776  1
  Sn  Sn28  1  0.83338080  0.83262820  0.49973515  1
  Sn  Sn29  1  0.49975665  0.16676253  0.83337220  1
  Sn  Sn30  1  0.83298357  0.50000548  0.83231686  1
  Sn  Sn31  1  0.49921628  0.16596990  0.50049202  1
  Sn  Sn32  1  0.83350741  0.16514979  0.16602054  1
  Sn  Sn33  1  0.16716684  0.50000222  0.16626396  1
  Sn  Sn34  1  0.83309833  0.50033940  0.50088309  1
  Sn  Sn35  1  0.49988201  0.49939464  0.83336320  1
  Sn  Sn36  1  0.16705716  0.50003103  0.83421260  1
  Sn  Sn37  1  0.16733413  0.16601095  0.50008878  1
  Sn  Sn38  1  0.50023454  0.83409903  0.50007144  1
  Sn  Sn39  1  0.83367362  0.83485899  0.16695789  1
  Pb  Pb40  1  0.49670934  0.50007186  0.16331046  1
  Pb  Pb41  1  0.16417584  0.83135274  0.16926623  1
  Pb  Pb42  1  0.16913893  0.16861865  0.83111498  1
  Pb  Pb43  1  0.16456711  0.16842587  0.16915679  1
  Pb  Pb44  1  0.83287290  0.16649300  0.49910897  1
  Pb  Pb45  1  0.50179557  0.16649236  0.16656755  1
  Pb  Pb46  1  0.49982343  0.83386801  0.83132581  1
  Pb  Pb47  1  0.83344633  0.83149582  0.83318581  1
  Pb  Pb48  1  0.16664318  0.83113227  0.83053982  1
  Pb  Pb49  1  0.83456203  0.50047785  0.16641201  1
  Pb  Pb50  1  0.16486179  0.49972240  0.50028664  1
  Pb  Pb51  1  0.50271524  0.49961037  0.50147522  1
  Pb  Pb52  1  0.50238835  0.83331997  0.16973264  1
  Pb  Pb53  1  0.83102853  0.16901894  0.83634121  1
  I  I54  1  0.16688984  -0.00015926  0.16627616  1
  I  I55  1  0.16500090  -0.00041120  0.49917129  1
  I  I56  1  0.16770125  0.00025007  0.83399707  1
  I  I57  1  0.16215998  0.33625442  0.16501715  1
  I  I58  1  0.16967822  0.33113537  0.50030693  1
  I  I59  1  0.16377658  0.33701304  0.83368378  1
  I  I60  1  0.16304122  0.66357622  0.16410488  1
  I  I61  1  0.16797532  0.66898162  0.50026249  1
  I  I62  1  0.16830890  0.66239253  0.83464352  1
  I  I63  1  0.49856583  -0.00007595  0.16164726  1
  I  I64  1  0.50219681  0.00023352  0.50607334  1
  I  I65  1  0.50255688  0.00312983  0.82877972  1
  I  I66  1  0.50451405  0.33338682  0.17262816  1
  I  I67  1  0.49622395  0.33056657  0.50244358  1
  I  I68  1  0.50028565  0.33390136  0.82589236  1
  I  I69  1  0.50338246  0.66658187  0.16730619  1
  I  I70  1  0.49778068  0.66917308  0.50129320  1
  I  I71  1  0.50074925  0.66354194  0.83176789  1
  I  I72  1  0.83212378  -0.00087737  0.17618060  1
  I  I73  1  0.83325747  -0.00280781  0.49640732  1
  I  I74  1  0.83104432  0.00027903  0.83070620  1
  I  I75  1  0.83442406  0.33190408  0.16804420  1
  I  I76  1  0.83463430  0.33559977  0.50146503  1
  I  I77  1  0.83579123  0.33733097  0.82794803  1
  I  I78  1  0.83501185  0.66893376  0.16975978  1
  I  I79  1  0.83395105  0.66745282  0.49773623  1
  I  I80  1  0.83088331  0.66271235  0.83318102  1
  I  I81  1  0.16703122  0.16722650  -0.00008395  1
  I  I82  1  0.17239556  0.16616145  0.33725589  1
  I  I83  1  0.16582364  0.16531285  0.66290133  1
  I  I84  1  0.16256455  0.49887844  -0.00111783  1
  I  I85  1  0.16161013  0.50034160  0.33197931  1
  I  I86  1  0.16747298  0.50050970  0.66919917  1
  I  I87  1  0.16529882  0.83321718  0.00021755  1
  I  I88  1  0.16822811  0.83331587  0.33754176  1
  I  I89  1  0.16322865  0.83403715  0.66197577  1
  I  I90  1  0.50390192  0.17458550  -0.00308621  1
  I  I91  1  0.49755319  0.16238752  0.33681236  1
  I  I92  1  0.49762596  0.16776144  0.66545678  1
  I  I93  1  0.50786214  0.49327593  -0.00492306  1
  I  I94  1  0.50044957  0.49951251  0.33350483  1
  I  I95  1  0.49555233  0.49931671  0.66957030  1
  I  I96  1  0.50253926  0.83249969  0.00003376  1
  I  I97  1  0.49780966  0.83887858  0.33829481  1
  I  I98  1  0.50337510  0.83353929  0.66259778  1
  I  I99  1  0.83209410  0.16281784  0.00381625  1
  I  I100  1  0.83203855  0.16917354  0.33141514  1
  I  I101  1  0.83479179  0.16595642  0.66681853  1
  I  I102  1  0.83205513  0.49941073  -0.00277908  1
  I  I103  1  0.83609740  0.50118669  0.33558819  1
  I  I104  1  0.83601253  0.50535492  0.66644164  1
  I  I105  1  0.83267934  0.83455545  0.00294325  1
  I  I106  1  0.83301511  0.83001097  0.33517426  1
  I  I107  1  0.83310511  0.82988533  0.66298583  1
  I  I108  1  -0.00319254  0.16454665  0.17010837  1
  I  I109  1  0.00184947  0.16517523  0.49729076  1
  I  I110  1  0.00007572  0.16880202  0.83199470  1
  I  I111  1  0.00207692  0.49989909  0.16213042  1
  I  I112  1  -0.00297805  0.50334455  0.50394184  1
  I  I113  1  -0.00019963  0.50192769  0.83314175  1
  I  I114  1  -0.00358968  0.83498016  0.17449874  1
  I  I115  1  -0.00065167  0.83168358  0.49566808  1
  I  I116  1  -0.00006911  0.83086277  0.83032941  1
  I  I117  1  0.33313740  0.16922942  0.16606631  1
  I  I118  1  0.33388499  0.16066097  0.50316671  1
  I  I119  1  0.33696367  0.17416290  0.83007466  1
  I  I120  1  0.32901734  0.49898288  0.16536391  1
  I  I121  1  0.33342222  0.50278058  0.50049265  1
  I  I122  1  0.33348833  0.49556362  0.83642596  1
  I  I123  1  0.33294887  0.83141662  0.16731109  1
  I  I124  1  0.33334596  0.83659921  0.50248034  1
  I  I125  1  0.33331912  0.82900176  0.83094619  1
  I  I126  1  0.66978821  0.16578406  0.17043639  1
  I  I127  1  0.66400570  0.16417948  0.50275900  1
  I  I128  1  0.66336396  0.17311952  0.82464668  1
  I  I129  1  0.66676241  0.49992065  0.16668767  1
  I  I130  1  0.67058603  0.50364510  0.50376950  1
  I  I131  1  0.66682649  0.49661601  0.82719403  1
  I  I132  1  0.67059211  0.83443060  0.17237392  1
  I  I133  1  0.66715693  0.83307004  0.49680320  1
  I  I134  1  0.66669350  0.82991011  0.83117055  1
