# generated using pymatgen
data_Cs27Sn14Pb13I81
_symmetry_space_group_name_H-M   'P 1'
_cell_length_a   18.97832015
_cell_length_b   18.97628389
_cell_length_c   18.97241309
_cell_angle_alpha   89.99665277
_cell_angle_beta   90.00141854
_cell_angle_gamma   90.00067394
_symmetry_Int_Tables_number   1
_chemical_formula_structural   Cs27Sn14Pb13I81
_chemical_formula_sum   'Cs27 Sn14 Pb13 I81'
_cell_volume   6832.68671983
_cell_formula_units_Z   1
loop_
 _symmetry_equiv_pos_site_id
 _symmetry_equiv_pos_as_xyz
  1  'x, y, z'
loop_
 _atom_site_type_symbol
 _atom_site_label
 _atom_site_symmetry_multiplicity
 _atom_site_fract_x
 _atom_site_fract_y
 _atom_site_fract_z
 _atom_site_occupancy
  Cs  Cs0  1  -0.00307999  0.00211077  -0.00331716  1
  Cs  Cs1  1  0.00366286  0.00101079  0.33347235  1
  Cs  Cs2  1  0.00129880  -0.00028565  0.66791111  1
  Cs  Cs3  1  0.00087492  0.33275232  0.00290079  1
  Cs  Cs4  1  -0.00684164  0.33334700  0.33186067  1
  Cs  Cs5  1  0.00074327  0.33414216  0.66593355  1
  Cs  Cs6  1  0.00508787  0.66573251  -0.00416664  1
  Cs  Cs7  1  0.00187741  0.66399663  0.33099422  1
  Cs  Cs8  1  -0.00324505  0.66637983  0.66869817  1
  Cs  Cs9  1  0.33359415  0.00102002  0.00116836  1
  Cs  Cs10  1  0.33088258  -0.00125300  0.33369202  1
  Cs  Cs11  1  0.33289897  0.00145937  0.66484268  1
  Cs  Cs12  1  0.33372703  0.33885679  -0.00442441  1
  Cs  Cs13  1  0.33350139  0.32953995  0.33731448  1
  Cs  Cs14  1  0.33439463  0.33435089  0.66845292  1
  Cs  Cs15  1  0.33186470  0.65939959  0.00835003  1
  Cs  Cs16  1  0.33276390  0.66996644  0.32607424  1
  Cs  Cs17  1  0.33325842  0.66429974  0.66621003  1
  Cs  Cs18  1  0.66905169  0.00020883  -0.00100856  1
  Cs  Cs19  1  0.66548586  0.00103116  0.33271501  1
  Cs  Cs20  1  0.66614925  -0.00152764  0.66759945  1
  Cs  Cs21  1  0.66408923  0.33312232  0.00210316  1
  Cs  Cs22  1  0.67172474  0.33308419  0.33375125  1
  Cs  Cs23  1  0.66463960  0.33330118  0.66583075  1
  Cs  Cs24  1  0.66275697  0.67087246  0.00253026  1
  Cs  Cs25  1  0.66562404  0.66441182  0.33465704  1
  Cs  Cs26  1  0.66995640  0.67114237  0.66386160  1
  Sn  Sn27  1  0.83379882  0.16807214  0.83238155  1
  Sn  Sn28  1  0.49900019  0.16652623  0.16735159  1
  Sn  Sn29  1  0.16777994  0.16653512  0.16565053  1
  Sn  Sn30  1  0.16622450  0.16603942  0.83402390  1
  Sn  Sn31  1  0.83272886  0.49861659  0.83347967  1
  Sn  Sn32  1  0.50080486  0.16639091  0.49931817  1
  Sn  Sn33  1  0.16870988  0.83384971  0.83305493  1
  Sn  Sn34  1  0.50027597  0.83336827  0.50062294  1
  Sn  Sn35  1  0.49891551  0.50029127  0.50015163  1
  Sn  Sn36  1  0.16742934  0.50010601  0.49990153  1
  Sn  Sn37  1  0.83262041  0.16538974  0.50117139  1
  Sn  Sn38  1  0.83308882  0.83443562  0.49853311  1
  Sn  Sn39  1  0.49804780  0.83335985  0.83294291  1
  Sn  Sn40  1  0.83357926  0.83341220  0.16812411  1
  Pb  Pb41  1  0.16665683  0.49672309  0.16959541  1
  Pb  Pb42  1  0.16663468  0.83132114  0.50177430  1
  Pb  Pb43  1  0.16641999  0.16805997  0.50047096  1
  Pb  Pb44  1  0.16433332  0.83559702  0.16381425  1
  Pb  Pb45  1  0.50241738  0.50314799  0.83109711  1
  Pb  Pb46  1  0.50014685  0.49679247  0.16974802  1
  Pb  Pb47  1  0.49997256  0.16520486  0.83299298  1
  Pb  Pb48  1  0.50132430  0.83544781  0.16713176  1
  Pb  Pb49  1  0.83327835  0.16536695  0.16670300  1
  Pb  Pb50  1  0.83289580  0.50009130  0.50115198  1
  Pb  Pb51  1  0.83324824  0.83384397  0.83283772  1
  Pb  Pb52  1  0.83325840  0.50323177  0.16333022  1
  Pb  Pb53  1  0.16530739  0.49956377  0.83176176  1
  I  I54  1  0.16996063  0.00345967  0.16743729  1
  I  I55  1  0.16797414  0.00008629  0.49906680  1
  I  I56  1  0.16278722  0.00091525  0.83507250  1
  I  I57  1  0.16914180  0.32878621  0.15896841  1
  I  I58  1  0.17047765  0.33563031  0.50228948  1
  I  I59  1  0.16354122  0.33008608  0.83563920  1
  I  I60  1  0.16489336  0.66677683  0.16537923  1
  I  I61  1  0.16902590  0.66371262  0.50399248  1
  I  I62  1  0.16615523  0.66905819  0.82959743  1
  I  I63  1  0.49740071  0.00322977  0.17290649  1
  I  I64  1  0.50574362  0.00011487  0.50053533  1
  I  I65  1  0.50206617  -0.00266764  0.82729655  1
  I  I66  1  0.49820020  0.32857585  0.17016035  1
  I  I67  1  0.50057273  0.33224171  0.49527981  1
  I  I68  1  0.49844436  0.33332679  0.83262643  1
  I  I69  1  0.50212679  0.66685464  0.16624311  1
  I  I70  1  0.50192679  0.66780525  0.50701192  1
  I  I71  1  0.49792804  0.67121968  0.82754651  1
  I  I72  1  0.83262706  -0.00228018  0.16536678  1
  I  I73  1  0.82590931  0.00050757  0.50295905  1
  I  I74  1  0.83468058  0.00254605  0.83218608  1
  I  I75  1  0.83378759  0.33310519  0.16932967  1
  I  I76  1  0.83077868  0.33046225  0.50235226  1
  I  I77  1  0.83911967  0.33107625  0.82658327  1
  I  I78  1  0.83177413  0.67105883  0.17247505  1
  I  I79  1  0.83019861  0.66941072  0.49972048  1
  I  I80  1  0.83351312  0.66545577  0.83182953  1
  I  I81  1  0.16501860  0.16192896  -0.00122796  1
  I  I82  1  0.16727984  0.16919830  0.33162425  1
  I  I83  1  0.16480340  0.16413762  0.66934458  1
  I  I84  1  0.16415771  0.50220625  -0.00006756  1
  I  I85  1  0.16949416  0.50002968  0.33745416  1
  I  I86  1  0.16988986  0.49700642  0.66406242  1
  I  I87  1  0.16942492  0.83425595  -0.00430886  1
  I  I88  1  0.16785791  0.83360954  0.33326933  1
  I  I89  1  0.16466880  0.84056413  0.66965858  1
  I  I90  1  0.50063786  0.16260443  0.00177142  1
  I  I91  1  0.50018314  0.16487645  0.33516022  1
  I  I92  1  0.50122232  0.16758540  0.66351973  1
  I  I93  1  0.50167245  0.50044940  -0.00015186  1
  I  I94  1  0.49776755  0.50634178  0.33816958  1
  I  I95  1  0.49699416  0.49349376  0.66295842  1
  I  I96  1  0.50087454  0.83681170  -0.00237811  1
  I  I97  1  0.50337490  0.83183189  0.33690379  1
  I  I98  1  0.50370334  0.83633720  0.66519845  1
  I  I99  1  0.83416553  0.16702295  -0.00264179  1
  I  I100  1  0.83257149  0.16483748  0.33624117  1
  I  I101  1  0.83330637  0.16392287  0.66617763  1
  I  I102  1  0.83542710  0.49420192  -0.00451567  1
  I  I103  1  0.83375535  0.49741808  0.33348444  1
  I  I104  1  0.83383221  0.50106706  0.66887828  1
  I  I105  1  0.83304681  0.83434606  0.00125546  1
  I  I106  1  0.82736078  0.83939437  0.33560201  1
  I  I107  1  0.83146160  0.83416656  0.66409116  1
  I  I108  1  0.00198716  0.16469258  0.16562880  1
  I  I109  1  -0.00285210  0.16407445  0.50092800  1
  I  I110  1  -0.00026892  0.16335340  0.83306385  1
  I  I111  1  -0.00005561  0.49743694  0.17115283  1
  I  I112  1  0.00144788  0.49908577  0.50273963  1
  I  I113  1  -0.00257684  0.50232721  0.82836073  1
  I  I114  1  -0.00339004  0.83655244  0.17183746  1
  I  I115  1  -0.00299421  0.83697107  0.49930109  1
  I  I116  1  0.00172573  0.83454702  0.83346572  1
  I  I117  1  0.33361664  0.16474612  0.16812492  1
  I  I118  1  0.33613230  0.16447229  0.49910714  1
  I  I119  1  0.33091507  0.16333549  0.83351263  1
  I  I120  1  0.33342266  0.50348277  0.16350195  1
  I  I121  1  0.33462173  0.49807936  0.50248487  1
  I  I122  1  0.33362943  0.49788119  0.83239628  1
  I  I123  1  0.33318417  0.83368953  0.16854242  1
  I  I124  1  0.33652289  0.83686848  0.50335536  1
  I  I125  1  0.33350146  0.84062046  0.82594584  1
  I  I126  1  0.66454727  0.16462070  0.16825636  1
  I  I127  1  0.66641501  0.16802836  0.49994048  1
  I  I128  1  0.66922228  0.16752322  0.83212091  1
  I  I129  1  0.66671103  0.49679063  0.16855152  1
  I  I130  1  0.66395208  0.49992627  0.50208464  1
  I  I131  1  0.67005393  0.49418684  0.83008069  1
  I  I132  1  0.66919001  0.83730774  0.16431947  1
  I  I133  1  0.66623577  0.83239990  0.50333778  1
  I  I134  1  0.66475499  0.83354072  0.83134908  1
