# generated using pymatgen
data_Cs27Sn13Pb14I81
_symmetry_space_group_name_H-M   'P 1'
_cell_length_a   18.98195253
_cell_length_b   18.97747862
_cell_length_c   18.97215708
_cell_angle_alpha   89.99986336
_cell_angle_beta   90.00156382
_cell_angle_gamma   89.99923074
_symmetry_Int_Tables_number   1
_chemical_formula_structural   Cs27Sn13Pb14I81
_chemical_formula_sum   'Cs27 Sn13 Pb14 I81'
_cell_volume   6834.33251731
_cell_formula_units_Z   1
loop_
 _symmetry_equiv_pos_site_id
 _symmetry_equiv_pos_as_xyz
  1  'x, y, z'
loop_
 _atom_site_type_symbol
 _atom_site_label
 _atom_site_symmetry_multiplicity
 _atom_site_fract_x
 _atom_site_fract_y
 _atom_site_fract_z
 _atom_site_occupancy
  Cs  Cs0  1  0.00395068  0.00342383  -0.00125559  1
  Cs  Cs1  1  0.00519606  0.00063067  0.33295350  1
  Cs  Cs2  1  0.00056249  0.00446750  0.66564584  1
  Cs  Cs3  1  -0.00412192  0.32720069  -0.00991659  1
  Cs  Cs4  1  0.00353600  0.33495779  0.33332114  1
  Cs  Cs5  1  -0.00125805  0.33083473  0.67537943  1
  Cs  Cs6  1  0.00305732  0.66865684  0.00224793  1
  Cs  Cs7  1  -0.00112470  0.66658702  0.33313056  1
  Cs  Cs8  1  -0.00491986  0.66373035  0.66481677  1
  Cs  Cs9  1  0.32576581  -0.00377747  0.00159572  1
  Cs  Cs10  1  0.33242461  0.00084928  0.33374893  1
  Cs  Cs11  1  0.33409168  -0.00046645  0.66609767  1
  Cs  Cs12  1  0.33340269  0.33535635  -0.00024759  1
  Cs  Cs13  1  0.33495104  0.33496767  0.33431582  1
  Cs  Cs14  1  0.33268255  0.33320571  0.66510585  1
  Cs  Cs15  1  0.33214682  0.66848509  -0.00541619  1
  Cs  Cs16  1  0.33354053  0.66505707  0.33290604  1
  Cs  Cs17  1  0.33523278  0.66730553  0.67080457  1
  Cs  Cs18  1  0.66808758  0.00106955  0.00071474  1
  Cs  Cs19  1  0.66582663  -0.00075810  0.33377411  1
  Cs  Cs20  1  0.66512589  -0.00103973  0.66457306  1
  Cs  Cs21  1  0.66954243  0.32929197  -0.00001208  1
  Cs  Cs22  1  0.66423655  0.33339902  0.33193557  1
  Cs  Cs23  1  0.66740334  0.33294939  0.66781796  1
  Cs  Cs24  1  0.66520521  0.66793012  0.00122056  1
  Cs  Cs25  1  0.66770481  0.66701905  0.33397386  1
  Cs  Cs26  1  0.66834829  0.66659003  0.66750573  1
  Sn  Sn27  1  0.83328885  0.50040811  0.16684307  1
  Sn  Sn28  1  0.16674613  0.49999671  0.16715144  1
  Sn  Sn29  1  0.83277765  0.83290283  0.16583690  1
  Sn  Sn30  1  0.16762965  0.83199088  0.49991177  1
  Sn  Sn31  1  0.83268206  0.16694675  0.49908596  1
  Sn  Sn32  1  0.50003669  0.50112673  0.16733312  1
  Sn  Sn33  1  0.50106807  0.16678179  0.50080523  1
  Sn  Sn34  1  0.83312926  0.83313469  0.83432592  1
  Sn  Sn35  1  0.50054176  0.83254835  0.16744308  1
  Sn  Sn36  1  0.49961624  0.50048522  0.49961939  1
  Sn  Sn37  1  0.16734566  0.50113663  0.49961873  1
  Sn  Sn38  1  0.49931650  0.83280122  0.49932371  1
  Sn  Sn39  1  0.49973130  0.16626766  0.83297661  1
  Pb  Pb40  1  0.16669323  0.17033100  0.16675212  1
  Pb  Pb41  1  0.17007964  0.16648769  0.83316744  1
  Pb  Pb42  1  0.16738398  0.16745980  0.49995919  1
  Pb  Pb43  1  0.50020173  0.49805372  0.83354415  1
  Pb  Pb44  1  0.16676496  0.50024384  0.83285419  1
  Pb  Pb45  1  0.83331025  0.16616018  0.16889400  1
  Pb  Pb46  1  0.83335936  0.83480313  0.49909218  1
  Pb  Pb47  1  0.49980776  0.16632749  0.16694576  1
  Pb  Pb48  1  0.83297772  0.50245750  0.83668717  1
  Pb  Pb49  1  0.50130491  0.83516170  0.83368507  1
  Pb  Pb50  1  0.16369999  0.83306742  0.82985338  1
  Pb  Pb51  1  0.16685954  0.83145989  0.16863145  1
  Pb  Pb52  1  0.83117813  0.16407145  0.83097715  1
  Pb  Pb53  1  0.83337681  0.49783638  0.49822433  1
  I  I54  1  0.16668027  -0.00048208  0.16834132  1
  I  I55  1  0.16918165  -0.00251754  0.50023571  1
  I  I56  1  0.16604230  -0.00034946  0.83182416  1
  I  I57  1  0.16908965  0.33895383  0.17564298  1
  I  I58  1  0.17058443  0.33686402  0.49439360  1
  I  I59  1  0.16504030  0.33338024  0.83213313  1
  I  I60  1  0.16629202  0.66336615  0.17018699  1
  I  I61  1  0.17336913  0.66608715  0.49608940  1
  I  I62  1  0.16831589  0.66681878  0.83444375  1
  I  I63  1  0.50630286  -0.00346715  0.17062938  1
  I  I64  1  0.50047960  -0.00071102  0.49981903  1
  I  I65  1  0.50257264  0.00276892  0.82698459  1
  I  I66  1  0.50010103  0.33675812  0.17011250  1
  I  I67  1  0.49973615  0.33408158  0.49915859  1
  I  I68  1  0.50098411  0.33019725  0.82840439  1
  I  I69  1  0.50182584  0.66644598  0.17445955  1
  I  I70  1  0.49575671  0.66672511  0.49490992  1
  I  I71  1  0.50108618  0.66692768  0.83083730  1
  I  I72  1  0.82671564  -0.00362480  0.16496316  1
  I  I73  1  0.82827135  0.00241309  0.49914477  1
  I  I74  1  0.83195048  -0.00331040  0.84005315  1
  I  I75  1  0.83161920  0.33649950  0.17052033  1
  I  I76  1  0.82813315  0.33032502  0.49767073  1
  I  I77  1  0.83364932  0.33301347  0.83396458  1
  I  I78  1  0.83176211  0.66680528  0.16457180  1
  I  I79  1  0.83180000  0.66664492  0.50226569  1
  I  I80  1  0.83117376  0.67021759  0.83107663  1
  I  I81  1  0.16750778  0.16723375  -0.00009134  1
  I  I82  1  0.16790513  0.16370729  0.33380604  1
  I  I83  1  0.16325534  0.16879896  0.66610286  1
  I  I84  1  0.16873958  0.50007816  0.00360838  1
  I  I85  1  0.16795277  0.50354731  0.33391527  1
  I  I86  1  0.17259026  0.50281474  0.66257932  1
  I  I87  1  0.16954119  0.83218735  0.00023741  1
  I  I88  1  0.16592842  0.83216038  0.33668567  1
  I  I89  1  0.17235794  0.82808568  0.66172258  1
  I  I90  1  0.50082181  0.16765463  -0.00223026  1
  I  I91  1  0.50323167  0.16689809  0.33676449  1
  I  I92  1  0.50406344  0.16628164  0.66405897  1
  I  I93  1  0.49898336  0.50316833  0.00396428  1
  I  I94  1  0.49948096  0.49824584  0.33373773  1
  I  I95  1  0.49509967  0.50216422  0.66292503  1
  I  I96  1  0.50271301  0.82997702  0.00334240  1
  I  I97  1  0.50275783  0.83459767  0.33398609  1
  I  I98  1  0.49859169  0.83161201  0.66331704  1
  I  I99  1  0.83166599  0.16914813  -0.00008106  1
  I  I100  1  0.82521486  0.16424532  0.33665939  1
  I  I101  1  0.83141067  0.16522093  0.66311120  1
  I  I102  1  0.83213506  0.49957266  0.00515978  1
  I  I103  1  0.83254456  0.50680240  0.33008703  1
  I  I104  1  0.83384851  0.50029362  0.66652769  1
  I  I105  1  0.82639967  0.82918266  0.00189822  1
  I  I106  1  0.83131180  0.83020477  0.33041417  1
  I  I107  1  0.83331122  0.83722825  0.66784948  1
  I  I108  1  -0.00018496  0.16541274  0.17019331  1
  I  I109  1  -0.00219882  0.16477781  0.49836710  1
  I  I110  1  -0.00033099  0.16665639  0.83138721  1
  I  I111  1  -0.00006417  0.50483304  0.17272750  1
  I  I112  1  0.00272428  0.50384332  0.49483134  1
  I  I113  1  -0.00018945  0.49905508  0.83137018  1
  I  I114  1  -0.00257496  0.82911858  0.16556720  1
  I  I115  1  0.00222506  0.83073502  0.49996531  1
  I  I116  1  -0.00397363  0.83369024  0.83964069  1
  I  I117  1  0.33366010  0.16503073  0.16821879  1
  I  I118  1  0.33699862  0.16660373  0.50338625  1
  I  I119  1  0.33786831  0.16619975  0.82493897  1
  I  I120  1  0.33439227  0.50234049  0.17193811  1
  I  I121  1  0.33465560  0.49805257  0.49227986  1
  I  I122  1  0.33360102  0.49922001  0.83767177  1
  I  I123  1  0.33649984  0.83103874  0.16923358  1
  I  I124  1  0.33527797  0.83566261  0.49477847  1
  I  I125  1  0.33338432  0.83545510  0.83552988  1
  I  I126  1  0.66641828  0.17145212  0.16606160  1
  I  I127  1  0.66448192  0.16587991  0.50293208  1
  I  I128  1  0.66364472  0.16695086  0.83019938  1
  I  I129  1  0.66570871  0.50396255  0.17123632  1
  I  I130  1  0.66338263  0.50206009  0.49599352  1
  I  I131  1  0.66657181  0.49942667  0.83155555  1
  I  I132  1  0.66592338  0.82601825  0.16908112  1
  I  I133  1  0.66359240  0.83182410  0.49909662  1
  I  I134  1  0.66912075  0.83438415  0.83264350  1
