# generated using pymatgen
data_Cs27Sn13Pb14I81
_symmetry_space_group_name_H-M   'P 1'
_cell_length_a   18.97612872
_cell_length_b   18.99496084
_cell_length_c   19.00266535
_cell_angle_alpha   90.00082932
_cell_angle_beta   89.99909639
_cell_angle_gamma   89.99983116
_symmetry_Int_Tables_number   1
_chemical_formula_structural   Cs27Sn13Pb14I81
_chemical_formula_sum   'Cs27 Sn13 Pb14 I81'
_cell_volume   6849.52634382
_cell_formula_units_Z   1
loop_
 _symmetry_equiv_pos_site_id
 _symmetry_equiv_pos_as_xyz
  1  'x, y, z'
loop_
 _atom_site_type_symbol
 _atom_site_label
 _atom_site_symmetry_multiplicity
 _atom_site_fract_x
 _atom_site_fract_y
 _atom_site_fract_z
 _atom_site_occupancy
  Cs  Cs0  1  -0.00171275  -0.00389611  0.00031858  1
  Cs  Cs1  1  -0.00070558  -0.00143451  0.32980791  1
  Cs  Cs2  1  -0.00666108  0.00033781  0.67015429  1
  Cs  Cs3  1  0.00196265  0.33009752  0.00100307  1
  Cs  Cs4  1  0.00340392  0.33430234  0.33201469  1
  Cs  Cs5  1  0.00033672  0.33191650  0.66690324  1
  Cs  Cs6  1  -0.00420946  0.67758023  0.00287703  1
  Cs  Cs7  1  -0.00620999  0.66729429  0.33139967  1
  Cs  Cs8  1  -0.00490632  0.66865673  0.66653915  1
  Cs  Cs9  1  0.33319859  -0.00204805  -0.00195827  1
  Cs  Cs10  1  0.33544138  -0.00008903  0.33434863  1
  Cs  Cs11  1  0.33388736  -0.00135415  0.66711565  1
  Cs  Cs12  1  0.33375724  0.33360339  -0.00065330  1
  Cs  Cs13  1  0.33229994  0.33233395  0.33323455  1
  Cs  Cs14  1  0.33153703  0.33507451  0.66662383  1
  Cs  Cs15  1  0.33395239  0.66853641  -0.00212585  1
  Cs  Cs16  1  0.33215055  0.66811333  0.33815909  1
  Cs  Cs17  1  0.33383520  0.66655391  0.66440356  1
  Cs  Cs18  1  0.66476549  0.00028057  -0.00228673  1
  Cs  Cs19  1  0.66296956  0.00258888  0.33643414  1
  Cs  Cs20  1  0.67105349  0.00287779  0.66609254  1
  Cs  Cs21  1  0.66614098  0.34307717  0.00047897  1
  Cs  Cs22  1  0.66716392  0.33073862  0.33070663  1
  Cs  Cs23  1  0.67773346  0.33191801  0.66833508  1
  Cs  Cs24  1  0.66877535  0.65567542  0.00186311  1
  Cs  Cs25  1  0.67427542  0.66660362  0.33206753  1
  Cs  Cs26  1  0.66912238  0.66418769  0.66754522  1
  Sn  Sn27  1  0.49917332  0.16664479  0.83304129  1
  Sn  Sn28  1  0.16730962  0.50011022  0.16634105  1
  Sn  Sn29  1  0.16717664  0.16617660  0.50020702  1
  Sn  Sn30  1  0.49966919  0.83363473  0.83294023  1
  Sn  Sn31  1  0.16688745  0.83341450  0.50014037  1
  Sn  Sn32  1  0.16763184  0.16700666  0.83334743  1
  Sn  Sn33  1  0.16687687  0.50002001  0.83351874  1
  Sn  Sn34  1  0.83356761  0.16663458  0.16645784  1
  Sn  Sn35  1  0.49925010  0.83234715  0.50022284  1
  Sn  Sn36  1  0.49947476  0.50014186  0.50013033  1
  Sn  Sn37  1  0.16640326  0.16691901  0.16645181  1
  Sn  Sn38  1  0.49974004  0.83302462  0.16682159  1
  Sn  Sn39  1  0.16725069  0.50035090  0.50010362  1
  Pb  Pb40  1  0.83366762  0.49975714  0.49990537  1
  Pb  Pb41  1  0.49724863  0.50223725  0.16943655  1
  Pb  Pb42  1  0.16807437  0.83340350  0.83087488  1
  Pb  Pb43  1  0.82966863  0.83611375  0.16672544  1
  Pb  Pb44  1  0.83766825  0.49985029  0.83347466  1
  Pb  Pb45  1  0.49807905  0.49973097  0.83083204  1
  Pb  Pb46  1  0.49918876  0.16541232  0.16431472  1
  Pb  Pb47  1  0.49824686  0.16714621  0.50245417  1
  Pb  Pb48  1  0.83670002  0.16668222  0.49737721  1
  Pb  Pb49  1  0.16839054  0.83351236  0.16887131  1
  Pb  Pb50  1  0.82911275  0.83331873  0.83345196  1
  Pb  Pb51  1  0.83659957  0.49754404  0.16673873  1
  Pb  Pb52  1  0.83369661  0.16680718  0.83596320  1
  Pb  Pb53  1  0.83268293  0.83352638  0.49997153  1
  I  I54  1  0.16423215  0.00309421  0.16667957  1
  I  I55  1  0.17181790  0.00015219  0.49880138  1
  I  I56  1  0.16906671  0.00300732  0.83394641  1
  I  I57  1  0.16371603  0.33258978  0.17092337  1
  I  I58  1  0.17031414  0.33357482  0.49950022  1
  I  I59  1  0.17231400  0.33226074  0.82976426  1
  I  I60  1  0.17064594  0.66412360  0.16671639  1
  I  I61  1  0.17216081  0.66622810  0.50022609  1
  I  I62  1  0.16917949  0.66406120  0.83310979  1
  I  I63  1  0.49749425  -0.00257885  0.17215693  1
  I  I64  1  0.49512661  -0.00285890  0.49799336  1
  I  I65  1  0.49292633  0.00001368  0.83238095  1
  I  I66  1  0.50239756  0.33346757  0.16668564  1
  I  I67  1  0.49334663  0.33597563  0.50078061  1
  I  I68  1  0.49629768  0.33075142  0.83317276  1
  I  I69  1  0.49678124  0.67011677  0.16115043  1
  I  I70  1  0.48965626  0.66764933  0.50207624  1
  I  I71  1  0.49760827  0.66929418  0.83422795  1
  I  I72  1  0.84411998  0.00334874  0.16624374  1
  I  I73  1  0.83304120  0.00016255  0.49947204  1
  I  I74  1  0.83849286  0.00022713  0.83378479  1
  I  I75  1  0.83431508  0.32987006  0.16663991  1
  I  I76  1  0.83119706  0.33317122  0.50018265  1
  I  I77  1  0.82668121  0.33312263  0.83340584  1
  I  I78  1  0.83415558  0.66667539  0.16660863  1
  I  I79  1  0.83836159  0.66667471  0.49857649  1
  I  I80  1  0.83400294  0.66661982  0.83416247  1
  I  I81  1  0.16706661  0.17407689  -0.00009501  1
  I  I82  1  0.16241583  0.16951932  0.33341337  1
  I  I83  1  0.17284232  0.16978422  0.66678745  1
  I  I84  1  0.16708407  0.49040786  -0.00003751  1
  I  I85  1  0.17055364  0.49591651  0.33399424  1
  I  I86  1  0.17133167  0.49632105  0.66598363  1
  I  I87  1  0.16910825  0.83268084  -0.00010069  1
  I  I88  1  0.17354442  0.83418258  0.33682662  1
  I  I89  1  0.17357777  0.83315074  0.66294257  1
  I  I90  1  0.49357541  0.16020024  -0.00336352  1
  I  I91  1  0.49966316  0.16486086  0.33350376  1
  I  I92  1  0.49277978  0.16078881  0.67003919  1
  I  I93  1  0.49884288  0.50154861  -0.00016887  1
  I  I94  1  0.49251085  0.50423314  0.33717140  1
  I  I95  1  0.49114005  0.50631588  0.66333669  1
  I  I96  1  0.49886000  0.84065385  -0.00053264  1
  I  I97  1  0.49496092  0.83031333  0.33450900  1
  I  I98  1  0.49380279  0.83342021  0.66599730  1
  I  I99  1  0.84139014  0.16557330  0.00314565  1
  I  I100  1  0.83805695  0.16653470  0.32979625  1
  I  I101  1  0.83344557  0.16626154  0.66685744  1
  I  I102  1  0.83111391  0.49916270  0.00021726  1
  I  I103  1  0.83519537  0.49962523  0.33324999  1
  I  I104  1  0.83448899  0.49932911  0.66659725  1
  I  I105  1  0.83534981  0.83485583  0.00023117  1
  I  I106  1  0.83208263  0.83398900  0.33327108  1
  I  I107  1  0.83397038  0.83466913  0.66658823  1
  I  I108  1  0.00285859  0.17081578  0.16605572  1
  I  I109  1  0.00571075  0.16783335  0.50625849  1
  I  I110  1  0.00398096  0.17192426  0.83014569  1
  I  I111  1  0.00507816  0.49935362  0.17073404  1
  I  I112  1  0.00475874  0.49995676  0.49993521  1
  I  I113  1  0.00603955  0.49173488  0.82876431  1
  I  I114  1  0.00018384  0.83077323  0.16876321  1
  I  I115  1  0.00350822  0.83221655  0.49944756  1
  I  I116  1  0.00019173  0.83319236  0.83171198  1
  I  I117  1  0.32960160  0.16952498  0.16878393  1
  I  I118  1  0.32953826  0.16683027  0.49439749  1
  I  I119  1  0.33165452  0.16607516  0.83577816  1
  I  I120  1  0.32927451  0.49134366  0.16548816  1
  I  I121  1  0.33135553  0.50150866  0.49988083  1
  I  I122  1  0.32977552  0.49757583  0.83453234  1
  I  I123  1  0.33613499  0.83667340  0.16556446  1
  I  I124  1  0.33345015  0.83253515  0.49957354  1
  I  I125  1  0.33622333  0.83555168  0.83480530  1
  I  I126  1  0.66844974  0.16203314  0.16538270  1
  I  I127  1  0.66650811  0.16616017  0.49992622  1
  I  I128  1  0.66366310  0.16017919  0.83346963  1
  I  I129  1  0.66644965  0.49930178  0.16810678  1
  I  I130  1  0.66337132  0.50711290  0.50078483  1
  I  I131  1  0.66638157  0.49975178  0.83149362  1
  I  I132  1  0.66179380  0.83564946  0.17020934  1
  I  I133  1  0.66233660  0.82840560  0.50003257  1
  I  I134  1  0.66072965  0.84182112  0.82892577  1
