# generated using pymatgen
data_Cs27Sn14Pb13I81
_symmetry_space_group_name_H-M   'P 1'
_cell_length_a   18.98208566
_cell_length_b   18.97194636
_cell_length_c   18.97076667
_cell_angle_alpha   90.00172990
_cell_angle_beta   89.99919578
_cell_angle_gamma   89.99862262
_symmetry_Int_Tables_number   1
_chemical_formula_structural   Cs27Sn14Pb13I81
_chemical_formula_sum   'Cs27 Sn14 Pb13 I81'
_cell_volume   6831.88738963
_cell_formula_units_Z   1
loop_
 _symmetry_equiv_pos_site_id
 _symmetry_equiv_pos_as_xyz
  1  'x, y, z'
loop_
 _atom_site_type_symbol
 _atom_site_label
 _atom_site_symmetry_multiplicity
 _atom_site_fract_x
 _atom_site_fract_y
 _atom_site_fract_z
 _atom_site_occupancy
  Cs  Cs0  1  0.00065447  -0.00672644  0.00399659  1
  Cs  Cs1  1  0.00118835  0.00816658  0.33202730  1
  Cs  Cs2  1  -0.00041951  -0.00018893  0.66477820  1
  Cs  Cs3  1  -0.00146308  0.33709582  -0.00410435  1
  Cs  Cs4  1  -0.00382389  0.32795105  0.33472475  1
  Cs  Cs5  1  0.00024131  0.33264735  0.66711035  1
  Cs  Cs6  1  -0.00105910  0.66596127  0.00191831  1
  Cs  Cs7  1  0.00019314  0.66561015  0.33541006  1
  Cs  Cs8  1  0.00070675  0.66662232  0.66639480  1
  Cs  Cs9  1  0.33446690  -0.00052055  0.00786729  1
  Cs  Cs10  1  0.33327244  0.00178167  0.32083959  1
  Cs  Cs11  1  0.33323524  0.00068111  0.66734037  1
  Cs  Cs12  1  0.33449361  0.33483829  -0.00300578  1
  Cs  Cs13  1  0.33378017  0.33310361  0.33256299  1
  Cs  Cs14  1  0.33412168  0.33386414  0.66817825  1
  Cs  Cs15  1  0.33116004  0.66368585  -0.00076075  1
  Cs  Cs16  1  0.33438388  0.66668243  0.33728477  1
  Cs  Cs17  1  0.33272620  0.66624077  0.66440505  1
  Cs  Cs18  1  0.66534859  -0.00940443  0.00416070  1
  Cs  Cs19  1  0.66397905  0.00460292  0.32448000  1
  Cs  Cs20  1  0.66643501  -0.00162561  0.66822217  1
  Cs  Cs21  1  0.66520372  0.33426947  -0.00056319  1
  Cs  Cs22  1  0.66941861  0.33154880  0.33061413  1
  Cs  Cs23  1  0.66544759  0.33297652  0.66745923  1
  Cs  Cs24  1  0.67154303  0.67159679  0.00011162  1
  Cs  Cs25  1  0.66652710  0.66714648  0.33825090  1
  Cs  Cs26  1  0.66615680  0.66971066  0.66390479  1
  Sn  Sn27  1  0.16722156  0.49985312  0.16712694  1
  Sn  Sn28  1  0.50029664  0.16706711  0.83236062  1
  Sn  Sn29  1  0.49957716  0.50007150  0.16573619  1
  Sn  Sn30  1  0.50034101  0.49989476  0.83391893  1
  Sn  Sn31  1  0.83412009  0.50043076  0.50120830  1
  Sn  Sn32  1  0.16670052  0.50001582  0.83288716  1
  Sn  Sn33  1  0.16658341  0.16619249  0.83306011  1
  Sn  Sn34  1  0.83311166  0.49957837  0.83209161  1
  Sn  Sn35  1  0.16598511  0.83325793  0.50071345  1
  Sn  Sn36  1  0.16699911  0.83319090  0.83244991  1
  Sn  Sn37  1  0.49963229  0.16649535  0.50084697  1
  Sn  Sn38  1  0.83417472  0.83330568  0.50013820  1
  Sn  Sn39  1  0.83302190  0.16678613  0.83318220  1
  Sn  Sn40  1  0.16581086  0.50014481  0.49996100  1
  Pb  Pb41  1  0.83391842  0.83297050  0.17101044  1
  Pb  Pb42  1  0.16635893  0.17005383  0.16304901  1
  Pb  Pb43  1  0.83341771  0.50007260  0.16685434  1
  Pb  Pb44  1  0.50017061  0.49851893  0.50031382  1
  Pb  Pb45  1  0.16863641  0.16657370  0.50171681  1
  Pb  Pb46  1  0.49929200  0.83671190  0.50005153  1
  Pb  Pb47  1  0.16650628  0.83054321  0.16749478  1
  Pb  Pb48  1  0.50001709  0.16931480  0.16526102  1
  Pb  Pb49  1  0.83574944  0.83307300  0.83166697  1
  Pb  Pb50  1  0.83119809  0.16669402  0.50205884  1
  Pb  Pb51  1  0.83341392  0.16695583  0.16236121  1
  Pb  Pb52  1  0.49714320  0.83312007  0.83317557  1
  Pb  Pb53  1  0.49987820  0.82922828  0.16668464  1
  I  I54  1  0.16672570  0.00007218  0.16654692  1
  I  I55  1  0.16298733  -0.00277170  0.50706494  1
  I  I56  1  0.16635014  0.00014901  0.82644480  1
  I  I57  1  0.17100142  0.33812178  0.16775791  1
  I  I58  1  0.16375582  0.33673609  0.50112471  1
  I  I59  1  0.16697040  0.33467848  0.83355459  1
  I  I60  1  0.17055934  0.66245676  0.16083967  1
  I  I61  1  0.16418878  0.66513866  0.50485350  1
  I  I62  1  0.16693379  0.66495302  0.83327572  1
  I  I63  1  0.50055066  0.00017307  0.16716998  1
  I  I64  1  0.50058886  0.00424063  0.50952721  1
  I  I65  1  0.50056381  0.00331680  0.82781060  1
  I  I66  1  0.49516531  0.33701924  0.16441831  1
  I  I67  1  0.49937289  0.33099938  0.50316127  1
  I  I68  1  0.49589508  0.33427442  0.83308306  1
  I  I69  1  0.49490349  0.66137251  0.16071680  1
  I  I70  1  0.50034797  0.66652732  0.49933237  1
  I  I71  1  0.49987991  0.66292654  0.83736319  1
  I  I72  1  0.83267785  -0.00003658  0.16624825  1
  I  I73  1  0.83778848  -0.00243145  0.50281470  1
  I  I74  1  0.83307583  0.00257258  0.83101737  1
  I  I75  1  0.83370083  0.33386146  0.17298301  1
  I  I76  1  0.83737500  0.33637593  0.50180134  1
  I  I77  1  0.83749630  0.33493695  0.82800758  1
  I  I78  1  0.83247610  0.66615207  0.15978295  1
  I  I79  1  0.83613991  0.66502072  0.50593743  1
  I  I80  1  0.83294801  0.66324754  0.83245389  1
  I  I81  1  0.17028325  0.16592400  -0.00557013  1
  I  I82  1  0.16943409  0.16625665  0.33330734  1
  I  I83  1  0.16541366  0.17230209  0.67034284  1
  I  I84  1  0.16750306  0.49917319  -0.00202482  1
  I  I85  1  0.16800867  0.50606715  0.33446552  1
  I  I86  1  0.16663422  0.50033748  0.66779021  1
  I  I87  1  0.16767132  0.83336331  -0.00302257  1
  I  I88  1  0.16350595  0.82759478  0.33714012  1
  I  I89  1  0.16374118  0.82756784  0.66683279  1
  I  I90  1  0.49881016  0.17008342  -0.00416636  1
  I  I91  1  0.50027291  0.16765469  0.33537614  1
  I  I92  1  0.49933283  0.17366306  0.66907259  1
  I  I93  1  0.49552099  0.49375873  -0.00207927  1
  I  I94  1  0.49602659  0.49815017  0.33150786  1
  I  I95  1  0.49723699  0.49732028  0.66980889  1
  I  I96  1  0.49870484  0.83862457  -0.00031703  1
  I  I97  1  0.49849274  0.83401160  0.33362256  1
  I  I98  1  0.50091124  0.82837675  0.66661243  1
  I  I99  1  0.83160046  0.17588738  -0.00600122  1
  I  I100  1  0.83046921  0.16681799  0.33365521  1
  I  I101  1  0.83577177  0.16970140  0.67032034  1
  I  I102  1  0.83587885  0.49489768  -0.00358823  1
  I  I103  1  0.83568027  0.50470314  0.33681358  1
  I  I104  1  0.83645899  0.49959106  0.66748511  1
  I  I105  1  0.83389549  0.83390310  -0.00021012  1
  I  I106  1  0.83965835  0.82451858  0.33898933  1
  I  I107  1  0.83576773  0.83077499  0.66381910  1
  I  I108  1  0.00014838  0.16904503  0.16852450  1
  I  I109  1  0.00002118  0.16688783  0.50106388  1
  I  I110  1  0.00038995  0.17215033  0.83320578  1
  I  I111  1  0.00303421  0.50105016  0.16255477  1
  I  I112  1  0.00077788  0.50316511  0.50336744  1
  I  I113  1  0.00090118  0.49722980  0.83317996  1
  I  I114  1  0.00041727  0.82975281  0.16164847  1
  I  I115  1  0.00106868  0.82783868  0.50557512  1
  I  I116  1  0.00383375  0.83249630  0.83153029  1
  I  I117  1  0.33320415  0.16498798  0.16621902  1
  I  I118  1  0.33610172  0.16908177  0.50786634  1
  I  I119  1  0.33331278  0.17115351  0.82876482  1
  I  I120  1  0.33258956  0.49961833  0.16242103  1
  I  I121  1  0.33039624  0.50288656  0.50256014  1
  I  I122  1  0.33230721  0.49771631  0.83379595  1
  I  I123  1  0.33299949  0.83575678  0.16858269  1
  I  I124  1  0.32959797  0.82684376  0.50498735  1
  I  I125  1  0.32889838  0.83119317  0.82643384  1
  I  I126  1  0.66645390  0.17022205  0.16752995  1
  I  I127  1  0.66372974  0.16871794  0.50704158  1
  I  I128  1  0.66634016  0.17661260  0.82803581  1
  I  I129  1  0.66390578  0.49828989  0.16292358  1
  I  I130  1  0.66930869  0.50292300  0.50310198  1
  I  I131  1  0.66678035  0.49243418  0.83346269  1
  I  I132  1  0.66684559  0.83199407  0.16663329  1
  I  I133  1  0.66942359  0.82724454  0.50091316  1
  I  I134  1  0.66691287  0.83316543  0.83201359  1
