# generated using pymatgen
data_Cs27Sn14Pb13I81
_symmetry_space_group_name_H-M   'P 1'
_cell_length_a   18.97370230
_cell_length_b   18.97377891
_cell_length_c   18.97783859
_cell_angle_alpha   90.00118011
_cell_angle_beta   90.00081190
_cell_angle_gamma   90.00169746
_symmetry_Int_Tables_number   1
_chemical_formula_structural   Cs27Sn14Pb13I81
_chemical_formula_sum   'Cs27 Sn14 Pb13 I81'
_cell_volume   6832.07564154
_cell_formula_units_Z   1
loop_
 _symmetry_equiv_pos_site_id
 _symmetry_equiv_pos_as_xyz
  1  'x, y, z'
loop_
 _atom_site_type_symbol
 _atom_site_label
 _atom_site_symmetry_multiplicity
 _atom_site_fract_x
 _atom_site_fract_y
 _atom_site_fract_z
 _atom_site_occupancy
  Cs  Cs0  1  -0.00181118  -0.00345175  0.00061599  1
  Cs  Cs1  1  0.00410141  0.00198395  0.33389195  1
  Cs  Cs2  1  -0.00192326  0.00606883  0.66579775  1
  Cs  Cs3  1  0.00862260  0.33650284  -0.00040551  1
  Cs  Cs4  1  -0.00066283  0.33154167  0.33471020  1
  Cs  Cs5  1  -0.00055159  0.32574112  0.66569671  1
  Cs  Cs6  1  -0.00103795  0.66735803  0.00219097  1
  Cs  Cs7  1  -0.00035966  0.66739358  0.33426687  1
  Cs  Cs8  1  0.00029720  0.66767006  0.66371227  1
  Cs  Cs9  1  0.33443920  0.00062643  0.00002794  1
  Cs  Cs10  1  0.33557221  -0.00000445  0.33306506  1
  Cs  Cs11  1  0.33353966  -0.00390903  0.66550258  1
  Cs  Cs12  1  0.32529989  0.33433553  -0.00801991  1
  Cs  Cs13  1  0.33466763  0.33059794  0.33188855  1
  Cs  Cs14  1  0.33397194  0.33553689  0.67786709  1
  Cs  Cs15  1  0.32930457  0.66640027  -0.00184946  1
  Cs  Cs16  1  0.33353328  0.66766508  0.33594228  1
  Cs  Cs17  1  0.33341581  0.66749371  0.66543779  1
  Cs  Cs18  1  0.66764999  0.00043516  -0.00076003  1
  Cs  Cs19  1  0.66371463  0.00165731  0.33223343  1
  Cs  Cs20  1  0.66854888  0.00105045  0.66851262  1
  Cs  Cs21  1  0.66512287  0.33260477  0.00446741  1
  Cs  Cs22  1  0.66643284  0.33440870  0.33112693  1
  Cs  Cs23  1  0.66582267  0.33351072  0.67060431  1
  Cs  Cs24  1  0.67046442  0.66748782  0.00217838  1
  Cs  Cs25  1  0.66678771  0.66511567  0.33418212  1
  Cs  Cs26  1  0.66620220  0.66512317  0.66447697  1
  Sn  Sn27  1  0.16615637  0.50008761  0.49965970  1
  Sn  Sn28  1  0.49989561  0.49991169  0.16664932  1
  Sn  Sn29  1  0.50051162  0.16709191  0.16724694  1
  Sn  Sn30  1  0.83292055  0.16745373  0.16683196  1
  Sn  Sn31  1  0.83275936  0.49905325  0.16661506  1
  Sn  Sn32  1  0.49976319  0.83292615  0.83319523  1
  Sn  Sn33  1  0.49997363  0.16646528  0.49996054  1
  Sn  Sn34  1  0.50033287  0.83403010  0.50004912  1
  Sn  Sn35  1  0.16653746  0.83273487  0.50077211  1
  Sn  Sn36  1  0.50017534  0.83297151  0.16648235  1
  Sn  Sn37  1  0.16682988  0.83319919  0.83236733  1
  Sn  Sn38  1  0.83410005  0.50033105  0.50030759  1
  Sn  Sn39  1  0.83319321  0.49999523  0.83319103  1
  Sn  Sn40  1  0.83317173  0.83324727  0.49973343  1
  Pb  Pb41  1  0.83340564  0.83174427  0.83078028  1
  Pb  Pb42  1  0.83097267  0.16712892  0.49817477  1
  Pb  Pb43  1  0.16933626  0.83328844  0.16714456  1
  Pb  Pb44  1  0.16637480  0.50013403  0.16925261  1
  Pb  Pb45  1  0.50012114  0.16430482  0.83382367  1
  Pb  Pb46  1  0.50191911  0.50275166  0.83650479  1
  Pb  Pb47  1  0.16650365  0.16307447  0.83312717  1
  Pb  Pb48  1  0.16994754  0.16680577  0.50008411  1
  Pb  Pb49  1  0.83137701  0.83331814  0.16914984  1
  Pb  Pb50  1  0.16700148  0.16671488  0.16672451  1
  Pb  Pb51  1  0.83316236  0.16966998  0.83682268  1
  Pb  Pb52  1  0.50002671  0.49961059  0.49866299  1
  Pb  Pb53  1  0.16392278  0.50253048  0.83028884  1
  I  I54  1  0.16530832  -0.00022643  0.16841193  1
  I  I55  1  0.16426273  -0.00361233  0.50369206  1
  I  I56  1  0.17074828  -0.00504824  0.82620471  1
  I  I57  1  0.17152375  0.33361473  0.16872851  1
  I  I58  1  0.16119655  0.33624432  0.49703965  1
  I  I59  1  0.16647290  0.33385490  0.83274202  1
  I  I60  1  0.16705904  0.66676888  0.16522164  1
  I  I61  1  0.16818481  0.66809191  0.50262635  1
  I  I62  1  0.17244177  0.67016670  0.83111012  1
  I  I63  1  0.50338319  -0.00024792  0.16816851  1
  I  I64  1  0.49968566  -0.00218451  0.49498140  1
  I  I65  1  0.49707124  -0.00420336  0.83678047  1
  I  I66  1  0.50634813  0.33318503  0.17460114  1
  I  I67  1  0.50093436  0.33103511  0.49282986  1
  I  I68  1  0.50118432  0.33369540  0.83201061  1
  I  I69  1  0.50437910  0.66692277  0.16797201  1
  I  I70  1  0.49998577  0.66964787  0.49886736  1
  I  I71  1  0.49676633  0.67080953  0.83041007  1
  I  I72  1  0.82842162  0.00218176  0.16886974  1
  I  I73  1  0.83524832  -0.00271946  0.49867848  1
  I  I74  1  0.83384447  -0.00023419  0.83352091  1
  I  I75  1  0.82352948  0.33472940  0.16940977  1
  I  I76  1  0.83691914  0.33666868  0.50081022  1
  I  I77  1  0.83214116  0.33770988  0.82578314  1
  I  I78  1  0.82885568  0.66365575  0.16591493  1
  I  I79  1  0.83146461  0.66634888  0.49763048  1
  I  I80  1  0.83219334  0.66393130  0.83900865  1
  I  I81  1  0.16880120  0.16611058  -0.00002226  1
  I  I82  1  0.16576244  0.16348752  0.33364640  1
  I  I83  1  0.16780580  0.16966927  0.66623451  1
  I  I84  1  0.16638670  0.50109289  -0.00030265  1
  I  I85  1  0.16173391  0.50819659  0.33699858  1
  I  I86  1  0.16371575  0.50296631  0.66249084  1
  I  I87  1  0.17161447  0.83408936  -0.00275113  1
  I  I88  1  0.16717715  0.82992211  0.33710217  1
  I  I89  1  0.17311060  0.82866607  0.66506066  1
  I  I90  1  0.50484505  0.16492653  0.00370815  1
  I  I91  1  0.50301907  0.16096879  0.33247481  1
  I  I92  1  0.49946722  0.16161275  0.66389850  1
  I  I93  1  0.50596327  0.49955662  0.00475421  1
  I  I94  1  0.50536341  0.50456556  0.33055124  1
  I  I95  1  0.50094182  0.49959673  0.66675058  1
  I  I96  1  0.49576711  0.83292727  0.00051242  1
  I  I97  1  0.50034560  0.83405965  0.33391123  1
  I  I98  1  0.49916771  0.83767588  0.66527278  1
  I  I99  1  0.82456378  0.16878819  0.00488287  1
  I  I100  1  0.82970993  0.17196959  0.33035406  1
  I  I101  1  0.83201933  0.16706316  0.66649472  1
  I  I102  1  0.82665578  0.49658311  0.00132348  1
  I  I103  1  0.83269915  0.50075213  0.33343121  1
  I  I104  1  0.83705911  0.50700011  0.66520583  1
  I  I105  1  0.83321096  0.83238349  0.00018972  1
  I  I106  1  0.83359147  0.82723894  0.33726585  1
  I  I107  1  0.82820686  0.82759969  0.66266994  1
  I  I108  1  -0.00331042  0.17260843  0.16716621  1
  I  I109  1  -0.00015039  0.16368832  0.49793612  1
  I  I110  1  -0.00034476  0.16400350  0.83426339  1
  I  I111  1  -0.00373832  0.49538782  0.16499183  1
  I  I112  1  -0.00139474  0.50917245  0.49746182  1
  I  I113  1  -0.00368354  0.50338215  0.84047217  1
  I  I114  1  -0.00024049  0.83340992  0.16609379  1
  I  I115  1  0.00009826  0.82743294  0.50422762  1
  I  I116  1  0.00251496  0.83122785  0.82857691  1
  I  I117  1  0.33751627  0.16540308  0.17164273  1
  I  I118  1  0.33780259  0.16133469  0.49159821  1
  I  I119  1  0.33359564  0.17082581  0.83564247  1
  I  I120  1  0.33648859  0.50056995  0.16982468  1
  I  I121  1  0.33135675  0.50458782  0.49677407  1
  I  I122  1  0.33318387  0.49865539  0.83365922  1
  I  I123  1  0.33806609  0.83372155  0.17157637  1
  I  I124  1  0.33408042  0.83290026  0.50000497  1
  I  I125  1  0.33431827  0.83288517  0.82864223  1
  I  I126  1  0.66533637  0.16762127  0.17094566  1
  I  I127  1  0.66315000  0.16130831  0.49704141  1
  I  I128  1  0.66662396  0.16300297  0.83054700  1
  I  I129  1  0.66707716  0.50020449  0.16960815  1
  I  I130  1  0.66956857  0.50421082  0.50028047  1
  I  I131  1  0.66965033  0.50337078  0.82707184  1
  I  I132  1  0.66291090  0.83291138  0.16672311  1
  I  I133  1  0.66583320  0.83212141  0.49931730  1
  I  I134  1  0.66387458  0.83227643  0.83281301  1
