# generated using pymatgen
data_Cs27Sn14Pb13I81
_symmetry_space_group_name_H-M   'P 1'
_cell_length_a   18.97431025
_cell_length_b   18.97875241
_cell_length_c   18.97324167
_cell_angle_alpha   89.99867548
_cell_angle_beta   90.00074151
_cell_angle_gamma   89.99978222
_symmetry_Int_Tables_number   1
_chemical_formula_structural   Cs27Sn14Pb13I81
_chemical_formula_sum   'Cs27 Sn14 Pb13 I81'
_cell_volume   6832.43008256
_cell_formula_units_Z   1
loop_
 _symmetry_equiv_pos_site_id
 _symmetry_equiv_pos_as_xyz
  1  'x, y, z'
loop_
 _atom_site_type_symbol
 _atom_site_label
 _atom_site_symmetry_multiplicity
 _atom_site_fract_x
 _atom_site_fract_y
 _atom_site_fract_z
 _atom_site_occupancy
  Cs  Cs0  1  0.00112296  -0.00033165  0.00004440  1
  Cs  Cs1  1  0.00002683  0.00149152  0.33197988  1
  Cs  Cs2  1  -0.00303954  -0.00372769  0.66756136  1
  Cs  Cs3  1  -0.00019816  0.33176292  -0.00023682  1
  Cs  Cs4  1  -0.00780298  0.33371123  0.33901025  1
  Cs  Cs5  1  0.00380055  0.33846068  0.66283264  1
  Cs  Cs6  1  0.00364511  0.66962752  -0.00246408  1
  Cs  Cs7  1  -0.00164688  0.66634752  0.33549458  1
  Cs  Cs8  1  -0.00277860  0.66558618  0.66557241  1
  Cs  Cs9  1  0.33204868  0.00029784  0.00070509  1
  Cs  Cs10  1  0.33222127  -0.00232201  0.33194348  1
  Cs  Cs11  1  0.33534032  0.00149592  0.66623056  1
  Cs  Cs12  1  0.33214063  0.33102831  -0.00124624  1
  Cs  Cs13  1  0.33148330  0.33027245  0.33542354  1
  Cs  Cs14  1  0.33499085  0.33374950  0.66358523  1
  Cs  Cs15  1  0.33333635  0.66693131  0.00096987  1
  Cs  Cs16  1  0.33667365  0.67019520  0.33139142  1
  Cs  Cs17  1  0.33340627  0.66560044  0.66690640  1
  Cs  Cs18  1  0.66721344  0.00090280  -0.00193429  1
  Cs  Cs19  1  0.67108641  0.00336354  0.33389587  1
  Cs  Cs20  1  0.66605422  -0.00017835  0.66615208  1
  Cs  Cs21  1  0.66898134  0.33369590  -0.00036556  1
  Cs  Cs22  1  0.67849884  0.33435521  0.33112291  1
  Cs  Cs23  1  0.66066827  0.33136658  0.66968899  1
  Cs  Cs24  1  0.66402366  0.66494582  0.00036338  1
  Cs  Cs25  1  0.66273544  0.66180936  0.33204323  1
  Cs  Cs26  1  0.66692078  0.66810702  0.66755550  1
  Sn  Sn27  1  0.49969977  0.50049398  0.50026067  1
  Sn  Sn28  1  0.16567956  0.83322537  0.16681055  1
  Sn  Sn29  1  0.83284108  0.49920260  0.83365355  1
  Sn  Sn30  1  0.16578631  0.16598531  0.83360010  1
  Sn  Sn31  1  0.49898180  0.83268184  0.83280030  1
  Sn  Sn32  1  0.83383513  0.83289159  0.16638299  1
  Sn  Sn33  1  0.16734159  0.83346245  0.50030839  1
  Sn  Sn34  1  0.16767521  0.83414957  0.83283411  1
  Sn  Sn35  1  0.50036621  0.50082833  0.83298548  1
  Sn  Sn36  1  0.49918592  0.83266638  0.50081735  1
  Sn  Sn37  1  0.83484726  0.16768537  0.83334647  1
  Sn  Sn38  1  0.16736410  0.16716575  0.16621884  1
  Sn  Sn39  1  0.49958079  0.16690449  0.16687956  1
  Sn  Sn40  1  0.16669299  0.49957920  0.16695656  1
  Pb  Pb41  1  0.83259471  0.83318326  0.49727268  1
  Pb  Pb42  1  0.49984770  0.83491968  0.16664910  1
  Pb  Pb43  1  0.16661136  0.16422001  0.50026491  1
  Pb  Pb44  1  0.83352052  0.16660056  0.50399538  1
  Pb  Pb45  1  0.83609080  0.50243117  0.16415757  1
  Pb  Pb46  1  0.16717104  0.49992902  0.83448185  1
  Pb  Pb47  1  0.83434360  0.16501606  0.16480037  1
  Pb  Pb48  1  0.16898317  0.50265899  0.49710583  1
  Pb  Pb49  1  0.49930237  0.16651928  0.83475073  1
  Pb  Pb50  1  0.49814155  0.49729296  0.16662765  1
  Pb  Pb51  1  0.83311124  0.83319355  0.83477587  1
  Pb  Pb52  1  0.49996348  0.16652523  0.49680980  1
  Pb  Pb53  1  0.83029669  0.50028301  0.50308787  1
  I  I54  1  0.16706824  -0.00063059  0.16539634  1
  I  I55  1  0.17394287  -0.00419719  0.49573893  1
  I  I56  1  0.16676060  -0.00102901  0.83863676  1
  I  I57  1  0.17360604  0.33213777  0.15893538  1
  I  I58  1  0.16831983  0.33358156  0.49982761  1
  I  I59  1  0.16580048  0.33080895  0.84015752  1
  I  I60  1  0.16266247  0.66834118  0.16507580  1
  I  I61  1  0.16831538  0.67092816  0.50142153  1
  I  I62  1  0.16743474  0.66973651  0.83553184  1
  I  I63  1  0.49416260  0.00240264  0.16482614  1
  I  I64  1  0.49576369  -0.00349692  0.50425360  1
  I  I65  1  0.49931789  -0.00278499  0.83089538  1
  I  I66  1  0.49316451  0.32989433  0.16459097  1
  I  I67  1  0.49983208  0.33621003  0.50574939  1
  I  I68  1  0.50079711  0.33577468  0.83092176  1
  I  I69  1  0.49941738  0.66664938  0.16621521  1
  I  I70  1  0.49549265  0.66778196  0.50355471  1
  I  I71  1  0.50016716  0.66732866  0.83108265  1
  I  I72  1  0.83823714  -0.00270515  0.16373104  1
  I  I73  1  0.83024652  -0.00042444  0.50165103  1
  I  I74  1  0.83436995  0.00191275  0.83638656  1
  I  I75  1  0.83328506  0.33341818  0.16711489  1
  I  I76  1  0.83205299  0.33363162  0.49490783  1
  I  I77  1  0.83219638  0.33324113  0.83572211  1
  I  I78  1  0.83842516  0.67008416  0.16376856  1
  I  I79  1  0.83675231  0.66680474  0.50241655  1
  I  I80  1  0.83209502  0.66463195  0.83543525  1
  I  I81  1  0.16716886  0.16109640  0.00021046  1
  I  I82  1  0.17241578  0.16466513  0.32995499  1
  I  I83  1  0.16275957  0.16230937  0.67030773  1
  I  I84  1  0.16907142  0.50526704  0.00237055  1
  I  I85  1  0.16928032  0.49980131  0.32909624  1
  I  I86  1  0.16446962  0.49961507  0.66656987  1
  I  I87  1  0.16665115  0.83406746  -0.00005425  1
  I  I88  1  0.16766515  0.83311032  0.33246069  1
  I  I89  1  0.17168647  0.83839426  0.66785711  1
  I  I90  1  0.49738784  0.16521745  0.00242663  1
  I  I91  1  0.49171028  0.16427404  0.32912132  1
  I  I92  1  0.50066806  0.16656852  0.66673771  1
  I  I93  1  0.50245801  0.50443803  -0.00298032  1
  I  I94  1  0.49576086  0.50588408  0.33564165  1
  I  I95  1  0.50342383  0.50375514  0.66793018  1
  I  I96  1  0.49709014  0.83030376  -0.00277579  1
  I  I97  1  0.49633464  0.83005194  0.33574119  1
  I  I98  1  0.49270266  0.83048387  0.66763734  1
  I  I99  1  0.83445683  0.16911440  -0.00304756  1
  I  I100  1  0.83226925  0.16506206  0.33301186  1
  I  I101  1  0.83809316  0.16786273  0.67223424  1
  I  I102  1  0.82557971  0.49681920  -0.00346354  1
  I  I103  1  0.83238873  0.50097647  0.33315002  1
  I  I104  1  0.83485930  0.49798842  0.67112572  1
  I  I105  1  0.83847885  0.83409624  0.00241017  1
  I  I106  1  0.83829706  0.83500059  0.32940565  1
  I  I107  1  0.83612384  0.83372108  0.66686896  1
  I  I108  1  0.00363214  0.16611510  0.16328855  1
  I  I109  1  0.00028642  0.16459904  0.49426820  1
  I  I110  1  0.00146169  0.16515871  0.84077902  1
  I  I111  1  0.00402859  0.49611956  0.16384254  1
  I  I112  1  0.00012688  0.50086489  0.50024037  1
  I  I113  1  -0.00166025  0.49954142  0.83772797  1
  I  I114  1  0.00283925  0.83572466  0.16512276  1
  I  I115  1  0.00319392  0.83492956  0.50238914  1
  I  I116  1  0.00306360  0.83406850  0.83274393  1
  I  I117  1  0.33111762  0.16355533  0.16021004  1
  I  I118  1  0.33335597  0.16878275  0.50448482  1
  I  I119  1  0.33041685  0.16476318  0.83696519  1
  I  I120  1  0.33036917  0.50644898  0.16334726  1
  I  I121  1  0.33667524  0.50152899  0.50834363  1
  I  I122  1  0.33609772  0.50148716  0.83135402  1
  I  I123  1  0.33014941  0.83253185  0.16617065  1
  I  I124  1  0.33323500  0.82989546  0.49821935  1
  I  I125  1  0.33259385  0.83331698  0.83584749  1
  I  I126  1  0.66500984  0.16346730  0.16514515  1
  I  I127  1  0.66640209  0.16304524  0.49812344  1
  I  I128  1  0.66821603  0.16702827  0.83623679  1
  I  I129  1  0.66666281  0.50017529  0.16837576  1
  I  I130  1  0.66233767  0.50828092  0.49906974  1
  I  I131  1  0.66555039  0.50029149  0.83064652  1
  I  I132  1  0.66833610  0.83657794  0.16487400  1
  I  I133  1  0.66291383  0.83021626  0.50435696  1
  I  I134  1  0.66384159  0.83326866  0.83107198  1
