# generated using pymatgen
data_Cs27Sn13Pb14I81
_symmetry_space_group_name_H-M   'P 1'
_cell_length_a   18.97849598
_cell_length_b   18.97731923
_cell_length_c   18.97718668
_cell_angle_alpha   90.00324130
_cell_angle_beta   90.00037261
_cell_angle_gamma   90.00013343
_symmetry_Int_Tables_number   1
_chemical_formula_structural   Cs27Sn13Pb14I81
_chemical_formula_sum   'Cs27 Sn13 Pb14 I81'
_cell_volume   6834.84208184
_cell_formula_units_Z   1
loop_
 _symmetry_equiv_pos_site_id
 _symmetry_equiv_pos_as_xyz
  1  'x, y, z'
loop_
 _atom_site_type_symbol
 _atom_site_label
 _atom_site_symmetry_multiplicity
 _atom_site_fract_x
 _atom_site_fract_y
 _atom_site_fract_z
 _atom_site_occupancy
  Cs  Cs0  1  -0.00169965  0.00259322  -0.00165808  1
  Cs  Cs1  1  0.00254155  0.00068977  0.33430829  1
  Cs  Cs2  1  -0.00445006  -0.00084754  0.66663641  1
  Cs  Cs3  1  0.00512107  0.33080666  -0.00154829  1
  Cs  Cs4  1  -0.00514666  0.33265836  0.33275696  1
  Cs  Cs5  1  -0.00307252  0.33118861  0.66942219  1
  Cs  Cs6  1  -0.00077455  0.66724039  0.00097452  1
  Cs  Cs7  1  0.00015124  0.66695568  0.33162190  1
  Cs  Cs8  1  0.00438887  0.66779236  0.66713183  1
  Cs  Cs9  1  0.34003520  0.00763347  0.00184220  1
  Cs  Cs10  1  0.33240142  0.00167203  0.33375384  1
  Cs  Cs11  1  0.33509912  -0.00222738  0.66249219  1
  Cs  Cs12  1  0.33027098  0.32944232  0.00023733  1
  Cs  Cs13  1  0.33413802  0.33316197  0.33288429  1
  Cs  Cs14  1  0.33340779  0.33625619  0.66741845  1
  Cs  Cs15  1  0.33236339  0.66523441  -0.00032530  1
  Cs  Cs16  1  0.33243111  0.66664755  0.33498022  1
  Cs  Cs17  1  0.33182416  0.66532440  0.66499087  1
  Cs  Cs18  1  0.66172766  -0.00671028  -0.00550234  1
  Cs  Cs19  1  0.66613283  -0.00064025  0.33123596  1
  Cs  Cs20  1  0.66984893  0.00070893  0.67281172  1
  Cs  Cs21  1  0.66541083  0.33373061  -0.00031826  1
  Cs  Cs22  1  0.67071825  0.33528267  0.33545809  1
  Cs  Cs23  1  0.66908437  0.33263011  0.66463267  1
  Cs  Cs24  1  0.66957676  0.67250004  0.00088500  1
  Cs  Cs25  1  0.66884426  0.66512174  0.33070678  1
  Cs  Cs26  1  0.66563092  0.66577948  0.66758570  1
  Sn  Sn27  1  0.50092442  0.50020772  0.83350928  1
  Sn  Sn28  1  0.49945754  0.49994774  0.49965480  1
  Sn  Sn29  1  0.50155635  0.83304119  0.49980750  1
  Sn  Sn30  1  0.83209912  0.83287530  0.49964458  1
  Sn  Sn31  1  0.49933987  0.50023139  0.16677866  1
  Sn  Sn32  1  0.16716293  0.83317088  0.16507697  1
  Sn  Sn33  1  0.83276064  0.16631002  0.16633414  1
  Sn  Sn34  1  0.49952278  0.16701906  0.49995389  1
  Sn  Sn35  1  0.16705820  0.16828287  0.50009019  1
  Sn  Sn36  1  0.16740552  0.50067340  0.16771369  1
  Sn  Sn37  1  0.83269400  0.50014740  0.83339287  1
  Sn  Sn38  1  0.16732302  0.83371294  0.83500696  1
  Sn  Sn39  1  0.16694849  0.49877006  0.49911053  1
  Pb  Pb40  1  0.50218753  0.16910341  0.16890633  1
  Pb  Pb41  1  0.83369519  0.49883536  0.16435091  1
  Pb  Pb42  1  0.49769637  0.83121984  0.16880776  1
  Pb  Pb43  1  0.83290272  0.16443202  0.49890222  1
  Pb  Pb44  1  0.83362022  0.50172816  0.50147646  1
  Pb  Pb45  1  0.83311012  0.16880589  0.83629118  1
  Pb  Pb46  1  0.49986380  0.16931885  0.83067496  1
  Pb  Pb47  1  0.16717614  0.50096453  0.83342853  1
  Pb  Pb48  1  0.49773854  0.83106263  0.83124240  1
  Pb  Pb49  1  0.83551403  0.83545588  0.16832664  1
  Pb  Pb50  1  0.16717135  0.83307762  0.49957197  1
  Pb  Pb51  1  0.16558818  0.16709122  0.16866914  1
  Pb  Pb52  1  0.83523966  0.83125702  0.83143636  1
  Pb  Pb53  1  0.16693101  0.16340974  0.83016427  1
  I  I54  1  0.16308563  -0.00232584  0.16675016  1
  I  I55  1  0.16964391  0.00174618  0.49993472  1
  I  I56  1  0.16493723  -0.00438986  0.83675602  1
  I  I57  1  0.16923432  0.33666606  0.16903608  1
  I  I58  1  0.17399997  0.33486250  0.49518339  1
  I  I59  1  0.16608888  0.33339717  0.83478838  1
  I  I60  1  0.16921151  0.66534044  0.17038120  1
  I  I61  1  0.16990796  0.66399757  0.49973963  1
  I  I62  1  0.16674654  0.66860747  0.83023076  1
  I  I63  1  0.49903783  -0.00004370  0.16961413  1
  I  I64  1  0.49733886  -0.00003346  0.49924624  1
  I  I65  1  0.49902128  -0.00024730  0.83135361  1
  I  I66  1  0.49360397  0.33762432  0.16830869  1
  I  I67  1  0.49461054  0.33474302  0.50019416  1
  I  I68  1  0.50174620  0.33795533  0.83083224  1
  I  I69  1  0.49929883  0.66270356  0.16990013  1
  I  I70  1  0.49829898  0.66518895  0.50068227  1
  I  I71  1  0.50235930  0.66278258  0.82979541  1
  I  I72  1  0.83653459  0.00286103  0.17044372  1
  I  I73  1  0.83236963  -0.00327275  0.49928970  1
  I  I74  1  0.83579404  -0.00027750  0.83196520  1
  I  I75  1  0.83527559  0.33142812  0.16919180  1
  I  I76  1  0.83222225  0.33339600  0.50037072  1
  I  I77  1  0.83094162  0.33693691  0.83027337  1
  I  I78  1  0.83263306  0.66661805  0.16685902  1
  I  I79  1  0.83106428  0.66942358  0.50014379  1
  I  I80  1  0.82926387  0.66351791  0.83351624  1
  I  I81  1  0.16403442  0.16924436  0.00016983  1
  I  I82  1  0.17004954  0.16515869  0.33671505  1
  I  I83  1  0.16959466  0.17217749  0.66190453  1
  I  I84  1  0.16907366  0.50290955  0.00276935  1
  I  I85  1  0.17371717  0.50291258  0.33386219  1
  I  I86  1  0.16999629  0.49979640  0.66381645  1
  I  I87  1  0.16461620  0.82400608  0.00096351  1
  I  I88  1  0.16646804  0.83134457  0.33144037  1
  I  I89  1  0.16660214  0.83186646  0.66779730  1
  I  I90  1  0.50107525  0.16838085  0.00021495  1
  I  I91  1  0.49593986  0.16864053  0.33729766  1
  I  I92  1  0.49669049  0.16834752  0.66198569  1
  I  I93  1  0.49927068  0.50017973  0.00035972  1
  I  I94  1  0.49454202  0.50017288  0.33456917  1
  I  I95  1  0.49907465  0.50038787  0.66501826  1
  I  I96  1  0.50062859  0.83144210  0.00009952  1
  I  I97  1  0.50018278  0.83044939  0.33732789  1
  I  I98  1  0.49938615  0.83070639  0.66271644  1
  I  I99  1  0.83671410  0.16824240  0.00372741  1
  I  I100  1  0.83438732  0.16862805  0.33153114  1
  I  I101  1  0.83398128  0.16606598  0.66660240  1
  I  I102  1  0.82965169  0.49956461  -0.00314922  1
  I  I103  1  0.83183117  0.50001171  0.33322553  1
  I  I104  1  0.83012199  0.50098075  0.66916869  1
  I  I105  1  0.83394672  0.83348442  -0.00003866  1
  I  I106  1  0.83230683  0.83172020  0.33641253  1
  I  I107  1  0.83297000  0.83402309  0.66337350  1
  I  I108  1  -0.00185127  0.16918147  0.17107837  1
  I  I109  1  0.00254753  0.16894031  0.49787843  1
  I  I110  1  0.00010386  0.17025116  0.83009750  1
  I  I111  1  0.00326947  0.50244859  0.17056882  1
  I  I112  1  0.00324572  0.49859029  0.49731350  1
  I  I113  1  -0.00147962  0.50233562  0.83247407  1
  I  I114  1  0.00360933  0.82586636  0.16770592  1
  I  I115  1  -0.00121449  0.83319949  0.50034079  1
  I  I116  1  0.00304027  0.82881925  0.83226205  1
  I  I117  1  0.33350268  0.16520366  0.16673249  1
  I  I118  1  0.33360650  0.16525216  0.49885548  1
  I  I119  1  0.33331759  0.16954282  0.83638444  1
  I  I120  1  0.33299731  0.50348229  0.16710426  1
  I  I121  1  0.33409369  0.50199540  0.50169856  1
  I  I122  1  0.33605446  0.50242369  0.83092300  1
  I  I123  1  0.32957401  0.83149209  0.16688406  1
  I  I124  1  0.33576413  0.83227963  0.50055858  1
  I  I125  1  0.33015304  0.82887605  0.83265052  1
  I  I126  1  0.66936837  0.16995797  0.17121967  1
  I  I127  1  0.66354871  0.17079483  0.49789309  1
  I  I128  1  0.66649913  0.16544526  0.83044853  1
  I  I129  1  0.66378761  0.49696983  0.17099815  1
  I  I130  1  0.66328787  0.49792398  0.49789240  1
  I  I131  1  0.66525118  0.49999924  0.83132845  1
  I  I132  1  0.66639222  0.83230418  0.16760438  1
  I  I133  1  0.66535180  0.83225673  0.50005687  1
  I  I134  1  0.66636154  0.83333901  0.83264729  1
