# generated using pymatgen
data_Cs27Sn14Pb13I81
_symmetry_space_group_name_H-M   'P 1'
_cell_length_a   18.97339534
_cell_length_b   18.97851283
_cell_length_c   18.97331736
_cell_angle_alpha   90.00242761
_cell_angle_beta   90.00173036
_cell_angle_gamma   89.99889687
_symmetry_Int_Tables_number   1
_chemical_formula_structural   Cs27Sn14Pb13I81
_chemical_formula_sum   'Cs27 Sn14 Pb13 I81'
_cell_volume   6832.04163060
_cell_formula_units_Z   1
loop_
 _symmetry_equiv_pos_site_id
 _symmetry_equiv_pos_as_xyz
  1  'x, y, z'
loop_
 _atom_site_type_symbol
 _atom_site_label
 _atom_site_symmetry_multiplicity
 _atom_site_fract_x
 _atom_site_fract_y
 _atom_site_fract_z
 _atom_site_occupancy
  Cs  Cs0  1  -0.00444010  0.00109538  -0.00013411  1
  Cs  Cs1  1  -0.00244213  -0.00356367  0.33720844  1
  Cs  Cs2  1  0.00338684  -0.00157825  0.66349696  1
  Cs  Cs3  1  0.00076446  0.33541154  -0.00118285  1
  Cs  Cs4  1  0.00477552  0.33501747  0.33383021  1
  Cs  Cs5  1  0.00015557  0.33233198  0.66851526  1
  Cs  Cs6  1  0.00047648  0.66490069  0.00011114  1
  Cs  Cs7  1  -0.00414415  0.66715614  0.33279843  1
  Cs  Cs8  1  -0.00184663  0.66927258  0.66797330  1
  Cs  Cs9  1  0.33560168  -0.00274154  -0.00092124  1
  Cs  Cs10  1  0.33468605  0.00049938  0.33564392  1
  Cs  Cs11  1  0.33128916  -0.00605827  0.66404295  1
  Cs  Cs12  1  0.33118629  0.33395783  0.00221085  1
  Cs  Cs13  1  0.33137139  0.33287642  0.33207479  1
  Cs  Cs14  1  0.33313827  0.33573965  0.66555042  1
  Cs  Cs15  1  0.33228525  0.66745860  0.00113447  1
  Cs  Cs16  1  0.33580964  0.66571100  0.32864087  1
  Cs  Cs17  1  0.33674407  0.66952293  0.67135785  1
  Cs  Cs18  1  0.66969006  0.01081765  -0.00103202  1
  Cs  Cs19  1  0.66636816  -0.00072716  0.33188926  1
  Cs  Cs20  1  0.66489926  0.00448754  0.66909458  1
  Cs  Cs21  1  0.66767757  0.32449841  -0.00215940  1
  Cs  Cs22  1  0.66494284  0.33217614  0.33686210  1
  Cs  Cs23  1  0.66470310  0.33387385  0.66528329  1
  Cs  Cs24  1  0.66843046  0.66714719  -0.00039448  1
  Cs  Cs25  1  0.66757621  0.66778286  0.33590648  1
  Cs  Cs26  1  0.66528331  0.66328324  0.66543498  1
  Sn  Sn27  1  0.16651255  0.50032374  0.16653750  1
  Sn  Sn28  1  0.50044655  0.16601470  0.49968928  1
  Sn  Sn29  1  0.16649690  0.16603865  0.16589109  1
  Sn  Sn30  1  0.83289849  0.16692876  0.49969807  1
  Sn  Sn31  1  0.16684455  0.83349879  0.16679788  1
  Sn  Sn32  1  0.83305870  0.83266308  0.83353534  1
  Sn  Sn33  1  0.83289349  0.49971653  0.16610994  1
  Sn  Sn34  1  0.16603696  0.49954552  0.83321232  1
  Sn  Sn35  1  0.16692689  0.16701338  0.83411735  1
  Sn  Sn36  1  0.50012882  0.83382539  0.49936054  1
  Sn  Sn37  1  0.16671053  0.50089165  0.50034866  1
  Sn  Sn38  1  0.83387266  0.50078182  0.83413788  1
  Sn  Sn39  1  0.49980160  0.83285778  0.16702866  1
  Sn  Sn40  1  0.50061965  0.50028887  0.16628551  1
  Pb  Pb41  1  0.16710008  0.16796683  0.50005201  1
  Pb  Pb42  1  0.83617062  0.16951494  0.16890346  1
  Pb  Pb43  1  0.49787282  0.16641528  0.16817856  1
  Pb  Pb44  1  0.49780278  0.50028004  0.49784484  1
  Pb  Pb45  1  0.83566699  0.16752097  0.83133085  1
  Pb  Pb46  1  0.16866011  0.83018203  0.49741668  1
  Pb  Pb47  1  0.83533378  0.49856195  0.50036484  1
  Pb  Pb48  1  0.16506258  0.83305320  0.83581963  1
  Pb  Pb49  1  0.83072411  0.83527520  0.50236661  1
  Pb  Pb50  1  0.83264496  0.83154410  0.16510060  1
  Pb  Pb51  1  0.50008880  0.49985058  0.83655020  1
  Pb  Pb52  1  0.49633789  0.16674383  0.83050387  1
  Pb  Pb53  1  0.50281788  0.83331403  0.83447385  1
  I  I54  1  0.17244184  -0.00008727  0.16223507  1
  I  I55  1  0.16511575  -0.00032324  0.50016417  1
  I  I56  1  0.16475609  0.00233124  0.83711356  1
  I  I57  1  0.16680389  0.33498386  0.16664247  1
  I  I58  1  0.16855046  0.33589761  0.49489383  1
  I  I59  1  0.16121388  0.33499601  0.83777019  1
  I  I60  1  0.16804069  0.66513240  0.16670295  1
  I  I61  1  0.16680711  0.66234949  0.50056882  1
  I  I62  1  0.16473414  0.66340753  0.83442463  1
  I  I63  1  0.49412481  -0.00282928  0.16932045  1
  I  I64  1  0.50271298  -0.00018191  0.49347074  1
  I  I65  1  0.50143483  0.00002222  0.83788963  1
  I  I66  1  0.49770391  0.33597768  0.16818384  1
  I  I67  1  0.50187473  0.33125670  0.49872471  1
  I  I68  1  0.50450631  0.33337779  0.83258638  1
  I  I69  1  0.49365395  0.66653755  0.17268021  1
  I  I70  1  0.49742068  0.66907413  0.49707725  1
  I  I71  1  0.49578949  0.66655277  0.82790144  1
  I  I72  1  0.83407695  0.00020948  0.16512699  1
  I  I73  1  0.83485339  0.00314026  0.50139557  1
  I  I74  1  0.83430214  -0.00160857  0.83190014  1
  I  I75  1  0.83331644  0.33771667  0.16003546  1
  I  I76  1  0.82731073  0.33084179  0.50122136  1
  I  I77  1  0.83681355  0.33650694  0.83671047  1
  I  I78  1  0.83897389  0.66318219  0.16606259  1
  I  I79  1  0.83312514  0.66655893  0.49872798  1
  I  I80  1  0.83986430  0.66476430  0.83675302  1
  I  I81  1  0.16612357  0.17303170  0.00076026  1
  I  I82  1  0.16721553  0.16992109  0.33076149  1
  I  I83  1  0.16589373  0.17311448  0.66893815  1
  I  I84  1  0.16599983  0.49897204  0.00107548  1
  I  I85  1  0.16683548  0.49817817  0.33125911  1
  I  I86  1  0.16208011  0.49296187  0.66795814  1
  I  I87  1  0.17303569  0.82852029  0.00388183  1
  I  I88  1  0.16702474  0.83399379  0.32917669  1
  I  I89  1  0.16742278  0.83377512  0.66669924  1
  I  I90  1  0.50131296  0.16607354  0.00019041  1
  I  I91  1  0.50041901  0.16633896  0.33608296  1
  I  I92  1  0.50215128  0.16158753  0.66247684  1
  I  I93  1  0.49405835  0.50668628  0.00467065  1
  I  I94  1  0.49860962  0.50077429  0.32964054  1
  I  I95  1  0.49887916  0.50024985  0.66660534  1
  I  I96  1  0.49479721  0.82713827  0.00377193  1
  I  I97  1  0.49570537  0.83308262  0.33226998  1
  I  I98  1  0.50084733  0.83800922  0.66417245  1
  I  I99  1  0.83229677  0.16479653  0.00001951  1
  I  I100  1  0.83194937  0.16793555  0.33632675  1
  I  I101  1  0.83186676  0.16885495  0.66383278  1
  I  I102  1  0.83925349  0.50371269  0.00015071  1
  I  I103  1  0.83602004  0.49819842  0.33051401  1
  I  I104  1  0.83925531  0.50199522  0.66966864  1
  I  I105  1  0.83315131  0.83141677  -0.00268142  1
  I  I106  1  0.83550884  0.83280965  0.33324033  1
  I  I107  1  0.83397307  0.82580043  0.66999346  1
  I  I108  1  0.00432060  0.16713290  0.16555268  1
  I  I109  1  -0.00133581  0.17024823  0.50031643  1
  I  I110  1  0.00337443  0.16930314  0.83494771  1
  I  I111  1  0.00155643  0.49959637  0.16606508  1
  I  I112  1  0.00331175  0.49625157  0.49454990  1
  I  I113  1  0.00104126  0.49968037  0.83851990  1
  I  I114  1  0.00259174  0.83176571  0.16437703  1
  I  I115  1  0.00003397  0.83524626  0.49906112  1
  I  I116  1  -0.00257656  0.83126923  0.83520533  1
  I  I117  1  0.32974443  0.17278145  0.16626222  1
  I  I118  1  0.33558909  0.16418765  0.49922423  1
  I  I119  1  0.32854099  0.17379471  0.83648254  1
  I  I120  1  0.33174687  0.50030815  0.16751442  1
  I  I121  1  0.32982229  0.49650758  0.49946319  1
  I  I122  1  0.32979672  0.49568691  0.83367030  1
  I  I123  1  0.33301819  0.82793063  0.16937437  1
  I  I124  1  0.33644519  0.84074484  0.49960080  1
  I  I125  1  0.33332135  0.83356088  0.83131054  1
  I  I126  1  0.66679828  0.16704335  0.16635781  1
  I  I127  1  0.66602629  0.16467026  0.49965546  1
  I  I128  1  0.66681240  0.16673776  0.83360008  1
  I  I129  1  0.66666814  0.50614795  0.16360454  1
  I  I130  1  0.66647834  0.50024817  0.49942994  1
  I  I131  1  0.67000537  0.50447082  0.83683691  1
  I  I132  1  0.66355105  0.82699496  0.17032987  1
  I  I133  1  0.66293703  0.83327121  0.49211446  1
  I  I134  1  0.67047099  0.82574114  0.83394056  1
