# generated using pymatgen
data_Cs27Sn13Pb14I81
_symmetry_space_group_name_H-M   'P 1'
_cell_length_a   18.99886807
_cell_length_b   18.97611347
_cell_length_c   19.00278833
_cell_angle_alpha   90.00081139
_cell_angle_beta   90.00100577
_cell_angle_gamma   89.99950357
_symmetry_Int_Tables_number   1
_chemical_formula_structural   Cs27Sn13Pb14I81
_chemical_formula_sum   'Cs27 Sn13 Pb14 I81'
_cell_volume   6850.97410878
_cell_formula_units_Z   1
loop_
 _symmetry_equiv_pos_site_id
 _symmetry_equiv_pos_as_xyz
  1  'x, y, z'
loop_
 _atom_site_type_symbol
 _atom_site_label
 _atom_site_symmetry_multiplicity
 _atom_site_fract_x
 _atom_site_fract_y
 _atom_site_fract_z
 _atom_site_occupancy
  Cs  Cs0  1  -0.00114329  -0.00420093  0.00241801  1
  Cs  Cs1  1  -0.00155159  -0.00040100  0.33248177  1
  Cs  Cs2  1  -0.00114509  -0.00023528  0.66580471  1
  Cs  Cs3  1  0.00622259  0.34043553  -0.00404446  1
  Cs  Cs4  1  0.00248046  0.33108530  0.33142859  1
  Cs  Cs5  1  -0.00058820  0.32469169  0.67201281  1
  Cs  Cs6  1  -0.00006692  0.66566756  0.00038957  1
  Cs  Cs7  1  -0.00035950  0.66679656  0.33436113  1
  Cs  Cs8  1  0.00153461  0.66806482  0.66516114  1
  Cs  Cs9  1  0.33535244  0.00533686  0.00279082  1
  Cs  Cs10  1  0.34066000  0.00637316  0.33058622  1
  Cs  Cs11  1  0.33449283  0.00523438  0.66594437  1
  Cs  Cs12  1  0.32632367  0.32632340  0.00120705  1
  Cs  Cs13  1  0.33020292  0.32879720  0.33038333  1
  Cs  Cs14  1  0.33208546  0.32844981  0.66853721  1
  Cs  Cs15  1  0.33366260  0.66685112  -0.00234721  1
  Cs  Cs16  1  0.33603665  0.66698222  0.33653584  1
  Cs  Cs17  1  0.33400743  0.66689551  0.66532117  1
  Cs  Cs18  1  0.66591585  0.00095970  0.00235531  1
  Cs  Cs19  1  0.66292418  0.00151110  0.33162406  1
  Cs  Cs20  1  0.66711823  0.00678479  0.66590507  1
  Cs  Cs21  1  0.66900217  0.33458572  -0.00355403  1
  Cs  Cs22  1  0.66757796  0.33685145  0.33483496  1
  Cs  Cs23  1  0.66849453  0.32701508  0.66829557  1
  Cs  Cs24  1  0.66674886  0.66572288  -0.00064498  1
  Cs  Cs25  1  0.66498256  0.66585436  0.33450912  1
  Cs  Cs26  1  0.66490432  0.66666364  0.66513258  1
  Sn  Sn27  1  0.16647929  0.83303095  0.49950569  1
  Sn  Sn28  1  0.16696668  0.83276192  0.83307443  1
  Sn  Sn29  1  0.83352580  0.83252678  0.49988742  1
  Sn  Sn30  1  0.83364610  0.16684019  0.16642711  1
  Sn  Sn31  1  0.16632347  0.50062935  0.50031913  1
  Sn  Sn32  1  0.49973582  0.50025000  0.16625247  1
  Sn  Sn33  1  0.49976038  0.50040311  0.50043058  1
  Sn  Sn34  1  0.83367092  0.83360993  0.16707660  1
  Sn  Sn35  1  0.16664492  0.83271394  0.16743840  1
  Sn  Sn36  1  0.49978242  0.50074467  0.83317871  1
  Sn  Sn37  1  0.83392013  0.50063058  0.50037533  1
  Sn  Sn38  1  0.50007665  0.83282059  0.83315639  1
  Sn  Sn39  1  0.83295611  0.83270335  0.83303012  1
  Pb  Pb40  1  0.16881775  0.50270904  0.16890202  1
  Pb  Pb41  1  0.83355600  0.16386496  0.83639576  1
  Pb  Pb42  1  0.50286677  0.17019918  0.16650197  1
  Pb  Pb43  1  0.83347369  0.16610896  0.49782724  1
  Pb  Pb44  1  0.50014058  0.17056234  0.49988731  1
  Pb  Pb45  1  0.50013101  0.83165432  0.16454276  1
  Pb  Pb46  1  0.16883553  0.50219310  0.83076516  1
  Pb  Pb47  1  0.50011282  0.16683395  0.83353149  1
  Pb  Pb48  1  0.16632649  0.16316839  0.83343090  1
  Pb  Pb49  1  0.83218355  0.50068869  0.16840554  1
  Pb  Pb50  1  0.16633531  0.16575423  0.49988090  1
  Pb  Pb51  1  0.83171152  0.50226571  0.83057979  1
  Pb  Pb52  1  0.50000276  0.83231501  0.50209448  1
  Pb  Pb53  1  0.16378875  0.16373114  0.16674340  1
  I  I54  1  0.16678142  -0.00499211  0.16865087  1
  I  I55  1  0.15971137  -0.00461575  0.50166224  1
  I  I56  1  0.16938416  -0.00595459  0.82972544  1
  I  I57  1  0.16682152  0.33353918  0.16868621  1
  I  I58  1  0.16808213  0.33672005  0.49902666  1
  I  I59  1  0.16883636  0.33367169  0.83195466  1
  I  I60  1  0.15869083  0.67082546  0.16404676  1
  I  I61  1  0.16603285  0.66777136  0.50016330  1
  I  I62  1  0.16416908  0.67082228  0.83528909  1
  I  I63  1  0.49738679  -0.00013589  0.16478408  1
  I  I64  1  0.49995652  -0.00002627  0.50166256  1
  I  I65  1  0.49962388  -0.00369493  0.83378272  1
  I  I66  1  0.50184708  0.33817999  0.16675486  1
  I  I67  1  0.50129756  0.33944681  0.50302192  1
  I  I68  1  0.50148134  0.33702989  0.83105227  1
  I  I69  1  0.50307699  0.66390298  0.16964686  1
  I  I70  1  0.50060920  0.66374137  0.49824069  1
  I  I71  1  0.50039144  0.66713280  0.83297935  1
  I  I72  1  0.83714207  -0.00294445  0.16802755  1
  I  I73  1  0.83920902  -0.00411468  0.50298215  1
  I  I74  1  0.83097684  -0.00534198  0.82661431  1
  I  I75  1  0.82773166  0.33151573  0.17103100  1
  I  I76  1  0.83125883  0.33658746  0.49705547  1
  I  I77  1  0.83002761  0.33354144  0.83302068  1
  I  I78  1  0.83581858  0.67042823  0.16502367  1
  I  I79  1  0.83333625  0.66788321  0.49753110  1
  I  I80  1  0.83538482  0.67095922  0.83918614  1
  I  I81  1  0.16716026  0.16638618  0.00022518  1
  I  I82  1  0.16674075  0.16531983  0.33322135  1
  I  I83  1  0.16689982  0.16561288  0.66657536  1
  I  I84  1  0.16881436  0.50121452  -0.00013215  1
  I  I85  1  0.16879301  0.50688918  0.33695620  1
  I  I86  1  0.16834420  0.50770382  0.66277608  1
  I  I87  1  0.16311111  0.83429116  -0.00005055  1
  I  I88  1  0.15766066  0.82833537  0.33394765  1
  I  I89  1  0.16356074  0.82846636  0.66620759  1
  I  I90  1  0.50084070  0.16801377  0.00008313  1
  I  I91  1  0.50026022  0.16597955  0.33303389  1
  I  I92  1  0.50110272  0.16677724  0.66682127  1
  I  I93  1  0.50259824  0.50647091  -0.00062103  1
  I  I94  1  0.50135782  0.50058811  0.33434025  1
  I  I95  1  0.50004353  0.50675677  0.66638845  1
  I  I96  1  0.50050427  0.82636322  -0.00336180  1
  I  I97  1  0.50011864  0.83089989  0.33336769  1
  I  I98  1  0.50017366  0.82645559  0.67004242  1
  I  I99  1  0.83125208  0.15971530  0.00383013  1
  I  I100  1  0.83297360  0.15921871  0.33052219  1
  I  I101  1  0.83234903  0.16674091  0.66678815  1
  I  I102  1  0.82924845  0.50062869  -0.00015163  1
  I  I103  1  0.82968468  0.50616855  0.33661054  1
  I  I104  1  0.83109577  0.50663680  0.66241505  1
  I  I105  1  0.83549085  0.83825367  0.00011239  1
  I  I106  1  0.84048596  0.83296355  0.33362347  1
  I  I107  1  0.83599031  0.82711441  0.66622367  1
  I  I108  1  -0.00363090  0.16424492  0.16887049  1
  I  I109  1  -0.00012772  0.17207340  0.49943855  1
  I  I110  1  -0.00021959  0.16696330  0.83240495  1
  I  I111  1  0.00013821  0.49776465  0.16834648  1
  I  I112  1  -0.00010579  0.50706217  0.49778051  1
  I  I113  1  0.00016006  0.50059978  0.83348458  1
  I  I114  1  -0.00068982  0.83638717  0.16297850  1
  I  I115  1  -0.00037871  0.82556703  0.50354093  1
  I  I116  1  -0.00015329  0.83505970  0.83330172  1
  I  I117  1  0.33325791  0.16598791  0.16685745  1
  I  I118  1  0.33321895  0.16452721  0.49896342  1
  I  I119  1  0.33337798  0.16470613  0.83391143  1
  I  I120  1  0.33673447  0.50375310  0.16901554  1
  I  I121  1  0.33324173  0.50643785  0.50009997  1
  I  I122  1  0.33692189  0.50784663  0.83104218  1
  I  I123  1  0.33071249  0.82914621  0.16726081  1
  I  I124  1  0.33037812  0.82817041  0.50016670  1
  I  I125  1  0.33321845  0.82742320  0.83298311  1
  I  I126  1  0.66994773  0.15607042  0.16760107  1
  I  I127  1  0.66690799  0.16555588  0.49957088  1
  I  I128  1  0.66685574  0.16422262  0.83324197  1
  I  I129  1  0.66410588  0.50292226  0.16990834  1
  I  I130  1  0.66675603  0.50523978  0.49873765  1
  I  I131  1  0.66349644  0.50704908  0.83170725  1
  I  I132  1  0.66979225  0.83553966  0.16721046  1
  I  I133  1  0.66972585  0.82865262  0.49905599  1
  I  I134  1  0.66698911  0.82837247  0.83405072  1
