# generated using pymatgen
data_Cs27Sn14Pb13I81
_symmetry_space_group_name_H-M   'P 1'
_cell_length_a   18.98151760
_cell_length_b   18.97346487
_cell_length_c   18.97663925
_cell_angle_alpha   90.00081201
_cell_angle_beta   90.00013859
_cell_angle_gamma   89.99908396
_symmetry_Int_Tables_number   1
_chemical_formula_structural   Cs27Sn14Pb13I81
_chemical_formula_sum   'Cs27 Sn14 Pb13 I81'
_cell_volume   6834.34472622
_cell_formula_units_Z   1
loop_
 _symmetry_equiv_pos_site_id
 _symmetry_equiv_pos_as_xyz
  1  'x, y, z'
loop_
 _atom_site_type_symbol
 _atom_site_label
 _atom_site_symmetry_multiplicity
 _atom_site_fract_x
 _atom_site_fract_y
 _atom_site_fract_z
 _atom_site_occupancy
  Cs  Cs0  1  -0.00248845  0.00178499  0.00018704  1
  Cs  Cs1  1  0.00307946  0.00293843  0.33079018  1
  Cs  Cs2  1  -0.00052250  -0.00034066  0.66727555  1
  Cs  Cs3  1  0.00019275  0.33119254  -0.00361615  1
  Cs  Cs4  1  -0.00452334  0.32666630  0.33451627  1
  Cs  Cs5  1  -0.00210815  0.33115781  0.66904105  1
  Cs  Cs6  1  0.00244614  0.66679099  0.00131217  1
  Cs  Cs7  1  0.00058100  0.66761288  0.33320332  1
  Cs  Cs8  1  0.00269939  0.66725457  0.66636652  1
  Cs  Cs9  1  0.33738469  0.00035175  -0.00073281  1
  Cs  Cs10  1  0.33053648  0.00192697  0.33391535  1
  Cs  Cs11  1  0.33760747  -0.00113256  0.66710200  1
  Cs  Cs12  1  0.33360657  0.33583204  0.00357749  1
  Cs  Cs13  1  0.33229818  0.33153965  0.33178490  1
  Cs  Cs14  1  0.33373606  0.33506405  0.66408486  1
  Cs  Cs15  1  0.33209215  0.66569707  0.00142428  1
  Cs  Cs16  1  0.33426934  0.66649430  0.33376547  1
  Cs  Cs17  1  0.33202616  0.66731026  0.66532128  1
  Cs  Cs18  1  0.66620855  0.00259779  -0.00138128  1
  Cs  Cs19  1  0.66694981  0.00163961  0.33083138  1
  Cs  Cs20  1  0.66469453  -0.00000312  0.66891181  1
  Cs  Cs21  1  0.66529800  0.33400297  -0.00088657  1
  Cs  Cs22  1  0.67396110  0.32950665  0.33511221  1
  Cs  Cs23  1  0.66839131  0.33297144  0.66646621  1
  Cs  Cs24  1  0.66620082  0.66554580  0.00341211  1
  Cs  Cs25  1  0.66488042  0.66603480  0.33332444  1
  Cs  Cs26  1  0.66592353  0.66667640  0.66477665  1
  Sn  Sn27  1  0.83404945  0.16643079  0.83303385  1
  Sn  Sn28  1  0.83330436  0.83296261  0.50052820  1
  Sn  Sn29  1  0.49947513  0.50063430  0.16760207  1
  Sn  Sn30  1  0.49898129  0.83251764  0.16758810  1
  Sn  Sn31  1  0.16679070  0.83252245  0.49934275  1
  Sn  Sn32  1  0.16694260  0.50042644  0.49879213  1
  Sn  Sn33  1  0.49992325  0.83258515  0.49902354  1
  Sn  Sn34  1  0.83275677  0.50083451  0.83330304  1
  Sn  Sn35  1  0.49948651  0.50045727  0.49939106  1
  Sn  Sn36  1  0.50063021  0.50060332  0.83306204  1
  Sn  Sn37  1  0.16705102  0.16649575  0.83308557  1
  Sn  Sn38  1  0.83340229  0.83273906  0.83283382  1
  Sn  Sn39  1  0.16765522  0.83243292  0.16729991  1
  Sn  Sn40  1  0.16690245  0.50064125  0.16813333  1
  Pb  Pb41  1  0.49979574  0.16677582  0.16697281  1
  Pb  Pb42  1  0.16688632  0.49875406  0.83314649  1
  Pb  Pb43  1  0.50202012  0.83101572  0.83364425  1
  Pb  Pb44  1  0.16489736  0.83511644  0.83358591  1
  Pb  Pb45  1  0.16686516  0.16670920  0.16447664  1
  Pb  Pb46  1  0.83367555  0.50009312  0.16465230  1
  Pb  Pb47  1  0.83331697  0.16669036  0.16410255  1
  Pb  Pb48  1  0.49985609  0.16680854  0.49979370  1
  Pb  Pb49  1  0.16685278  0.16678320  0.50219324  1
  Pb  Pb50  1  0.50004344  0.16969935  0.83323042  1
  Pb  Pb51  1  0.83370113  0.50193827  0.50186668  1
  Pb  Pb52  1  0.83332364  0.16321873  0.50236075  1
  Pb  Pb53  1  0.83326154  0.83314660  0.16711819  1
  I  I54  1  0.16991920  -0.00355584  0.17059000  1
  I  I55  1  0.16663876  -0.00381601  0.49674789  1
  I  I56  1  0.15978697  0.00275238  0.83330971  1
  I  I57  1  0.17190067  0.33691979  0.16878080  1
  I  I58  1  0.17258124  0.33699113  0.49746761  1
  I  I59  1  0.16029988  0.33117640  0.83334389  1
  I  I60  1  0.17050876  0.66672960  0.16848395  1
  I  I61  1  0.16733849  0.66714913  0.49826060  1
  I  I62  1  0.16449039  0.66671339  0.83353194  1
  I  I63  1  0.49631851  -0.00392641  0.17080242  1
  I  I64  1  0.49934496  -0.00422473  0.49658038  1
  I  I65  1  0.50133843  -0.00027065  0.83353327  1
  I  I66  1  0.49516007  0.33750704  0.16496846  1
  I  I67  1  0.49465423  0.33756643  0.50088973  1
  I  I68  1  0.50534539  0.33803381  0.83358797  1
  I  I69  1  0.49630281  0.66626789  0.16649095  1
  I  I70  1  0.49977451  0.66669982  0.50030347  1
  I  I71  1  0.50480440  0.66293593  0.83317470  1
  I  I72  1  0.83308026  -0.00052998  0.16413716  1
  I  I73  1  0.83326355  -0.00520272  0.50564938  1
  I  I74  1  0.83872434  -0.00038019  0.82930952  1
  I  I75  1  0.83304776  0.33369437  0.16491359  1
  I  I76  1  0.83299798  0.33348674  0.50171882  1
  I  I77  1  0.83350775  0.33367303  0.83514406  1
  I  I78  1  0.83395995  0.66677997  0.16041656  1
  I  I79  1  0.83343502  0.67004233  0.50763322  1
  I  I80  1  0.82866454  0.66673707  0.82953164  1
  I  I81  1  0.16036658  0.16753241  -0.00322602  1
  I  I82  1  0.16703429  0.16647973  0.33334954  1
  I  I83  1  0.16102246  0.16762328  0.66988077  1
  I  I84  1  0.16948911  0.50303739  0.00243446  1
  I  I85  1  0.17499062  0.50443508  0.33355700  1
  I  I86  1  0.16979855  0.50379698  0.66398524  1
  I  I87  1  0.16976224  0.82953784  0.00300815  1
  I  I88  1  0.16459792  0.82983932  0.33397573  1
  I  I89  1  0.16870380  0.82972924  0.66353282  1
  I  I90  1  0.50122466  0.16545713  -0.00020145  1
  I  I91  1  0.49996312  0.17047802  0.33334884  1
  I  I92  1  0.49990600  0.16573513  0.66686238  1
  I  I93  1  0.50008355  0.50319038  0.00063980  1
  I  I94  1  0.49419013  0.50570037  0.33353208  1
  I  I95  1  0.49961963  0.50342791  0.66582716  1
  I  I96  1  0.49648562  0.82929214  0.00284527  1
  I  I97  1  0.50216564  0.82550510  0.33398786  1
  I  I98  1  0.49754500  0.82959092  0.66371446  1
  I  I99  1  0.83761127  0.16325744  -0.00473180  1
  I  I100  1  0.83263678  0.16633349  0.33376843  1
  I  I101  1  0.83762422  0.16992306  0.67057934  1
  I  I102  1  0.82969662  0.50199631  -0.00411633  1
  I  I103  1  0.83066306  0.50230097  0.33358311  1
  I  I104  1  0.82971321  0.49803884  0.67021070  1
  I  I105  1  0.83352615  0.83464239  -0.00293667  1
  I  I106  1  0.83303730  0.83124580  0.33654386  1
  I  I107  1  0.83355184  0.83345049  0.66663054  1
  I  I108  1  0.00033711  0.16623387  0.16711368  1
  I  I109  1  0.00004857  0.16790441  0.49987999  1
  I  I110  1  -0.00127908  0.16972661  0.83334911  1
  I  I111  1  0.00365557  0.50530353  0.16876461  1
  I  I112  1  0.00306098  0.50489620  0.49801648  1
  I  I113  1  -0.00238986  0.50058167  0.83311594  1
  I  I114  1  0.00314144  0.82916422  0.16863182  1
  I  I115  1  0.00089859  0.82914213  0.50142659  1
  I  I116  1  -0.00329887  0.82869382  0.82952684  1
  I  I117  1  0.33316923  0.16647128  0.16073960  1
  I  I118  1  0.33316545  0.16226539  0.50571082  1
  I  I119  1  0.33100498  0.16779540  0.83373718  1
  I  I120  1  0.33374095  0.50383833  0.16318067  1
  I  I121  1  0.33375256  0.50725994  0.50343003  1
  I  I122  1  0.33592268  0.49782274  0.83346242  1
  I  I123  1  0.33329319  0.82947479  0.17305821  1
  I  I124  1  0.33332376  0.82948658  0.49630386  1
  I  I125  1  0.33343473  0.83469979  0.83095855  1
  I  I126  1  0.66648174  0.16596188  0.16350705  1
  I  I127  1  0.66674803  0.16794695  0.50346139  1
  I  I128  1  0.66979552  0.16440995  0.83323324  1
  I  I129  1  0.66310466  0.50511244  0.16774021  1
  I  I130  1  0.66361283  0.50435021  0.49869024  1
  I  I131  1  0.66645792  0.49831006  0.83341352  1
  I  I132  1  0.66345828  0.82833652  0.16894483  1
  I  I133  1  0.66574105  0.82915215  0.50114296  1
  I  I134  1  0.67015119  0.83798571  0.82952415  1
