# generated using pymatgen
data_Cs27Sn14Pb13I81
_symmetry_space_group_name_H-M   'P 1'
_cell_length_a   18.95849555
_cell_length_b   18.96344541
_cell_length_c   18.95946554
_cell_angle_alpha   89.99781644
_cell_angle_beta   89.99842919
_cell_angle_gamma   90.00092657
_symmetry_Int_Tables_number   1
_chemical_formula_structural   Cs27Sn14Pb13I81
_chemical_formula_sum   'Cs27 Sn14 Pb13 I81'
_cell_volume   6816.27662055
_cell_formula_units_Z   1
loop_
 _symmetry_equiv_pos_site_id
 _symmetry_equiv_pos_as_xyz
  1  'x, y, z'
loop_
 _atom_site_type_symbol
 _atom_site_label
 _atom_site_symmetry_multiplicity
 _atom_site_fract_x
 _atom_site_fract_y
 _atom_site_fract_z
 _atom_site_occupancy
  Cs  Cs0  1  -0.00053787  -0.00134814  -0.00303641  1
  Cs  Cs1  1  0.00464133  -0.00150436  0.33284233  1
  Cs  Cs2  1  -0.00294941  -0.00156044  0.67077430  1
  Cs  Cs3  1  -0.00207578  0.33328979  0.00082311  1
  Cs  Cs4  1  -0.00004292  0.33725798  0.33631212  1
  Cs  Cs5  1  0.00131620  0.33275308  0.66277745  1
  Cs  Cs6  1  0.00215295  0.66843764  0.00089559  1
  Cs  Cs7  1  -0.00223150  0.66457461  0.33282080  1
  Cs  Cs8  1  -0.00367664  0.66960141  0.66555432  1
  Cs  Cs9  1  0.33265772  -0.00040985  0.00140275  1
  Cs  Cs10  1  0.33485350  -0.00134508  0.33206894  1
  Cs  Cs11  1  0.33264598  0.00215273  0.66699917  1
  Cs  Cs12  1  0.33397883  0.33528748  -0.00150586  1
  Cs  Cs13  1  0.33107160  0.33241860  0.33550970  1
  Cs  Cs14  1  0.33459986  0.33269348  0.66595827  1
  Cs  Cs15  1  0.33177242  0.66422511  -0.00099367  1
  Cs  Cs16  1  0.33343470  0.66898263  0.33188673  1
  Cs  Cs17  1  0.33519487  0.66539172  0.67067256  1
  Cs  Cs18  1  0.66800060  0.00469389  0.00251252  1
  Cs  Cs19  1  0.66179170  -0.00132712  0.33334263  1
  Cs  Cs20  1  0.66966064  -0.00017192  0.66537507  1
  Cs  Cs21  1  0.67004805  0.33191279  0.00064762  1
  Cs  Cs22  1  0.66953834  0.33254697  0.33151313  1
  Cs  Cs23  1  0.66233536  0.33135843  0.66882088  1
  Cs  Cs24  1  0.66399428  0.66149645  -0.00006952  1
  Cs  Cs25  1  0.66971458  0.66985202  0.33659328  1
  Cs  Cs26  1  0.66606824  0.66823629  0.66385065  1
  Sn  Sn27  1  0.83262042  0.16671605  0.49978566  1
  Sn  Sn28  1  0.16588949  0.83316563  0.16749703  1
  Sn  Sn29  1  0.49941794  0.49977450  0.16831573  1
  Sn  Sn30  1  0.50015156  0.83484271  0.83359477  1
  Sn  Sn31  1  0.50084450  0.16735334  0.50040681  1
  Sn  Sn32  1  0.83361300  0.83353773  0.16640967  1
  Sn  Sn33  1  0.16525117  0.49912958  0.83375840  1
  Sn  Sn34  1  0.49927610  0.16543928  0.83295168  1
  Sn  Sn35  1  0.16683783  0.16705785  0.16582139  1
  Sn  Sn36  1  0.16735052  0.49959357  0.16613015  1
  Sn  Sn37  1  0.16688689  0.83307818  0.49980283  1
  Sn  Sn38  1  0.49970477  0.49941921  0.49842765  1
  Sn  Sn39  1  0.83481431  0.49989195  0.83312994  1
  Sn  Sn40  1  0.16731567  0.16761425  0.83424597  1
  Pb  Pb41  1  0.83630339  0.16459519  0.16903394  1
  Pb  Pb42  1  0.49804910  0.16892695  0.16663271  1
  Pb  Pb43  1  0.83376552  0.50156171  0.16530814  1
  Pb  Pb44  1  0.49949720  0.49912170  0.83340256  1
  Pb  Pb45  1  0.83056911  0.49820710  0.50234109  1
  Pb  Pb46  1  0.49823328  0.83375193  0.50184490  1
  Pb  Pb47  1  0.16844442  0.50219997  0.50030079  1
  Pb  Pb48  1  0.83363980  0.16831815  0.83187760  1
  Pb  Pb49  1  0.49953038  0.83116903  0.16462205  1
  Pb  Pb50  1  0.83562455  0.83558548  0.49794506  1
  Pb  Pb51  1  0.16721655  0.16505710  0.50042948  1
  Pb  Pb52  1  0.16782330  0.83330763  0.83386240  1
  Pb  Pb53  1  0.83036919  0.83117518  0.83556822  1
  I  I54  1  0.16280067  -0.00015217  0.16679840  1
  I  I55  1  0.16886183  -0.00255404  0.49548015  1
  I  I56  1  0.17006188  0.00267401  0.83548179  1
  I  I57  1  0.17207670  0.33393286  0.16176608  1
  I  I58  1  0.16567826  0.33329539  0.49787288  1
  I  I59  1  0.16949301  0.33320270  0.83998747  1
  I  I60  1  0.16735085  0.66615112  0.16588893  1
  I  I61  1  0.16900847  0.66974620  0.49630120  1
  I  I62  1  0.16682868  0.66405227  0.83636558  1
  I  I63  1  0.49874528  0.00014435  0.16808577  1
  I  I64  1  0.50168793  0.00302398  0.50296379  1
  I  I65  1  0.49378131  0.00175670  0.82855579  1
  I  I66  1  0.49462823  0.33692095  0.16491413  1
  I  I67  1  0.50149251  0.33257996  0.50349536  1
  I  I68  1  0.49808891  0.33068037  0.83141109  1
  I  I69  1  0.49450580  0.66316940  0.16832632  1
  I  I70  1  0.49697355  0.66435883  0.49924744  1
  I  I71  1  0.49898898  0.66770833  0.83389481  1
  I  I72  1  0.83846048  -0.00321193  0.16588017  1
  I  I73  1  0.82708358  0.00326427  0.50131150  1
  I  I74  1  0.83521099  0.00009964  0.83275066  1
  I  I75  1  0.83362253  0.33325989  0.16637540  1
  I  I76  1  0.83387816  0.33035001  0.49957418  1
  I  I77  1  0.83198702  0.33621895  0.83456422  1
  I  I78  1  0.83905567  0.66932297  0.16586312  1
  I  I79  1  0.83239471  0.66671234  0.50062665  1
  I  I80  1  0.83778297  0.66334002  0.83386004  1
  I  I81  1  0.17208263  0.16548709  -0.00051176  1
  I  I82  1  0.16658803  0.16813071  0.33081961  1
  I  I83  1  0.16849072  0.16970525  0.66954867  1
  I  I84  1  0.16987959  0.50181031  0.00056934  1
  I  I85  1  0.16951130  0.49773108  0.33031988  1
  I  I86  1  0.16627933  0.49659082  0.66965849  1
  I  I87  1  0.16500245  0.83286699  0.00297208  1
  I  I88  1  0.16472978  0.83421364  0.33148527  1
  I  I89  1  0.17019856  0.83408490  0.66509718  1
  I  I90  1  0.49693841  0.16487897  -0.00277099  1
  I  I91  1  0.50150156  0.16906925  0.33595311  1
  I  I92  1  0.49710462  0.16955513  0.66702488  1
  I  I93  1  0.49805702  0.50160916  0.00191979  1
  I  I94  1  0.49379854  0.49564576  0.33311129  1
  I  I95  1  0.49967415  0.49901943  0.66490823  1
  I  I96  1  0.49725325  0.83646933  -0.00312790  1
  I  I97  1  0.50049040  0.83454369  0.33312964  1
  I  I98  1  0.49670267  0.83095998  0.66966519  1
  I  I99  1  0.83080705  0.16684142  0.00011127  1
  I  I100  1  0.82773337  0.16694606  0.33667660  1
  I  I101  1  0.83392549  0.16711222  0.66402397  1
  I  I102  1  0.83138144  0.49944471  -0.00269104  1
  I  I103  1  0.83482058  0.50012001  0.33345755  1
  I  I104  1  0.83830046  0.50046193  0.67020718  1
  I  I105  1  0.84178524  0.83354109  0.00311779  1
  I  I106  1  0.83493344  0.83172812  0.33003244  1
  I  I107  1  0.83469936  0.83281699  0.66670452  1
  I  I108  1  0.00468205  0.17083237  0.16258618  1
  I  I109  1  -0.00140290  0.16404075  0.49986493  1
  I  I110  1  0.00321846  0.16859111  0.83533519  1
  I  I111  1  0.00354825  0.49900531  0.16382019  1
  I  I112  1  0.00004734  0.49890124  0.49845466  1
  I  I113  1  0.00221125  0.49546774  0.83927589  1
  I  I114  1  0.00238854  0.83125254  0.16984475  1
  I  I115  1  0.00360060  0.83488708  0.49951035  1
  I  I116  1  0.00005040  0.83496112  0.83149662  1
  I  I117  1  0.32966389  0.16204005  0.16741935  1
  I  I118  1  0.33600810  0.16941619  0.50207264  1
  I  I119  1  0.33311526  0.16897726  0.83093354  1
  I  I120  1  0.33182189  0.50243096  0.16356186  1
  I  I121  1  0.33641034  0.49357811  0.50167872  1
  I  I122  1  0.33080041  0.49953267  0.83502360  1
  I  I123  1  0.33007546  0.83437793  0.16885553  1
  I  I124  1  0.33050666  0.83543672  0.49322041  1
  I  I125  1  0.33564086  0.83181295  0.83470155  1
  I  I126  1  0.66657644  0.16658092  0.16434841  1
  I  I127  1  0.66481422  0.16999591  0.50609599  1
  I  I128  1  0.66380203  0.16561240  0.83048599  1
  I  I129  1  0.66420181  0.50226094  0.16688473  1
  I  I130  1  0.66241233  0.49986022  0.49681402  1
  I  I131  1  0.66789245  0.50093579  0.83357677  1
  I  I132  1  0.66850624  0.83079060  0.16408739  1
  I  I133  1  0.66653812  0.83163365  0.49942077  1
  I  I134  1  0.66267349  0.83626889  0.83377966  1
