# generated using pymatgen
data_Cs27Sn14Pb13I81
_symmetry_space_group_name_H-M   'P 1'
_cell_length_a   18.95832407
_cell_length_b   18.96309229
_cell_length_c   18.96134804
_cell_angle_alpha   90.00015573
_cell_angle_beta   89.99959553
_cell_angle_gamma   89.99932981
_symmetry_Int_Tables_number   1
_chemical_formula_structural   Cs27Sn14Pb13I81
_chemical_formula_sum   'Cs27 Sn14 Pb13 I81'
_cell_volume   6816.76482218
_cell_formula_units_Z   1
loop_
 _symmetry_equiv_pos_site_id
 _symmetry_equiv_pos_as_xyz
  1  'x, y, z'
loop_
 _atom_site_type_symbol
 _atom_site_label
 _atom_site_symmetry_multiplicity
 _atom_site_fract_x
 _atom_site_fract_y
 _atom_site_fract_z
 _atom_site_occupancy
  Cs  Cs0  1  0.00065443  0.00011636  -0.00198002  1
  Cs  Cs1  1  -0.00005465  0.00326086  0.33545896  1
  Cs  Cs2  1  -0.00189394  -0.00161657  0.66608099  1
  Cs  Cs3  1  -0.00084433  0.33382993  0.00334318  1
  Cs  Cs4  1  0.00108654  0.33061668  0.33200564  1
  Cs  Cs5  1  -0.00190079  0.33197944  0.66029507  1
  Cs  Cs6  1  0.00097512  0.66624831  -0.00118233  1
  Cs  Cs7  1  0.00335343  0.66635409  0.33169242  1
  Cs  Cs8  1  -0.00357444  0.66963914  0.67002827  1
  Cs  Cs9  1  0.33376786  0.00088647  -0.00500726  1
  Cs  Cs10  1  0.33531095  -0.00212183  0.33381901  1
  Cs  Cs11  1  0.33317847  0.00045743  0.66929115  1
  Cs  Cs12  1  0.33338515  0.33135675  -0.00210865  1
  Cs  Cs13  1  0.33159480  0.33395650  0.33334814  1
  Cs  Cs14  1  0.33710331  0.33263749  0.67033101  1
  Cs  Cs15  1  0.33109436  0.66812946  0.00216082  1
  Cs  Cs16  1  0.33344375  0.66757305  0.33385528  1
  Cs  Cs17  1  0.33293987  0.66651713  0.66419818  1
  Cs  Cs18  1  0.66527967  0.00269088  0.00206892  1
  Cs  Cs19  1  0.66507646  -0.00080791  0.33280838  1
  Cs  Cs20  1  0.66712353  -0.00114555  0.66506941  1
  Cs  Cs21  1  0.66696530  0.33106117  -0.00096419  1
  Cs  Cs22  1  0.66645748  0.33285233  0.33347809  1
  Cs  Cs23  1  0.66457665  0.34104524  0.66863250  1
  Cs  Cs24  1  0.66793332  0.66712382  0.00218714  1
  Cs  Cs25  1  0.66516138  0.66728077  0.33237527  1
  Cs  Cs26  1  0.67241180  0.66090770  0.66754544  1
  Sn  Sn27  1  0.49963937  0.49888619  0.16667819  1
  Sn  Sn28  1  0.16660928  0.49973345  0.83320343  1
  Sn  Sn29  1  0.83253979  0.16644657  0.16593649  1
  Sn  Sn30  1  0.16582895  0.83311280  0.16729494  1
  Sn  Sn31  1  0.83334282  0.49999437  0.16677789  1
  Sn  Sn32  1  0.16688269  0.50083569  0.50013114  1
  Sn  Sn33  1  0.83342523  0.16666953  0.83372104  1
  Sn  Sn34  1  0.49955831  0.83371437  0.50141175  1
  Sn  Sn35  1  0.16734032  0.83270694  0.49924969  1
  Sn  Sn36  1  0.50000188  0.16626355  0.49935974  1
  Sn  Sn37  1  0.83463378  0.83372685  0.16689025  1
  Sn  Sn38  1  0.50036864  0.16754351  0.16744425  1
  Sn  Sn39  1  0.16693125  0.50061831  0.16678414  1
  Sn  Sn40  1  0.50035782  0.83272015  0.83190603  1
  Pb  Pb41  1  0.83564826  0.49797896  0.83558053  1
  Pb  Pb42  1  0.49954654  0.83360704  0.16712461  1
  Pb  Pb43  1  0.49822392  0.50040322  0.49807242  1
  Pb  Pb44  1  0.83344327  0.83325779  0.49775286  1
  Pb  Pb45  1  0.83037788  0.16677879  0.49969607  1
  Pb  Pb46  1  0.83095863  0.83504572  0.83596277  1
  Pb  Pb47  1  0.16382561  0.16928648  0.83312328  1
  Pb  Pb48  1  0.16694495  0.16615934  0.16661604  1
  Pb  Pb49  1  0.83636386  0.50016481  0.49735682  1
  Pb  Pb50  1  0.16929925  0.16616277  0.50006691  1
  Pb  Pb51  1  0.49829716  0.50247754  0.83610462  1
  Pb  Pb52  1  0.16801224  0.83174133  0.83313716  1
  Pb  Pb53  1  0.50183586  0.16517465  0.83329947  1
  I  I54  1  0.16442384  -0.00341901  0.17173280  1
  I  I55  1  0.16868484  -0.00360313  0.49368141  1
  I  I56  1  0.16741243  -0.00021147  0.83435605  1
  I  I57  1  0.16471341  0.33664756  0.16778814  1
  I  I58  1  0.16664011  0.33646212  0.49734023  1
  I  I59  1  0.16841195  0.33759549  0.83620904  1
  I  I60  1  0.16475122  0.66587390  0.16723575  1
  I  I61  1  0.17324100  0.66717926  0.49674253  1
  I  I62  1  0.16728991  0.66368566  0.83607413  1
  I  I63  1  0.50360984  0.00222539  0.16757693  1
  I  I64  1  0.49514155  -0.00073341  0.49658962  1
  I  I65  1  0.49889064  -0.00273343  0.83589659  1
  I  I66  1  0.50227644  0.33308177  0.17129519  1
  I  I67  1  0.49909002  0.33115002  0.49628243  1
  I  I68  1  0.49964918  0.33353937  0.83155873  1
  I  I69  1  0.50152902  0.66452568  0.16638542  1
  I  I70  1  0.49662057  0.66959964  0.50041692  1
  I  I71  1  0.49943622  0.67017356  0.82963412  1
  I  I72  1  0.83187390  0.00037829  0.16350961  1
  I  I73  1  0.83763096  0.00001643  0.49679161  1
  I  I74  1  0.83307371  0.00286283  0.84088848  1
  I  I75  1  0.83324986  0.33337558  0.16322120  1
  I  I76  1  0.83435383  0.33337439  0.49754354  1
  I  I77  1  0.83237526  0.33023732  0.84044978  1
  I  I78  1  0.83336777  0.66635795  0.16797288  1
  I  I79  1  0.82752202  0.66676922  0.49867305  1
  I  I80  1  0.83304874  0.66655183  0.83493395  1
  I  I81  1  0.17167513  0.16608749  0.00026223  1
  I  I82  1  0.16273630  0.17084209  0.33313765  1
  I  I83  1  0.16640267  0.16720534  0.66651282  1
  I  I84  1  0.16631358  0.50381197  0.00209105  1
  I  I85  1  0.16676666  0.50431064  0.33195428  1
  I  I86  1  0.16825535  0.50366934  0.66581860  1
  I  I87  1  0.16525457  0.82883195  0.00301790  1
  I  I88  1  0.16920597  0.82554035  0.33276948  1
  I  I89  1  0.17028064  0.82913088  0.66361308  1
  I  I90  1  0.50223931  0.16840228  0.00304849  1
  I  I91  1  0.50491511  0.16424421  0.33199132  1
  I  I92  1  0.49984059  0.16340678  0.66404300  1
  I  I93  1  0.49798320  0.49627156  0.00459374  1
  I  I94  1  0.49820645  0.50103019  0.32945211  1
  I  I95  1  0.49740794  0.49711033  0.66663738  1
  I  I96  1  0.50005840  0.83304297  -0.00104618  1
  I  I97  1  0.49854698  0.83450919  0.33539700  1
  I  I98  1  0.49299167  0.84007593  0.66500952  1
  I  I99  1  0.82744645  0.16699670  0.00282020  1
  I  I100  1  0.83169369  0.16717225  0.32955079  1
  I  I101  1  0.83370127  0.16603190  0.66913791  1
  I  I102  1  0.83551422  0.50205323  0.00439367  1
  I  I103  1  0.83461065  0.49722359  0.32847144  1
  I  I104  1  0.83443499  0.49731475  0.66683034  1
  I  I105  1  0.83708785  0.83072603  0.00453362  1
  I  I106  1  0.83199511  0.83543603  0.32895558  1
  I  I107  1  0.83564628  0.83640564  0.66684058  1
  I  I108  1  -0.00300740  0.16886427  0.16297134  1
  I  I109  1  -0.00007463  0.16680047  0.49941497  1
  I  I110  1  -0.00391703  0.16606698  0.84237077  1
  I  I111  1  0.00065347  0.50036679  0.16670305  1
  I  I112  1  0.00477875  0.50556002  0.49804633  1
  I  I113  1  0.00369141  0.50131379  0.83628800  1
  I  I114  1  0.00073718  0.83015625  0.17082024  1
  I  I115  1  0.00345299  0.82876266  0.49709094  1
  I  I116  1  -0.00011740  0.83361126  0.83184840  1
  I  I117  1  0.33648947  0.16951919  0.17068216  1
  I  I118  1  0.33724156  0.16521052  0.49276008  1
  I  I119  1  0.33363093  0.16646781  0.83438049  1
  I  I120  1  0.33228908  0.50103664  0.16713355  1
  I  I121  1  0.32996920  0.50136314  0.49548834  1
  I  I122  1  0.33019846  0.50008698  0.83682990  1
  I  I123  1  0.33083657  0.82919176  0.16778756  1
  I  I124  1  0.33305892  0.83311292  0.49611668  1
  I  I125  1  0.33599789  0.83422435  0.83616389  1
  I  I126  1  0.66670313  0.16884056  0.16666642  1
  I  I127  1  0.66245407  0.15988877  0.49628068  1
  I  I128  1  0.66945727  0.16590638  0.83803248  1
  I  I129  1  0.66678710  0.50043363  0.16661102  1
  I  I130  1  0.66644457  0.49980924  0.49798769  1
  I  I131  1  0.66676340  0.50003881  0.83490843  1
  I  I132  1  0.66858723  0.83109073  0.16609599  1
  I  I133  1  0.66345284  0.83870430  0.50059037  1
  I  I134  1  0.66307871  0.83368542  0.82979919  1
