# generated using pymatgen
data_Cs27Sn14Pb13I81
_symmetry_space_group_name_H-M   'P 1'
_cell_length_a   18.97313941
_cell_length_b   18.97788280
_cell_length_c   18.97451551
_cell_angle_alpha   90.00035686
_cell_angle_beta   90.00091740
_cell_angle_gamma   89.99937230
_symmetry_Int_Tables_number   1
_chemical_formula_structural   Cs27Sn14Pb13I81
_chemical_formula_sum   'Cs27 Sn14 Pb13 I81'
_cell_volume   6832.15410286
_cell_formula_units_Z   1
loop_
 _symmetry_equiv_pos_site_id
 _symmetry_equiv_pos_as_xyz
  1  'x, y, z'
loop_
 _atom_site_type_symbol
 _atom_site_label
 _atom_site_symmetry_multiplicity
 _atom_site_fract_x
 _atom_site_fract_y
 _atom_site_fract_z
 _atom_site_occupancy
  Cs  Cs0  1  0.00233071  0.00394561  -0.00475415  1
  Cs  Cs1  1  0.00079798  -0.00351665  0.33523834  1
  Cs  Cs2  1  0.00199189  0.00339854  0.66691801  1
  Cs  Cs3  1  -0.00907716  0.33474451  -0.00052302  1
  Cs  Cs4  1  -0.00186096  0.33482038  0.33110534  1
  Cs  Cs5  1  0.00213600  0.33120867  0.66880575  1
  Cs  Cs6  1  -0.00184828  0.66175053  0.00532727  1
  Cs  Cs7  1  0.00084531  0.66814403  0.33280609  1
  Cs  Cs8  1  0.00019261  0.66633199  0.66380205  1
  Cs  Cs9  1  0.33363401  0.00163719  -0.00105538  1
  Cs  Cs10  1  0.33274786  -0.00050697  0.33143675  1
  Cs  Cs11  1  0.32973826  -0.00180647  0.67001662  1
  Cs  Cs12  1  0.33386477  0.33308199  -0.00328422  1
  Cs  Cs13  1  0.33700307  0.33220129  0.33406093  1
  Cs  Cs14  1  0.33319011  0.33579478  0.66824562  1
  Cs  Cs15  1  0.33392049  0.66615034  0.00186688  1
  Cs  Cs16  1  0.33240795  0.66680727  0.33267812  1
  Cs  Cs17  1  0.33429131  0.66483110  0.66625367  1
  Cs  Cs18  1  0.66598716  -0.00210546  0.00044239  1
  Cs  Cs19  1  0.66694115  0.00409019  0.33234661  1
  Cs  Cs20  1  0.67132550  -0.00390302  0.66811485  1
  Cs  Cs21  1  0.67122294  0.33421693  0.00413263  1
  Cs  Cs22  1  0.66337153  0.32209897  0.33302608  1
  Cs  Cs23  1  0.66559181  0.33283548  0.66201773  1
  Cs  Cs24  1  0.66655517  0.66707293  -0.00344202  1
  Cs  Cs25  1  0.66580311  0.66830950  0.33526526  1
  Cs  Cs26  1  0.66718800  0.66861110  0.66815877  1
  Sn  Sn27  1  0.83259959  0.83323939  0.16722081  1
  Sn  Sn28  1  0.16708557  0.16701787  0.49871794  1
  Sn  Sn29  1  0.49980819  0.50054504  0.16624411  1
  Sn  Sn30  1  0.83349351  0.83245732  0.49912974  1
  Sn  Sn31  1  0.16600034  0.49995598  0.50037881  1
  Sn  Sn32  1  0.16659307  0.16712816  0.16720714  1
  Sn  Sn33  1  0.16685067  0.83300934  0.50068941  1
  Sn  Sn34  1  0.16711993  0.50121533  0.83299334  1
  Sn  Sn35  1  0.50076328  0.83249493  0.16755159  1
  Sn  Sn36  1  0.83387390  0.50053704  0.49973047  1
  Sn  Sn37  1  0.16664279  0.83158172  0.83293575  1
  Sn  Sn38  1  0.49952082  0.49903068  0.83420451  1
  Sn  Sn39  1  0.50026038  0.16772916  0.83303099  1
  Sn  Sn40  1  0.49979434  0.83340278  0.49932180  1
  Pb  Pb41  1  0.83678202  0.83301053  0.83331882  1
  Pb  Pb42  1  0.49748066  0.16327252  0.50248578  1
  Pb  Pb43  1  0.16838646  0.49773031  0.16673138  1
  Pb  Pb44  1  0.49825320  0.83263765  0.83356910  1
  Pb  Pb45  1  0.16754032  0.16764492  0.83316682  1
  Pb  Pb46  1  0.83317700  0.50012738  0.83075740  1
  Pb  Pb47  1  0.83014347  0.50211067  0.16986546  1
  Pb  Pb48  1  0.16674269  0.83448758  0.16652427  1
  Pb  Pb49  1  0.83615860  0.16346719  0.16688074  1
  Pb  Pb50  1  0.82953053  0.16680140  0.83319847  1
  Pb  Pb51  1  0.50002072  0.50162528  0.50005605  1
  Pb  Pb52  1  0.49842319  0.16630476  0.16492106  1
  Pb  Pb53  1  0.83590828  0.16640837  0.50001328  1
  I  I54  1  0.16858295  0.00212626  0.17032695  1
  I  I55  1  0.16726256  -0.00143296  0.50061126  1
  I  I56  1  0.16847221  -0.00191510  0.83018726  1
  I  I57  1  0.17078849  0.33027519  0.17132301  1
  I  I58  1  0.16236908  0.33443978  0.50121165  1
  I  I59  1  0.17044087  0.33645533  0.82886585  1
  I  I60  1  0.16586112  0.66656697  0.16782916  1
  I  I61  1  0.16629724  0.66720722  0.50507370  1
  I  I62  1  0.17323086  0.66601930  0.82484669  1
  I  I63  1  0.50197291  -0.00316136  0.16919957  1
  I  I64  1  0.50022825  -0.00487490  0.49516231  1
  I  I65  1  0.49602407  0.00116474  0.83284103  1
  I  I66  1  0.49650329  0.33576653  0.16469824  1
  I  I67  1  0.50038289  0.33329382  0.49768119  1
  I  I68  1  0.49151329  0.33510786  0.83791521  1
  I  I69  1  0.50114585  0.66760424  0.16440616  1
  I  I70  1  0.49518488  0.66980890  0.50074796  1
  I  I71  1  0.49680802  0.66400798  0.83413746  1
  I  I72  1  0.82607882  -0.00445761  0.17446395  1
  I  I73  1  0.83363807  -0.00374652  0.49662254  1
  I  I74  1  0.83445602  -0.00045762  0.83095519  1
  I  I75  1  0.83258908  0.33349471  0.16747009  1
  I  I76  1  0.83765137  0.33633487  0.50232005  1
  I  I77  1  0.83998314  0.33366867  0.83155220  1
  I  I78  1  0.83454952  0.67009269  0.16907918  1
  I  I79  1  0.83905241  0.66804588  0.49691974  1
  I  I80  1  0.82808654  0.66673247  0.83479502  1
  I  I81  1  0.16981877  0.16322191  0.00165291  1
  I  I82  1  0.16801705  0.16448155  0.33482242  1
  I  I83  1  0.16795297  0.16504671  0.66395060  1
  I  I84  1  0.17071202  0.50389209  -0.00286164  1
  I  I85  1  0.16478276  0.50381011  0.33664206  1
  I  I86  1  0.16937700  0.49941160  0.66588435  1
  I  I87  1  0.16836203  0.83210395  -0.00242931  1
  I  I88  1  0.16679748  0.83134261  0.33648869  1
  I  I89  1  0.16786691  0.83569790  0.66479368  1
  I  I90  1  0.49390469  0.16492542  -0.00270126  1
  I  I91  1  0.49985874  0.16918753  0.33357846  1
  I  I92  1  0.49601338  0.17309767  0.66981119  1
  I  I93  1  0.49307214  0.50265790  -0.00063761  1
  I  I94  1  0.49878258  0.50400650  0.33133298  1
  I  I95  1  0.49780026  0.49788490  0.66902171  1
  I  I96  1  0.50249009  0.83308579  0.00259852  1
  I  I97  1  0.49722507  0.82762620  0.33341285  1
  I  I98  1  0.50121881  0.83335731  0.66402543  1
  I  I99  1  0.83879877  0.16466460  0.00027125  1
  I  I100  1  0.83002221  0.16918443  0.33349220  1
  I  I101  1  0.83627109  0.16325696  0.66629425  1
  I  I102  1  0.83624489  0.50090767  0.00035172  1
  I  I103  1  0.84094559  0.50362369  0.33748229  1
  I  I104  1  0.83283578  0.50803843  0.66282949  1
  I  I105  1  0.82838713  0.83482194  0.00286915  1
  I  I106  1  0.83554971  0.82938548  0.33489774  1
  I  I107  1  0.82972404  0.82993432  0.66304599  1
  I  I108  1  0.00406234  0.16548763  0.16996046  1
  I  I109  1  0.00429365  0.16133902  0.49830463  1
  I  I110  1  0.00033095  0.16544251  0.83356348  1
  I  I111  1  -0.00014212  0.49998547  0.16398443  1
  I  I112  1  0.00184349  0.50491167  0.50498885  1
  I  I113  1  0.00339950  0.50419645  0.83086038  1
  I  I114  1  -0.00201192  0.83581403  0.17056719  1
  I  I115  1  0.00082606  0.83298690  0.49948175  1
  I  I116  1  0.00493263  0.82960207  0.82919163  1
  I  I117  1  0.33075614  0.16276978  0.17090989  1
  I  I118  1  0.32937726  0.16750407  0.49690412  1
  I  I119  1  0.33521429  0.16717865  0.83314381  1
  I  I120  1  0.33623582  0.50729359  0.16766830  1
  I  I121  1  0.33043082  0.50145810  0.50138898  1
  I  I122  1  0.33279007  0.50036733  0.83009916  1
  I  I123  1  0.33588079  0.83146213  0.16981422  1
  I  I124  1  0.33238007  0.83303869  0.49993413  1
  I  I125  1  0.33029942  0.83288301  0.82848419  1
  I  I126  1  0.66657363  0.16823034  0.16456701  1
  I  I127  1  0.66637036  0.16744251  0.50184929  1
  I  I128  1  0.66153841  0.17148180  0.83416454  1
  I  I129  1  0.66233559  0.50157472  0.16042607  1
  I  I130  1  0.66871448  0.50689866  0.50079864  1
  I  I131  1  0.66327796  0.49602066  0.83603982  1
  I  I132  1  0.66559073  0.83028892  0.17438093  1
  I  I133  1  0.66683601  0.82773212  0.49627951  1
  I  I134  1  0.66663195  0.83456859  0.83022979  1
