# generated using pymatgen
data_Cs27Sn14Pb13I81
_symmetry_space_group_name_H-M   'P 1'
_cell_length_a   18.97948141
_cell_length_b   18.97048009
_cell_length_c   18.97541944
_cell_angle_alpha   89.99767279
_cell_angle_beta   90.00050705
_cell_angle_gamma   90.00061130
_symmetry_Int_Tables_number   1
_chemical_formula_structural   Cs27Sn14Pb13I81
_chemical_formula_sum   'Cs27 Sn14 Pb13 I81'
_cell_volume   6832.09737474
_cell_formula_units_Z   1
loop_
 _symmetry_equiv_pos_site_id
 _symmetry_equiv_pos_as_xyz
  1  'x, y, z'
loop_
 _atom_site_type_symbol
 _atom_site_label
 _atom_site_symmetry_multiplicity
 _atom_site_fract_x
 _atom_site_fract_y
 _atom_site_fract_z
 _atom_site_occupancy
  Cs  Cs0  1  -0.00026567  -0.00147752  -0.00143020  1
  Cs  Cs1  1  -0.00453080  0.00175955  0.33276050  1
  Cs  Cs2  1  -0.00055282  0.00225379  0.66883025  1
  Cs  Cs3  1  0.00099398  0.33953447  0.00350167  1
  Cs  Cs4  1  0.00051484  0.33487972  0.33291059  1
  Cs  Cs5  1  0.00048353  0.32730977  0.66377059  1
  Cs  Cs6  1  0.00012529  0.66182153  -0.00605420  1
  Cs  Cs7  1  0.00117748  0.66263729  0.33206918  1
  Cs  Cs8  1  0.00934386  0.66777937  0.67532256  1
  Cs  Cs9  1  0.33652663  0.00215074  0.00446058  1
  Cs  Cs10  1  0.33399527  -0.00198228  0.33073591  1
  Cs  Cs11  1  0.33104658  -0.00237394  0.66469329  1
  Cs  Cs12  1  0.33629495  0.33195246  -0.00014821  1
  Cs  Cs13  1  0.33138350  0.33329844  0.33070067  1
  Cs  Cs14  1  0.33451364  0.33448801  0.66911031  1
  Cs  Cs15  1  0.33527867  0.66677405  -0.00226419  1
  Cs  Cs16  1  0.33523321  0.66888231  0.33606270  1
  Cs  Cs17  1  0.32421725  0.66835757  0.66653087  1
  Cs  Cs18  1  0.66508860  -0.00070833  0.00120117  1
  Cs  Cs19  1  0.66800831  -0.00094542  0.33377217  1
  Cs  Cs20  1  0.66875261  0.00098430  0.66391598  1
  Cs  Cs21  1  0.66237651  0.33686092  -0.00394218  1
  Cs  Cs22  1  0.66762341  0.33465731  0.33573034  1
  Cs  Cs23  1  0.66560835  0.33303006  0.66482537  1
  Cs  Cs24  1  0.66726288  0.66593258  -0.00056465  1
  Cs  Cs25  1  0.66482757  0.66732919  0.33243076  1
  Cs  Cs26  1  0.66648585  0.66562699  0.66830210  1
  Sn  Sn27  1  0.83306737  0.50068144  0.50021558  1
  Sn  Sn28  1  0.16615444  0.16641854  0.83330403  1
  Sn  Sn29  1  0.16684067  0.16637335  0.50020208  1
  Sn  Sn30  1  0.50062102  0.49948908  0.49918646  1
  Sn  Sn31  1  0.83294231  0.16654759  0.16629182  1
  Sn  Sn32  1  0.50027067  0.50068476  0.16764329  1
  Sn  Sn33  1  0.49971784  0.16719398  0.49958385  1
  Sn  Sn34  1  0.50026255  0.83242268  0.16590532  1
  Sn  Sn35  1  0.83397822  0.83353205  0.16722999  1
  Sn  Sn36  1  0.83361435  0.83242269  0.49982208  1
  Sn  Sn37  1  0.83374081  0.16669010  0.83390172  1
  Sn  Sn38  1  0.16587418  0.83319215  0.16687216  1
  Sn  Sn39  1  0.50038519  0.83365513  0.83350883  1
  Sn  Sn40  1  0.83320628  0.16664444  0.49966102  1
  Pb  Pb41  1  0.50241704  0.16661975  0.16893654  1
  Pb  Pb42  1  0.16682421  0.49761199  0.49993090  1
  Pb  Pb43  1  0.50000834  0.50258759  0.83231406  1
  Pb  Pb44  1  0.16316551  0.83580306  0.49793481  1
  Pb  Pb45  1  0.83194501  0.83510689  0.83357051  1
  Pb  Pb46  1  0.16672630  0.49653341  0.83342119  1
  Pb  Pb47  1  0.50163375  0.83290429  0.49980322  1
  Pb  Pb48  1  0.83146415  0.50039022  0.16841600  1
  Pb  Pb49  1  0.16896259  0.83604409  0.83594165  1
  Pb  Pb50  1  0.16409174  0.16513806  0.16657356  1
  Pb  Pb51  1  0.16980443  0.50293866  0.16688033  1
  Pb  Pb52  1  0.50006218  0.16473835  0.83071119  1
  Pb  Pb53  1  0.83332396  0.49683706  0.82989596  1
  I  I54  1  0.17248672  -0.00275259  0.16743737  1
  I  I55  1  0.16794826  0.00400446  0.50349912  1
  I  I56  1  0.16190402  0.00356375  0.82783374  1
  I  I57  1  0.16662656  0.33311761  0.16624074  1
  I  I58  1  0.16171623  0.32912569  0.50252249  1
  I  I59  1  0.16346222  0.32832640  0.82884554  1
  I  I60  1  0.16047791  0.67109082  0.16763642  1
  I  I61  1  0.16732809  0.66700419  0.49888417  1
  I  I62  1  0.16817370  0.66720560  0.83353565  1
  I  I63  1  0.49899931  -0.00290039  0.16458699  1
  I  I64  1  0.50199284  0.00240433  0.50037174  1
  I  I65  1  0.50065063  -0.00275640  0.83976251  1
  I  I66  1  0.50241591  0.33550109  0.16966884  1
  I  I67  1  0.50552254  0.33297897  0.49551791  1
  I  I68  1  0.49942134  0.33310140  0.83609246  1
  I  I69  1  0.50199869  0.66789538  0.16926773  1
  I  I70  1  0.50646603  0.66416651  0.49822760  1
  I  I71  1  0.50166863  0.67041410  0.83414971  1
  I  I72  1  0.83086022  -0.00050980  0.17224273  1
  I  I73  1  0.83240228  0.00141056  0.49893148  1
  I  I74  1  0.83571366  0.00338669  0.82778474  1
  I  I75  1  0.83241099  0.33061275  0.16839705  1
  I  I76  1  0.83233110  0.33167040  0.50025362  1
  I  I77  1  0.83561180  0.32831244  0.83432786  1
  I  I78  1  0.83357212  0.67006213  0.17259904  1
  I  I79  1  0.82521853  0.66697247  0.49245566  1
  I  I80  1  0.83136894  0.66668643  0.83300336  1
  I  I81  1  0.16210905  0.16389025  -0.00242574  1
  I  I82  1  0.16547254  0.16558033  0.33609560  1
  I  I83  1  0.16096399  0.16605453  0.66554925  1
  I  I84  1  0.16787445  0.49720040  0.00033961  1
  I  I85  1  0.16484553  0.49632668  0.33340415  1
  I  I86  1  0.16923296  0.50413919  0.66638120  1
  I  I87  1  0.16199437  0.83665510  0.00367438  1
  I  I88  1  0.17316842  0.83630685  0.33027727  1
  I  I89  1  0.16811847  0.83229161  0.66667679  1
  I  I90  1  0.50005359  0.16866852  0.00020316  1
  I  I91  1  0.50058073  0.16515028  0.33709388  1
  I  I92  1  0.50526846  0.17008114  0.66265878  1
  I  I93  1  0.50008505  0.50237363  0.00270191  1
  I  I94  1  0.50425842  0.50229394  0.33408801  1
  I  I95  1  0.50506028  0.49557378  0.66291427  1
  I  I96  1  0.50224525  0.82945432  0.00221724  1
  I  I97  1  0.49922214  0.83283849  0.33055369  1
  I  I98  1  0.50335403  0.83577194  0.66821513  1
  I  I99  1  0.83756672  0.15943465  0.00039552  1
  I  I100  1  0.83289728  0.16501040  0.33474164  1
  I  I101  1  0.83383749  0.16651892  0.66493029  1
  I  I102  1  0.83155939  0.49923034  0.00000301  1
  I  I103  1  0.83101605  0.49457180  0.33662974  1
  I  I104  1  0.82495419  0.50017722  0.66151418  1
  I  I105  1  0.83336625  0.83946193  0.00342643  1
  I  I106  1  0.83023938  0.83989967  0.33287051  1
  I  I107  1  0.82898276  0.83593447  0.66385212  1
  I  I108  1  -0.00402479  0.16093480  0.17212109  1
  I  I109  1  -0.00175286  0.16610687  0.50095007  1
  I  I110  1  -0.00104597  0.16481228  0.82645984  1
  I  I111  1  -0.00023488  0.49983933  0.16832423  1
  I  I112  1  -0.00317576  0.49787441  0.49894158  1
  I  I113  1  -0.00024343  0.50455844  0.83307194  1
  I  I114  1  -0.00151294  0.84103191  0.17297674  1
  I  I115  1  -0.00501287  0.83428556  0.49495311  1
  I  I116  1  0.00009613  0.83297628  0.83342922  1
  I  I117  1  0.33355955  0.16534706  0.16735231  1
  I  I118  1  0.33361267  0.17091726  0.50485643  1
  I  I119  1  0.33098490  0.16456369  0.82790451  1
  I  I120  1  0.33803656  0.50364253  0.17380340  1
  I  I121  1  0.33681173  0.49550704  0.49623733  1
  I  I122  1  0.33371385  0.49809969  0.83166030  1
  I  I123  1  0.33450558  0.83000919  0.16217601  1
  I  I124  1  0.33320527  0.83444721  0.49933112  1
  I  I125  1  0.33673165  0.83550015  0.83724888  1
  I  I126  1  0.67044058  0.16034275  0.16735347  1
  I  I127  1  0.66817632  0.16696531  0.50006764  1
  I  I128  1  0.66941562  0.16476350  0.83165136  1
  I  I129  1  0.66358951  0.50523667  0.16952545  1
  I  I130  1  0.66669077  0.49386913  0.49603484  1
  I  I131  1  0.66659555  0.49702620  0.83478403  1
  I  I132  1  0.66698891  0.83426455  0.16728136  1
  I  I133  1  0.66962372  0.83964630  0.49479749  1
  I  I134  1  0.66422955  0.83643221  0.83875590  1
