# generated using pymatgen
data_Cs27Sn14Pb13I81
_symmetry_space_group_name_H-M   'P 1'
_cell_length_a   18.97987347
_cell_length_b   18.97498569
_cell_length_c   18.97074770
_cell_angle_alpha   90.00067284
_cell_angle_beta   90.00026898
_cell_angle_gamma   90.00272484
_symmetry_Int_Tables_number   1
_chemical_formula_structural   Cs27Sn14Pb13I81
_chemical_formula_sum   'Cs27 Sn14 Pb13 I81'
_cell_volume   6832.17870816
_cell_formula_units_Z   1
loop_
 _symmetry_equiv_pos_site_id
 _symmetry_equiv_pos_as_xyz
  1  'x, y, z'
loop_
 _atom_site_type_symbol
 _atom_site_label
 _atom_site_symmetry_multiplicity
 _atom_site_fract_x
 _atom_site_fract_y
 _atom_site_fract_z
 _atom_site_occupancy
  Cs  Cs0  1  0.00203978  -0.00014289  -0.00126993  1
  Cs  Cs1  1  0.00182083  0.00387279  0.33415439  1
  Cs  Cs2  1  -0.00270376  0.00052056  0.66811115  1
  Cs  Cs3  1  -0.00113313  0.33241226  0.00530985  1
  Cs  Cs4  1  -0.00290822  0.33044867  0.32788379  1
  Cs  Cs5  1  0.00269106  0.33359579  0.66608832  1
  Cs  Cs6  1  -0.00592159  0.66686039  -0.00269151  1
  Cs  Cs7  1  0.00453743  0.66607272  0.33649807  1
  Cs  Cs8  1  0.00284236  0.66574853  0.66601053  1
  Cs  Cs9  1  0.33110930  -0.00029427  0.00226987  1
  Cs  Cs10  1  0.33334630  -0.00489939  0.32923647  1
  Cs  Cs11  1  0.33351279  0.00403783  0.66740780  1
  Cs  Cs12  1  0.33687236  0.33451702  -0.00011307  1
  Cs  Cs13  1  0.33516640  0.33331551  0.33400672  1
  Cs  Cs14  1  0.33400078  0.33419848  0.66638714  1
  Cs  Cs15  1  0.33351474  0.66538217  0.00068899  1
  Cs  Cs16  1  0.33295328  0.67144554  0.33364814  1
  Cs  Cs17  1  0.32730432  0.66204921  0.66468922  1
  Cs  Cs18  1  0.66593189  -0.00483344  -0.00429829  1
  Cs  Cs19  1  0.66512743  -0.00044619  0.34055811  1
  Cs  Cs20  1  0.66934358  -0.00048583  0.66685424  1
  Cs  Cs21  1  0.66388703  0.33475979  0.00199040  1
  Cs  Cs22  1  0.66668246  0.33489164  0.33348773  1
  Cs  Cs23  1  0.66355506  0.33293927  0.66555474  1
  Cs  Cs24  1  0.67020528  0.66785567  -0.00028271  1
  Cs  Cs25  1  0.66356808  0.66477938  0.33302230  1
  Cs  Cs26  1  0.66773276  0.66744473  0.66651011  1
  Sn  Sn27  1  0.16760034  0.50004704  0.16654893  1
  Sn  Sn28  1  0.83280139  0.49984672  0.50077444  1
  Sn  Sn29  1  0.16598310  0.16635682  0.83286339  1
  Sn  Sn30  1  0.83334882  0.83379758  0.16704265  1
  Sn  Sn31  1  0.50033177  0.16670343  0.16738889  1
  Sn  Sn32  1  0.50057193  0.49944239  0.49937758  1
  Sn  Sn33  1  0.16745494  0.16683567  0.50028596  1
  Sn  Sn34  1  0.49904044  0.16719511  0.49905558  1
  Sn  Sn35  1  0.49947060  0.83287792  0.83283122  1
  Sn  Sn36  1  0.83306949  0.49941637  0.83234113  1
  Sn  Sn37  1  0.83390196  0.16714115  0.83357260  1
  Sn  Sn38  1  0.83354800  0.83337139  0.83389715  1
  Sn  Sn39  1  0.16676066  0.83381760  0.83333729  1
  Sn  Sn40  1  0.49905798  0.49960243  0.16741521  1
  Pb  Pb41  1  0.83269937  0.50153467  0.16705442  1
  Pb  Pb42  1  0.50174240  0.83310317  0.16486745  1
  Pb  Pb43  1  0.50199515  0.50225436  0.83312805  1
  Pb  Pb44  1  0.49975326  0.16513806  0.83315539  1
  Pb  Pb45  1  0.83308308  0.16887797  0.50198281  1
  Pb  Pb46  1  0.16421072  0.49929921  0.83526733  1
  Pb  Pb47  1  0.16663191  0.83654144  0.50252089  1
  Pb  Pb48  1  0.16682218  0.49761301  0.49778596  1
  Pb  Pb49  1  0.49979509  0.83320430  0.50267908  1
  Pb  Pb50  1  0.83033323  0.16395633  0.16421738  1
  Pb  Pb51  1  0.83341253  0.83079356  0.50022978  1
  Pb  Pb52  1  0.16420238  0.83114470  0.16432018  1
  Pb  Pb53  1  0.16878013  0.16806942  0.16624686  1
  I  I54  1  0.16754387  0.00006016  0.16797967  1
  I  I55  1  0.17237687  0.00464657  0.50043250  1
  I  I56  1  0.16157633  0.00028874  0.83001595  1
  I  I57  1  0.16640012  0.33599104  0.16394777  1
  I  I58  1  0.16858502  0.33006734  0.50845412  1
  I  I59  1  0.16230255  0.33021354  0.83065708  1
  I  I60  1  0.17317833  0.66333747  0.16610541  1
  I  I61  1  0.16674014  0.66629126  0.50073136  1
  I  I62  1  0.16540690  0.66898331  0.83619927  1
  I  I63  1  0.50164318  0.00244901  0.16943541  1
  I  I64  1  0.49622244  0.00336077  0.49660307  1
  I  I65  1  0.50526312  -0.00268157  0.83359900  1
  I  I66  1  0.49735411  0.33408205  0.16858540  1
  I  I67  1  0.50075634  0.33340518  0.49726470  1
  I  I68  1  0.50092412  0.33351380  0.83412230  1
  I  I69  1  0.49827435  0.66366357  0.16984081  1
  I  I70  1  0.50522765  0.66328676  0.49667408  1
  I  I71  1  0.50108015  0.67004424  0.83442424  1
  I  I72  1  0.83241716  -0.00349584  0.15879064  1
  I  I73  1  0.83236565  0.00032983  0.50108142  1
  I  I74  1  0.83357071  -0.00052401  0.83787929  1
  I  I75  1  0.83493769  0.33325742  0.16451556  1
  I  I76  1  0.83149326  0.33672470  0.50530234  1
  I  I77  1  0.83773194  0.33331697  0.82861108  1
  I  I78  1  0.83129471  0.66899439  0.15804516  1
  I  I79  1  0.82694973  0.66268904  0.50555718  1
  I  I80  1  0.83256313  0.66726316  0.83440335  1
  I  I81  1  0.16363734  0.16329377  -0.00309562  1
  I  I82  1  0.16846898  0.17039491  0.33570770  1
  I  I83  1  0.16895276  0.16369012  0.66761316  1
  I  I84  1  0.17176941  0.49847090  0.00283619  1
  I  I85  1  0.16468547  0.49805772  0.33022576  1
  I  I86  1  0.16837735  0.50203496  0.66674425  1
  I  I87  1  0.16786269  0.84051788  -0.00398803  1
  I  I88  1  0.16450895  0.83353607  0.33309034  1
  I  I89  1  0.16285437  0.83200594  0.67112189  1
  I  I90  1  0.50078761  0.17052696  0.00199476  1
  I  I91  1  0.49531506  0.17051089  0.33414629  1
  I  I92  1  0.49903075  0.17034401  0.66420614  1
  I  I93  1  0.49813437  0.49631828  0.00256619  1
  I  I94  1  0.50354014  0.49596269  0.33352958  1
  I  I95  1  0.50287539  0.49621807  0.66396695  1
  I  I96  1  0.50021434  0.83417180  -0.00329736  1
  I  I97  1  0.50322407  0.83365829  0.33335580  1
  I  I98  1  0.50479973  0.83440769  0.67081814  1
  I  I99  1  0.83818836  0.17130683  -0.00421167  1
  I  I100  1  0.83648144  0.16654432  0.33333050  1
  I  I101  1  0.83197903  0.16112287  0.67037243  1
  I  I102  1  0.83371365  0.50020399  -0.00262326  1
  I  I103  1  0.83198311  0.50173830  0.33572560  1
  I  I104  1  0.82798475  0.50225661  0.66746407  1
  I  I105  1  0.83266148  0.83013836  -0.00271538  1
  I  I106  1  0.83105677  0.83010699  0.33080938  1
  I  I107  1  0.83306176  0.83517327  0.67055117  1
  I  I108  1  -0.00009527  0.16843399  0.16885934  1
  I  I109  1  0.00222444  0.16761369  0.50368660  1
  I  I110  1  0.00014167  0.16190910  0.82802675  1
  I  I111  1  0.00131538  0.50177297  0.16527382  1
  I  I112  1  -0.00232183  0.50034964  0.50332843  1
  I  I113  1  -0.00385811  0.50507618  0.82953696  1
  I  I114  1  -0.00341155  0.83064170  0.15907970  1
  I  I115  1  -0.00002728  0.83176557  0.50126511  1
  I  I116  1  -0.00082407  0.83414436  0.83744295  1
  I  I117  1  0.33668399  0.16807320  0.16468009  1
  I  I118  1  0.33421073  0.17301534  0.50440702  1
  I  I119  1  0.33086060  0.16119357  0.83272491  1
  I  I120  1  0.33497381  0.49670922  0.17036746  1
  I  I121  1  0.33628821  0.49779796  0.49846946  1
  I  I122  1  0.33333364  0.50134896  0.83183294  1
  I  I123  1  0.33335296  0.83411368  0.16352061  1
  I  I124  1  0.33329966  0.82785437  0.50229034  1
  I  I125  1  0.33263999  0.83933627  0.83281261  1
  I  I126  1  0.66275822  0.17443639  0.17087419  1
  I  I127  1  0.66376357  0.16880778  0.49781869  1
  I  I128  1  0.66905563  0.16495553  0.83363039  1
  I  I129  1  0.66393196  0.49760641  0.16729700  1
  I  I130  1  0.66568906  0.49458689  0.49851788  1
  I  I131  1  0.67018862  0.49987829  0.83464104  1
  I  I132  1  0.66931595  0.83082129  0.15708915  1
  I  I133  1  0.66659808  0.83795812  0.50398413  1
  I  I134  1  0.66810180  0.83350038  0.83713913  1
