# generated using pymatgen
data_Cs27Sn13Pb14I81
_symmetry_space_group_name_H-M   'P 1'
_cell_length_a   18.99568565
_cell_length_b   18.99846602
_cell_length_c   18.98114845
_cell_angle_alpha   90.00101890
_cell_angle_beta   89.99984268
_cell_angle_gamma   90.00016968
_symmetry_Int_Tables_number   1
_chemical_formula_structural   Cs27Sn13Pb14I81
_chemical_formula_sum   'Cs27 Sn13 Pb14 I81'
_cell_volume   6850.08556173
_cell_formula_units_Z   1
loop_
 _symmetry_equiv_pos_site_id
 _symmetry_equiv_pos_as_xyz
  1  'x, y, z'
loop_
 _atom_site_type_symbol
 _atom_site_label
 _atom_site_symmetry_multiplicity
 _atom_site_fract_x
 _atom_site_fract_y
 _atom_site_fract_z
 _atom_site_occupancy
  Cs  Cs0  1  0.00111390  -0.00335945  0.00288694  1
  Cs  Cs1  1  0.00001703  0.00310115  0.32556053  1
  Cs  Cs2  1  -0.00028894  0.00308394  0.66692001  1
  Cs  Cs3  1  -0.00127595  0.33473806  -0.00020591  1
  Cs  Cs4  1  0.00183822  0.33206356  0.32280736  1
  Cs  Cs5  1  0.00068780  0.33110991  0.66807381  1
  Cs  Cs6  1  0.00475382  0.66801560  0.00283438  1
  Cs  Cs7  1  -0.00843666  0.66684593  0.32762222  1
  Cs  Cs8  1  -0.00094283  0.66726257  0.66706460  1
  Cs  Cs9  1  0.34240510  -0.01104965  0.00530174  1
  Cs  Cs10  1  0.33064175  0.00318188  0.33318998  1
  Cs  Cs11  1  0.33306212  -0.00229852  0.66555918  1
  Cs  Cs12  1  0.33535935  0.33422508  0.00091645  1
  Cs  Cs13  1  0.33000631  0.33299043  0.33570346  1
  Cs  Cs14  1  0.33227170  0.33428088  0.66533222  1
  Cs  Cs15  1  0.33067486  0.67196671  0.00151505  1
  Cs  Cs16  1  0.33451213  0.66470138  0.33675138  1
  Cs  Cs17  1  0.33250192  0.66632259  0.66549074  1
  Cs  Cs18  1  0.65819964  0.00123227  0.00652043  1
  Cs  Cs19  1  0.66864106  -0.00237721  0.32818628  1
  Cs  Cs20  1  0.66741328  0.00246150  0.66733641  1
  Cs  Cs21  1  0.66566034  0.33020293  -0.00165925  1
  Cs  Cs22  1  0.66792699  0.33466379  0.33273491  1
  Cs  Cs23  1  0.66687498  0.33315815  0.66771892  1
  Cs  Cs24  1  0.66481214  0.66759088  0.00026236  1
  Cs  Cs25  1  0.67289734  0.66793615  0.33585283  1
  Cs  Cs26  1  0.66872529  0.66528623  0.66430828  1
  Sn  Sn27  1  0.50114635  0.16687006  0.50058774  1
  Sn  Sn28  1  0.49991473  0.49987956  0.16710679  1
  Sn  Sn29  1  0.83309069  0.83386283  0.83294169  1
  Sn  Sn30  1  0.83363934  0.50021819  0.83269754  1
  Sn  Sn31  1  0.16632160  0.50097950  0.50064858  1
  Sn  Sn32  1  0.83301151  0.16707092  0.50050117  1
  Sn  Sn33  1  0.49955704  0.50007744  0.83321812  1
  Sn  Sn34  1  0.16690776  0.16667274  0.83335458  1
  Sn  Sn35  1  0.16631044  0.83219105  0.50039454  1
  Sn  Sn36  1  0.83401021  0.16620908  0.83266231  1
  Sn  Sn37  1  0.49959858  0.83324207  0.50061685  1
  Sn  Sn38  1  0.16678432  0.49914002  0.83220498  1
  Sn  Sn39  1  0.49969075  0.49995757  0.50010501  1
  Pb  Pb40  1  0.16684138  0.83297114  0.17065986  1
  Pb  Pb41  1  0.16505333  0.83336319  0.83153448  1
  Pb  Pb42  1  0.50211142  0.83063993  0.83083861  1
  Pb  Pb43  1  0.16717431  0.16679324  0.16180599  1
  Pb  Pb44  1  0.83328679  0.16688653  0.16565704  1
  Pb  Pb45  1  0.83311591  0.83327156  0.16302544  1
  Pb  Pb46  1  0.83060915  0.49988923  0.16304684  1
  Pb  Pb47  1  0.49948412  0.16824052  0.83168347  1
  Pb  Pb48  1  0.16889948  0.49997654  0.16666785  1
  Pb  Pb49  1  0.49983487  0.16917584  0.17012604  1
  Pb  Pb50  1  0.49991795  0.83034914  0.17040045  1
  Pb  Pb51  1  0.83427894  0.49776822  0.50156567  1
  Pb  Pb52  1  0.16630579  0.16704788  0.50130126  1
  Pb  Pb53  1  0.83383001  0.83590968  0.50150424  1
  I  I54  1  0.16667131  -0.00006727  0.16781615  1
  I  I55  1  0.17095118  -0.00179691  0.50290328  1
  I  I56  1  0.15922923  0.00256821  0.82931878  1
  I  I57  1  0.16722276  0.33355479  0.17323508  1
  I  I58  1  0.17175880  0.33626966  0.50340186  1
  I  I59  1  0.16213826  0.33494037  0.82647047  1
  I  I60  1  0.16736113  0.66634665  0.16038174  1
  I  I61  1  0.17692405  0.66513598  0.50728537  1
  I  I62  1  0.16625765  0.66334641  0.83137700  1
  I  I63  1  0.50043258  -0.00026885  0.16607024  1
  I  I64  1  0.49932447  0.00006831  0.50265894  1
  I  I65  1  0.50044850  -0.00014384  0.83105960  1
  I  I66  1  0.50031228  0.33708241  0.16687856  1
  I  I67  1  0.49967884  0.33467990  0.50068214  1
  I  I68  1  0.50428011  0.33699541  0.83038564  1
  I  I69  1  0.49965734  0.66269727  0.16579843  1
  I  I70  1  0.49489190  0.66531189  0.50060561  1
  I  I71  1  0.49949963  0.66200867  0.83103711  1
  I  I72  1  0.83247079  0.00014804  0.16633879  1
  I  I73  1  0.82909735  0.00349280  0.50811994  1
  I  I74  1  0.83976597  0.00121395  0.82678663  1
  I  I75  1  0.83287502  0.33347863  0.16602277  1
  I  I76  1  0.82815332  0.33021524  0.50765807  1
  I  I77  1  0.83345420  0.33351009  0.82916555  1
  I  I78  1  0.83228934  0.66640847  0.16757510  1
  I  I79  1  0.83028398  0.66652645  0.50238476  1
  I  I80  1  0.83198244  0.66558321  0.83263937  1
  I  I81  1  0.15786998  0.17574850  -0.00616883  1
  I  I82  1  0.16594937  0.16680869  0.33352989  1
  I  I83  1  0.16443936  0.16959096  0.66928344  1
  I  I84  1  0.16617531  0.49515741  -0.00386931  1
  I  I85  1  0.17261030  0.50301140  0.33696481  1
  I  I86  1  0.17218140  0.50001976  0.66713308  1
  I  I87  1  0.16420343  0.83345397  -0.00024086  1
  I  I88  1  0.17120645  0.82739450  0.33904304  1
  I  I89  1  0.17141217  0.83092168  0.66367447  1
  I  I90  1  0.50091082  0.16897911  -0.00009726  1
  I  I91  1  0.50542974  0.16832579  0.33874525  1
  I  I92  1  0.50173669  0.17016575  0.66338516  1
  I  I93  1  0.50177125  0.49851495  -0.00140282  1
  I  I94  1  0.49420235  0.49945921  0.33546649  1
  I  I95  1  0.49963918  0.49976509  0.66610891  1
  I  I96  1  0.50212950  0.83264515  -0.00004672  1
  I  I97  1  0.49710858  0.83201096  0.33847908  1
  I  I98  1  0.49653672  0.83041683  0.66291726  1
  I  I99  1  0.83829895  0.16863467  -0.00446925  1
  I  I100  1  0.82855183  0.16653152  0.33633382  1
  I  I101  1  0.83239300  0.16744830  0.66784806  1
  I  I102  1  0.83462375  0.49672360  -0.00568777  1
  I  I103  1  0.83335038  0.49840857  0.33337405  1
  I  I104  1  0.82818729  0.50108198  0.67009665  1
  I  I105  1  0.83431025  0.83428169  -0.00532371  1
  I  I106  1  0.83320240  0.83461844  0.33362934  1
  I  I107  1  0.83267223  0.83040546  0.66940452  1
  I  I108  1  0.00006085  0.16764868  0.17393370  1
  I  I109  1  -0.00241276  0.16626080  0.50484089  1
  I  I110  1  -0.00103002  0.17280633  0.82540716  1
  I  I111  1  -0.00000540  0.50000262  0.16784679  1
  I  I112  1  0.00318558  0.50379627  0.50673521  1
  I  I113  1  0.00035477  0.49881650  0.82701623  1
  I  I114  1  -0.00009124  0.83236146  0.16936304  1
  I  I115  1  0.00265264  0.82856283  0.50365704  1
  I  I116  1  -0.00274295  0.82881621  0.82913055  1
  I  I117  1  0.33359192  0.16826177  0.16822123  1
  I  I118  1  0.33577128  0.16764081  0.50153079  1
  I  I119  1  0.33065420  0.17395103  0.82966490  1
  I  I120  1  0.33668069  0.49945221  0.16314560  1
  I  I121  1  0.33458022  0.49866796  0.50444397  1
  I  I122  1  0.33321953  0.49407232  0.83139036  1
  I  I123  1  0.33364441  0.83319228  0.16041044  1
  I  I124  1  0.33402486  0.83371830  0.50202892  1
  I  I125  1  0.33346472  0.83421943  0.83437499  1
  I  I126  1  0.66648959  0.16771575  0.16187156  1
  I  I127  1  0.66621145  0.16788007  0.50706597  1
  I  I128  1  0.66937053  0.16893735  0.83032075  1
  I  I129  1  0.66281198  0.49998925  0.16980904  1
  I  I130  1  0.66364155  0.50229601  0.50110765  1
  I  I131  1  0.66639207  0.49990919  0.83267140  1
  I  I132  1  0.66634167  0.83241781  0.16892157  1
  I  I133  1  0.66399172  0.82925040  0.50180425  1
  I  I134  1  0.66985157  0.83353608  0.82967571  1
