# generated using pymatgen
data_Cs27Sn14Pb13I81
_symmetry_space_group_name_H-M   'P 1'
_cell_length_a   18.98458825
_cell_length_b   18.96898460
_cell_length_c   18.97372272
_cell_angle_alpha   90.00046319
_cell_angle_beta   90.00011111
_cell_angle_gamma   90.00007008
_symmetry_Int_Tables_number   1
_chemical_formula_structural   Cs27Sn14Pb13I81
_chemical_formula_sum   'Cs27 Sn14 Pb13 I81'
_cell_volume   6832.78594786
_cell_formula_units_Z   1
loop_
 _symmetry_equiv_pos_site_id
 _symmetry_equiv_pos_as_xyz
  1  'x, y, z'
loop_
 _atom_site_type_symbol
 _atom_site_label
 _atom_site_symmetry_multiplicity
 _atom_site_fract_x
 _atom_site_fract_y
 _atom_site_fract_z
 _atom_site_occupancy
  Cs  Cs0  1  -0.00158302  0.00669780  -0.00116989  1
  Cs  Cs1  1  0.00046339  -0.00244177  0.33464941  1
  Cs  Cs2  1  -0.00171606  -0.00125339  0.66460406  1
  Cs  Cs3  1  0.00610421  0.32252516  0.00645631  1
  Cs  Cs4  1  -0.00014904  0.33171039  0.32887126  1
  Cs  Cs5  1  0.00233324  0.33712727  0.66705767  1
  Cs  Cs6  1  0.00032562  0.66741445  -0.00099139  1
  Cs  Cs7  1  -0.00052347  0.66955152  0.33612222  1
  Cs  Cs8  1  -0.00077439  0.66563483  0.66511145  1
  Cs  Cs9  1  0.33406331  -0.00001055  -0.00072380  1
  Cs  Cs10  1  0.33505052  -0.00174108  0.33430413  1
  Cs  Cs11  1  0.33688282  0.00219651  0.66619072  1
  Cs  Cs12  1  0.32240044  0.33382099  0.00175603  1
  Cs  Cs13  1  0.33418535  0.33463104  0.33131040  1
  Cs  Cs14  1  0.33323719  0.33288389  0.66943760  1
  Cs  Cs15  1  0.33482973  0.66669816  0.00094610  1
  Cs  Cs16  1  0.33399609  0.66841607  0.33323130  1
  Cs  Cs17  1  0.33260888  0.66554907  0.66655129  1
  Cs  Cs18  1  0.66706211  0.00100128  -0.00823572  1
  Cs  Cs19  1  0.66418685  -0.00053185  0.33502080  1
  Cs  Cs20  1  0.66484911  0.00277975  0.67116944  1
  Cs  Cs21  1  0.67176391  0.33750361  0.00453184  1
  Cs  Cs22  1  0.66654742  0.33423486  0.33262434  1
  Cs  Cs23  1  0.66491240  0.33524627  0.66495442  1
  Cs  Cs24  1  0.66516068  0.66491177  -0.00274922  1
  Cs  Cs25  1  0.66647650  0.66667829  0.33334319  1
  Cs  Cs26  1  0.66735957  0.66568884  0.66780795  1
  Sn  Sn27  1  0.83329153  0.49973220  0.83298115  1
  Sn  Sn28  1  0.16607759  0.16592745  0.49997789  1
  Sn  Sn29  1  0.16687625  0.83414573  0.50018314  1
  Sn  Sn30  1  0.16654412  0.83346161  0.16648556  1
  Sn  Sn31  1  0.83266035  0.83357089  0.49967075  1
  Sn  Sn32  1  0.50064532  0.50095422  0.50077532  1
  Sn  Sn33  1  0.50065889  0.83459814  0.16713495  1
  Sn  Sn34  1  0.50035140  0.16572286  0.16639777  1
  Sn  Sn35  1  0.50042158  0.83255029  0.49981365  1
  Sn  Sn36  1  0.83251590  0.49985481  0.50050324  1
  Sn  Sn37  1  0.83277366  0.83332722  0.16693046  1
  Sn  Sn38  1  0.16659115  0.83337005  0.83297262  1
  Sn  Sn39  1  0.50047760  0.49980467  0.83271692  1
  Sn  Sn40  1  0.83395672  0.16666559  0.50006445  1
  Pb  Pb41  1  0.50004941  0.16699192  0.49898712  1
  Pb  Pb42  1  0.83117244  0.16355907  0.16920644  1
  Pb  Pb43  1  0.16631997  0.50264796  0.16691719  1
  Pb  Pb44  1  0.49827351  0.83176443  0.83317493  1
  Pb  Pb45  1  0.83523139  0.83171748  0.83301832  1
  Pb  Pb46  1  0.50009806  0.17045654  0.83681210  1
  Pb  Pb47  1  0.16609731  0.50178695  0.83326502  1
  Pb  Pb48  1  0.83322430  0.17015599  0.83053294  1
  Pb  Pb49  1  0.16666211  0.49999753  0.49978096  1
  Pb  Pb50  1  0.16665434  0.16369639  0.83035265  1
  Pb  Pb51  1  0.83360996  0.50219474  0.16706918  1
  Pb  Pb52  1  0.16870195  0.16363754  0.16950113  1
  Pb  Pb53  1  0.49997378  0.50042117  0.16688146  1
  I  I54  1  0.16446522  -0.00468829  0.16582949  1
  I  I55  1  0.16370974  -0.00230811  0.49940156  1
  I  I56  1  0.16687994  -0.00447626  0.83601001  1
  I  I57  1  0.16937323  0.33239628  0.16747276  1
  I  I58  1  0.16413791  0.33053800  0.50027837  1
  I  I59  1  0.16761987  0.33320866  0.83181650  1
  I  I60  1  0.17075377  0.67196889  0.17141954  1
  I  I61  1  0.16482071  0.67043340  0.49906716  1
  I  I62  1  0.16684669  0.67003880  0.83005013  1
  I  I63  1  0.49872176  -0.00274835  0.17473124  1
  I  I64  1  0.50103132  -0.00315676  0.49688834  1
  I  I65  1  0.49804504  -0.00001677  0.83088307  1
  I  I66  1  0.50053859  0.33115523  0.16880169  1
  I  I67  1  0.50279085  0.33610209  0.50113877  1
  I  I68  1  0.50349890  0.33825907  0.82469882  1
  I  I69  1  0.49883775  0.67031807  0.16844189  1
  I  I70  1  0.50189925  0.66795128  0.49769898  1
  I  I71  1  0.50312752  0.66392941  0.83313490  1
  I  I72  1  0.83691456  -0.00468047  0.17272515  1
  I  I73  1  0.83486919  -0.00142221  0.49426518  1
  I  I74  1  0.83522876  -0.00002907  0.83316554  1
  I  I75  1  0.83041919  0.33298844  0.16774578  1
  I  I76  1  0.83261987  0.33400770  0.50536862  1
  I  I77  1  0.82811177  0.33821354  0.82710380  1
  I  I78  1  0.83097167  0.67078265  0.17326664  1
  I  I79  1  0.83337163  0.66760789  0.49976484  1
  I  I80  1  0.83010474  0.66396515  0.82697168  1
  I  I81  1  0.16810744  0.16666888  0.00037898  1
  I  I82  1  0.16277585  0.16077864  0.33714076  1
  I  I83  1  0.16445725  0.16044084  0.66234507  1
  I  I84  1  0.16849561  0.50335025  -0.00018232  1
  I  I85  1  0.16800401  0.50195555  0.33388872  1
  I  I86  1  0.16725614  0.50362705  0.66631312  1
  I  I87  1  0.16784221  0.82907361  0.00089370  1
  I  I88  1  0.16683457  0.83661913  0.33428475  1
  I  I89  1  0.16630587  0.83593872  0.66488275  1
  I  I90  1  0.50003944  0.15752138  0.00440578  1
  I  I91  1  0.49957336  0.16550780  0.33132708  1
  I  I92  1  0.49953318  0.16421164  0.66654930  1
  I  I93  1  0.50471605  0.50160163  -0.00259987  1
  I  I94  1  0.50419142  0.50190984  0.33653384  1
  I  I95  1  0.50391819  0.50619288  0.66491646  1
  I  I96  1  0.49892493  0.83482288  0.00296196  1
  I  I97  1  0.49626876  0.83101650  0.33445231  1
  I  I98  1  0.49985581  0.83111367  0.66325955  1
  I  I99  1  0.83231054  0.16687159  0.00033157  1
  I  I100  1  0.83716157  0.17178084  0.33740358  1
  I  I101  1  0.83518214  0.15908373  0.66197291  1
  I  I102  1  0.82703012  0.50505082  -0.00272887  1
  I  I103  1  0.82846196  0.49938199  0.33720582  1
  I  I104  1  0.82915005  0.50305666  0.66463838  1
  I  I105  1  0.83345101  0.83003261  0.00268942  1
  I  I106  1  0.83706398  0.83093822  0.33506367  1
  I  I107  1  0.83392634  0.83432811  0.66290500  1
  I  I108  1  -0.00001545  0.16701814  0.16546720  1
  I  I109  1  -0.00045858  0.16227507  0.50004616  1
  I  I110  1  -0.00002872  0.16911989  0.83659613  1
  I  I111  1  -0.00033250  0.50197910  0.16704049  1
  I  I112  1  -0.00332015  0.50373909  0.50446241  1
  I  I113  1  -0.00316649  0.50414445  0.82567640  1
  I  I114  1  0.00003548  0.82977344  0.17141635  1
  I  I115  1  -0.00029385  0.83312597  0.49753307  1
  I  I116  1  0.00304820  0.82960040  0.83201763  1
  I  I117  1  0.33626386  0.16151870  0.17015895  1
  I  I118  1  0.33126904  0.16187452  0.49793573  1
  I  I119  1  0.33338376  0.16913264  0.83007886  1
  I  I120  1  0.33366438  0.50184306  0.16691533  1
  I  I121  1  0.33649122  0.50382717  0.50317020  1
  I  I122  1  0.33609337  0.50230426  0.82850449  1
  I  I123  1  0.33366133  0.83612184  0.17048008  1
  I  I124  1  0.33347004  0.83308755  0.49729436  1
  I  I125  1  0.33042197  0.82990636  0.83227624  1
  I  I126  1  0.66369567  0.16091141  0.17063305  1
  I  I127  1  0.66920448  0.16444388  0.49766650  1
  I  I128  1  0.66661919  0.16137560  0.83050829  1
  I  I129  1  0.66664604  0.50268559  0.16634179  1
  I  I130  1  0.66681553  0.50346386  0.50349716  1
  I  I131  1  0.66662953  0.50272845  0.82815940  1
  I  I132  1  0.66619872  0.83571902  0.17571574  1
  I  I133  1  0.66679191  0.83210695  0.49265045  1
  I  I134  1  0.66670076  0.83332322  0.83409450  1
