# generated using pymatgen
data_Cs27Sn13Pb14I81
_symmetry_space_group_name_H-M   'P 1'
_cell_length_a   18.97169933
_cell_length_b   18.98145874
_cell_length_c   18.97618492
_cell_angle_alpha   89.99977912
_cell_angle_beta   90.00024068
_cell_angle_gamma   90.00024737
_symmetry_Int_Tables_number   1
_chemical_formula_structural   Cs27Sn13Pb14I81
_chemical_formula_sum   'Cs27 Sn13 Pb14 I81'
_cell_volume   6833.52397183
_cell_formula_units_Z   1
loop_
 _symmetry_equiv_pos_site_id
 _symmetry_equiv_pos_as_xyz
  1  'x, y, z'
loop_
 _atom_site_type_symbol
 _atom_site_label
 _atom_site_symmetry_multiplicity
 _atom_site_fract_x
 _atom_site_fract_y
 _atom_site_fract_z
 _atom_site_occupancy
  Cs  Cs0  1  -0.00087688  0.00205222  0.00057660  1
  Cs  Cs1  1  -0.00092864  -0.00063640  0.33389124  1
  Cs  Cs2  1  -0.00386313  0.00114693  0.66574930  1
  Cs  Cs3  1  0.00027094  0.33250785  0.00083374  1
  Cs  Cs4  1  -0.00207146  0.34133935  0.33207932  1
  Cs  Cs5  1  0.00141509  0.33319512  0.66771226  1
  Cs  Cs6  1  0.00865822  0.66562668  0.00036686  1
  Cs  Cs7  1  0.00524186  0.65964219  0.33115517  1
  Cs  Cs8  1  0.00271677  0.66332647  0.66818572  1
  Cs  Cs9  1  0.33469813  0.00066880  -0.00000239  1
  Cs  Cs10  1  0.33075701  0.00100369  0.33806572  1
  Cs  Cs11  1  0.33332944  -0.00425049  0.65908601  1
  Cs  Cs12  1  0.33647178  0.33178662  -0.00054858  1
  Cs  Cs13  1  0.33502673  0.33075830  0.34134038  1
  Cs  Cs14  1  0.33171795  0.33200340  0.66114310  1
  Cs  Cs15  1  0.32849340  0.66748079  -0.00089448  1
  Cs  Cs16  1  0.32620083  0.66708535  0.33649848  1
  Cs  Cs17  1  0.32679405  0.67474415  0.66173473  1
  Cs  Cs18  1  0.66646763  0.00081044  0.00015040  1
  Cs  Cs19  1  0.66778814  -0.00047356  0.33113427  1
  Cs  Cs20  1  0.66867323  -0.00156129  0.66728776  1
  Cs  Cs21  1  0.66512087  0.33256494  -0.00000666  1
  Cs  Cs22  1  0.66721726  0.33818581  0.33225723  1
  Cs  Cs23  1  0.66636069  0.33427374  0.66869388  1
  Cs  Cs24  1  0.66443586  0.66696372  -0.00133538  1
  Cs  Cs25  1  0.66685403  0.66445606  0.33432801  1
  Cs  Cs26  1  0.66654004  0.66775647  0.66608644  1
  Sn  Sn27  1  0.83313768  0.16687215  0.83279009  1
  Sn  Sn28  1  0.49990094  0.50008578  0.16584623  1
  Sn  Sn29  1  0.16759435  0.16664049  0.16607506  1
  Sn  Sn30  1  0.83303966  0.83370010  0.49965178  1
  Sn  Sn31  1  0.83289124  0.83315317  0.16652708  1
  Sn  Sn32  1  0.83314925  0.83294808  0.83382672  1
  Sn  Sn33  1  0.83275969  0.16654214  0.50035059  1
  Sn  Sn34  1  0.83257870  0.49990130  0.83400064  1
  Sn  Sn35  1  0.50027517  0.49979221  0.83359655  1
  Sn  Sn36  1  0.49958908  0.16701705  0.83358201  1
  Sn  Sn37  1  0.50043208  0.83314583  0.16647122  1
  Sn  Sn38  1  0.49918172  0.16667155  0.16610221  1
  Sn  Sn39  1  0.16727708  0.16640521  0.83394997  1
  Pb  Pb40  1  0.83294799  0.16560470  0.16662664  1
  Pb  Pb41  1  0.16302901  0.83366951  0.49981660  1
  Pb  Pb42  1  0.83148898  0.50312013  0.16380944  1
  Pb  Pb43  1  0.50285312  0.16661611  0.50022821  1
  Pb  Pb44  1  0.16796485  0.49736472  0.83339156  1
  Pb  Pb45  1  0.50139689  0.83330369  0.83483943  1
  Pb  Pb46  1  0.50245007  0.83335349  0.49675983  1
  Pb  Pb47  1  0.16694588  0.83581869  0.16650518  1
  Pb  Pb48  1  0.16384214  0.83647946  0.83344252  1
  Pb  Pb49  1  0.16668285  0.49967155  0.50024853  1
  Pb  Pb50  1  0.17047256  0.49658700  0.16629204  1
  Pb  Pb51  1  0.83311639  0.50027712  0.50275126  1
  Pb  Pb52  1  0.50009944  0.50014738  0.50107729  1
  Pb  Pb53  1  0.16349922  0.16672838  0.49980287  1
  I  I54  1  0.17120054  0.00368288  0.16182048  1
  I  I55  1  0.16790175  0.00044600  0.49999240  1
  I  I56  1  0.16695759  0.00474365  0.83805684  1
  I  I57  1  0.16800889  0.32872678  0.16135507  1
  I  I58  1  0.16402241  0.33251898  0.49987347  1
  I  I59  1  0.16049078  0.32916687  0.83752012  1
  I  I60  1  0.16615407  0.66647350  0.16810751  1
  I  I61  1  0.16497791  0.66691257  0.49979969  1
  I  I62  1  0.16564047  0.66668348  0.83239906  1
  I  I63  1  0.50137715  0.00087586  0.16217508  1
  I  I64  1  0.50001525  0.00012306  0.50054494  1
  I  I65  1  0.50205507  0.00327422  0.83822796  1
  I  I66  1  0.49641286  0.33246614  0.16186470  1
  I  I67  1  0.50307439  0.33312190  0.49523405  1
  I  I68  1  0.50652747  0.33207240  0.84170360  1
  I  I69  1  0.50859679  0.66664784  0.16234279  1
  I  I70  1  0.50378325  0.66679456  0.50094648  1
  I  I71  1  0.50792344  0.66391475  0.83872866  1
  I  I72  1  0.82852596  -0.00248825  0.16267294  1
  I  I73  1  0.83270389  0.00003228  0.50562163  1
  I  I74  1  0.83337525  0.00068609  0.83251714  1
  I  I75  1  0.83348576  0.33353269  0.16781517  1
  I  I76  1  0.83366748  0.33048249  0.50442102  1
  I  I77  1  0.83280112  0.33204595  0.82866807  1
  I  I78  1  0.82752324  0.67124877  0.16812036  1
  I  I79  1  0.83206323  0.66998113  0.50053138  1
  I  I80  1  0.82690052  0.66684192  0.83311899  1
  I  I81  1  0.16429252  0.16609450  -0.00082527  1
  I  I82  1  0.17160901  0.16550728  0.33025797  1
  I  I83  1  0.16791288  0.16758714  0.66996759  1
  I  I84  1  0.16249181  0.50193309  -0.00007729  1
  I  I85  1  0.16646048  0.49756575  0.33276911  1
  I  I86  1  0.16687261  0.49719440  0.66733724  1
  I  I87  1  0.16233807  0.83254263  -0.00000192  1
  I  I88  1  0.16520990  0.83653948  0.33299993  1
  I  I89  1  0.16708705  0.83535229  0.66676571  1
  I  I90  1  0.50234032  0.16702959  -0.00034011  1
  I  I91  1  0.49669766  0.16689660  0.32979956  1
  I  I92  1  0.49856134  0.17196532  0.67048256  1
  I  I93  1  0.50568508  0.49758887  -0.00038326  1
  I  I94  1  0.50067047  0.49817623  0.32991857  1
  I  I95  1  0.50610695  0.49258601  0.67114634  1
  I  I96  1  0.50737380  0.83515003  0.00314711  1
  I  I97  1  0.50640395  0.83491296  0.32827101  1
  I  I98  1  0.50165444  0.83373171  0.66675750  1
  I  I99  1  0.83324353  0.16544771  -0.00319697  1
  I  I100  1  0.83325484  0.16027524  0.33529182  1
  I  I101  1  0.83338176  0.16208844  0.66898020  1
  I  I102  1  0.83094794  0.49637326  -0.00422395  1
  I  I103  1  0.83221327  0.49908510  0.33299429  1
  I  I104  1  0.82711575  0.50268206  0.67109365  1
  I  I105  1  0.82878971  0.83583839  -0.00042091  1
  I  I106  1  0.82820119  0.84123963  0.33304017  1
  I  I107  1  0.83383187  0.83577925  0.66757471  1
  I  I108  1  0.00163352  0.16279068  0.16308415  1
  I  I109  1  -0.00436402  0.16148616  0.50466584  1
  I  I110  1  -0.00126222  0.16562086  0.83364472  1
  I  I111  1  0.00014802  0.50019794  0.16682311  1
  I  I112  1  -0.00071546  0.49942824  0.50062759  1
  I  I113  1  -0.00284692  0.49996441  0.83150380  1
  I  I114  1  -0.00330706  0.83680592  0.16643362  1
  I  I115  1  -0.00538037  0.83988461  0.49854065  1
  I  I116  1  -0.00527001  0.83285761  0.83571685  1
  I  I117  1  0.33482897  0.16501664  0.15802972  1
  I  I118  1  0.33338533  0.16721123  0.50210718  1
  I  I119  1  0.33452421  0.17259334  0.84022353  1
  I  I120  1  0.33848690  0.50605243  0.15842952  1
  I  I121  1  0.33364831  0.49894871  0.50142097  1
  I  I122  1  0.33742713  0.49428832  0.83912076  1
  I  I123  1  0.33681381  0.83184951  0.16453881  1
  I  I124  1  0.33330761  0.83275545  0.49931109  1
  I  I125  1  0.33336904  0.83273945  0.83579052  1
  I  I126  1  0.66360845  0.16723157  0.16355422  1
  I  I127  1  0.67070689  0.16230767  0.50445214  1
  I  I128  1  0.66705429  0.16692993  0.83401698  1
  I  I129  1  0.66334391  0.49355129  0.16485342  1
  I  I130  1  0.66687622  0.49925316  0.49760243  1
  I  I131  1  0.66694979  0.49454561  0.83674934  1
  I  I132  1  0.66691925  0.83718171  0.16613015  1
  I  I133  1  0.67079837  0.83787326  0.50320563  1
  I  I134  1  0.67029548  0.83838850  0.83218761  1
