# generated using pymatgen
data_Cs27Sn13Pb14I81
_symmetry_space_group_name_H-M   'P 1'
_cell_length_a   19.06661577
_cell_length_b   19.07505723
_cell_length_c   19.08582517
_cell_angle_alpha   89.99992359
_cell_angle_beta   89.99971919
_cell_angle_gamma   89.99943356
_symmetry_Int_Tables_number   1
_chemical_formula_structural   Cs27Sn13Pb14I81
_chemical_formula_sum   'Cs27 Sn13 Pb14 I81'
_cell_volume   6941.45328642
_cell_formula_units_Z   1
loop_
 _symmetry_equiv_pos_site_id
 _symmetry_equiv_pos_as_xyz
  1  'x, y, z'
loop_
 _atom_site_type_symbol
 _atom_site_label
 _atom_site_symmetry_multiplicity
 _atom_site_fract_x
 _atom_site_fract_y
 _atom_site_fract_z
 _atom_site_occupancy
  Cs  Cs0  1  0.00233361  0.00131727  0.00155587  1
  Cs  Cs1  1  0.00012587  -0.00109978  0.32850523  1
  Cs  Cs2  1  0.00223278  0.00198822  0.66759071  1
  Cs  Cs3  1  -0.00080326  0.33232364  -0.00097105  1
  Cs  Cs4  1  0.00045485  0.33388946  0.33298239  1
  Cs  Cs5  1  -0.00350608  0.33069513  0.66994130  1
  Cs  Cs6  1  -0.00101573  0.66296098  0.00050395  1
  Cs  Cs7  1  0.00417350  0.66905984  0.33771644  1
  Cs  Cs8  1  0.00325073  0.66981202  0.66454433  1
  Cs  Cs9  1  0.32706636  -0.00259052  -0.00094715  1
  Cs  Cs10  1  0.34641490  0.00360044  0.32983849  1
  Cs  Cs11  1  0.32981825  -0.01015419  0.66669457  1
  Cs  Cs12  1  0.33143693  0.33668382  0.00306714  1
  Cs  Cs13  1  0.34314911  0.34473597  0.33445092  1
  Cs  Cs14  1  0.33652745  0.33369838  0.66486468  1
  Cs  Cs15  1  0.34863002  0.66536867  -0.00157482  1
  Cs  Cs16  1  0.33395245  0.64350369  0.34528124  1
  Cs  Cs17  1  0.34296332  0.68046485  0.65770405  1
  Cs  Cs18  1  0.66736028  -0.00076756  0.00467945  1
  Cs  Cs19  1  0.65508100  -0.01143020  0.33130166  1
  Cs  Cs20  1  0.66746603  0.00298406  0.66239214  1
  Cs  Cs21  1  0.67137771  0.33303163  -0.00354501  1
  Cs  Cs22  1  0.66402519  0.33049394  0.33643408  1
  Cs  Cs23  1  0.67121488  0.33317020  0.66885262  1
  Cs  Cs24  1  0.65746297  0.67034363  0.00082957  1
  Cs  Cs25  1  0.66560612  0.69027599  0.33132047  1
  Cs  Cs26  1  0.65808347  0.66602708  0.66818252  1
  Sn  Sn27  1  0.16576530  0.16633919  0.16768279  1
  Sn  Sn28  1  0.83350666  0.16592885  0.83366129  1
  Sn  Sn29  1  0.83358627  0.49902313  0.49923864  1
  Sn  Sn30  1  0.83466016  0.50073574  0.83327139  1
  Sn  Sn31  1  0.83436728  0.83303713  0.83352152  1
  Sn  Sn32  1  0.49915218  0.16699958  0.83366333  1
  Sn  Sn33  1  0.83496482  0.16741898  0.49862733  1
  Sn  Sn34  1  0.83408224  0.16792650  0.16759412  1
  Sn  Sn35  1  0.16558289  0.16665172  0.49893431  1
  Sn  Sn36  1  0.16676798  0.16799031  0.83314812  1
  Sn  Sn37  1  0.16597221  0.50003538  0.83325687  1
  Sn  Sn38  1  0.16637494  0.83283867  0.16633610  1
  Sn  Sn39  1  0.83351509  0.49908555  0.16764540  1
  Pb  Pb40  1  0.50004277  0.16694302  0.50267710  1
  Pb  Pb41  1  0.49991732  0.16711296  0.16399796  1
  Pb  Pb42  1  0.16369584  0.49679380  0.50352149  1
  Pb  Pb43  1  0.16465358  0.83234733  0.83527886  1
  Pb  Pb44  1  0.49959159  0.49718432  0.83313432  1
  Pb  Pb45  1  0.49490903  0.83318074  0.16606273  1
  Pb  Pb46  1  0.49944938  0.83370345  0.50009564  1
  Pb  Pb47  1  0.50478550  0.49939841  0.50038927  1
  Pb  Pb48  1  0.83417189  0.83403914  0.50261398  1
  Pb  Pb49  1  0.50295771  0.83697626  0.83370199  1
  Pb  Pb50  1  0.16445768  0.49941787  0.16421684  1
  Pb  Pb51  1  0.50458816  0.49953093  0.16666945  1
  Pb  Pb52  1  0.83551763  0.83353172  0.16437237  1
  Pb  Pb53  1  0.16612570  0.83674896  0.49653940  1
  I  I54  1  0.15673219  0.00332148  0.16210534  1
  I  I55  1  0.15635816  0.00478231  0.51294988  1
  I  I56  1  0.16628510  0.00355508  0.82985965  1
  I  I57  1  0.16450386  0.32956127  0.16706574  1
  I  I58  1  0.16497082  0.32935216  0.49226549  1
  I  I59  1  0.15949427  0.33109616  0.83675058  1
  I  I60  1  0.16120581  0.66852067  0.16097949  1
  I  I61  1  0.16715902  0.66644212  0.49916743  1
  I  I62  1  0.15467532  0.66338997  0.83778364  1
  I  I63  1  0.51058272  0.00031790  0.16820073  1
  I  I64  1  0.50551915  0.00057829  0.49993263  1
  I  I65  1  0.49807910  0.00416785  0.83264700  1
  I  I66  1  0.49006435  0.33311767  0.16748926  1
  I  I67  1  0.49467082  0.33301601  0.49834251  1
  I  I68  1  0.50848059  0.33009350  0.83296352  1
  I  I69  1  0.50178550  0.66666000  0.16364450  1
  I  I70  1  0.50017541  0.66632105  0.50136261  1
  I  I71  1  0.49949658  0.66679841  0.83338177  1
  I  I72  1  0.83449443  0.00347290  0.16479362  1
  I  I73  1  0.83718705  0.00383356  0.50252174  1
  I  I74  1  0.83260431  0.00254727  0.83344289  1
  I  I75  1  0.84084152  0.33160381  0.15925925  1
  I  I76  1  0.83793462  0.33170514  0.50719146  1
  I  I77  1  0.83211531  0.33230466  0.83330627  1
  I  I78  1  0.83487549  0.66394384  0.16561967  1
  I  I79  1  0.83151212  0.66384204  0.49967309  1
  I  I80  1  0.84273243  0.66523634  0.83390703  1
  I  I81  1  0.16290225  0.16536537  -0.00059330  1
  I  I82  1  0.15253082  0.15782388  0.33318286  1
  I  I83  1  0.16194831  0.17385356  0.66787213  1
  I  I84  1  0.15716005  0.49046391  -0.00329892  1
  I  I85  1  0.16786326  0.50297125  0.33368180  1
  I  I86  1  0.15711549  0.49170649  0.67088481  1
  I  I87  1  0.16316798  0.84567827  0.00192051  1
  I  I88  1  0.16019946  0.84085657  0.32923576  1
  I  I89  1  0.16787871  0.83268791  0.66654799  1
  I  I90  1  0.50382337  0.16706072  -0.00345262  1
  I  I91  1  0.50052240  0.16458454  0.33329774  1
  I  I92  1  0.50367237  0.16797717  0.67030745  1
  I  I93  1  0.50180156  0.50206032  -0.00046438  1
  I  I94  1  0.49364784  0.49828352  0.33347120  1
  I  I95  1  0.50269456  0.49990858  0.66701333  1
  I  I96  1  0.50228454  0.83120322  -0.00011954  1
  I  I97  1  0.50692763  0.83785044  0.33279684  1
  I  I98  1  0.49828165  0.83205459  0.66718741  1
  I  I99  1  0.83483846  0.16908781  -0.00084947  1
  I  I100  1  0.84467842  0.17809007  0.33315781  1
  I  I101  1  0.83457957  0.16873328  0.66782805  1
  I  I102  1  0.83850737  0.49451099  -0.00119793  1
  I  I103  1  0.83302404  0.48566505  0.33322749  1
  I  I104  1  0.83739842  0.49430233  0.66797363  1
  I  I105  1  0.83421635  0.83599870  -0.00304856  1
  I  I106  1  0.83121372  0.83142562  0.33327759  1
  I  I107  1  0.83464917  0.83603097  0.67036889  1
  I  I108  1  -0.00082900  0.16624906  0.15950254  1
  I  I109  1  -0.00131929  0.17105549  0.50767820  1
  I  I110  1  -0.00078587  0.16680632  0.83332743  1
  I  I111  1  -0.00344433  0.49751475  0.16783484  1
  I  I112  1  -0.00374948  0.49876300  0.49693966  1
  I  I113  1  -0.00210171  0.49161830  0.83425586  1
  I  I114  1  0.00219432  0.83888156  0.16507625  1
  I  I115  1  -0.00004384  0.82800954  0.50052591  1
  I  I116  1  -0.00272654  0.84122729  0.83335767  1
  I  I117  1  0.33008417  0.15742283  0.16586311  1
  I  I118  1  0.33010371  0.16308580  0.50015731  1
  I  I119  1  0.33171679  0.17466695  0.83421193  1
  I  I120  1  0.33346002  0.50168479  0.16397290  1
  I  I121  1  0.33345201  0.50035119  0.50029253  1
  I  I122  1  0.33002309  0.49071493  0.83775622  1
  I  I123  1  0.32834555  0.85004335  0.16147163  1
  I  I124  1  0.33269810  0.83653364  0.50429119  1
  I  I125  1  0.33341200  0.83229037  0.83459491  1
  I  I126  1  0.67013213  0.17356578  0.16553625  1
  I  I127  1  0.67033921  0.17268344  0.50200273  1
  I  I128  1  0.66953742  0.16686026  0.83296275  1
  I  I129  1  0.67252150  0.48933664  0.15959812  1
  I  I130  1  0.67222601  0.48754503  0.50692197  1
  I  I131  1  0.67043561  0.49949358  0.83273744  1
  I  I132  1  0.66618662  0.83167039  0.16709789  1
  I  I133  1  0.66720046  0.83555744  0.49816199  1
  I  I134  1  0.67082304  0.82924540  0.83500697  1
