# generated using pymatgen
data_Cs27Sn14Pb13I81
_symmetry_space_group_name_H-M   'P 1'
_cell_length_a   18.97368674
_cell_length_b   18.98556659
_cell_length_c   18.96982451
_cell_angle_alpha   89.99932716
_cell_angle_beta   89.99873648
_cell_angle_gamma   89.99992854
_symmetry_Int_Tables_number   1
_chemical_formula_structural   Cs27Sn14Pb13I81
_chemical_formula_sum   'Cs27 Sn14 Pb13 I81'
_cell_volume   6833.42766239
_cell_formula_units_Z   1
loop_
 _symmetry_equiv_pos_site_id
 _symmetry_equiv_pos_as_xyz
  1  'x, y, z'
loop_
 _atom_site_type_symbol
 _atom_site_label
 _atom_site_symmetry_multiplicity
 _atom_site_fract_x
 _atom_site_fract_y
 _atom_site_fract_z
 _atom_site_occupancy
  Cs  Cs0  1  -0.00184803  -0.00395226  -0.00208709  1
  Cs  Cs1  1  -0.00031738  0.00257791  0.33381698  1
  Cs  Cs2  1  -0.00051147  -0.00097810  0.66784915  1
  Cs  Cs3  1  -0.00179576  0.33456786  -0.00175193  1
  Cs  Cs4  1  0.00434842  0.33482315  0.33362382  1
  Cs  Cs5  1  -0.00042272  0.33303733  0.66618746  1
  Cs  Cs6  1  0.00051516  0.66968962  -0.00039354  1
  Cs  Cs7  1  0.00284749  0.66193224  0.33172395  1
  Cs  Cs8  1  0.00095635  0.66783549  0.66848367  1
  Cs  Cs9  1  0.33249996  0.00027442  0.00621438  1
  Cs  Cs10  1  0.32652267  -0.00724026  0.32494804  1
  Cs  Cs11  1  0.33521226  -0.00140924  0.66451980  1
  Cs  Cs12  1  0.33616891  0.33177179  -0.00084999  1
  Cs  Cs13  1  0.32303343  0.33189830  0.32728645  1
  Cs  Cs14  1  0.33579908  0.33449338  0.66898521  1
  Cs  Cs15  1  0.33320021  0.66883948  0.00446842  1
  Cs  Cs16  1  0.32579386  0.67591867  0.32699117  1
  Cs  Cs17  1  0.33543392  0.66633907  0.66461493  1
  Cs  Cs18  1  0.66827637  0.00170594  -0.00087661  1
  Cs  Cs19  1  0.66729710  -0.00122064  0.33496788  1
  Cs  Cs20  1  0.66691772  0.00172389  0.66552311  1
  Cs  Cs21  1  0.66614606  0.33380091  -0.00071032  1
  Cs  Cs22  1  0.66832930  0.33329561  0.33605623  1
  Cs  Cs23  1  0.66563639  0.33310002  0.66646598  1
  Cs  Cs24  1  0.66726670  0.66319213  -0.00032320  1
  Cs  Cs25  1  0.66619661  0.66764808  0.33348106  1
  Cs  Cs26  1  0.66549654  0.66506943  0.66592939  1
  Sn  Sn27  1  0.16683089  0.49922975  0.83283191  1
  Sn  Sn28  1  0.83239860  0.49996992  0.50113409  1
  Sn  Sn29  1  0.49986286  0.16638424  0.83255240  1
  Sn  Sn30  1  0.50002382  0.16752066  0.50005680  1
  Sn  Sn31  1  0.83254667  0.83394454  0.16771850  1
  Sn  Sn32  1  0.83340715  0.16744356  0.83312390  1
  Sn  Sn33  1  0.50014207  0.49898608  0.49970854  1
  Sn  Sn34  1  0.83311993  0.83302017  0.49932471  1
  Sn  Sn35  1  0.49988507  0.50011719  0.83277285  1
  Sn  Sn36  1  0.50027308  0.83351191  0.83335523  1
  Sn  Sn37  1  0.16676110  0.16722844  0.83274385  1
  Sn  Sn38  1  0.83267491  0.16621013  0.16682751  1
  Sn  Sn39  1  0.83347960  0.49924392  0.83224728  1
  Sn  Sn40  1  0.83262886  0.16696963  0.49999390  1
  Pb  Pb41  1  0.16998580  0.83350818  0.83302264  1
  Pb  Pb42  1  0.16355887  0.83342597  0.50053864  1
  Pb  Pb43  1  0.16756059  0.49988015  0.50221348  1
  Pb  Pb44  1  0.16298024  0.83351657  0.16632063  1
  Pb  Pb45  1  0.16667619  0.49972645  0.16321314  1
  Pb  Pb46  1  0.50296436  0.83342044  0.16413720  1
  Pb  Pb47  1  0.16333415  0.16681948  0.16339002  1
  Pb  Pb48  1  0.83299905  0.49961793  0.16704282  1
  Pb  Pb49  1  0.83166604  0.83308837  0.83293858  1
  Pb  Pb50  1  0.50219192  0.16700111  0.16785356  1
  Pb  Pb51  1  0.50017441  0.49968327  0.16832285  1
  Pb  Pb52  1  0.50167324  0.83345359  0.50139649  1
  Pb  Pb53  1  0.16755355  0.16663382  0.50233227  1
  I  I54  1  0.16845861  0.00028333  0.16327588  1
  I  I55  1  0.16638690  0.00026169  0.50443149  1
  I  I56  1  0.16374997  0.00337597  0.83322783  1
  I  I57  1  0.16331787  0.33301654  0.16930625  1
  I  I58  1  0.16035643  0.33327370  0.49807058  1
  I  I59  1  0.16880259  0.33318193  0.83304936  1
  I  I60  1  0.16440301  0.66674881  0.16422211  1
  I  I61  1  0.16631154  0.66645746  0.50386061  1
  I  I62  1  0.16409611  0.66336675  0.83283224  1
  I  I63  1  0.50003601  0.00024149  0.16459513  1
  I  I64  1  0.50688637  0.00310490  0.50777734  1
  I  I65  1  0.50212723  0.00181625  0.82950935  1
  I  I66  1  0.50355386  0.33320254  0.15998499  1
  I  I67  1  0.51104664  0.33312257  0.51079888  1
  I  I68  1  0.50049656  0.33313682  0.83049119  1
  I  I69  1  0.50352089  0.66663977  0.16423576  1
  I  I70  1  0.50671393  0.66364918  0.50775442  1
  I  I71  1  0.50170004  0.66503404  0.82969304  1
  I  I72  1  0.83265215  0.00099017  0.16803483  1
  I  I73  1  0.82983036  0.00145785  0.50049490  1
  I  I74  1  0.83330231  0.00306184  0.83172760  1
  I  I75  1  0.83318718  0.33030113  0.16642973  1
  I  I76  1  0.82967515  0.33293417  0.50154118  1
  I  I77  1  0.83054574  0.33273130  0.83211814  1
  I  I78  1  0.83314055  0.66912419  0.16843421  1
  I  I79  1  0.82928513  0.66558241  0.50106480  1
  I  I80  1  0.83313115  0.66361174  0.83135327  1
  I  I81  1  0.16858767  0.17119575  -0.00495937  1
  I  I82  1  0.16674687  0.16565940  0.33322930  1
  I  I83  1  0.16086783  0.17093475  0.67067137  1
  I  I84  1  0.16512714  0.49576537  -0.00552648  1
  I  I85  1  0.16555074  0.50112762  0.33355364  1
  I  I86  1  0.16533533  0.49528322  0.67058525  1
  I  I87  1  0.16377288  0.83247760  -0.00052687  1
  I  I88  1  0.17113485  0.83312870  0.33321160  1
  I  I89  1  0.16187750  0.83364277  0.66729810  1
  I  I90  1  0.50087807  0.16773904  -0.00375397  1
  I  I91  1  0.50788871  0.17216969  0.33747165  1
  I  I92  1  0.50555965  0.16741765  0.66818544  1
  I  I93  1  0.50127743  0.49896702  -0.00420446  1
  I  I94  1  0.51004116  0.49448595  0.33812389  1
  I  I95  1  0.50199655  0.49914780  0.66821547  1
  I  I96  1  0.50220125  0.83312057  -0.00429104  1
  I  I97  1  0.49963964  0.83294228  0.33349948  1
  I  I98  1  0.50383437  0.83339502  0.66963243  1
  I  I99  1  0.83358461  0.16606297  -0.00179214  1
  I  I100  1  0.82764135  0.16556298  0.33475465  1
  I  I101  1  0.83302214  0.16665148  0.66716286  1
  I  I102  1  0.83289720  0.49738693  -0.00360226  1
  I  I103  1  0.82802153  0.49829685  0.33709086  1
  I  I104  1  0.83269956  0.49762564  0.66748255  1
  I  I105  1  0.83166380  0.83719519  0.00160476  1
  I  I106  1  0.83199241  0.83732902  0.33421149  1
  I  I107  1  0.83171491  0.83564161  0.66411497  1
  I  I108  1  -0.00502847  0.16278379  0.16789768  1
  I  I109  1  -0.00378079  0.16671958  0.50060401  1
  I  I110  1  -0.00171853  0.17297841  0.83389907  1
  I  I111  1  -0.00053248  0.50071417  0.16639051  1
  I  I112  1  -0.00347771  0.49972286  0.50357006  1
  I  I113  1  -0.00143836  0.49318228  0.83026855  1
  I  I114  1  -0.00491798  0.83783702  0.16767199  1
  I  I115  1  -0.00561333  0.83405719  0.49838414  1
  I  I116  1  -0.00028276  0.83302550  0.83440389  1
  I  I117  1  0.33317502  0.16681275  0.16628132  1
  I  I118  1  0.33731446  0.17274065  0.50774059  1
  I  I119  1  0.33469385  0.16988941  0.82834638  1
  I  I120  1  0.33335931  0.50021984  0.16654480  1
  I  I121  1  0.33732024  0.49395036  0.50722691  1
  I  I122  1  0.33459108  0.49681232  0.82980415  1
  I  I123  1  0.33332613  0.83267381  0.16552200  1
  I  I124  1  0.33385398  0.83307402  0.50242901  1
  I  I125  1  0.33790056  0.83309137  0.83173519  1
  I  I126  1  0.67059748  0.16323588  0.16042261  1
  I  I127  1  0.66813141  0.16696742  0.50534366  1
  I  I128  1  0.66721140  0.16848245  0.83359769  1
  I  I129  1  0.66696916  0.50057845  0.15887774  1
  I  I130  1  0.66783623  0.49910361  0.50859846  1
  I  I131  1  0.66686450  0.49786448  0.83070725  1
  I  I132  1  0.67070749  0.83777742  0.17054210  1
  I  I133  1  0.67027464  0.83382160  0.49766306  1
  I  I134  1  0.66404193  0.83353226  0.83351072  1
