# generated using pymatgen
data_Cs27Sn13Pb14I81
_symmetry_space_group_name_H-M   'P 1'
_cell_length_a   18.98023105
_cell_length_b   18.97455295
_cell_length_c   18.97973326
_cell_angle_alpha   90.00088497
_cell_angle_beta   89.99961707
_cell_angle_gamma   90.00305067
_symmetry_Int_Tables_number   1
_chemical_formula_structural   Cs27Sn13Pb14I81
_chemical_formula_sum   'Cs27 Sn13 Pb14 I81'
_cell_volume   6835.38767983
_cell_formula_units_Z   1
loop_
 _symmetry_equiv_pos_site_id
 _symmetry_equiv_pos_as_xyz
  1  'x, y, z'
loop_
 _atom_site_type_symbol
 _atom_site_label
 _atom_site_symmetry_multiplicity
 _atom_site_fract_x
 _atom_site_fract_y
 _atom_site_fract_z
 _atom_site_occupancy
  Cs  Cs0  1  0.00061386  0.00057551  0.00366370  1
  Cs  Cs1  1  0.00069736  -0.00185495  0.33272000  1
  Cs  Cs2  1  0.00024686  0.00087747  0.66197249  1
  Cs  Cs3  1  0.00038056  0.33328653  -0.00148218  1
  Cs  Cs4  1  -0.00060409  0.33221706  0.33390225  1
  Cs  Cs5  1  0.00047080  0.33494437  0.66579598  1
  Cs  Cs6  1  -0.00132047  0.66772265  -0.00261127  1
  Cs  Cs7  1  0.00214584  0.67053968  0.33375565  1
  Cs  Cs8  1  -0.00197679  0.66530349  0.66818114  1
  Cs  Cs9  1  0.33406023  -0.00012058  -0.00169533  1
  Cs  Cs10  1  0.32986433  -0.00129216  0.33299489  1
  Cs  Cs11  1  0.34209117  -0.00178521  0.67096846  1
  Cs  Cs12  1  0.33118569  0.33380077  -0.00056924  1
  Cs  Cs13  1  0.33319016  0.33547483  0.33274201  1
  Cs  Cs14  1  0.33292826  0.33040289  0.66821107  1
  Cs  Cs15  1  0.33343923  0.66531786  0.00059593  1
  Cs  Cs16  1  0.33236614  0.66435951  0.33497695  1
  Cs  Cs17  1  0.33537423  0.67036783  0.66623904  1
  Cs  Cs18  1  0.66562702  -0.00184966  0.00000790  1
  Cs  Cs19  1  0.66926491  0.00137363  0.33280734  1
  Cs  Cs20  1  0.65803693  -0.00599268  0.66884903  1
  Cs  Cs21  1  0.66920900  0.33461143  0.00342317  1
  Cs  Cs22  1  0.66738065  0.33389741  0.33281018  1
  Cs  Cs23  1  0.66769934  0.33173507  0.66293423  1
  Cs  Cs24  1  0.66667898  0.66761822  -0.00383861  1
  Cs  Cs25  1  0.66517820  0.66281548  0.33526937  1
  Cs  Cs26  1  0.66481226  0.67568561  0.67146136  1
  Sn  Sn27  1  0.83415645  0.49948923  0.49915643  1
  Sn  Sn28  1  0.49977554  0.16588504  0.16680573  1
  Sn  Sn29  1  0.83339068  0.16657920  0.83294015  1
  Sn  Sn30  1  0.83457524  0.49945746  0.16736211  1
  Sn  Sn31  1  0.16595067  0.83362983  0.83343547  1
  Sn  Sn32  1  0.83395055  0.16720474  0.50011669  1
  Sn  Sn33  1  0.16543167  0.49927387  0.16716036  1
  Sn  Sn34  1  0.16671221  0.16754829  0.16731196  1
  Sn  Sn35  1  0.16575038  0.49897041  0.49922106  1
  Sn  Sn36  1  0.49992428  0.83385050  0.16726915  1
  Sn  Sn37  1  0.83355658  0.16743359  0.16670534  1
  Sn  Sn38  1  0.16628220  0.16749902  0.49934726  1
  Sn  Sn39  1  0.50007124  0.49900516  0.83315587  1
  Pb  Pb40  1  0.49986597  0.16675838  0.49744149  1
  Pb  Pb41  1  0.49988541  0.83336459  0.49672162  1
  Pb  Pb42  1  0.83569515  0.83654580  0.83345705  1
  Pb  Pb43  1  0.16490002  0.16513042  0.83298248  1
  Pb  Pb44  1  0.16659588  0.83360572  0.50218357  1
  Pb  Pb45  1  0.83136535  0.83276306  0.16681450  1
  Pb  Pb46  1  0.16817470  0.83314707  0.16544087  1
  Pb  Pb47  1  0.83173012  0.49824955  0.83293575  1
  Pb  Pb48  1  0.50012448  0.49954530  0.16567694  1
  Pb  Pb49  1  0.50252314  0.16860904  0.83599701  1
  Pb  Pb50  1  0.49808354  0.83140198  0.83571288  1
  Pb  Pb51  1  0.50022249  0.49978272  0.50257839  1
  Pb  Pb52  1  0.16790841  0.50125613  0.83296637  1
  Pb  Pb53  1  0.83342089  0.83325371  0.49976927  1
  I  I54  1  0.16408052  0.00348811  0.16936801  1
  I  I55  1  0.16114538  0.00379149  0.49502186  1
  I  I56  1  0.16621702  -0.00232215  0.83504688  1
  I  I57  1  0.16850627  0.33270288  0.16881492  1
  I  I58  1  0.16260252  0.33315214  0.49629005  1
  I  I59  1  0.16785302  0.33319242  0.83433078  1
  I  I60  1  0.16481698  0.66325226  0.16930857  1
  I  I61  1  0.16309300  0.66309792  0.49606047  1
  I  I62  1  0.16885593  0.66884432  0.83498521  1
  I  I63  1  0.50009051  0.00180395  0.16548177  1
  I  I64  1  0.49988685  0.00039661  0.50359749  1
  I  I65  1  0.50036169  0.00018011  0.83262615  1
  I  I66  1  0.50066495  0.33052773  0.16491239  1
  I  I67  1  0.50001847  0.33328335  0.49837890  1
  I  I68  1  0.49750273  0.33582015  0.83629745  1
  I  I69  1  0.49928960  0.66817233  0.16340292  1
  I  I70  1  0.49958293  0.66628257  0.49799349  1
  I  I71  1  0.50111391  0.66392090  0.83651114  1
  I  I72  1  0.83571747  0.00379776  0.16728971  1
  I  I73  1  0.83849964  0.00422087  0.49761857  1
  I  I74  1  0.83299066  0.00474571  0.83515077  1
  I  I75  1  0.83122839  0.33224754  0.16687950  1
  I  I76  1  0.83712140  0.33263535  0.49873468  1
  I  I77  1  0.83409740  0.33028836  0.83537263  1
  I  I78  1  0.83624245  0.66274670  0.17094115  1
  I  I79  1  0.83780044  0.66265273  0.49447678  1
  I  I80  1  0.83152730  0.66650029  0.83378570  1
  I  I81  1  0.16573744  0.16948225  0.00337149  1
  I  I82  1  0.16308720  0.16927281  0.33227922  1
  I  I83  1  0.16079658  0.17052837  0.66339049  1
  I  I84  1  0.16462015  0.49666159  0.00316409  1
  I  I85  1  0.16462787  0.49681311  0.33259197  1
  I  I86  1  0.16336585  0.49657666  0.66326700  1
  I  I87  1  0.16818579  0.83339602  -0.00209384  1
  I  I88  1  0.16895627  0.83321200  0.33333714  1
  I  I89  1  0.16734733  0.83280267  0.66964502  1
  I  I90  1  0.49915908  0.16403826  0.00420533  1
  I  I91  1  0.50429426  0.16486898  0.32909561  1
  I  I92  1  0.49982960  0.16731275  0.66677821  1
  I  I93  1  0.49981319  0.49989755  -0.00172383  1
  I  I94  1  0.49995191  0.50109515  0.33327036  1
  I  I95  1  0.49942041  0.50065394  0.66995212  1
  I  I96  1  0.49933653  0.83767858  0.00309844  1
  I  I97  1  0.49864866  0.83635541  0.32879537  1
  I  I98  1  0.49915586  0.83190821  0.66707061  1
  I  I99  1  0.83318597  0.17038834  0.00197887  1
  I  I100  1  0.83298305  0.17047498  0.33261238  1
  I  I101  1  0.83989827  0.17181090  0.66518514  1
  I  I102  1  0.83562366  0.49516572  0.00304788  1
  I  I103  1  0.83514752  0.49205672  0.33265040  1
  I  I104  1  0.83739034  0.49460225  0.66340063  1
  I  I105  1  0.83312450  0.83293357  0.00017775  1
  I  I106  1  0.83284349  0.83784259  0.33311597  1
  I  I107  1  0.83309126  0.83235422  0.66672941  1
  I  I108  1  -0.00016400  0.17078845  0.16642150  1
  I  I109  1  -0.00026844  0.17007089  0.49577860  1
  I  I110  1  -0.00294348  0.16739446  0.83882008  1
  I  I111  1  0.00011485  0.49249084  0.16844795  1
  I  I112  1  0.00009271  0.49536121  0.49687359  1
  I  I113  1  -0.00012153  0.50142642  0.83428911  1
  I  I114  1  0.00015029  0.83571189  0.16502288  1
  I  I115  1  0.00016615  0.83407996  0.49963674  1
  I  I116  1  0.00301454  0.83020013  0.83555578  1
  I  I117  1  0.33205048  0.16722466  0.17058301  1
  I  I118  1  0.32973767  0.17124947  0.49543299  1
  I  I119  1  0.33333972  0.16568623  0.83352224  1
  I  I120  1  0.33050986  0.49726248  0.16886443  1
  I  I121  1  0.32982792  0.49630727  0.49554390  1
  I  I122  1  0.33548795  0.50089839  0.83606362  1
  I  I123  1  0.33591998  0.83752317  0.16427964  1
  I  I124  1  0.33295954  0.83278882  0.50132885  1
  I  I125  1  0.33072349  0.83448277  0.83372737  1
  I  I126  1  0.66805760  0.16705926  0.16618866  1
  I  I127  1  0.67026968  0.17172726  0.49847783  1
  I  I128  1  0.67047779  0.16802417  0.83283930  1
  I  I129  1  0.66958578  0.49637578  0.16934691  1
  I  I130  1  0.67037262  0.49432592  0.49455153  1
  I  I131  1  0.66428422  0.49924565  0.83649870  1
  I  I132  1  0.66351353  0.83777796  0.16453141  1
  I  I133  1  0.66674312  0.83294040  0.50191818  1
  I  I134  1  0.66650458  0.83269822  0.83363277  1
