# generated using pymatgen
data_Cs27Sn13Pb14I81
_symmetry_space_group_name_H-M   'P 1'
_cell_length_a   18.98278934
_cell_length_b   18.97883780
_cell_length_c   18.97038466
_cell_angle_alpha   89.99994790
_cell_angle_beta   90.00147069
_cell_angle_gamma   89.99846985
_symmetry_Int_Tables_number   1
_chemical_formula_structural   Cs27Sn13Pb14I81
_chemical_formula_sum   'Cs27 Sn13 Pb14 I81'
_cell_volume   6834.48476000
_cell_formula_units_Z   1
loop_
 _symmetry_equiv_pos_site_id
 _symmetry_equiv_pos_as_xyz
  1  'x, y, z'
loop_
 _atom_site_type_symbol
 _atom_site_label
 _atom_site_symmetry_multiplicity
 _atom_site_fract_x
 _atom_site_fract_y
 _atom_site_fract_z
 _atom_site_occupancy
  Cs  Cs0  1  0.00350004  0.00373448  0.00119324  1
  Cs  Cs1  1  -0.00251918  0.00705824  0.33695259  1
  Cs  Cs2  1  0.00211008  -0.00011817  0.65931617  1
  Cs  Cs3  1  0.00132846  0.32951829  -0.00077453  1
  Cs  Cs4  1  -0.00248594  0.32731160  0.33875248  1
  Cs  Cs5  1  -0.00058300  0.33537612  0.66131427  1
  Cs  Cs6  1  0.00102331  0.66681441  0.00031249  1
  Cs  Cs7  1  0.00247180  0.66640631  0.33502358  1
  Cs  Cs8  1  -0.00658666  0.66615630  0.66064818  1
  Cs  Cs9  1  0.33147173  -0.00034887  -0.00076754  1
  Cs  Cs10  1  0.33406126  0.00001878  0.33994725  1
  Cs  Cs11  1  0.33421340  -0.00063167  0.65920525  1
  Cs  Cs12  1  0.33411420  0.33458204  -0.00089555  1
  Cs  Cs13  1  0.33518275  0.33552921  0.33490390  1
  Cs  Cs14  1  0.33246297  0.33210621  0.66903997  1
  Cs  Cs15  1  0.33333804  0.66610284  0.00096221  1
  Cs  Cs16  1  0.33158050  0.66517060  0.33070860  1
  Cs  Cs17  1  0.33285560  0.66813013  0.66659333  1
  Cs  Cs18  1  0.66648915  -0.00013250  -0.00065222  1
  Cs  Cs19  1  0.66743047  0.00387676  0.33787051  1
  Cs  Cs20  1  0.66645823  -0.00698443  0.66292521  1
  Cs  Cs21  1  0.66579968  0.33387264  -0.00059290  1
  Cs  Cs22  1  0.66552598  0.33087882  0.33352768  1
  Cs  Cs23  1  0.66781475  0.33424947  0.66843578  1
  Cs  Cs24  1  0.66724600  0.66710105  0.00000813  1
  Cs  Cs25  1  0.66620344  0.66573105  0.32819622  1
  Cs  Cs26  1  0.67429656  0.67315513  0.66933300  1
  Sn  Sn27  1  0.83251287  0.16648724  0.83363861  1
  Sn  Sn28  1  0.50105086  0.16682148  0.83425917  1
  Sn  Sn29  1  0.50030065  0.50059074  0.50091632  1
  Sn  Sn30  1  0.16704860  0.50116402  0.83417647  1
  Sn  Sn31  1  0.49997912  0.49994303  0.16618794  1
  Sn  Sn32  1  0.49960922  0.16662208  0.16556378  1
  Sn  Sn33  1  0.83380353  0.83297624  0.16601269  1
  Sn  Sn34  1  0.16639143  0.83281917  0.16594915  1
  Sn  Sn35  1  0.16615439  0.50020477  0.16579241  1
  Sn  Sn36  1  0.83389343  0.50017410  0.16615943  1
  Sn  Sn37  1  0.49987160  0.83377680  0.16614506  1
  Sn  Sn38  1  0.49966073  0.49991609  0.83325014  1
  Sn  Sn39  1  0.16667722  0.83228398  0.83405717  1
  Pb  Pb40  1  0.49828484  0.83325276  0.83507651  1
  Pb  Pb41  1  0.83373720  0.49881444  0.83547876  1
  Pb  Pb42  1  0.50006090  0.83011056  0.49691550  1
  Pb  Pb43  1  0.16731913  0.16682426  0.83329571  1
  Pb  Pb44  1  0.16671505  0.83279196  0.49930691  1
  Pb  Pb45  1  0.16706391  0.16711227  0.49999042  1
  Pb  Pb46  1  0.83096730  0.16667191  0.16524879  1
  Pb  Pb47  1  0.50004292  0.16903115  0.50087701  1
  Pb  Pb48  1  0.16951531  0.16690328  0.16688259  1
  Pb  Pb49  1  0.83032889  0.50010365  0.49675022  1
  Pb  Pb50  1  0.16868775  0.50010807  0.50003616  1
  Pb  Pb51  1  0.83260028  0.16689728  0.50384707  1
  Pb  Pb52  1  0.83327953  0.83306163  0.49642467  1
  Pb  Pb53  1  0.83650392  0.83581325  0.83578827  1
  I  I54  1  0.16662587  -0.00342730  0.16155340  1
  I  I55  1  0.16781429  -0.00037779  0.50048399  1
  I  I56  1  0.16628962  -0.00289828  0.83987865  1
  I  I57  1  0.16738693  0.33709559  0.16165821  1
  I  I58  1  0.16747704  0.33405740  0.49979424  1
  I  I59  1  0.16902586  0.33676368  0.83877226  1
  I  I60  1  0.17125642  0.66596565  0.16325675  1
  I  I61  1  0.16858223  0.66646118  0.49931063  1
  I  I62  1  0.17369715  0.66538693  0.83930746  1
  I  I63  1  0.50002350  -0.00012065  0.16076841  1
  I  I64  1  0.49960774  -0.00018027  0.49935492  1
  I  I65  1  0.50173685  0.00258300  0.83984396  1
  I  I66  1  0.50033451  0.33488244  0.16647071  1
  I  I67  1  0.49910525  0.33681203  0.49332266  1
  I  I68  1  0.49811168  0.33471433  0.83849239  1
  I  I69  1  0.50013929  0.66562045  0.16727250  1
  I  I70  1  0.49840161  0.66229065  0.49930317  1
  I  I71  1  0.49741599  0.66328774  0.83527580  1
  I  I72  1  0.83359314  -0.00276437  0.16442649  1
  I  I73  1  0.83296866  0.00005489  0.49719527  1
  I  I74  1  0.82651653  0.00324326  0.83735030  1
  I  I75  1  0.83242400  0.33616567  0.16501638  1
  I  I76  1  0.83382429  0.33357890  0.49608067  1
  I  I77  1  0.83242066  0.33103910  0.83787549  1
  I  I78  1  0.82791029  0.66617393  0.16560436  1
  I  I79  1  0.83253118  0.66641336  0.50405458  1
  I  I80  1  0.83035835  0.66683517  0.83282207  1
  I  I81  1  0.16503463  0.16619095  0.00005279  1
  I  I82  1  0.16805869  0.16664647  0.33271072  1
  I  I83  1  0.16856704  0.16643473  0.66739446  1
  I  I84  1  0.17245326  0.50369123  0.00092887  1
  I  I85  1  0.16869127  0.50479678  0.32941480  1
  I  I86  1  0.17200784  0.50229608  0.67041109  1
  I  I87  1  0.16773107  0.82904641  0.00152025  1
  I  I88  1  0.16798271  0.82774514  0.32884497  1
  I  I89  1  0.16807394  0.83021373  0.66991555  1
  I  I90  1  0.50311469  0.17227360  0.00030418  1
  I  I91  1  0.49921572  0.16732904  0.33013362  1
  I  I92  1  0.50219914  0.17224781  0.67056999  1
  I  I93  1  0.49902897  0.49873537  0.00111414  1
  I  I94  1  0.49983548  0.50020105  0.33073690  1
  I  I95  1  0.49353945  0.49292277  0.66832847  1
  I  I96  1  0.50154021  0.82896460  0.00389679  1
  I  I97  1  0.49729038  0.83406305  0.32780878  1
  I  I98  1  0.49743725  0.83413856  0.66680786  1
  I  I99  1  0.83053084  0.16745165  -0.00233712  1
  I  I100  1  0.83268867  0.16613008  0.33319121  1
  I  I101  1  0.82683803  0.16835979  0.67167426  1
  I  I102  1  0.82777073  0.50311535  0.00380013  1
  I  I103  1  0.83384396  0.50345998  0.32803246  1
  I  I104  1  0.83364104  0.49733467  0.66687756  1
  I  I105  1  0.82985708  0.82893331  0.00400128  1
  I  I106  1  0.83477013  0.82950162  0.32768460  1
  I  I107  1  0.83451743  0.83507295  0.66706769  1
  I  I108  1  -0.00017293  0.16692367  0.16516920  1
  I  I109  1  -0.00043521  0.16728612  0.50028663  1
  I  I110  1  -0.00206472  0.16658959  0.83505577  1
  I  I111  1  0.00083782  0.50772537  0.16074314  1
  I  I112  1  -0.00016693  0.49938511  0.50024133  1
  I  I113  1  0.00313155  0.50115989  0.83944587  1
  I  I114  1  0.00064244  0.82499951  0.16204200  1
  I  I115  1  0.00007694  0.83306718  0.49932696  1
  I  I116  1  0.00419345  0.82825825  0.84064339  1
  I  I117  1  0.33784478  0.16819228  0.15966656  1
  I  I118  1  0.33407785  0.16627127  0.50124527  1
  I  I119  1  0.33678627  0.16950264  0.83817492  1
  I  I120  1  0.33434069  0.50212049  0.16646495  1
  I  I121  1  0.33664099  0.49931233  0.49384987  1
  I  I122  1  0.33439539  0.49755196  0.83820264  1
  I  I123  1  0.33340178  0.82978334  0.16296107  1
  I  I124  1  0.33348790  0.83450604  0.49774439  1
  I  I125  1  0.33045037  0.83321490  0.84062865  1
  I  I126  1  0.66279946  0.16810921  0.16470422  1
  I  I127  1  0.66619520  0.16809278  0.49574825  1
  I  I128  1  0.66468507  0.17359415  0.83895026  1
  I  I129  1  0.66514197  0.50265679  0.16689827  1
  I  I130  1  0.66227299  0.49869876  0.49931591  1
  I  I131  1  0.66349427  0.49675722  0.83541983  1
  I  I132  1  0.66601223  0.82893075  0.16710411  1
  I  I133  1  0.66647873  0.83295892  0.49991388  1
  I  I134  1  0.66674890  0.83145692  0.83510637  1
