# generated using pymatgen
data_Cs27Sn13Pb14I81
_symmetry_space_group_name_H-M   'P 1'
_cell_length_a   18.96993549
_cell_length_b   18.99064170
_cell_length_c   18.97382815
_cell_angle_alpha   90.00033339
_cell_angle_beta   89.99881900
_cell_angle_gamma   90.00122804
_symmetry_Int_Tables_number   1
_chemical_formula_structural   Cs27Sn13Pb14I81
_chemical_formula_sum   'Cs27 Sn13 Pb14 I81'
_cell_volume   6835.34526435
_cell_formula_units_Z   1
loop_
 _symmetry_equiv_pos_site_id
 _symmetry_equiv_pos_as_xyz
  1  'x, y, z'
loop_
 _atom_site_type_symbol
 _atom_site_label
 _atom_site_symmetry_multiplicity
 _atom_site_fract_x
 _atom_site_fract_y
 _atom_site_fract_z
 _atom_site_occupancy
  Cs  Cs0  1  -0.00101086  -0.00240655  0.00135566  1
  Cs  Cs1  1  0.00030271  0.00119252  0.33217089  1
  Cs  Cs2  1  0.00067720  0.00274656  0.66684207  1
  Cs  Cs3  1  0.00063250  0.33451864  0.00034569  1
  Cs  Cs4  1  -0.00087278  0.33168715  0.33432496  1
  Cs  Cs5  1  0.00068105  0.33185714  0.66660692  1
  Cs  Cs6  1  0.00872140  0.66864623  0.00507913  1
  Cs  Cs7  1  -0.00408507  0.66885191  0.33033170  1
  Cs  Cs8  1  -0.00239055  0.66661081  0.66512265  1
  Cs  Cs9  1  0.33301266  -0.00163201  -0.00498073  1
  Cs  Cs10  1  0.33386860  0.00211525  0.33531521  1
  Cs  Cs11  1  0.33893836  -0.00063896  0.67065603  1
  Cs  Cs12  1  0.33240245  0.33393896  -0.00050963  1
  Cs  Cs13  1  0.33417774  0.33205878  0.33503306  1
  Cs  Cs14  1  0.33234613  0.33190177  0.66568868  1
  Cs  Cs15  1  0.32825758  0.66779163  0.00132376  1
  Cs  Cs16  1  0.33286720  0.66590522  0.33214136  1
  Cs  Cs17  1  0.33281076  0.66708536  0.66701330  1
  Cs  Cs18  1  0.66815626  -0.00027833  0.00019141  1
  Cs  Cs19  1  0.66664796  -0.00258591  0.33309357  1
  Cs  Cs20  1  0.66183041  -0.00200980  0.66690931  1
  Cs  Cs21  1  0.66705090  0.33384013  0.00078182  1
  Cs  Cs22  1  0.66678332  0.33384279  0.33124466  1
  Cs  Cs23  1  0.66705240  0.33422363  0.66774583  1
  Cs  Cs24  1  0.66520101  0.66545939  -0.00217849  1
  Cs  Cs25  1  0.67099154  0.66737695  0.33547628  1
  Cs  Cs26  1  0.66893385  0.66741930  0.66672013  1
  Sn  Sn27  1  0.16633749  0.16628640  0.49960455  1
  Sn  Sn28  1  0.50001949  0.83323529  0.16683981  1
  Sn  Sn29  1  0.49897509  0.16642640  0.16667305  1
  Sn  Sn30  1  0.49957152  0.49987576  0.49994392  1
  Sn  Sn31  1  0.50024111  0.49973935  0.83337123  1
  Sn  Sn32  1  0.16678431  0.83360478  0.50012984  1
  Sn  Sn33  1  0.83341666  0.16677141  0.50077723  1
  Sn  Sn34  1  0.16771434  0.16686854  0.16715234  1
  Sn  Sn35  1  0.83361094  0.83311719  0.83333523  1
  Sn  Sn36  1  0.83322651  0.16669274  0.83237913  1
  Sn  Sn37  1  0.16693834  0.50023054  0.49985015  1
  Sn  Sn38  1  0.83326303  0.50015813  0.83360734  1
  Sn  Sn39  1  0.49994240  0.50028246  0.16673100  1
  Pb  Pb40  1  0.16880946  0.49784902  0.16932555  1
  Pb  Pb41  1  0.16460693  0.16665238  0.83328667  1
  Pb  Pb42  1  0.16671487  0.49999733  0.83101374  1
  Pb  Pb43  1  0.83128675  0.83321401  0.16444278  1
  Pb  Pb44  1  0.50165960  0.83073355  0.83529305  1
  Pb  Pb45  1  0.83346467  0.16673373  0.16676846  1
  Pb  Pb46  1  0.50233221  0.16876015  0.83588576  1
  Pb  Pb47  1  0.83136067  0.50013108  0.16394120  1
  Pb  Pb48  1  0.49810545  0.83062680  0.49821592  1
  Pb  Pb49  1  0.83338311  0.49814869  0.50169668  1
  Pb  Pb50  1  0.16891219  0.83594764  0.16889375  1
  Pb  Pb51  1  0.50007639  0.16837007  0.49844318  1
  Pb  Pb52  1  0.16442215  0.83334795  0.83090948  1
  Pb  Pb53  1  0.83529361  0.83607452  0.50182902  1
  I  I54  1  0.17139916  0.00371662  0.17252485  1
  I  I55  1  0.16030590  0.00134833  0.49514681  1
  I  I56  1  0.16486885  0.00014722  0.83152020  1
  I  I57  1  0.17129882  0.33000954  0.17180755  1
  I  I58  1  0.16683444  0.33279773  0.49666510  1
  I  I59  1  0.16437955  0.33332237  0.83135398  1
  I  I60  1  0.16783366  0.66667726  0.16770350  1
  I  I61  1  0.17295943  0.66594795  0.50273180  1
  I  I62  1  0.16437632  0.66653088  0.83177605  1
  I  I63  1  0.49687161  0.00080228  0.16754187  1
  I  I64  1  0.49968427  0.00004288  0.49771727  1
  I  I65  1  0.50179812  0.00001253  0.83497164  1
  I  I66  1  0.49683584  0.33367814  0.16669702  1
  I  I67  1  0.49554304  0.33654558  0.49828152  1
  I  I68  1  0.50563003  0.33682582  0.83495225  1
  I  I69  1  0.50191636  0.66555975  0.16616958  1
  I  I70  1  0.49568953  0.66239269  0.49853270  1
  I  I71  1  0.50607481  0.66263608  0.83405624  1
  I  I72  1  0.82984927  0.00025791  0.16392122  1
  I  I73  1  0.83793978  0.00404791  0.50456503  1
  I  I74  1  0.83523780  0.00070774  0.82993094  1
  I  I75  1  0.83055306  0.33320767  0.16415100  1
  I  I76  1  0.83836146  0.33035389  0.50518570  1
  I  I77  1  0.82901367  0.33335350  0.82953548  1
  I  I78  1  0.83173898  0.66661217  0.16635950  1
  I  I79  1  0.83413906  0.66661797  0.50189328  1
  I  I80  1  0.82681401  0.66584610  0.83289878  1
  I  I81  1  0.16998214  0.16722187  0.00299066  1
  I  I82  1  0.16468958  0.16746739  0.33464570  1
  I  I83  1  0.16326267  0.16793779  0.66309952  1
  I  I84  1  0.16669731  0.49834561  0.00021870  1
  I  I85  1  0.17215172  0.50058153  0.33748709  1
  I  I86  1  0.17237648  0.49611158  0.66271225  1
  I  I87  1  0.16616502  0.83447651  0.00031461  1
  I  I88  1  0.16668104  0.83105215  0.33680858  1
  I  I89  1  0.16737548  0.83598391  0.66267322  1
  I  I90  1  0.49572718  0.16914338  0.00402750  1
  I  I91  1  0.50100387  0.16991350  0.33025160  1
  I  I92  1  0.49801280  0.16873925  0.66674764  1
  I  I93  1  0.50700531  0.49892662  0.00022659  1
  I  I94  1  0.49399910  0.49887830  0.33320833  1
  I  I95  1  0.50035002  0.49921713  0.66653990  1
  I  I96  1  0.50071864  0.83244982  0.00334853  1
  I  I97  1  0.49983900  0.83208126  0.33013205  1
  I  I98  1  0.49973235  0.83210121  0.66666760  1
  I  I99  1  0.83193010  0.16734998  -0.00296965  1
  I  I100  1  0.83513392  0.16765450  0.33607240  1
  I  I101  1  0.83977335  0.16796501  0.66655067  1
  I  I102  1  0.82740178  0.49563668  -0.00463161  1
  I  I103  1  0.83192153  0.49756743  0.33359634  1
  I  I104  1  0.82712656  0.50090594  0.66978484  1
  I  I105  1  0.83240980  0.83681319  -0.00385262  1
  I  I106  1  0.83302215  0.83506563  0.33357551  1
  I  I107  1  0.83280129  0.83066062  0.66982783  1
  I  I108  1  0.00278425  0.16643241  0.16849237  1
  I  I109  1  0.00113117  0.16937324  0.49824927  1
  I  I110  1  -0.00381107  0.17031913  0.83355599  1
  I  I111  1  0.00040232  0.49795452  0.16604040  1
  I  I112  1  0.00277559  0.49991666  0.50311431  1
  I  I113  1  -0.00313555  0.49854992  0.82994113  1
  I  I114  1  0.00041162  0.83531269  0.16587416  1
  I  I115  1  0.00338989  0.82815701  0.50031534  1
  I  I116  1  -0.00393255  0.83116911  0.83343910  1
  I  I117  1  0.33362384  0.16809863  0.17381891  1
  I  I118  1  0.33040062  0.16658741  0.49634231  1
  I  I119  1  0.33360723  0.16829999  0.83120455  1
  I  I120  1  0.33739919  0.50160482  0.16129584  1
  I  I121  1  0.33363357  0.49720755  0.50142318  1
  I  I122  1  0.33661617  0.49983819  0.83548825  1
  I  I123  1  0.33683551  0.82958022  0.16619725  1
  I  I124  1  0.33008841  0.83892765  0.49965967  1
  I  I125  1  0.33350994  0.83200855  0.83362743  1
  I  I126  1  0.66360981  0.16817482  0.16613962  1
  I  I127  1  0.66910545  0.16946144  0.50268340  1
  I  I128  1  0.67043488  0.16540158  0.82836163  1
  I  I129  1  0.66216956  0.49608286  0.17206356  1
  I  I130  1  0.66377794  0.49760662  0.49793560  1
  I  I131  1  0.66624342  0.49912266  0.83192535  1
  I  I132  1  0.66285106  0.83587089  0.16755973  1
  I  I133  1  0.66663653  0.83339708  0.49941741  1
  I  I134  1  0.66975013  0.83590357  0.83300430  1
