# generated using pymatgen
data_Cs27Sn14Pb13I81
_symmetry_space_group_name_H-M   'P 1'
_cell_length_a   18.96851894
_cell_length_b   18.98254594
_cell_length_c   18.97866155
_cell_angle_alpha   90.00150406
_cell_angle_beta   90.00016406
_cell_angle_gamma   89.99956184
_symmetry_Int_Tables_number   1
_chemical_formula_structural   Cs27Sn14Pb13I81
_chemical_formula_sum   'Cs27 Sn14 Pb13 I81'
_cell_volume   6833.66150550
_cell_formula_units_Z   1
loop_
 _symmetry_equiv_pos_site_id
 _symmetry_equiv_pos_as_xyz
  1  'x, y, z'
loop_
 _atom_site_type_symbol
 _atom_site_label
 _atom_site_symmetry_multiplicity
 _atom_site_fract_x
 _atom_site_fract_y
 _atom_site_fract_z
 _atom_site_occupancy
  Cs  Cs0  1  -0.00108740  0.00136934  0.00316564  1
  Cs  Cs1  1  -0.00054212  -0.00136200  0.33320276  1
  Cs  Cs2  1  0.00421781  -0.00262974  0.66257736  1
  Cs  Cs3  1  -0.00243843  0.33327542  0.00100172  1
  Cs  Cs4  1  -0.00031727  0.33222512  0.33302009  1
  Cs  Cs5  1  0.00243099  0.33482843  0.66635934  1
  Cs  Cs6  1  -0.00303836  0.66573242  0.00159594  1
  Cs  Cs7  1  -0.00928258  0.66920001  0.33525970  1
  Cs  Cs8  1  -0.00452345  0.66679310  0.66334481  1
  Cs  Cs9  1  0.33311986  -0.00104532  0.00027069  1
  Cs  Cs10  1  0.33375661  -0.00017730  0.33340258  1
  Cs  Cs11  1  0.33317846  -0.00021343  0.66685457  1
  Cs  Cs12  1  0.33179964  0.33581229  0.00087898  1
  Cs  Cs13  1  0.33434268  0.33275473  0.33355607  1
  Cs  Cs14  1  0.33281775  0.33359622  0.66608956  1
  Cs  Cs15  1  0.33275780  0.66551780  0.00130586  1
  Cs  Cs16  1  0.33478244  0.66733158  0.33125753  1
  Cs  Cs17  1  0.33281238  0.66497879  0.66680419  1
  Cs  Cs18  1  0.67244715  -0.00056059  -0.00660519  1
  Cs  Cs19  1  0.66290241  0.00187438  0.33151472  1
  Cs  Cs20  1  0.66278612  0.00052004  0.67593784  1
  Cs  Cs21  1  0.67712360  0.33250300  -0.00080250  1
  Cs  Cs22  1  0.66427832  0.33306140  0.33440179  1
  Cs  Cs23  1  0.66711414  0.33375956  0.66630200  1
  Cs  Cs24  1  0.67523062  0.66766428  -0.00115803  1
  Cs  Cs25  1  0.66904996  0.66560860  0.33241467  1
  Cs  Cs26  1  0.67202767  0.66596035  0.66866239  1
  Sn  Sn27  1  0.49910890  0.16594411  0.16646856  1
  Sn  Sn28  1  0.49877682  0.50022578  0.50091834  1
  Sn  Sn29  1  0.16686796  0.16737097  0.49973714  1
  Sn  Sn30  1  0.16734102  0.16671849  0.83348021  1
  Sn  Sn31  1  0.16741867  0.83294262  0.83420425  1
  Sn  Sn32  1  0.49952887  0.83329640  0.49969890  1
  Sn  Sn33  1  0.83301037  0.16620406  0.50020872  1
  Sn  Sn34  1  0.49916985  0.83430747  0.16688830  1
  Sn  Sn35  1  0.49985289  0.16643455  0.49975711  1
  Sn  Sn36  1  0.16768671  0.83386509  0.16620686  1
  Sn  Sn37  1  0.16766064  0.49968937  0.50014142  1
  Sn  Sn38  1  0.49913337  0.49981162  0.83303001  1
  Sn  Sn39  1  0.16799879  0.16593061  0.16690671  1
  Sn  Sn40  1  0.16769535  0.50031410  0.83250505  1
  Pb  Pb41  1  0.83316497  0.49776885  0.49996503  1
  Pb  Pb42  1  0.83696376  0.16661388  0.83025878  1
  Pb  Pb43  1  0.83406274  0.49980335  0.83291872  1
  Pb  Pb44  1  0.82905180  0.83665665  0.49998127  1
  Pb  Pb45  1  0.83730693  0.83359926  0.83306290  1
  Pb  Pb46  1  0.83328069  0.49972384  0.16707567  1
  Pb  Pb47  1  0.16648746  0.50026407  0.16730664  1
  Pb  Pb48  1  0.50010615  0.49985919  0.16640647  1
  Pb  Pb49  1  0.83311722  0.16651419  0.16892916  1
  Pb  Pb50  1  0.16826806  0.83284856  0.49940970  1
  Pb  Pb51  1  0.49804121  0.16886121  0.83407114  1
  Pb  Pb52  1  0.49810136  0.83089960  0.83397542  1
  Pb  Pb53  1  0.83286753  0.83388457  0.16692472  1
  I  I54  1  0.16995805  0.00096213  0.16393277  1
  I  I55  1  0.16715236  0.00296036  0.50296651  1
  I  I56  1  0.16602010  0.00056500  0.83253514  1
  I  I57  1  0.17084443  0.32994771  0.16545067  1
  I  I58  1  0.17016336  0.33208701  0.50282027  1
  I  I59  1  0.17035712  0.33329256  0.83173920  1
  I  I60  1  0.17203214  0.66988467  0.16304352  1
  I  I61  1  0.17222852  0.66396837  0.50359858  1
  I  I62  1  0.17182610  0.66616247  0.83341961  1
  I  I63  1  0.49447231  0.00062507  0.17698108  1
  I  I64  1  0.49917511  0.00110604  0.49494074  1
  I  I65  1  0.49839164  0.00005656  0.82957726  1
  I  I66  1  0.49433691  0.32995460  0.17147801  1
  I  I67  1  0.49948510  0.33250119  0.49938434  1
  I  I68  1  0.49284345  0.33655439  0.82848293  1
  I  I69  1  0.49417128  0.66975872  0.17077216  1
  I  I70  1  0.49291426  0.66607857  0.49930168  1
  I  I71  1  0.49231345  0.66323484  0.82855932  1
  I  I72  1  0.83471679  0.00022510  0.16806071  1
  I  I73  1  0.83926911  0.00422769  0.49885316  1
  I  I74  1  0.83153645  0.00029768  0.83254765  1
  I  I75  1  0.83351726  0.33258805  0.16642741  1
  I  I76  1  0.83034908  0.32999571  0.49941145  1
  I  I77  1  0.83466333  0.33313333  0.83421388  1
  I  I78  1  0.83393624  0.66715824  0.16727701  1
  I  I79  1  0.83505348  0.66686735  0.49975898  1
  I  I80  1  0.83398557  0.66659538  0.83305562  1
  I  I81  1  0.17201056  0.16652353  0.00046085  1
  I  I82  1  0.16698032  0.16696147  0.33407201  1
  I  I83  1  0.16632240  0.16696871  0.66587533  1
  I  I84  1  0.17110616  0.49736167  -0.00301118  1
  I  I85  1  0.17197718  0.49531543  0.33689073  1
  I  I86  1  0.17047968  0.49608156  0.66627372  1
  I  I87  1  0.17265019  0.83639702  0.00044312  1
  I  I88  1  0.16924860  0.83723832  0.33066048  1
  I  I89  1  0.16850900  0.83645326  0.66859680  1
  I  I90  1  0.49383212  0.16319716  0.00308548  1
  I  I91  1  0.49590806  0.16811946  0.33474572  1
  I  I92  1  0.49932648  0.16417689  0.66344263  1
  I  I93  1  0.49309812  0.49996147  -0.00297296  1
  I  I94  1  0.49534871  0.49895694  0.33675307  1
  I  I95  1  0.49525117  0.49917463  0.66510119  1
  I  I96  1  0.49662944  0.83736824  0.00305980  1
  I  I97  1  0.49329484  0.83294156  0.33344443  1
  I  I98  1  0.49807485  0.83693460  0.66406417  1
  I  I99  1  0.83265736  0.16724938  -0.00012092  1
  I  I100  1  0.83805805  0.16772615  0.33669410  1
  I  I101  1  0.83069389  0.16771456  0.66245772  1
  I  I102  1  0.83270653  0.49925539  -0.00044329  1
  I  I103  1  0.83453301  0.50005931  0.33409777  1
  I  I104  1  0.83358964  0.49919108  0.66643951  1
  I  I105  1  0.82810080  0.83342354  0.00000348  1
  I  I106  1  0.84064881  0.83222530  0.33361281  1
  I  I107  1  0.83403774  0.83353922  0.66632862  1
  I  I108  1  0.00385315  0.16350963  0.16679441  1
  I  I109  1  0.00225335  0.17200899  0.50071194  1
  I  I110  1  0.00565083  0.16985480  0.83517721  1
  I  I111  1  0.00081889  0.49957246  0.16655093  1
  I  I112  1  0.00356746  0.49563682  0.50424076  1
  I  I113  1  0.00443941  0.49970192  0.82891868  1
  I  I114  1  0.00361022  0.83718890  0.16205548  1
  I  I115  1  0.00013106  0.83271016  0.50045876  1
  I  I116  1  0.00592862  0.83114780  0.83855552  1
  I  I117  1  0.33249367  0.16283401  0.17226062  1
  I  I118  1  0.33316981  0.16789271  0.49926527  1
  I  I119  1  0.32952191  0.16490062  0.82835988  1
  I  I120  1  0.33324365  0.49994344  0.16643546  1
  I  I121  1  0.33352240  0.49425798  0.50452258  1
  I  I122  1  0.33186270  0.49945297  0.82801076  1
  I  I123  1  0.33307486  0.83815196  0.16699757  1
  I  I124  1  0.33633948  0.83772537  0.49911911  1
  I  I125  1  0.32981743  0.83591167  0.83422901  1
  I  I126  1  0.66287029  0.16385774  0.17241759  1
  I  I127  1  0.66464978  0.16753414  0.49366368  1
  I  I128  1  0.66651466  0.16886476  0.83368471  1
  I  I129  1  0.66585078  0.49950114  0.16683876  1
  I  I130  1  0.66279488  0.49925769  0.50318554  1
  I  I131  1  0.66356075  0.50005573  0.82878502  1
  I  I132  1  0.66265559  0.83682312  0.17250403  1
  I  I133  1  0.66088919  0.83048809  0.49303083  1
  I  I134  1  0.66631157  0.83117976  0.83352881  1
