# generated using pymatgen
data_Cs27Sn14Pb13I81
_symmetry_space_group_name_H-M   'P 1'
_cell_length_a   18.97007713
_cell_length_b   18.97010385
_cell_length_c   18.98794723
_cell_angle_alpha   89.99911228
_cell_angle_beta   90.00075200
_cell_angle_gamma   89.99570615
_symmetry_Int_Tables_number   1
_chemical_formula_structural   Cs27Sn14Pb13I81
_chemical_formula_sum   'Cs27 Sn14 Pb13 I81'
_cell_volume   6833.08494788
_cell_formula_units_Z   1
loop_
 _symmetry_equiv_pos_site_id
 _symmetry_equiv_pos_as_xyz
  1  'x, y, z'
loop_
 _atom_site_type_symbol
 _atom_site_label
 _atom_site_symmetry_multiplicity
 _atom_site_fract_x
 _atom_site_fract_y
 _atom_site_fract_z
 _atom_site_occupancy
  Cs  Cs0  1  0.00202981  0.00202088  0.00033545  1
  Cs  Cs1  1  -0.00268970  0.00060002  0.33011693  1
  Cs  Cs2  1  0.00053120  0.00045161  0.67047037  1
  Cs  Cs3  1  -0.00058342  0.33028717  0.00001320  1
  Cs  Cs4  1  0.00086959  0.33439391  0.33339314  1
  Cs  Cs5  1  0.00045584  0.33235759  0.66641517  1
  Cs  Cs6  1  -0.00051716  0.66815446  -0.00558081  1
  Cs  Cs7  1  -0.00045589  0.66440788  0.33318437  1
  Cs  Cs8  1  -0.00110790  0.66844962  0.67277707  1
  Cs  Cs9  1  0.33099562  -0.00164259  0.00003442  1
  Cs  Cs10  1  0.33447386  -0.00019855  0.33409157  1
  Cs  Cs11  1  0.33450508  -0.00134749  0.66508694  1
  Cs  Cs12  1  0.33895722  0.33676363  0.00156989  1
  Cs  Cs13  1  0.33152698  0.33630057  0.33399799  1
  Cs  Cs14  1  0.33150606  0.32959603  0.66413095  1
  Cs  Cs15  1  0.33311567  0.66688666  0.00193298  1
  Cs  Cs16  1  0.33264800  0.66565365  0.33321392  1
  Cs  Cs17  1  0.33363971  0.67091616  0.66490439  1
  Cs  Cs18  1  0.66589126  0.00169685  0.00453821  1
  Cs  Cs19  1  0.66747754  -0.00136876  0.33272462  1
  Cs  Cs20  1  0.66416196  0.00071331  0.66330211  1
  Cs  Cs21  1  0.66202474  0.33529361  -0.00194215  1
  Cs  Cs22  1  0.66835854  0.33271145  0.33276387  1
  Cs  Cs23  1  0.66680533  0.33558283  0.66893423  1
  Cs  Cs24  1  0.66823876  0.66314769  -0.00383773  1
  Cs  Cs25  1  0.66781280  0.66950846  0.33724340  1
  Cs  Cs26  1  0.66759660  0.66412175  0.66469991  1
  Sn  Sn27  1  0.50019026  0.50022247  0.49985263  1
  Sn  Sn28  1  0.49909936  0.83251885  0.49974913  1
  Sn  Sn29  1  0.83399155  0.16789919  0.16649041  1
  Sn  Sn30  1  0.16711983  0.83388246  0.16783472  1
  Sn  Sn31  1  0.16650764  0.16787239  0.83431366  1
  Sn  Sn32  1  0.16667387  0.83347899  0.49885918  1
  Sn  Sn33  1  0.16650181  0.16644248  0.16617253  1
  Sn  Sn34  1  0.49934601  0.83323771  0.16673522  1
  Sn  Sn35  1  0.16703985  0.49868001  0.83342406  1
  Sn  Sn36  1  0.83348251  0.16664810  0.83364036  1
  Sn  Sn37  1  0.50048377  0.83347490  0.83342544  1
  Sn  Sn38  1  0.83346041  0.16744059  0.49989792  1
  Sn  Sn39  1  0.83355804  0.49930952  0.16712361  1
  Sn  Sn40  1  0.83286773  0.49910147  0.49926257  1
  Pb  Pb41  1  0.49951989  0.16499611  0.16681915  1
  Pb  Pb42  1  0.16605799  0.50229819  0.50186698  1
  Pb  Pb43  1  0.83366406  0.83298997  0.50008851  1
  Pb  Pb44  1  0.83387599  0.83308225  0.16654042  1
  Pb  Pb45  1  0.16818183  0.83414603  0.83374697  1
  Pb  Pb46  1  0.16443121  0.16443232  0.49960236  1
  Pb  Pb47  1  0.16463065  0.49999266  0.16489003  1
  Pb  Pb48  1  0.50240249  0.16686160  0.49979659  1
  Pb  Pb49  1  0.83033146  0.83646791  0.83343172  1
  Pb  Pb50  1  0.83482421  0.49769267  0.83309547  1
  Pb  Pb51  1  0.49739152  0.50203667  0.83070676  1
  Pb  Pb52  1  0.50259605  0.50269260  0.16897462  1
  Pb  Pb53  1  0.49931143  0.16482459  0.83342882  1
  I  I54  1  0.16409413  0.00022250  0.16413400  1
  I  I55  1  0.17210658  -0.00350290  0.50143379  1
  I  I56  1  0.16301165  0.00282044  0.83443250  1
  I  I57  1  0.16267081  0.33033481  0.16434729  1
  I  I58  1  0.16988325  0.33330616  0.49856098  1
  I  I59  1  0.16191979  0.33170464  0.83731491  1
  I  I60  1  0.16954997  0.66956615  0.16860249  1
  I  I61  1  0.16687181  0.67029904  0.49605910  1
  I  I62  1  0.16790360  0.66533865  0.83236065  1
  I  I63  1  0.50175772  -0.00359987  0.16985882  1
  I  I64  1  0.49776046  -0.00342941  0.50057177  1
  I  I65  1  0.49852861  -0.00343764  0.82958960  1
  I  I66  1  0.49766868  0.33373321  0.16833795  1
  I  I67  1  0.50270862  0.33637220  0.50095932  1
  I  I68  1  0.50147428  0.33349963  0.83119355  1
  I  I69  1  0.49411271  0.67085766  0.16477396  1
  I  I70  1  0.50313410  0.66789076  0.50007234  1
  I  I71  1  0.49729286  0.67014603  0.83554162  1
  I  I72  1  0.83367295  0.00314165  0.16731764  1
  I  I73  1  0.83353424  0.00281866  0.49910789  1
  I  I74  1  0.84144258  0.00461698  0.83357415  1
  I  I75  1  0.83956560  0.33190124  0.16844149  1
  I  I76  1  0.82799003  0.33348940  0.49928049  1
  I  I77  1  0.83499588  0.32961441  0.83298921  1
  I  I78  1  0.83247405  0.66397878  0.17339548  1
  I  I79  1  0.83185453  0.66369999  0.49464222  1
  I  I80  1  0.83557229  0.66636816  0.83319790  1
  I  I81  1  0.15725901  0.16251935  0.00044399  1
  I  I82  1  0.16214395  0.16297540  0.33041573  1
  I  I83  1  0.16218593  0.16818665  0.66910960  1
  I  I84  1  0.16388667  0.50188112  -0.00281351  1
  I  I85  1  0.16798029  0.49859133  0.33340492  1
  I  I86  1  0.16471280  0.49579232  0.66950633  1
  I  I87  1  0.17056159  0.83453439  0.00268361  1
  I  I88  1  0.17448456  0.83810174  0.33252205  1
  I  I89  1  0.17078908  0.83290294  0.66477570  1
  I  I90  1  0.50551476  0.16367791  0.00011327  1
  I  I91  1  0.50028114  0.16294741  0.33338046  1
  I  I92  1  0.50025051  0.16226391  0.66655241  1
  I  I93  1  0.50160709  0.50226893  0.00001569  1
  I  I94  1  0.50044419  0.50614095  0.33682459  1
  I  I95  1  0.50783041  0.50711517  0.66306407  1
  I  I96  1  0.49552168  0.83637846  0.00081463  1
  I  I97  1  0.49582647  0.83010662  0.33383803  1
  I  I98  1  0.49592669  0.83073833  0.66532670  1
  I  I99  1  0.83801202  0.16859655  0.00071020  1
  I  I100  1  0.83672885  0.16994312  0.33269936  1
  I  I101  1  0.83683620  0.16908595  0.66665752  1
  I  I102  1  0.83559123  0.49760117  0.00234231  1
  I  I103  1  0.83085146  0.49245239  0.33402941  1
  I  I104  1  0.83030458  0.49688913  0.66381847  1
  I  I105  1  0.83295337  0.83134889  0.00011063  1
  I  I106  1  0.82935427  0.83817200  0.33333186  1
  I  I107  1  0.83472284  0.83366060  0.66660399  1
  I  I108  1  -0.00029233  0.16302054  0.16591384  1
  I  I109  1  -0.00368012  0.17119520  0.49994465  1
  I  I110  1  0.00016512  0.16903568  0.83371780  1
  I  I111  1  -0.00329286  0.50063860  0.17393829  1
  I  I112  1  -0.00309870  0.49703722  0.49715204  1
  I  I113  1  0.00266643  0.50127528  0.83098369  1
  I  I114  1  0.00320666  0.83509908  0.17171835  1
  I  I115  1  0.00271591  0.83393238  0.49481423  1
  I  I116  1  0.00023255  0.83095129  0.83255251  1
  I  I117  1  0.32973707  0.16305013  0.16076779  1
  I  I118  1  0.33305447  0.16822205  0.50091331  1
  I  I119  1  0.32967162  0.16856696  0.83844429  1
  I  I120  1  0.33328926  0.49759186  0.16710117  1
  I  I121  1  0.33555312  0.50455858  0.50258797  1
  I  I122  1  0.32973954  0.49307405  0.83311644  1
  I  I123  1  0.33267238  0.83922528  0.16734371  1
  I  I124  1  0.33435982  0.82846344  0.49999253  1
  I  I125  1  0.33602337  0.83523522  0.83199460  1
  I  I126  1  0.67008966  0.16797348  0.16612041  1
  I  I127  1  0.67090373  0.16442755  0.49973815  1
  I  I128  1  0.66973303  0.16391240  0.83378327  1
  I  I129  1  0.67056615  0.49433925  0.16673327  1
  I  I130  1  0.66732925  0.50343200  0.49712591  1
  I  I131  1  0.66662463  0.50029839  0.83478453  1
  I  I132  1  0.66401148  0.83402049  0.16849333  1
  I  I133  1  0.66375806  0.83304604  0.49919810  1
  I  I134  1  0.66233768  0.83357238  0.83236845  1
