# generated using pymatgen
data_Cs27Sn14Pb13I81
_symmetry_space_group_name_H-M   'P 1'
_cell_length_a   18.97054788
_cell_length_b   18.97608991
_cell_length_c   18.98003321
_cell_angle_alpha   89.99949137
_cell_angle_beta   90.00181707
_cell_angle_gamma   90.00037598
_symmetry_Int_Tables_number   1
_chemical_formula_structural   Cs27Sn14Pb13I81
_chemical_formula_sum   'Cs27 Sn14 Pb13 I81'
_cell_volume   6832.56183644
_cell_formula_units_Z   1
loop_
 _symmetry_equiv_pos_site_id
 _symmetry_equiv_pos_as_xyz
  1  'x, y, z'
loop_
 _atom_site_type_symbol
 _atom_site_label
 _atom_site_symmetry_multiplicity
 _atom_site_fract_x
 _atom_site_fract_y
 _atom_site_fract_z
 _atom_site_occupancy
  Cs  Cs0  1  0.00236503  -0.00083998  0.00012492  1
  Cs  Cs1  1  0.00068308  -0.00122205  0.33646591  1
  Cs  Cs2  1  0.00013095  -0.00013646  0.66417333  1
  Cs  Cs3  1  -0.00209634  0.33528103  -0.00173548  1
  Cs  Cs4  1  0.00039350  0.33449452  0.33088933  1
  Cs  Cs5  1  0.00097135  0.33589598  0.67310230  1
  Cs  Cs6  1  -0.00058642  0.66513789  0.00185495  1
  Cs  Cs7  1  -0.00234800  0.66705358  0.33044760  1
  Cs  Cs8  1  0.00033098  0.66494456  0.66802569  1
  Cs  Cs9  1  0.33301586  -0.00280833  -0.00130031  1
  Cs  Cs10  1  0.32992912  0.00052110  0.33417629  1
  Cs  Cs11  1  0.33324969  0.00130235  0.66748957  1
  Cs  Cs12  1  0.33300844  0.33153229  -0.00120324  1
  Cs  Cs13  1  0.33587767  0.33495098  0.33587296  1
  Cs  Cs14  1  0.33236956  0.33281374  0.66554948  1
  Cs  Cs15  1  0.33672150  0.67437057  0.00169505  1
  Cs  Cs16  1  0.33556341  0.66411642  0.33261810  1
  Cs  Cs17  1  0.33378154  0.66458895  0.66523439  1
  Cs  Cs18  1  0.66343062  0.00111597  0.00143996  1
  Cs  Cs19  1  0.67043918  0.00592865  0.33798065  1
  Cs  Cs20  1  0.66571668  -0.00174394  0.66390320  1
  Cs  Cs21  1  0.66811880  0.33029161  0.00089949  1
  Cs  Cs22  1  0.66536810  0.33528882  0.32840843  1
  Cs  Cs23  1  0.66631833  0.33229627  0.67077505  1
  Cs  Cs24  1  0.66515018  0.66859188  -0.00105722  1
  Cs  Cs25  1  0.67094883  0.66181568  0.33427885  1
  Cs  Cs26  1  0.66593829  0.66977868  0.66655306  1
  Sn  Sn27  1  0.16660124  0.16767829  0.16666730  1
  Sn  Sn28  1  0.83420494  0.50078923  0.16724491  1
  Sn  Sn29  1  0.16711444  0.16643591  0.50023665  1
  Sn  Sn30  1  0.49960654  0.49913799  0.83351619  1
  Sn  Sn31  1  0.83373663  0.49942830  0.50006125  1
  Sn  Sn32  1  0.49920895  0.16596892  0.50080194  1
  Sn  Sn33  1  0.83317393  0.83321754  0.16581817  1
  Sn  Sn34  1  0.49899998  0.83383589  0.49962967  1
  Sn  Sn35  1  0.49907007  0.16747348  0.83248812  1
  Sn  Sn36  1  0.83427185  0.83374496  0.83426800  1
  Sn  Sn37  1  0.16573834  0.83385251  0.83231458  1
  Sn  Sn38  1  0.16666928  0.49941479  0.16652273  1
  Sn  Sn39  1  0.16756672  0.83340236  0.50079236  1
  Sn  Sn40  1  0.16719730  0.16602249  0.83319242  1
  Pb  Pb41  1  0.83386578  0.83193255  0.49998220  1
  Pb  Pb42  1  0.50201110  0.49929328  0.50172094  1
  Pb  Pb43  1  0.83360156  0.16971652  0.50020222  1
  Pb  Pb44  1  0.49951375  0.83430619  0.83172059  1
  Pb  Pb45  1  0.83591822  0.16668372  0.16660851  1
  Pb  Pb46  1  0.16541915  0.83338299  0.16700184  1
  Pb  Pb47  1  0.83127326  0.50222744  0.83410641  1
  Pb  Pb48  1  0.49718969  0.16640514  0.16695661  1
  Pb  Pb49  1  0.50015907  0.50001797  0.16399690  1
  Pb  Pb50  1  0.16862359  0.50052915  0.83577884  1
  Pb  Pb51  1  0.16497991  0.49998800  0.49817369  1
  Pb  Pb52  1  0.50345343  0.83361966  0.17063142  1
  Pb  Pb53  1  0.83333263  0.16376188  0.83321214  1
  I  I54  1  0.16557613  0.00258389  0.16666052  1
  I  I55  1  0.16939038  0.00031390  0.49829116  1
  I  I56  1  0.16863467  0.00055281  0.83548279  1
  I  I57  1  0.16061268  0.33278092  0.16665283  1
  I  I58  1  0.17006472  0.33008383  0.50223269  1
  I  I59  1  0.16913615  0.33039196  0.83035772  1
  I  I60  1  0.16325100  0.66461910  0.16653610  1
  I  I61  1  0.16936637  0.66967241  0.50364624  1
  I  I62  1  0.16443680  0.66976923  0.83002188  1
  I  I63  1  0.50028529  -0.00004270  0.16031158  1
  I  I64  1  0.49761118  0.00070726  0.50638572  1
  I  I65  1  0.49872737  0.00296480  0.83113970  1
  I  I66  1  0.50439729  0.33323851  0.17052312  1
  I  I67  1  0.49543708  0.33006960  0.50236211  1
  I  I68  1  0.49519331  0.33153032  0.82746237  1
  I  I69  1  0.49400619  0.66677715  0.16498053  1
  I  I70  1  0.49702383  0.66901685  0.50258713  1
  I  I71  1  0.50100871  0.66555257  0.83215109  1
  I  I72  1  0.83433735  -0.00290558  0.16273159  1
  I  I73  1  0.83252138  0.00004776  0.49909823  1
  I  I74  1  0.83322232  -0.00422630  0.83839195  1
  I  I75  1  0.83516622  0.33642620  0.17132133  1
  I  I76  1  0.83304318  0.33724952  0.49261791  1
  I  I77  1  0.83490057  0.33335841  0.83348170  1
  I  I78  1  0.84033030  0.66599304  0.16719768  1
  I  I79  1  0.83286827  0.66430591  0.49817386  1
  I  I80  1  0.83755344  0.67004637  0.83374644  1
  I  I81  1  0.16979561  0.16593227  -0.00106244  1
  I  I82  1  0.16951798  0.16575620  0.33431495  1
  I  I83  1  0.17106269  0.16123039  0.66672650  1
  I  I84  1  0.15974480  0.49581634  0.00345797  1
  I  I85  1  0.16475363  0.49672743  0.33019165  1
  I  I86  1  0.16472526  0.49833104  0.66681719  1
  I  I87  1  0.16442455  0.83616874  -0.00245352  1
  I  I88  1  0.16826574  0.83690565  0.33607348  1
  I  I89  1  0.16413025  0.84064193  0.66682707  1
  I  I90  1  0.49698405  0.17073048  -0.00321141  1
  I  I91  1  0.49663158  0.16216129  0.33684070  1
  I  I92  1  0.49214874  0.16712898  0.66663883  1
  I  I93  1  0.50154643  0.49418586  -0.00378523  1
  I  I94  1  0.49978135  0.50017801  0.33334833  1
  I  I95  1  0.50175450  0.49904900  0.66939579  1
  I  I96  1  0.49825654  0.83281534  -0.00007421  1
  I  I97  1  0.49316037  0.83867019  0.33843123  1
  I  I98  1  0.50203966  0.83404536  0.66392028  1
  I  I99  1  0.83280615  0.17071984  -0.00013232  1
  I  I100  1  0.83335159  0.16181793  0.33343747  1
  I  I101  1  0.83738233  0.16770058  0.66667549  1
  I  I102  1  0.83673810  0.50259688  0.00297594  1
  I  I103  1  0.83600175  0.50670727  0.33204183  1
  I  I104  1  0.83157839  0.50186478  0.66504255  1
  I  I105  1  0.83952491  0.82742534  -0.00026547  1
  I  I106  1  0.83355171  0.82979010  0.33124277  1
  I  I107  1  0.83415764  0.83142797  0.66870194  1
  I  I108  1  0.00434907  0.16762017  0.16677085  1
  I  I109  1  0.00380495  0.16153287  0.50026280  1
  I  I110  1  0.00370307  0.16487766  0.83209059  1
  I  I111  1  -0.00047918  0.49988302  0.16992601  1
  I  I112  1  -0.00279265  0.50151667  0.49857423  1
  I  I113  1  0.00009137  0.49796018  0.83206002  1
  I  I114  1  -0.00250553  0.83162901  0.16743787  1
  I  I115  1  0.00296592  0.83768248  0.50076771  1
  I  I116  1  0.00138469  0.83795847  0.83088310  1
  I  I117  1  0.32880381  0.17228979  0.16676932  1
  I  I118  1  0.33247397  0.16303305  0.50060906  1
  I  I119  1  0.33225963  0.16488140  0.83310384  1
  I  I120  1  0.33044367  0.49545625  0.16604648  1
  I  I121  1  0.33324836  0.50118964  0.49855343  1
  I  I122  1  0.33617839  0.50020288  0.83322089  1
  I  I123  1  0.33317384  0.83210505  0.16357463  1
  I  I124  1  0.33215173  0.83662024  0.50628706  1
  I  I125  1  0.33037825  0.83426064  0.83195693  1
  I  I126  1  0.66662228  0.16718517  0.16680586  1
  I  I127  1  0.66342031  0.16185727  0.50516268  1
  I  I128  1  0.66339950  0.16925319  0.82853307  1
  I  I129  1  0.66992649  0.50491845  0.17015987  1
  I  I130  1  0.66972349  0.50189774  0.49366077  1
  I  I131  1  0.66356288  0.49529525  0.83373937  1
  I  I132  1  0.67135531  0.82568732  0.15992796  1
  I  I133  1  0.66456619  0.83657458  0.50080828  1
  I  I134  1  0.66858044  0.83160076  0.83533517  1
