# generated using pymatgen
data_Cs27Sn13Pb14I81
_symmetry_space_group_name_H-M   'P 1'
_cell_length_a   18.98123967
_cell_length_b   18.96635789
_cell_length_c   18.98602828
_cell_angle_alpha   89.99959676
_cell_angle_beta   90.00078505
_cell_angle_gamma   90.00012299
_symmetry_Int_Tables_number   1
_chemical_formula_structural   Cs27Sn13Pb14I81
_chemical_formula_sum   'Cs27 Sn13 Pb14 I81'
_cell_volume   6835.06481966
_cell_formula_units_Z   1
loop_
 _symmetry_equiv_pos_site_id
 _symmetry_equiv_pos_as_xyz
  1  'x, y, z'
loop_
 _atom_site_type_symbol
 _atom_site_label
 _atom_site_symmetry_multiplicity
 _atom_site_fract_x
 _atom_site_fract_y
 _atom_site_fract_z
 _atom_site_occupancy
  Cs  Cs0  1  0.00539351  -0.00595456  -0.00303044  1
  Cs  Cs1  1  0.00196725  -0.00475323  0.33434981  1
  Cs  Cs2  1  0.00157812  -0.00596551  0.66808745  1
  Cs  Cs3  1  -0.00122845  0.33434198  0.00049041  1
  Cs  Cs4  1  -0.00101030  0.33376683  0.33282321  1
  Cs  Cs5  1  -0.00103533  0.33286850  0.66671710  1
  Cs  Cs6  1  -0.00063721  0.66601200  -0.00184824  1
  Cs  Cs7  1  -0.00007006  0.67027681  0.33574831  1
  Cs  Cs8  1  -0.00050741  0.67280481  0.66678783  1
  Cs  Cs9  1  0.32938114  0.00662612  0.00528580  1
  Cs  Cs10  1  0.33469696  -0.00146096  0.32943331  1
  Cs  Cs11  1  0.33352036  -0.00085548  0.66720895  1
  Cs  Cs12  1  0.33357751  0.32941174  -0.00198294  1
  Cs  Cs13  1  0.33068826  0.33361010  0.33397240  1
  Cs  Cs14  1  0.33488702  0.33342020  0.66770659  1
  Cs  Cs15  1  0.33401572  0.66473690  0.00197344  1
  Cs  Cs16  1  0.33247727  0.66671945  0.33206414  1
  Cs  Cs17  1  0.33657603  0.66696563  0.66659491  1
  Cs  Cs18  1  0.66529025  -0.00247664  0.00317040  1
  Cs  Cs19  1  0.66410038  -0.00018015  0.33136707  1
  Cs  Cs20  1  0.66544083  -0.00010935  0.66656149  1
  Cs  Cs21  1  0.66860137  0.33290097  -0.00130595  1
  Cs  Cs22  1  0.66947643  0.33410520  0.33500346  1
  Cs  Cs23  1  0.66601393  0.33421361  0.66653960  1
  Cs  Cs24  1  0.66740573  0.66836292  0.00122205  1
  Cs  Cs25  1  0.66788289  0.66679044  0.33426343  1
  Cs  Cs26  1  0.66390515  0.66717624  0.66444275  1
  Sn  Sn27  1  0.83374102  0.16703006  0.16649106  1
  Sn  Sn28  1  0.50037104  0.49926025  0.16669347  1
  Sn  Sn29  1  0.50002439  0.83408277  0.50067175  1
  Sn  Sn30  1  0.16629181  0.49942333  0.16658176  1
  Sn  Sn31  1  0.83336659  0.16696661  0.83344314  1
  Sn  Sn32  1  0.49994340  0.16619696  0.50013143  1
  Sn  Sn33  1  0.16601879  0.49965289  0.83301933  1
  Sn  Sn34  1  0.83367029  0.16687303  0.50007432  1
  Sn  Sn35  1  0.83340037  0.49932587  0.16616872  1
  Sn  Sn36  1  0.49969121  0.83373150  0.83352742  1
  Sn  Sn37  1  0.16639227  0.49941574  0.50038139  1
  Sn  Sn38  1  0.16635361  0.16731972  0.50017551  1
  Sn  Sn39  1  0.83391897  0.49935014  0.83350641  1
  Pb  Pb40  1  0.49785980  0.49963425  0.49813666  1
  Pb  Pb41  1  0.83551438  0.49862667  0.50031314  1
  Pb  Pb42  1  0.83351825  0.83316429  0.16656145  1
  Pb  Pb43  1  0.16957227  0.83068799  0.83339491  1
  Pb  Pb44  1  0.49996123  0.83136482  0.16670869  1
  Pb  Pb45  1  0.83076204  0.83664783  0.49998515  1
  Pb  Pb46  1  0.50215725  0.16472925  0.83158247  1
  Pb  Pb47  1  0.50207828  0.16913349  0.16888419  1
  Pb  Pb48  1  0.16922522  0.83359897  0.50004642  1
  Pb  Pb49  1  0.16658246  0.83067673  0.16654308  1
  Pb  Pb50  1  0.50046643  0.50125238  0.83531664  1
  Pb  Pb51  1  0.16399247  0.16873561  0.16872738  1
  Pb  Pb52  1  0.83134754  0.83301563  0.83331878  1
  Pb  Pb53  1  0.16438328  0.16871303  0.83112609  1
  I  I54  1  0.16585249  0.00067138  0.16874502  1
  I  I55  1  0.16343981  0.00348489  0.50031995  1
  I  I56  1  0.16478772  0.00025445  0.83083099  1
  I  I57  1  0.16854603  0.33741295  0.16556581  1
  I  I58  1  0.16898573  0.33351474  0.49920216  1
  I  I59  1  0.16665388  0.33728702  0.83553894  1
  I  I60  1  0.16431751  0.66119604  0.17033223  1
  I  I61  1  0.16834457  0.66338022  0.49859286  1
  I  I62  1  0.15936225  0.66184151  0.83125366  1
  I  I63  1  0.50263880  0.00039524  0.16606577  1
  I  I64  1  0.49989977  0.00100397  0.50385538  1
  I  I65  1  0.50314585  -0.00308096  0.83057340  1
  I  I66  1  0.49787029  0.33724669  0.16783025  1
  I  I67  1  0.50206936  0.33041092  0.49770785  1
  I  I68  1  0.49894438  0.33336056  0.83237855  1
  I  I69  1  0.50189487  0.66288813  0.16905833  1
  I  I70  1  0.49772492  0.66868163  0.50201507  1
  I  I71  1  0.50150460  0.66896196  0.82587342  1
  I  I72  1  0.83103976  0.00368120  0.16769907  1
  I  I73  1  0.83906703  0.00539384  0.50018543  1
  I  I74  1  0.83065579  0.00330803  0.83242879  1
  I  I75  1  0.83311871  0.33438470  0.16673019  1
  I  I76  1  0.82812667  0.33011017  0.49980297  1
  I  I77  1  0.83573049  0.33393393  0.83407964  1
  I  I78  1  0.83340150  0.66238668  0.16144649  1
  I  I79  1  0.83314285  0.66662222  0.49958458  1
  I  I80  1  0.83640484  0.66296154  0.83911913  1
  I  I81  1  0.16660881  0.16750962  -0.00002711  1
  I  I82  1  0.16527043  0.17307770  0.33696833  1
  I  I83  1  0.16530963  0.17343796  0.66291934  1
  I  I84  1  0.16551040  0.50243761  0.00020825  1
  I  I85  1  0.16752071  0.49574720  0.33324358  1
  I  I86  1  0.16291855  0.49569998  0.66661053  1
  I  I87  1  0.16939065  0.83267623  -0.00021589  1
  I  I88  1  0.16899492  0.83064041  0.33362254  1
  I  I89  1  0.16544189  0.82992947  0.66659547  1
  I  I90  1  0.50144341  0.16529658  0.00017188  1
  I  I91  1  0.50193394  0.16118538  0.33721693  1
  I  I92  1  0.50236978  0.16720417  0.66301206  1
  I  I93  1  0.49660890  0.50287511  0.00317585  1
  I  I94  1  0.50160355  0.50109728  0.33027470  1
  I  I95  1  0.49973168  0.49936679  0.66650316  1
  I  I96  1  0.50223508  0.82858930  -0.00238909  1
  I  I97  1  0.49978996  0.83707691  0.33625833  1
  I  I98  1  0.50062982  0.83544459  0.66565228  1
  I  I99  1  0.83170952  0.17321722  0.00002082  1
  I  I100  1  0.83238688  0.17205049  0.33352258  1
  I  I101  1  0.83239906  0.17164513  0.66648264  1
  I  I102  1  0.83700178  0.49273354  0.00028866  1
  I  I103  1  0.83331578  0.49593529  0.33056622  1
  I  I104  1  0.83696573  0.49559815  0.66949394  1
  I  I105  1  0.82887632  0.83698090  -0.00013828  1
  I  I106  1  0.83050932  0.83136574  0.33341889  1
  I  I107  1  0.83368853  0.83198056  0.66660092  1
  I  I108  1  -0.00411318  0.17395455  0.16889474  1
  I  I109  1  -0.00031325  0.17437819  0.49929672  1
  I  I110  1  -0.00397568  0.16894511  0.83149466  1
  I  I111  1  -0.00040380  0.49528288  0.16579313  1
  I  I112  1  0.00354944  0.49425225  0.49590856  1
  I  I113  1  -0.00048315  0.49601089  0.83801833  1
  I  I114  1  -0.00009475  0.83186419  0.16736282  1
  I  I115  1  0.00018520  0.83332321  0.49931435  1
  I  I116  1  0.00002242  0.83445299  0.83365030  1
  I  I117  1  0.33313549  0.16838638  0.16887608  1
  I  I118  1  0.33319367  0.16761137  0.50010896  1
  I  I119  1  0.33320984  0.16773768  0.83098573  1
  I  I120  1  0.33253419  0.50295177  0.16800170  1
  I  I121  1  0.32982162  0.49516045  0.49997262  1
  I  I122  1  0.33065812  0.50297484  0.83397218  1
  I  I123  1  0.33357503  0.83041729  0.16750400  1
  I  I124  1  0.33688932  0.83775681  0.50378749  1
  I  I125  1  0.33709755  0.83042154  0.82698404  1
  I  I126  1  0.67021279  0.17318978  0.16906187  1
  I  I127  1  0.66717686  0.16223949  0.49959597  1
  I  I128  1  0.67048937  0.17392746  0.83066549  1
  I  I129  1  0.66801917  0.49690719  0.16246322  1
  I  I130  1  0.66668900  0.49947289  0.49933074  1
  I  I131  1  0.66986191  0.49749995  0.83792806  1
  I  I132  1  0.66656956  0.82960551  0.16748014  1
  I  I133  1  0.66285498  0.83622197  0.50336230  1
  I  I134  1  0.66381080  0.83059598  0.82815531  1
