# generated using pymatgen
data_Cs27Sn14Pb13I81
_symmetry_space_group_name_H-M   'P 1'
_cell_length_a   18.98336061
_cell_length_b   18.97278390
_cell_length_c   18.97174518
_cell_angle_alpha   89.99897723
_cell_angle_beta   89.99870695
_cell_angle_gamma   90.00094447
_symmetry_Int_Tables_number   1
_chemical_formula_structural   Cs27Sn14Pb13I81
_chemical_formula_sum   'Cs27 Sn14 Pb13 I81'
_cell_volume   6833.00031030
_cell_formula_units_Z   1
loop_
 _symmetry_equiv_pos_site_id
 _symmetry_equiv_pos_as_xyz
  1  'x, y, z'
loop_
 _atom_site_type_symbol
 _atom_site_label
 _atom_site_symmetry_multiplicity
 _atom_site_fract_x
 _atom_site_fract_y
 _atom_site_fract_z
 _atom_site_occupancy
  Cs  Cs0  1  0.00181137  0.00242944  0.00104718  1
  Cs  Cs1  1  -0.00304796  -0.00127757  0.33700449  1
  Cs  Cs2  1  0.00043310  0.00189968  0.66504621  1
  Cs  Cs3  1  0.00355457  0.32515643  0.00502283  1
  Cs  Cs4  1  0.00163395  0.33585830  0.32756454  1
  Cs  Cs5  1  -0.00320084  0.33143348  0.66659743  1
  Cs  Cs6  1  -0.00237153  0.66822950  -0.00138474  1
  Cs  Cs7  1  -0.00019313  0.66598077  0.33164584  1
  Cs  Cs8  1  -0.00018622  0.66626306  0.66754039  1
  Cs  Cs9  1  0.33299992  -0.00069655  -0.00011283  1
  Cs  Cs10  1  0.33380060  -0.00133106  0.33565931  1
  Cs  Cs11  1  0.33386656  -0.00085072  0.66606770  1
  Cs  Cs12  1  0.33350798  0.32933485  0.00595506  1
  Cs  Cs13  1  0.33299104  0.34026895  0.32705136  1
  Cs  Cs14  1  0.33299705  0.33390451  0.66659157  1
  Cs  Cs15  1  0.33266115  0.67045004  -0.00413181  1
  Cs  Cs16  1  0.33344744  0.66181620  0.33770328  1
  Cs  Cs17  1  0.33367591  0.66669524  0.66638465  1
  Cs  Cs18  1  0.66539429  -0.00136757  0.00244241  1
  Cs  Cs19  1  0.66911331  0.00182861  0.33334250  1
  Cs  Cs20  1  0.66617915  0.00089589  0.66516879  1
  Cs  Cs21  1  0.66410260  0.33331695  0.00587287  1
  Cs  Cs22  1  0.66606728  0.33085702  0.32234919  1
  Cs  Cs23  1  0.66973265  0.33195553  0.66764550  1
  Cs  Cs24  1  0.66940102  0.66778080  -0.00265837  1
  Cs  Cs25  1  0.66678673  0.66467924  0.33311625  1
  Cs  Cs26  1  0.66653147  0.66676988  0.66769652  1
  Sn  Sn27  1  0.16623091  0.50018207  0.83308109  1
  Sn  Sn28  1  0.49913898  0.83304495  0.16635096  1
  Sn  Sn29  1  0.83397937  0.83217387  0.50121123  1
  Sn  Sn30  1  0.16636987  0.83291010  0.83308161  1
  Sn  Sn31  1  0.16603045  0.83366065  0.50008787  1
  Sn  Sn32  1  0.49990144  0.49977096  0.83282636  1
  Sn  Sn33  1  0.16765958  0.83322218  0.16693378  1
  Sn  Sn34  1  0.49892287  0.16716217  0.50061926  1
  Sn  Sn35  1  0.83306533  0.50067596  0.50074647  1
  Sn  Sn36  1  0.83355319  0.83316548  0.83213924  1
  Sn  Sn37  1  0.83376632  0.50039129  0.83277333  1
  Sn  Sn38  1  0.49997162  0.16659377  0.83226398  1
  Sn  Sn39  1  0.50007059  0.83337008  0.83373346  1
  Sn  Sn40  1  0.16792508  0.16660162  0.50033233  1
  Pb  Pb41  1  0.50275927  0.49689418  0.50209437  1
  Pb  Pb42  1  0.16696431  0.16360040  0.17028013  1
  Pb  Pb43  1  0.50031318  0.83428087  0.50018329  1
  Pb  Pb44  1  0.16670993  0.50321290  0.16315538  1
  Pb  Pb45  1  0.83336205  0.16711667  0.50006793  1
  Pb  Pb46  1  0.16476348  0.50013719  0.50214650  1
  Pb  Pb47  1  0.83350867  0.50039786  0.16566799  1
  Pb  Pb48  1  0.83350527  0.83333537  0.16659355  1
  Pb  Pb49  1  0.49982009  0.50351798  0.16358099  1
  Pb  Pb50  1  0.49967604  0.16392004  0.16679638  1
  Pb  Pb51  1  0.83357506  0.16633587  0.16650782  1
  Pb  Pb52  1  0.83075919  0.16660941  0.83359023  1
  Pb  Pb53  1  0.16883046  0.16649128  0.83154152  1
  I  I54  1  0.17037522  -0.00453571  0.15919137  1
  I  I55  1  0.16451622  -0.00212036  0.50242000  1
  I  I56  1  0.16647497  -0.00369456  0.83507367  1
  I  I57  1  0.16533004  0.33339981  0.16647878  1
  I  I58  1  0.16889733  0.33104183  0.50438407  1
  I  I59  1  0.16603275  0.33598793  0.82962688  1
  I  I60  1  0.17057316  0.67128930  0.17225078  1
  I  I61  1  0.16490055  0.67017312  0.49873184  1
  I  I62  1  0.17076101  0.66846542  0.83149786  1
  I  I63  1  0.49670751  -0.00379152  0.15935707  1
  I  I64  1  0.50076394  0.00209292  0.50605585  1
  I  I65  1  0.49973824  -0.00131649  0.83351713  1
  I  I66  1  0.50162792  0.33341553  0.16603447  1
  I  I67  1  0.49481365  0.32911454  0.50739959  1
  I  I68  1  0.50064053  0.33366748  0.82617615  1
  I  I69  1  0.49641385  0.67130359  0.16201781  1
  I  I70  1  0.49776031  0.66648833  0.49968975  1
  I  I71  1  0.50032144  0.66751479  0.83831701  1
  I  I72  1  0.83200497  -0.00098068  0.16725188  1
  I  I73  1  0.83462104  -0.00312198  0.50404694  1
  I  I74  1  0.83393148  -0.00382009  0.82899701  1
  I  I75  1  0.83250227  0.33371952  0.16747509  1
  I  I76  1  0.83294163  0.33638121  0.50709881  1
  I  I77  1  0.83360581  0.33689001  0.82761595  1
  I  I78  1  0.83264211  0.66712599  0.16734898  1
  I  I79  1  0.83857707  0.66814538  0.50462585  1
  I  I80  1  0.82935504  0.66787532  0.82981574  1
  I  I81  1  0.16734702  0.16705361  -0.00001016  1
  I  I82  1  0.17204967  0.16154756  0.33831037  1
  I  I83  1  0.16850121  0.15912940  0.66383268  1
  I  I84  1  0.16461343  0.50514216  -0.00532639  1
  I  I85  1  0.16430115  0.49988969  0.33342927  1
  I  I86  1  0.16945798  0.50687898  0.67037054  1
  I  I87  1  0.16727103  0.82820232  -0.00157183  1
  I  I88  1  0.16632658  0.83960450  0.33427191  1
  I  I89  1  0.16664164  0.83362936  0.66736430  1
  I  I90  1  0.50127769  0.16868581  -0.00327990  1
  I  I91  1  0.49815296  0.16318178  0.33637886  1
  I  I92  1  0.49679516  0.16261013  0.66766371  1
  I  I93  1  0.50335310  0.49441070  -0.00524080  1
  I  I94  1  0.50217845  0.49937589  0.33337594  1
  I  I95  1  0.49795836  0.50727279  0.67071916  1
  I  I96  1  0.49755183  0.83505993  -0.00256213  1
  I  I97  1  0.49750019  0.83729384  0.33133699  1
  I  I98  1  0.49809131  0.83183333  0.67009149  1
  I  I99  1  0.83168574  0.16584667  -0.00062341  1
  I  I100  1  0.82975850  0.16501399  0.33407180  1
  I  I101  1  0.83403070  0.16592029  0.66674277  1
  I  I102  1  0.83179126  0.50672397  -0.00456081  1
  I  I103  1  0.83402696  0.50465207  0.33640742  1
  I  I104  1  0.83296034  0.50506511  0.66814396  1
  I  I105  1  0.83433618  0.82884902  -0.00367692  1
  I  I106  1  0.83610461  0.83087537  0.33671377  1
  I  I107  1  0.83554077  0.82995363  0.66746488  1
  I  I108  1  0.00067870  0.16434219  0.16711466  1
  I  I109  1  0.00267500  0.16305626  0.50041635  1
  I  I110  1  0.00024325  0.16667169  0.83196238  1
  I  I111  1  0.00016417  0.50207418  0.16514069  1
  I  I112  1  -0.00304801  0.50006619  0.50738223  1
  I  I113  1  -0.00030596  0.50982400  0.82864147  1
  I  I114  1  0.00310166  0.83340851  0.16411936  1
  I  I115  1  0.00064803  0.83635355  0.50267761  1
  I  I116  1  0.00039914  0.82660476  0.83301478  1
  I  I117  1  0.33332966  0.16717283  0.16424825  1
  I  I118  1  0.33314086  0.15813838  0.50546826  1
  I  I119  1  0.33687217  0.16520778  0.83104174  1
  I  I120  1  0.33331132  0.49825248  0.16709322  1
  I  I121  1  0.33337880  0.50231045  0.50202096  1
  I  I122  1  0.33348454  0.50486572  0.83337774  1
  I  I123  1  0.33299723  0.83458066  0.16131228  1
  I  I124  1  0.33066993  0.83641929  0.50254015  1
  I  I125  1  0.33322459  0.83124392  0.83372940  1
  I  I126  1  0.66601559  0.16388305  0.16911334  1
  I  I127  1  0.66394878  0.16498604  0.50509136  1
  I  I128  1  0.66246466  0.16474784  0.82627536  1
  I  I129  1  0.66654470  0.50164932  0.16573361  1
  I  I130  1  0.67041191  0.50737660  0.50723960  1
  I  I131  1  0.66674145  0.50395644  0.82917162  1
  I  I132  1  0.66399308  0.83409617  0.16208142  1
  I  I133  1  0.66930138  0.83196826  0.50341506  1
  I  I134  1  0.66635744  0.83127482  0.83362817  1
