# generated using pymatgen
data_Cs27Sn14Pb13I81
_symmetry_space_group_name_H-M   'P 1'
_cell_length_a   18.95906766
_cell_length_b   18.95923324
_cell_length_c   18.96234413
_cell_angle_alpha   89.99754435
_cell_angle_beta   89.99810385
_cell_angle_gamma   89.99949997
_symmetry_Int_Tables_number   1
_chemical_formula_structural   Cs27Sn14Pb13I81
_chemical_formula_sum   'Cs27 Sn14 Pb13 I81'
_cell_volume   6816.00294107
_cell_formula_units_Z   1
loop_
 _symmetry_equiv_pos_site_id
 _symmetry_equiv_pos_as_xyz
  1  'x, y, z'
loop_
 _atom_site_type_symbol
 _atom_site_label
 _atom_site_symmetry_multiplicity
 _atom_site_fract_x
 _atom_site_fract_y
 _atom_site_fract_z
 _atom_site_occupancy
  Cs  Cs0  1  -0.00275509  -0.00088985  0.00637136  1
  Cs  Cs1  1  -0.00142286  -0.00063072  0.32629449  1
  Cs  Cs2  1  0.00078565  0.00210320  0.66628503  1
  Cs  Cs3  1  0.00202121  0.33584900  -0.00096829  1
  Cs  Cs4  1  -0.00244182  0.33091762  0.33335668  1
  Cs  Cs5  1  -0.00031889  0.33250410  0.66701820  1
  Cs  Cs6  1  -0.00400931  0.66543286  -0.00049510  1
  Cs  Cs7  1  0.00355335  0.66941303  0.32952039  1
  Cs  Cs8  1  0.00036442  0.66567675  0.66915796  1
  Cs  Cs9  1  0.33490415  0.00361954  -0.00106014  1
  Cs  Cs10  1  0.32999216  -0.00301148  0.33562614  1
  Cs  Cs11  1  0.33421819  -0.00048003  0.66680535  1
  Cs  Cs12  1  0.33393174  0.33212904  -0.00050307  1
  Cs  Cs13  1  0.33485424  0.33607365  0.33136052  1
  Cs  Cs14  1  0.33152569  0.33178183  0.66824987  1
  Cs  Cs15  1  0.33347395  0.66495021  -0.00268459  1
  Cs  Cs16  1  0.33484390  0.66704098  0.33418735  1
  Cs  Cs17  1  0.33223789  0.66791399  0.66665518  1
  Cs  Cs18  1  0.66664703  0.00026045  0.00174597  1
  Cs  Cs19  1  0.67062111  0.00052702  0.33613864  1
  Cs  Cs20  1  0.66465548  -0.00046480  0.66578447  1
  Cs  Cs21  1  0.66069435  0.33079158  0.00166947  1
  Cs  Cs22  1  0.66856697  0.33503639  0.33436878  1
  Cs  Cs23  1  0.67125055  0.33294350  0.66289931  1
  Cs  Cs24  1  0.66975684  0.66866387  -0.00119705  1
  Cs  Cs25  1  0.66175095  0.66440637  0.33564336  1
  Cs  Cs26  1  0.66881719  0.66648503  0.66668401  1
  Sn  Sn27  1  0.49926699  0.83249745  0.83357557  1
  Sn  Sn28  1  0.49962632  0.50065460  0.83271488  1
  Sn  Sn29  1  0.49963074  0.83358558  0.16646933  1
  Sn  Sn30  1  0.16730938  0.50010458  0.83310464  1
  Sn  Sn31  1  0.16540638  0.16641583  0.83283708  1
  Sn  Sn32  1  0.83325410  0.83309249  0.50039471  1
  Sn  Sn33  1  0.83417722  0.16654620  0.83345722  1
  Sn  Sn34  1  0.83351789  0.49985356  0.16666502  1
  Sn  Sn35  1  0.16691682  0.83356337  0.83347016  1
  Sn  Sn36  1  0.50084514  0.83412293  0.50006206  1
  Sn  Sn37  1  0.49913071  0.16631413  0.50009278  1
  Sn  Sn38  1  0.16602101  0.49989460  0.16655555  1
  Sn  Sn39  1  0.16679221  0.49917925  0.50003160  1
  Sn  Sn40  1  0.16755079  0.16732499  0.50044861  1
  Pb  Pb41  1  0.16686266  0.83369348  0.50157753  1
  Pb  Pb42  1  0.83643149  0.50229198  0.49795394  1
  Pb  Pb43  1  0.49977790  0.16395634  0.17040765  1
  Pb  Pb44  1  0.49961804  0.16654521  0.83161636  1
  Pb  Pb45  1  0.49809743  0.50009336  0.50236630  1
  Pb  Pb46  1  0.83328113  0.16910947  0.16392386  1
  Pb  Pb47  1  0.16690250  0.16887167  0.16677963  1
  Pb  Pb48  1  0.83318339  0.83530315  0.83198836  1
  Pb  Pb49  1  0.49967959  0.50169392  0.16429337  1
  Pb  Pb50  1  0.83406908  0.16492647  0.50135641  1
  Pb  Pb51  1  0.16874408  0.83102554  0.16336696  1
  Pb  Pb52  1  0.83092792  0.83125230  0.16913321  1
  Pb  Pb53  1  0.83318337  0.49800142  0.83472139  1
  I  I54  1  0.16758461  -0.00034685  0.16701385  1
  I  I55  1  0.16858904  0.00253566  0.50634973  1
  I  I56  1  0.16802710  0.00036820  0.82684608  1
  I  I57  1  0.16469189  0.33731761  0.16216675  1
  I  I58  1  0.17151386  0.33302819  0.50503456  1
  I  I59  1  0.16706820  0.33394838  0.83282003  1
  I  I60  1  0.16395533  0.66276795  0.16803421  1
  I  I61  1  0.16672013  0.66432061  0.50150122  1
  I  I62  1  0.17190606  0.66595519  0.83243668  1
  I  I63  1  0.50015020  -0.00415731  0.15943806  1
  I  I64  1  0.49771661  -0.00107257  0.50274686  1
  I  I65  1  0.49682266  -0.00300511  0.83376596  1
  I  I66  1  0.50037269  0.33366486  0.16563801  1
  I  I67  1  0.49729471  0.33104539  0.50322883  1
  I  I68  1  0.49650690  0.33553970  0.83282978  1
  I  I69  1  0.49906245  0.66962733  0.17134170  1
  I  I70  1  0.50169382  0.66965133  0.49914111  1
  I  I71  1  0.49239348  0.66772051  0.83149731  1
  I  I72  1  0.83232168  -0.00027265  0.16698839  1
  I  I73  1  0.83240674  -0.00294629  0.50140472  1
  I  I74  1  0.83745169  0.00303863  0.83139997  1
  I  I75  1  0.83736455  0.33704725  0.16745318  1
  I  I76  1  0.83041601  0.33336478  0.49969467  1
  I  I77  1  0.83739881  0.33026808  0.83230895  1
  I  I78  1  0.83885382  0.66362795  0.16453997  1
  I  I79  1  0.82687148  0.66997977  0.50156449  1
  I  I80  1  0.83522416  0.66667947  0.83338472  1
  I  I81  1  0.16368952  0.16726292  -0.00358741  1
  I  I82  1  0.17096794  0.17036469  0.33683143  1
  I  I83  1  0.16704339  0.17123752  0.66735161  1
  I  I84  1  0.16679441  0.50050155  -0.00141693  1
  I  I85  1  0.16271187  0.49605572  0.33376209  1
  I  I86  1  0.17146770  0.49949937  0.66776670  1
  I  I87  1  0.17118434  0.83420192  -0.00495036  1
  I  I88  1  0.16754755  0.83248414  0.33328974  1
  I  I89  1  0.17166813  0.82933003  0.66982446  1
  I  I90  1  0.50012228  0.16626225  -0.00029750  1
  I  I91  1  0.49442268  0.16294391  0.33853798  1
  I  I92  1  0.49796975  0.16096823  0.66389082  1
  I  I93  1  0.49476593  0.50405857  -0.00380450  1
  I  I94  1  0.49838433  0.50138130  0.33352607  1
  I  I95  1  0.49457014  0.50507210  0.67041429  1
  I  I96  1  0.49522181  0.82791245  -0.00158467  1
  I  I97  1  0.50445119  0.83687150  0.33459432  1
  I  I98  1  0.49937781  0.83374265  0.66692105  1
  I  I99  1  0.83944228  0.16519325  -0.00414533  1
  I  I100  1  0.83310962  0.16607020  0.33347346  1
  I  I101  1  0.83532348  0.16766028  0.66931726  1
  I  I102  1  0.83925277  0.50045265  0.00241891  1
  I  I103  1  0.83741447  0.50064956  0.33018366  1
  I  I104  1  0.83361667  0.49990579  0.66660996  1
  I  I105  1  0.83260281  0.83376042  0.00003947  1
  I  I106  1  0.82958000  0.83410001  0.33698259  1
  I  I107  1  0.82759637  0.83315638  0.66420623  1
  I  I108  1  0.00021930  0.16376840  0.17077306  1
  I  I109  1  0.00335502  0.16971745  0.50374111  1
  I  I110  1  0.00258498  0.16779568  0.82698547  1
  I  I111  1  0.00169503  0.50069366  0.16409686  1
  I  I112  1  0.00458905  0.49594770  0.50617361  1
  I  I113  1  0.00352422  0.50224077  0.83202735  1
  I  I114  1  0.00016644  0.83362648  0.16766346  1
  I  I115  1  -0.00160532  0.83234224  0.50317365  1
  I  I116  1  0.00290219  0.83006996  0.82984510  1
  I  I117  1  0.33330677  0.16965590  0.16153384  1
  I  I118  1  0.33248529  0.16414413  0.50646195  1
  I  I119  1  0.33029196  0.16718289  0.83087882  1
  I  I120  1  0.33038274  0.50124410  0.16725622  1
  I  I121  1  0.32975540  0.50118212  0.49681451  1
  I  I122  1  0.33166237  0.49937278  0.83530257  1
  I  I123  1  0.33659802  0.83079399  0.17240196  1
  I  I124  1  0.33609517  0.83422885  0.49953047  1
  I  I125  1  0.33377748  0.83339195  0.83071098  1
  I  I126  1  0.66648663  0.17015354  0.16473149  1
  I  I127  1  0.66433776  0.16313918  0.50270874  1
  I  I128  1  0.66819063  0.16686193  0.83161764  1
  I  I129  1  0.66856050  0.50206814  0.16438510  1
  I  I130  1  0.66656073  0.49793157  0.49965003  1
  I  I131  1  0.66398579  0.50374237  0.83545347  1
  I  I132  1  0.66300614  0.83027126  0.16112520  1
  I  I133  1  0.66441184  0.83843509  0.50198989  1
  I  I134  1  0.66327264  0.83024548  0.83396375  1
