# generated using pymatgen
data_Cs27Sn13Pb14I81
_symmetry_space_group_name_H-M   'P 1'
_cell_length_a   18.97413394
_cell_length_b   18.97849273
_cell_length_c   18.97849280
_cell_angle_alpha   89.99927627
_cell_angle_beta   90.00236324
_cell_angle_gamma   89.99763685
_symmetry_Int_Tables_number   1
_chemical_formula_structural   Cs27Sn13Pb14I81
_chemical_formula_sum   'Cs27 Sn13 Pb14 I81'
_cell_volume   6834.16403323
_cell_formula_units_Z   1
loop_
 _symmetry_equiv_pos_site_id
 _symmetry_equiv_pos_as_xyz
  1  'x, y, z'
loop_
 _atom_site_type_symbol
 _atom_site_label
 _atom_site_symmetry_multiplicity
 _atom_site_fract_x
 _atom_site_fract_y
 _atom_site_fract_z
 _atom_site_occupancy
  Cs  Cs0  1  0.00128234  0.00000176  -0.00259138  1
  Cs  Cs1  1  0.00153457  0.00176148  0.33423861  1
  Cs  Cs2  1  -0.00000002  0.00036808  0.66703472  1
  Cs  Cs3  1  -0.00000013  0.33446385  0.00113048  1
  Cs  Cs4  1  0.00129188  0.33410322  0.33321565  1
  Cs  Cs5  1  -0.00128232  0.33074186  0.66666846  1
  Cs  Cs6  1  -0.00129193  0.66654909  0.00076983  1
  Cs  Cs7  1  -0.00000003  0.66507302  0.33173979  1
  Cs  Cs8  1  -0.00153451  0.66757192  0.66842818  1
  Cs  Cs9  1  0.33325187  -0.00172285  0.00102415  1
  Cs  Cs10  1  0.33209825  -0.00079640  0.33473231  1
  Cs  Cs11  1  0.33327104  -0.00009084  0.66346216  1
  Cs  Cs12  1  0.34002372  0.33382654  -0.00804364  1
  Cs  Cs13  1  0.32941993  0.33332143  0.33390512  1
  Cs  Cs14  1  0.33434458  0.33424810  0.67262355  1
  Cs  Cs15  1  0.33311471  0.66724050  0.00095805  1
  Cs  Cs16  1  0.33354683  0.66669166  0.33112411  1
  Cs  Cs17  1  0.33432418  0.66527061  0.66799645  1
  Cs  Cs18  1  0.66565551  0.00595681  0.00091483  1
  Cs  Cs19  1  0.66567593  0.00132988  0.33193723  1
  Cs  Cs20  1  0.66672913  -0.00320447  0.66657585  1
  Cs  Cs21  1  0.65997625  0.32528983  0.00049325  1
  Cs  Cs22  1  0.66688530  0.33429122  0.33390724  1
  Cs  Cs23  1  0.66674804  0.33435742  0.66494391  1
  Cs  Cs24  1  0.67057997  0.66723849  -0.00001190  1
  Cs  Cs25  1  0.66645325  0.66445756  0.33335837  1
  Cs  Cs26  1  0.66790170  0.66806560  0.66587017  1
  Sn  Sn27  1  0.83369536  0.50042493  0.16570376  1
  Sn  Sn28  1  0.16754303  0.16693741  0.49947347  1
  Sn  Sn29  1  0.83332311  0.83325542  0.49953044  1
  Sn  Sn30  1  0.16630463  0.49903709  0.16709159  1
  Sn  Sn31  1  0.16652424  0.50006295  0.49974408  1
  Sn  Sn32  1  0.83245696  0.83280683  0.83360407  1
  Sn  Sn33  1  0.83339021  0.50029368  0.83444143  1
  Sn  Sn34  1  0.16660977  0.16777475  0.16696030  1
  Sn  Sn35  1  0.50000000  0.83378457  0.50045120  1
  Sn  Sn36  1  0.50066829  0.83308083  0.83286683  1
  Sn  Sn37  1  0.49933171  0.16620013  0.49974743  1
  Sn  Sn38  1  0.83347578  0.83307741  0.16672960  1
  Sn  Sn39  1  0.16667687  0.83286378  0.49992212  1
  Pb  Pb40  1  0.83549270  0.16722549  0.16678309  1
  Pb  Pb41  1  0.49999999  0.49997991  0.16664656  1
  Pb  Pb42  1  0.50280410  0.83322993  0.16693822  1
  Pb  Pb43  1  0.49671427  0.16664307  0.16947273  1
  Pb  Pb44  1  0.16657300  0.83324782  0.83093844  1
  Pb  Pb45  1  0.16461187  0.83310933  0.16870005  1
  Pb  Pb46  1  0.49719587  0.50027156  0.49989657  1
  Pb  Pb47  1  0.16450731  0.50011644  0.83389219  1
  Pb  Pb48  1  0.50000002  0.16368544  0.83035206  1
  Pb  Pb49  1  0.83538810  0.50203338  0.49977604  1
  Pb  Pb50  1  0.83329524  0.16661409  0.83340271  1
  Pb  Pb51  1  0.83342702  0.16427180  0.49991449  1
  Pb  Pb52  1  0.16670481  0.16673607  0.83328081  1
  Pb  Pb53  1  0.50328562  0.50280611  0.83330977  1
  I  I54  1  0.16524486  0.00209437  0.17197658  1
  I  I55  1  0.16694895  -0.00028747  0.49655206  1
  I  I56  1  0.16326610  -0.00026880  0.83413386  1
  I  I57  1  0.15925904  0.33418953  0.17757163  1
  I  I58  1  0.17026645  0.33308600  0.49531453  1
  I  I59  1  0.16350240  0.33353898  0.82764422  1
  I  I60  1  0.16374878  0.66383972  0.17171579  1
  I  I61  1  0.16559730  0.66716162  0.49667625  1
  I  I62  1  0.16882077  0.66680711  0.83194538  1
  I  I63  1  0.50045971  -0.00020609  0.16481185  1
  I  I64  1  0.49537688  -0.00154681  0.50342524  1
  I  I65  1  0.50767347  -0.00426301  0.83113121  1
  I  I66  1  0.50589278  0.33316567  0.16902213  1
  I  I67  1  0.49551130  0.33037467  0.49832555  1
  I  I68  1  0.50089262  0.33324178  0.83229840  1
  I  I69  1  0.49455275  0.66695721  0.16978425  1
  I  I70  1  0.49991781  0.67039788  0.50374857  1
  I  I71  1  0.50102671  0.67081472  0.82467929  1
  I  I72  1  0.83421696  -0.00312948  0.16677856  1
  I  I73  1  0.83786135  -0.00462139  0.50082858  1
  I  I74  1  0.83017125  -0.00412547  0.83281470  1
  I  I75  1  0.83630829  0.33695732  0.16254992  1
  I  I76  1  0.83304718  0.33357265  0.50044030  1
  I  I77  1  0.83672756  0.33677680  0.83772149  1
  I  I78  1  0.83933336  0.66694295  0.16635353  1
  I  I79  1  0.83309226  0.67062342  0.50042151  1
  I  I80  1  0.83046476  0.66815054  0.83345274  1
  I  I81  1  0.16327247  0.17105536  0.00344346  1
  I  I82  1  0.16953516  0.16678594  0.33481722  1
  I  I83  1  0.16982896  0.16614760  0.66254124  1
  I  I84  1  0.16369172  0.49588286  0.00362400  1
  I  I85  1  0.16066677  0.49968700  0.33360963  1
  I  I86  1  0.16578287  0.50011213  0.66353719  1
  I  I87  1  0.16695293  0.83377341  0.00023931  1
  I  I88  1  0.16690778  0.83375479  0.33729008  1
  I  I89  1  0.16213842  0.83416227  0.66204530  1
  I  I90  1  0.49910734  0.16563173  -0.00009150  1
  I  I91  1  0.49897313  0.15801251  0.33748137  1
  I  I92  1  0.49232675  0.16446484  0.66240371  1
  I  I93  1  0.49410706  0.50235534  -0.00016766  1
  I  I94  1  0.50544738  0.50311781  0.33362390  1
  I  I95  1  0.49954038  0.49814523  0.66646059  1
  I  I96  1  0.50448863  0.83165908  -0.00295868  1
  I  I97  1  0.50008237  0.83708187  0.33706462  1
  I  I98  1  0.50462297  0.83675843  0.66511984  1
  I  I99  1  0.83649768  0.16097806  0.00020567  1
  I  I100  1  0.83117957  0.16527871  0.33347375  1
  I  I101  1  0.83673344  0.16746653  0.66639787  1
  I  I102  1  0.84074120  0.51090453  0.00085621  1
  I  I103  1  0.83625095  0.50504929  0.33050638  1
  I  I104  1  0.83475508  0.50531018  0.66876102  1
  I  I105  1  0.82973346  0.82864773  -0.00024732  1
  I  I106  1  0.83440252  0.83000940  0.33382823  1
  I  I107  1  0.83305126  0.82988561  0.66637925  1
  I  I108  1  0.00342299  0.16720600  0.17553036  1
  I  I109  1  0.00362501  0.16545514  0.49644306  1
  I  I110  1  -0.00000001  0.16268299  0.82934928  1
  I  I111  1  0.00000000  0.50085658  0.16752345  1
  I  I112  1  0.00363413  0.49971824  0.49869005  1
  I  I113  1  -0.00342297  0.50886383  0.83387265  1
  I  I114  1  -0.00363411  0.83202359  0.16638491  1
  I  I115  1  0.00000000  0.83334661  0.50001308  1
  I  I116  1  -0.00362498  0.82977606  0.83212200  1
  I  I117  1  0.32856831  0.17131544  0.16973432  1
  I  I118  1  0.33213443  0.16008754  0.49583862  1
  I  I119  1  0.33346025  0.16508171  0.83550903  1
  I  I120  1  0.32941950  0.49710851  0.17292105  1
  I  I121  1  0.32882636  0.50498930  0.49355640  1
  I  I122  1  0.33346886  0.50079470  0.83340636  1
  I  I123  1  0.33311546  0.83313037  0.16644459  1
  I  I124  1  0.33318275  0.83458607  0.50439448  1
  I  I125  1  0.33627650  0.83522800  0.82760625  1
  I  I126  1  0.66653117  0.16673981  0.16746157  1
  I  I127  1  0.66372353  0.16093965  0.50189427  1
  I  I128  1  0.66653975  0.16884245  0.83174858  1
  I  I129  1  0.67058053  0.50625433  0.16377480  1
  I  I130  1  0.66688450  0.49977786  0.49979715  1
  I  I131  1  0.67143173  0.50306758  0.83798233  1
  I  I132  1  0.67117363  0.82688976  0.17165588  1
  I  I133  1  0.66681726  0.83772774  0.50125302  1
  I  I134  1  0.66786559  0.82917189  0.82675409  1
