# generated using pymatgen
data_Cs27Sn13Pb14I81
_symmetry_space_group_name_H-M   'P 1'
_cell_length_a   18.98288158
_cell_length_b   18.97716336
_cell_length_c   18.96867674
_cell_angle_alpha   89.99937370
_cell_angle_beta   90.00060434
_cell_angle_gamma   90.00053805
_symmetry_Int_Tables_number   1
_chemical_formula_structural   Cs27Sn13Pb14I81
_chemical_formula_sum   'Cs27 Sn13 Pb14 I81'
_cell_volume   6833.29972035
_cell_formula_units_Z   1
loop_
 _symmetry_equiv_pos_site_id
 _symmetry_equiv_pos_as_xyz
  1  'x, y, z'
loop_
 _atom_site_type_symbol
 _atom_site_label
 _atom_site_symmetry_multiplicity
 _atom_site_fract_x
 _atom_site_fract_y
 _atom_site_fract_z
 _atom_site_occupancy
  Cs  Cs0  1  0.00023030  0.00464757  -0.00686503  1
  Cs  Cs1  1  0.00105863  -0.00107928  0.33445332  1
  Cs  Cs2  1  -0.00220620  -0.00362714  0.66959561  1
  Cs  Cs3  1  0.00128396  0.32876961  -0.00394619  1
  Cs  Cs4  1  -0.00033630  0.33154561  0.33253215  1
  Cs  Cs5  1  -0.00843585  0.33581448  0.67163614  1
  Cs  Cs6  1  -0.00058589  0.66630591  -0.00207224  1
  Cs  Cs7  1  0.00225118  0.66888397  0.33098110  1
  Cs  Cs8  1  -0.00046322  0.66802994  0.67523256  1
  Cs  Cs9  1  0.33690786  0.00988222  -0.00071745  1
  Cs  Cs10  1  0.33264254  -0.00178865  0.33457255  1
  Cs  Cs11  1  0.33364238  -0.00047688  0.66455931  1
  Cs  Cs12  1  0.33309445  0.32819779  -0.00253990  1
  Cs  Cs13  1  0.33028949  0.33605732  0.33534863  1
  Cs  Cs14  1  0.33410294  0.33271784  0.66588594  1
  Cs  Cs15  1  0.33434987  0.66597476  0.00135083  1
  Cs  Cs16  1  0.33277070  0.66705527  0.33301601  1
  Cs  Cs17  1  0.33425800  0.66658955  0.66592922  1
  Cs  Cs18  1  0.66225005  0.00797625  -0.00066937  1
  Cs  Cs19  1  0.66745081  -0.00155193  0.33167578  1
  Cs  Cs20  1  0.66640767  0.00001667  0.66769533  1
  Cs  Cs21  1  0.66465175  0.32618556  -0.00064489  1
  Cs  Cs22  1  0.67317255  0.33580942  0.33674697  1
  Cs  Cs23  1  0.67312358  0.33433958  0.66436438  1
  Cs  Cs24  1  0.66578121  0.66733300  0.00238222  1
  Cs  Cs25  1  0.66669170  0.66666663  0.33179577  1
  Cs  Cs26  1  0.66580987  0.66490877  0.66687171  1
  Sn  Sn27  1  0.49972641  0.50082738  0.83413240  1
  Sn  Sn28  1  0.49980239  0.50010754  0.16591029  1
  Sn  Sn29  1  0.50012655  0.83382005  0.50063122  1
  Sn  Sn30  1  0.49958036  0.83245552  0.83301264  1
  Sn  Sn31  1  0.83354548  0.83266225  0.49930539  1
  Sn  Sn32  1  0.83444144  0.83292824  0.16707935  1
  Sn  Sn33  1  0.16597373  0.83296452  0.16675899  1
  Sn  Sn34  1  0.16631942  0.83282909  0.49952781  1
  Sn  Sn35  1  0.16634968  0.50074306  0.16720656  1
  Sn  Sn36  1  0.49960898  0.16611658  0.49939350  1
  Sn  Sn37  1  0.16697395  0.16674681  0.49985607  1
  Sn  Sn38  1  0.83388484  0.50069492  0.16660514  1
  Sn  Sn39  1  0.16635863  0.50026467  0.49984745  1
  Pb  Pb40  1  0.16679951  0.16665263  0.82943352  1
  Pb  Pb41  1  0.49963793  0.83229812  0.16679685  1
  Pb  Pb42  1  0.83362162  0.16585744  0.16694332  1
  Pb  Pb43  1  0.49993111  0.16714366  0.83015739  1
  Pb  Pb44  1  0.83388115  0.16383675  0.49978040  1
  Pb  Pb45  1  0.16665360  0.16634214  0.16872656  1
  Pb  Pb46  1  0.49867713  0.50018938  0.49974901  1
  Pb  Pb47  1  0.16879730  0.50020964  0.83392725  1
  Pb  Pb48  1  0.83033808  0.50037980  0.83692665  1
  Pb  Pb49  1  0.49992098  0.17040603  0.17035935  1
  Pb  Pb50  1  0.83678522  0.50293034  0.49810711  1
  Pb  Pb51  1  0.83316625  0.16648443  0.83315565  1
  Pb  Pb52  1  0.83042402  0.83323010  0.83453246  1
  Pb  Pb53  1  0.16935039  0.83334003  0.83423272  1
  I  I54  1  0.16261908  -0.00373394  0.17166532  1
  I  I55  1  0.16844604  -0.00150803  0.49593412  1
  I  I56  1  0.16937631  -0.00024841  0.83495397  1
  I  I57  1  0.16694877  0.33687067  0.17139304  1
  I  I58  1  0.17467439  0.33379360  0.49488703  1
  I  I59  1  0.17013751  0.33354943  0.83405335  1
  I  I60  1  0.16679157  0.66648557  0.17536864  1
  I  I61  1  0.16889691  0.66767586  0.49508542  1
  I  I62  1  0.16729278  0.66681166  0.82752149  1
  I  I63  1  0.50026559  0.00002617  0.16361781  1
  I  I64  1  0.49553052  -0.00197184  0.50491221  1
  I  I65  1  0.50021388  -0.00276868  0.83097094  1
  I  I66  1  0.49901240  0.33863363  0.16089059  1
  I  I67  1  0.49379277  0.33145511  0.49903178  1
  I  I68  1  0.49903596  0.33637550  0.83793490  1
  I  I69  1  0.49955571  0.66399805  0.16842592  1
  I  I70  1  0.49874113  0.66957896  0.50078699  1
  I  I71  1  0.49940749  0.66698903  0.83012934  1
  I  I72  1  0.83750054  -0.00427297  0.17195948  1
  I  I73  1  0.83626210  -0.00451258  0.49385598  1
  I  I74  1  0.83103322  -0.00069651  0.83453893  1
  I  I75  1  0.83307756  0.33679170  0.16677681  1
  I  I76  1  0.83217329  0.33374238  0.49919412  1
  I  I77  1  0.83069632  0.33386765  0.83333470  1
  I  I78  1  0.83350818  0.66702409  0.17144473  1
  I  I79  1  0.82975252  0.67091628  0.49775391  1
  I  I80  1  0.83381120  0.66679036  0.83014048  1
  I  I81  1  0.16652308  0.16665185  0.00004711  1
  I  I82  1  0.17113915  0.16620628  0.33706434  1
  I  I83  1  0.17301495  0.16530946  0.66100566  1
  I  I84  1  0.16520455  0.50643426  0.00398589  1
  I  I85  1  0.17043860  0.50111761  0.33295670  1
  I  I86  1  0.17035101  0.50113384  0.66344361  1
  I  I87  1  0.16290508  0.82594514  0.00385074  1
  I  I88  1  0.16856162  0.83246219  0.33460335  1
  I  I89  1  0.16464436  0.83311344  0.66301153  1
  I  I90  1  0.50093801  0.16372255  0.00002472  1
  I  I91  1  0.49568154  0.15948473  0.33782492  1
  I  I92  1  0.49454635  0.16622674  0.66245940  1
  I  I93  1  0.49872614  0.50773654  0.00067920  1
  I  I94  1  0.50058653  0.50044951  0.33061125  1
  I  I95  1  0.49651881  0.50146029  0.66836308  1
  I  I96  1  0.50022687  0.82908986  -0.00201692  1
  I  I97  1  0.49942198  0.83514641  0.33638591  1
  I  I98  1  0.49940639  0.83122020  0.66488321  1
  I  I99  1  0.83223127  0.16449919  0.00031113  1
  I  I100  1  0.83157024  0.16925126  0.33360525  1
  I  I101  1  0.83287824  0.16621097  0.66588304  1
  I  I102  1  0.83900090  0.50825018  0.00508967  1
  I  I103  1  0.82650260  0.50171844  0.32993455  1
  I  I104  1  0.83304381  0.49995830  0.66665837  1
  I  I105  1  0.83733524  0.82790555  0.00395793  1
  I  I106  1  0.83158595  0.83007321  0.33363726  1
  I  I107  1  0.83642813  0.83501800  0.66370785  1
  I  I108  1  0.00022116  0.17095905  0.16985633  1
  I  I109  1  0.00341513  0.16632678  0.49823543  1
  I  I110  1  0.00017445  0.16690697  0.83195996  1
  I  I111  1  0.00078655  0.50490599  0.17405911  1
  I  I112  1  0.00487378  0.49786590  0.49447941  1
  I  I113  1  -0.00012682  0.49898831  0.83230554  1
  I  I114  1  0.00054426  0.82468001  0.17697723  1
  I  I115  1  0.00103550  0.83389713  0.49440948  1
  I  I116  1  0.00002491  0.83413961  0.83015566  1
  I  I117  1  0.33338534  0.16544916  0.16575639  1
  I  I118  1  0.33300222  0.16150258  0.49936352  1
  I  I119  1  0.33368698  0.16647759  0.83558765  1
  I  I120  1  0.33258494  0.50498551  0.16790853  1
  I  I121  1  0.33061760  0.50410503  0.49484990  1
  I  I122  1  0.33673831  0.50442343  0.83792785  1
  I  I123  1  0.33062181  0.82772100  0.17141815  1
  I  I124  1  0.33283489  0.83401644  0.49972453  1
  I  I125  1  0.33716916  0.82900691  0.82811978  1
  I  I126  1  0.66653050  0.16574579  0.16837363  1
  I  I127  1  0.66387410  0.16285377  0.50065149  1
  I  I128  1  0.66591282  0.16615859  0.83154219  1
  I  I129  1  0.66668415  0.50498733  0.16309176  1
  I  I130  1  0.66690648  0.49928194  0.49918290  1
  I  I131  1  0.66232057  0.50482593  0.83557128  1
  I  I132  1  0.66874733  0.82785554  0.17099996  1
  I  I133  1  0.66603284  0.83782166  0.49950275  1
  I  I134  1  0.66256575  0.82900837  0.82819330  1
