# generated using pymatgen
data_Cs27Sn14Pb13I81
_symmetry_space_group_name_H-M   'P 1'
_cell_length_a   18.96048440
_cell_length_b   18.96071921
_cell_length_c   18.95972731
_cell_angle_alpha   89.99764194
_cell_angle_beta   89.99893831
_cell_angle_gamma   90.00204181
_symmetry_Int_Tables_number   1
_chemical_formula_structural   Cs27Sn14Pb13I81
_chemical_formula_sum   'Cs27 Sn14 Pb13 I81'
_cell_volume   6816.10577808
_cell_formula_units_Z   1
loop_
 _symmetry_equiv_pos_site_id
 _symmetry_equiv_pos_as_xyz
  1  'x, y, z'
loop_
 _atom_site_type_symbol
 _atom_site_label
 _atom_site_symmetry_multiplicity
 _atom_site_fract_x
 _atom_site_fract_y
 _atom_site_fract_z
 _atom_site_occupancy
  Cs  Cs0  1  0.00114293  0.00238918  -0.00604644  1
  Cs  Cs1  1  -0.00192351  -0.00274242  0.33635690  1
  Cs  Cs2  1  0.00006304  -0.00020395  0.66778249  1
  Cs  Cs3  1  0.00126757  0.33294892  -0.00082548  1
  Cs  Cs4  1  -0.00042482  0.33584094  0.33013381  1
  Cs  Cs5  1  0.00043522  0.33119601  0.67003081  1
  Cs  Cs6  1  -0.00004377  0.66499566  -0.00028916  1
  Cs  Cs7  1  -0.00495424  0.66597205  0.33054830  1
  Cs  Cs8  1  0.00108591  0.66807949  0.66720124  1
  Cs  Cs9  1  0.33599135  0.00014196  0.00489413  1
  Cs  Cs10  1  0.33444421  0.00117886  0.33518796  1
  Cs  Cs11  1  0.33193532  -0.00075096  0.66426242  1
  Cs  Cs12  1  0.33186435  0.33189755  0.00729607  1
  Cs  Cs13  1  0.33366732  0.33275412  0.33093108  1
  Cs  Cs14  1  0.33524569  0.33487873  0.66536382  1
  Cs  Cs15  1  0.33497114  0.66798409  -0.00253957  1
  Cs  Cs16  1  0.33034867  0.66649526  0.33486038  1
  Cs  Cs17  1  0.33336589  0.66640173  0.66781307  1
  Cs  Cs18  1  0.66331605  -0.00142244  0.00323529  1
  Cs  Cs19  1  0.66704143  -0.00037412  0.33097543  1
  Cs  Cs20  1  0.66643996  0.00259033  0.66628812  1
  Cs  Cs21  1  0.66638146  0.33196489  -0.00086029  1
  Cs  Cs22  1  0.66707971  0.33444945  0.33392913  1
  Cs  Cs23  1  0.66454483  0.33388076  0.66607159  1
  Cs  Cs24  1  0.66358668  0.66967634  -0.00037579  1
  Cs  Cs25  1  0.67730346  0.66392372  0.33215056  1
  Cs  Cs26  1  0.66518769  0.66198864  0.66763094  1
  Sn  Sn27  1  0.83382634  0.16646522  0.16728256  1
  Sn  Sn28  1  0.49940801  0.16650197  0.83299308  1
  Sn  Sn29  1  0.50004639  0.83337305  0.49995766  1
  Sn  Sn30  1  0.16615849  0.83269792  0.83345638  1
  Sn  Sn31  1  0.50009057  0.50062297  0.16695787  1
  Sn  Sn32  1  0.16650080  0.16698589  0.50019347  1
  Sn  Sn33  1  0.16647297  0.50015837  0.50056590  1
  Sn  Sn34  1  0.16659662  0.83351020  0.16667466  1
  Sn  Sn35  1  0.83351144  0.83249665  0.83289933  1
  Sn  Sn36  1  0.83341080  0.16672474  0.49911951  1
  Sn  Sn37  1  0.16604523  0.50047898  0.83261032  1
  Sn  Sn38  1  0.50000838  0.16588348  0.50080918  1
  Sn  Sn39  1  0.83377583  0.50085131  0.83299736  1
  Sn  Sn40  1  0.16721629  0.83295381  0.49988793  1
  Pb  Pb41  1  0.50166013  0.16786232  0.16772953  1
  Pb  Pb42  1  0.83335020  0.83489623  0.50202047  1
  Pb  Pb43  1  0.83567647  0.83533293  0.16381771  1
  Pb  Pb44  1  0.49813302  0.50020479  0.49820508  1
  Pb  Pb45  1  0.83163137  0.16651948  0.83295818  1
  Pb  Pb46  1  0.16446347  0.16428352  0.16954750  1
  Pb  Pb47  1  0.49912988  0.49795253  0.83494972  1
  Pb  Pb48  1  0.16916544  0.16661687  0.83159109  1
  Pb  Pb49  1  0.83140143  0.49825449  0.16381209  1
  Pb  Pb50  1  0.83616271  0.49744496  0.50226380  1
  Pb  Pb51  1  0.49950268  0.83523062  0.83128561  1
  Pb  Pb52  1  0.16781370  0.50204999  0.16633386  1
  Pb  Pb53  1  0.49828305  0.83098564  0.17007505  1
  I  I54  1  0.16732232  -0.00366830  0.16487671  1
  I  I55  1  0.16748864  -0.00040905  0.50036688  1
  I  I56  1  0.16256846  -0.00307482  0.83166669  1
  I  I57  1  0.16714882  0.33327108  0.16665181  1
  I  I58  1  0.16683207  0.33309243  0.50520114  1
  I  I59  1  0.16323973  0.33600495  0.82851403  1
  I  I60  1  0.16752411  0.66989500  0.17131900  1
  I  I61  1  0.17266306  0.66771136  0.50165770  1
  I  I62  1  0.16366798  0.66720906  0.82859850  1
  I  I63  1  0.50020202  -0.00021517  0.16493426  1
  I  I64  1  0.49460924  0.00107312  0.50334959  1
  I  I65  1  0.50114020  0.00308434  0.83137294  1
  I  I66  1  0.49870536  0.33546989  0.16720891  1
  I  I67  1  0.49895315  0.33027335  0.50228216  1
  I  I68  1  0.50159618  0.33020264  0.82679807  1
  I  I69  1  0.49884131  0.66383163  0.16531737  1
  I  I70  1  0.49328298  0.66928113  0.49950219  1
  I  I71  1  0.50075569  0.66676153  0.83290101  1
  I  I72  1  0.83190702  0.00311399  0.16937488  1
  I  I73  1  0.83735202  0.00326913  0.50023679  1
  I  I74  1  0.83811364  -0.00226229  0.83245169  1
  I  I75  1  0.83329363  0.33032743  0.16924177  1
  I  I76  1  0.83199242  0.32915452  0.49926267  1
  I  I77  1  0.83687692  0.33545069  0.83321545  1
  I  I78  1  0.83270001  0.66681398  0.16764141  1
  I  I79  1  0.83227391  0.66651114  0.49941611  1
  I  I80  1  0.83734639  0.66680702  0.83312937  1
  I  I81  1  0.16680194  0.16663776  0.00003676  1
  I  I82  1  0.17224405  0.16753329  0.33805971  1
  I  I83  1  0.16214421  0.16258118  0.66306558  1
  I  I84  1  0.16470801  0.50405043  -0.00319546  1
  I  I85  1  0.17004944  0.49981497  0.33616272  1
  I  I86  1  0.16446804  0.50380956  0.66670126  1
  I  I87  1  0.16208496  0.82846102  -0.00143712  1
  I  I88  1  0.17201264  0.83451509  0.33506363  1
  I  I89  1  0.16649179  0.83320541  0.66618764  1
  I  I90  1  0.50273879  0.16861815  -0.00175491  1
  I  I91  1  0.49773022  0.16430457  0.33701671  1
  I  I92  1  0.50240442  0.16467479  0.66465484  1
  I  I93  1  0.49836686  0.49684724  0.00230179  1
  I  I94  1  0.49684311  0.49734556  0.33096436  1
  I  I95  1  0.50118016  0.49994213  0.66654246  1
  I  I96  1  0.49890253  0.83529457  -0.00000064  1
  I  I97  1  0.49339128  0.84102001  0.33788596  1
  I  I98  1  0.49386122  0.83526000  0.66326055  1
  I  I99  1  0.83042966  0.16672253  0.00151155  1
  I  I100  1  0.83174211  0.16600387  0.33494170  1
  I  I101  1  0.83479244  0.16625948  0.66392214  1
  I  I102  1  0.84010375  0.49997573  -0.00400955  1
  I  I103  1  0.83363527  0.49988066  0.33349081  1
  I  I104  1  0.83352047  0.50121108  0.67021115  1
  I  I105  1  0.83801656  0.83279237  -0.00413829  1
  I  I106  1  0.83407339  0.83380018  0.33348298  1
  I  I107  1  0.83956078  0.83324893  0.66991672  1
  I  I108  1  -0.00318155  0.16734059  0.17004330  1
  I  I109  1  0.00071714  0.16583878  0.49629163  1
  I  I110  1  0.00025208  0.16669996  0.83250802  1
  I  I111  1  -0.00000400  0.49954060  0.16808136  1
  I  I112  1  0.00450090  0.50174607  0.50032689  1
  I  I113  1  0.00107041  0.50254435  0.82992876  1
  I  I114  1  0.00368461  0.83253020  0.17327793  1
  I  I115  1  0.00339180  0.83486005  0.49942603  1
  I  I116  1  0.00154568  0.83120477  0.83105270  1
  I  I117  1  0.33317428  0.16717258  0.16627612  1
  I  I118  1  0.33314942  0.16533835  0.50524934  1
  I  I119  1  0.33661577  0.16694883  0.82762878  1
  I  I120  1  0.33538367  0.49787612  0.16505579  1
  I  I121  1  0.32966569  0.49699801  0.50557235  1
  I  I122  1  0.32995713  0.50389353  0.82996907  1
  I  I123  1  0.33006969  0.83389781  0.16196741  1
  I  I124  1  0.33148645  0.83820500  0.50192803  1
  I  I125  1  0.32987754  0.82975774  0.83346471  1
  I  I126  1  0.66938946  0.16736788  0.17079419  1
  I  I127  1  0.66596686  0.16194628  0.50076384  1
  I  I128  1  0.66406443  0.16724365  0.82767802  1
  I  I129  1  0.66393287  0.49895609  0.16666720  1
  I  I130  1  0.66689343  0.49947599  0.50047079  1
  I  I131  1  0.66886285  0.50214002  0.83562479  1
  I  I132  1  0.66682434  0.83347975  0.16613991  1
  I  I133  1  0.66430202  0.83952033  0.50218438  1
  I  I134  1  0.66890640  0.83121264  0.83129279  1
