# generated using pymatgen
data_Cs27Sn13Pb14I81
_symmetry_space_group_name_H-M   'P 1'
_cell_length_a   18.97941892
_cell_length_b   18.97569055
_cell_length_c   18.97468992
_cell_angle_alpha   90.00017092
_cell_angle_beta   89.99878488
_cell_angle_gamma   90.00119496
_symmetry_Int_Tables_number   1
_chemical_formula_structural   Cs27Sn13Pb14I81
_chemical_formula_sum   'Cs27 Sn13 Pb14 I81'
_cell_volume   6833.68865912
_cell_formula_units_Z   1
loop_
 _symmetry_equiv_pos_site_id
 _symmetry_equiv_pos_as_xyz
  1  'x, y, z'
loop_
 _atom_site_type_symbol
 _atom_site_label
 _atom_site_symmetry_multiplicity
 _atom_site_fract_x
 _atom_site_fract_y
 _atom_site_fract_z
 _atom_site_occupancy
  Cs  Cs0  1  0.00300687  0.00125255  -0.00277807  1
  Cs  Cs1  1  -0.00202977  -0.00180299  0.33662868  1
  Cs  Cs2  1  -0.00090266  -0.00648703  0.66641122  1
  Cs  Cs3  1  -0.00037164  0.33401775  -0.00025636  1
  Cs  Cs4  1  -0.00036432  0.33480842  0.33392805  1
  Cs  Cs5  1  0.00236539  0.33306083  0.66568681  1
  Cs  Cs6  1  -0.00463822  0.66299154  0.00224966  1
  Cs  Cs7  1  0.00095579  0.66600367  0.33353383  1
  Cs  Cs8  1  -0.00245733  0.67210500  0.66353812  1
  Cs  Cs9  1  0.33324197  0.00103311  -0.00136696  1
  Cs  Cs10  1  0.33489941  -0.00183383  0.33109603  1
  Cs  Cs11  1  0.32895158  -0.00254890  0.67330679  1
  Cs  Cs12  1  0.33009277  0.33169642  0.00038448  1
  Cs  Cs13  1  0.33359688  0.33425927  0.33464905  1
  Cs  Cs14  1  0.33372441  0.33478016  0.66496779  1
  Cs  Cs15  1  0.33540549  0.66743801  0.00421394  1
  Cs  Cs16  1  0.33287266  0.66720566  0.33217959  1
  Cs  Cs17  1  0.33743539  0.66703968  0.66721702  1
  Cs  Cs18  1  0.66488814  0.00209159  -0.00003292  1
  Cs  Cs19  1  0.66663540  0.00542381  0.33497515  1
  Cs  Cs20  1  0.67154503  0.00033728  0.66616742  1
  Cs  Cs21  1  0.67269623  0.33101209  -0.00055975  1
  Cs  Cs22  1  0.66761473  0.32467960  0.33584287  1
  Cs  Cs23  1  0.66286935  0.33373189  0.66517816  1
  Cs  Cs24  1  0.66827445  0.66544884  -0.00499949  1
  Cs  Cs25  1  0.66310585  0.66754651  0.33186139  1
  Cs  Cs26  1  0.66478007  0.66510958  0.67593817  1
  Sn  Sn27  1  0.83294445  0.83346236  0.16681668  1
  Sn  Sn28  1  0.50053780  0.83263761  0.16756024  1
  Sn  Sn29  1  0.49999408  0.49979080  0.16684387  1
  Sn  Sn30  1  0.50006710  0.83332680  0.49962782  1
  Sn  Sn31  1  0.16733851  0.49981804  0.16678946  1
  Sn  Sn32  1  0.16627459  0.83327100  0.16678333  1
  Sn  Sn33  1  0.16592614  0.49966506  0.50009124  1
  Sn  Sn34  1  0.16685534  0.16671916  0.49923028  1
  Sn  Sn35  1  0.16669948  0.50057589  0.83313765  1
  Sn  Sn36  1  0.50082922  0.16704594  0.83329682  1
  Sn  Sn37  1  0.83280113  0.16686261  0.83308754  1
  Sn  Sn38  1  0.83324580  0.50015751  0.49966913  1
  Sn  Sn39  1  0.16667048  0.16685223  0.16791144  1
  Pb  Pb40  1  0.49799668  0.49780960  0.83635473  1
  Pb  Pb41  1  0.50002081  0.83523116  0.83403050  1
  Pb  Pb42  1  0.83056335  0.83090196  0.49788254  1
  Pb  Pb43  1  0.49805848  0.16680129  0.16545875  1
  Pb  Pb44  1  0.16662614  0.82974357  0.83630628  1
  Pb  Pb45  1  0.83564947  0.49825203  0.83078418  1
  Pb  Pb46  1  0.83299669  0.50129219  0.16841646  1
  Pb  Pb47  1  0.83587167  0.16841891  0.50203262  1
  Pb  Pb48  1  0.16828269  0.83286048  0.49808251  1
  Pb  Pb49  1  0.49721304  0.16410578  0.50227061  1
  Pb  Pb50  1  0.49966222  0.50142845  0.49788420  1
  Pb  Pb51  1  0.16647358  0.16820008  0.83291717  1
  Pb  Pb52  1  0.83341807  0.83541023  0.83582505  1
  Pb  Pb53  1  0.83634895  0.16431892  0.16541001  1
  I  I54  1  0.16719803  -0.00010425  0.17048349  1
  I  I55  1  0.16906075  0.00226494  0.49577619  1
  I  I56  1  0.16688573  0.00002999  0.83392724  1
  I  I57  1  0.17154815  0.33446520  0.16655453  1
  I  I58  1  0.16396571  0.33444010  0.49522105  1
  I  I59  1  0.16689618  0.33594202  0.83854166  1
  I  I60  1  0.16798703  0.66608739  0.16646131  1
  I  I61  1  0.16417218  0.66339527  0.49874387  1
  I  I62  1  0.16714186  0.66190862  0.83174780  1
  I  I63  1  0.49800955  -0.00304371  0.16818665  1
  I  I64  1  0.49891678  -0.00338804  0.49125094  1
  I  I65  1  0.50081885  0.00305346  0.83598454  1
  I  I66  1  0.49316621  0.33591588  0.16482760  1
  I  I67  1  0.50106233  0.33330167  0.49928053  1
  I  I68  1  0.50218420  0.33027812  0.83453975  1
  I  I69  1  0.49364652  0.66731105  0.16997552  1
  I  I70  1  0.49676795  0.66931948  0.49649710  1
  I  I71  1  0.49822814  0.66642815  0.83219753  1
  I  I72  1  0.83231197  -0.00369434  0.16637903  1
  I  I73  1  0.83449562  -0.00011259  0.50069519  1
  I  I74  1  0.83164992  0.00337047  0.83329567  1
  I  I75  1  0.83337500  0.33313580  0.16615604  1
  I  I76  1  0.83543162  0.33637161  0.49817593  1
  I  I77  1  0.83037357  0.33051708  0.83560183  1
  I  I78  1  0.83818716  0.66939880  0.16758945  1
  I  I79  1  0.84296458  0.66338349  0.49914137  1
  I  I80  1  0.83477912  0.66642823  0.83330086  1
  I  I81  1  0.16705486  0.16709124  0.00266982  1
  I  I82  1  0.16730963  0.17163986  0.33248967  1
  I  I83  1  0.16777771  0.17265507  0.66419089  1
  I  I84  1  0.17126308  0.49933851  0.00174056  1
  I  I85  1  0.16662643  0.49950184  0.33253230  1
  I  I86  1  0.16276347  0.49236991  0.66549580  1
  I  I87  1  0.17050556  0.83613694  0.00505364  1
  I  I88  1  0.16585540  0.82944218  0.32947641  1
  I  I89  1  0.16891307  0.83487295  0.66649809  1
  I  I90  1  0.49975496  0.16503285  -0.00232000  1
  I  I91  1  0.49986868  0.16786797  0.33334302  1
  I  I92  1  0.50086298  0.16600232  0.66982673  1
  I  I93  1  0.49372684  0.50720962  0.00429251  1
  I  I94  1  0.49302697  0.50220304  0.32980920  1
  I  I95  1  0.49848379  0.50184693  0.66665863  1
  I  I96  1  0.49849410  0.83064417  0.00397866  1
  I  I97  1  0.49813106  0.82971038  0.33109108  1
  I  I98  1  0.49837778  0.83409216  0.66421035  1
  I  I99  1  0.83211621  0.16702292  -0.00246692  1
  I  I100  1  0.83304670  0.16662946  0.33349207  1
  I  I101  1  0.83160831  0.16734605  0.66973708  1
  I  I102  1  0.83460550  0.50046992  0.00006858  1
  I  I103  1  0.84092325  0.50053408  0.33597684  1
  I  I104  1  0.83924122  0.49993644  0.66301432  1
  I  I105  1  0.83210081  0.83125137  0.00415051  1
  I  I106  1  0.83706941  0.83326856  0.32984047  1
  I  I107  1  0.83202149  0.83349642  0.66639153  1
  I  I108  1  0.00464273  0.16863954  0.16667908  1
  I  I109  1  0.00397214  0.16799686  0.49786841  1
  I  I110  1  -0.00162316  0.16880275  0.83497024  1
  I  I111  1  0.00350431  0.50100703  0.16504159  1
  I  I112  1  0.00244688  0.49641834  0.49741721  1
  I  I113  1  0.00363887  0.49602012  0.84030864  1
  I  I114  1  0.00130255  0.83285709  0.16529925  1
  I  I115  1  0.00008514  0.83504247  0.49860536  1
  I  I116  1  0.00021629  0.83763094  0.83430436  1
  I  I117  1  0.32970413  0.16372050  0.16628210  1
  I  I118  1  0.32942164  0.17412102  0.49794540  1
  I  I119  1  0.33473483  0.16723992  0.83445261  1
  I  I120  1  0.33141872  0.50456886  0.16813707  1
  I  I121  1  0.32990938  0.49714111  0.50058916  1
  I  I122  1  0.32994557  0.49633012  0.82940723  1
  I  I123  1  0.33309818  0.83178953  0.17016793  1
  I  I124  1  0.33588858  0.83169149  0.49317877  1
  I  I125  1  0.33322507  0.83774053  0.83500956  1
  I  I126  1  0.66673060  0.16681441  0.16590946  1
  I  I127  1  0.66660061  0.16798431  0.49969766  1
  I  I128  1  0.66650036  0.16631204  0.83542284  1
  I  I129  1  0.66391791  0.50607027  0.16801835  1
  I  I130  1  0.66865079  0.50246648  0.49755689  1
  I  I131  1  0.66663108  0.50038934  0.83325386  1
  I  I132  1  0.66542463  0.82812650  0.16992240  1
  I  I133  1  0.66309482  0.83250905  0.49257711  1
  I  I134  1  0.66660351  0.83119219  0.83574120  1
