# generated using pymatgen
data_Cs27Sn14Pb13I81
_symmetry_space_group_name_H-M   'P 1'
_cell_length_a   18.97236178
_cell_length_b   18.97256449
_cell_length_c   18.98153215
_cell_angle_alpha   89.99973931
_cell_angle_beta   89.99984685
_cell_angle_gamma   90.00159167
_symmetry_Int_Tables_number   1
_chemical_formula_structural   Cs27Sn14Pb13I81
_chemical_formula_sum   'Cs27 Sn14 Pb13 I81'
_cell_volume   6832.48520353
_cell_formula_units_Z   1
loop_
 _symmetry_equiv_pos_site_id
 _symmetry_equiv_pos_as_xyz
  1  'x, y, z'
loop_
 _atom_site_type_symbol
 _atom_site_label
 _atom_site_symmetry_multiplicity
 _atom_site_fract_x
 _atom_site_fract_y
 _atom_site_fract_z
 _atom_site_occupancy
  Cs  Cs0  1  0.00203985  0.00059187  0.00205976  1
  Cs  Cs1  1  0.00069477  -0.00020078  0.32907843  1
  Cs  Cs2  1  -0.00218545  -0.00014706  0.66840427  1
  Cs  Cs3  1  -0.00001203  0.33405783  0.00007244  1
  Cs  Cs4  1  0.00314306  0.33650291  0.33036755  1
  Cs  Cs5  1  0.00266443  0.33021207  0.66956709  1
  Cs  Cs6  1  -0.00365279  0.66347948  -0.00084963  1
  Cs  Cs7  1  -0.00236523  0.66515406  0.33898134  1
  Cs  Cs8  1  0.00330752  0.67023104  0.66023365  1
  Cs  Cs9  1  0.33217103  -0.00362024  0.00196158  1
  Cs  Cs10  1  0.33270519  0.00062704  0.32694755  1
  Cs  Cs11  1  0.33200557  0.00248683  0.66933167  1
  Cs  Cs12  1  0.33266946  0.33216450  -0.00032038  1
  Cs  Cs13  1  0.33442939  0.33371437  0.33282757  1
  Cs  Cs14  1  0.33245950  0.33298540  0.66772271  1
  Cs  Cs15  1  0.33761882  0.67265993  -0.00314737  1
  Cs  Cs16  1  0.33338025  0.66530334  0.33542266  1
  Cs  Cs17  1  0.33127429  0.66768131  0.66778564  1
  Cs  Cs18  1  0.66604708  -0.00148266  0.00176050  1
  Cs  Cs19  1  0.66664442  -0.00050833  0.33565696  1
  Cs  Cs20  1  0.67078611  0.00346023  0.66141067  1
  Cs  Cs21  1  0.66740170  0.33645328  -0.00068736  1
  Cs  Cs22  1  0.66405611  0.33299953  0.33376311  1
  Cs  Cs23  1  0.66709459  0.32950842  0.66858452  1
  Cs  Cs24  1  0.66482361  0.66417048  -0.00244259  1
  Cs  Cs25  1  0.66797437  0.66723608  0.33301071  1
  Cs  Cs26  1  0.66526995  0.66641472  0.66622469  1
  Sn  Sn27  1  0.16753069  0.16729910  0.83272045  1
  Sn  Sn28  1  0.83300594  0.83387499  0.16652750  1
  Sn  Sn29  1  0.83226017  0.49973289  0.50033142  1
  Sn  Sn30  1  0.50094785  0.16736093  0.16558339  1
  Sn  Sn31  1  0.49968164  0.16666406  0.83440359  1
  Sn  Sn32  1  0.83227119  0.16641099  0.16674945  1
  Sn  Sn33  1  0.16668477  0.16648591  0.50043621  1
  Sn  Sn34  1  0.83307803  0.83323018  0.83329171  1
  Sn  Sn35  1  0.83235324  0.83260983  0.49993889  1
  Sn  Sn36  1  0.50018188  0.83272758  0.49995824  1
  Sn  Sn37  1  0.16682212  0.49981420  0.83444105  1
  Sn  Sn38  1  0.50090968  0.50060838  0.49962547  1
  Sn  Sn39  1  0.49903096  0.49950831  0.16706834  1
  Sn  Sn40  1  0.16805280  0.50036584  0.16542496  1
  Pb  Pb41  1  0.16694648  0.83627184  0.49982727  1
  Pb  Pb42  1  0.83556826  0.16675401  0.49759382  1
  Pb  Pb43  1  0.16399686  0.82939525  0.16670496  1
  Pb  Pb44  1  0.83265495  0.50008342  0.16818363  1
  Pb  Pb45  1  0.83584446  0.50203610  0.83011259  1
  Pb  Pb46  1  0.16708170  0.16813270  0.16588846  1
  Pb  Pb47  1  0.16466506  0.83353541  0.83346719  1
  Pb  Pb48  1  0.49830090  0.16675554  0.49958256  1
  Pb  Pb49  1  0.49826621  0.49830771  0.83308151  1
  Pb  Pb50  1  0.50192380  0.83295943  0.16849423  1
  Pb  Pb51  1  0.50232718  0.83635760  0.83051387  1
  Pb  Pb52  1  0.83346921  0.16505683  0.83586716  1
  Pb  Pb53  1  0.16719693  0.49843493  0.50018616  1
  I  I54  1  0.16804408  0.00003587  0.16704036  1
  I  I55  1  0.16649897  0.00402808  0.50626633  1
  I  I56  1  0.16894282  0.00333857  0.82865578  1
  I  I57  1  0.16464299  0.33600035  0.16686800  1
  I  I58  1  0.16643264  0.33080445  0.50111483  1
  I  I59  1  0.16916814  0.33252837  0.83241038  1
  I  I60  1  0.17203054  0.66147755  0.16213382  1
  I  I61  1  0.16553458  0.66660063  0.50016500  1
  I  I62  1  0.16469567  0.66376561  0.83688348  1
  I  I63  1  0.50199090  0.00268146  0.16530352  1
  I  I64  1  0.50490545  -0.00210703  0.50070848  1
  I  I65  1  0.49257289  0.00412748  0.83889407  1
  I  I66  1  0.50220709  0.33331836  0.16975560  1
  I  I67  1  0.50290838  0.33602591  0.49811434  1
  I  I68  1  0.49905797  0.33019970  0.83208091  1
  I  I69  1  0.49738924  0.66363306  0.16972642  1
  I  I70  1  0.50397109  0.66562282  0.49396430  1
  I  I71  1  0.49895165  0.66678303  0.83557027  1
  I  I72  1  0.82859816  0.00001156  0.16934058  1
  I  I73  1  0.82981708  -0.00295732  0.50115116  1
  I  I74  1  0.83458625  -0.00286640  0.82747463  1
  I  I75  1  0.83313139  0.33125668  0.16878608  1
  I  I76  1  0.83001531  0.33580253  0.49690761  1
  I  I77  1  0.83269208  0.33329569  0.83315749  1
  I  I78  1  0.83478786  0.66918323  0.16655620  1
  I  I79  1  0.83146158  0.66741471  0.49698380  1
  I  I80  1  0.83433567  0.66999215  0.83927466  1
  I  I81  1  0.16677936  0.16952431  -0.00266440  1
  I  I82  1  0.16613800  0.16829232  0.33454879  1
  I  I83  1  0.17140114  0.17280594  0.66803273  1
  I  I84  1  0.16960093  0.49282542  0.00021913  1
  I  I85  1  0.16674743  0.49714262  0.33140309  1
  I  I86  1  0.16546296  0.49668391  0.66877029  1
  I  I87  1  0.16470095  0.83818427  0.00011795  1
  I  I88  1  0.16346772  0.83529641  0.33332641  1
  I  I89  1  0.16358873  0.82932706  0.66655554  1
  I  I90  1  0.49850398  0.17212025  0.00105205  1
  I  I91  1  0.50204124  0.16769444  0.33068534  1
  I  I92  1  0.49663324  0.16625336  0.66853879  1
  I  I93  1  0.49812795  0.49686883  0.00276341  1
  I  I94  1  0.49785900  0.49722512  0.33305180  1
  I  I95  1  0.50237830  0.50232243  0.66368464  1
  I  I96  1  0.50226551  0.83123808  -0.00004537  1
  I  I97  1  0.50658031  0.83466212  0.33634265  1
  I  I98  1  0.50551753  0.82812348  0.66276415  1
  I  I99  1  0.83450493  0.16181781  0.00371910  1
  I  I100  1  0.82900219  0.16173092  0.32993655  1
  I  I101  1  0.83195109  0.16553717  0.66663417  1
  I  I102  1  0.83240982  0.50168821  -0.00009025  1
  I  I103  1  0.83525098  0.50517541  0.33599757  1
  I  I104  1  0.82868128  0.50457509  0.66221483  1
  I  I105  1  0.83580815  0.83937933  0.00076299  1
  I  I106  1  0.82975808  0.83330023  0.33395854  1
  I  I107  1  0.83056329  0.82904803  0.66532158  1
  I  I108  1  -0.00197307  0.16374165  0.16799757  1
  I  I109  1  0.00308949  0.16776942  0.50484937  1
  I  I110  1  0.00271828  0.16897931  0.83044226  1
  I  I111  1  0.00178530  0.49913558  0.16532639  1
  I  I112  1  -0.00201430  0.50408621  0.49905658  1
  I  I113  1  0.00357706  0.49270831  0.83897410  1
  I  I114  1  -0.00441814  0.83996213  0.16972613  1
  I  I115  1  -0.00345478  0.82896721  0.49976004  1
  I  I116  1  -0.00349286  0.83515206  0.83003163  1
  I  I117  1  0.33610206  0.16958001  0.16717525  1
  I  I118  1  0.33070323  0.16796502  0.49971345  1
  I  I119  1  0.33284636  0.17045411  0.83402991  1
  I  I120  1  0.33455632  0.49237546  0.17052960  1
  I  I121  1  0.33627428  0.50286979  0.49813392  1
  I  I122  1  0.33021874  0.49756590  0.83189971  1
  I  I123  1  0.33368786  0.83671744  0.16909310  1
  I  I124  1  0.33642049  0.82852105  0.49961889  1
  I  I125  1  0.33365663  0.83224717  0.83096842  1
  I  I126  1  0.66562879  0.16895453  0.16238290  1
  I  I127  1  0.66666563  0.16675518  0.50232789  1
  I  I128  1  0.66420868  0.16505466  0.83483370  1
  I  I129  1  0.66383714  0.49843329  0.17004247  1
  I  I130  1  0.66591679  0.50368824  0.49336177  1
  I  I131  1  0.66669583  0.49893140  0.83575422  1
  I  I132  1  0.67017985  0.83318420  0.16599517  1
  I  I133  1  0.66781072  0.83009351  0.49967840  1
  I  I134  1  0.67018056  0.83435785  0.83567521  1
