# generated using pymatgen
data_Cs27Sn14Pb13I81
_symmetry_space_group_name_H-M   'P 1'
_cell_length_a   18.97098725
_cell_length_b   18.97187208
_cell_length_c   18.98542981
_cell_angle_alpha   89.99942485
_cell_angle_beta   89.99956863
_cell_angle_gamma   90.00060350
_symmetry_Int_Tables_number   1
_chemical_formula_structural   Cs27Sn14Pb13I81
_chemical_formula_sum   'Cs27 Sn14 Pb13 I81'
_cell_volume   6833.14368707
_cell_formula_units_Z   1
loop_
 _symmetry_equiv_pos_site_id
 _symmetry_equiv_pos_as_xyz
  1  'x, y, z'
loop_
 _atom_site_type_symbol
 _atom_site_label
 _atom_site_symmetry_multiplicity
 _atom_site_fract_x
 _atom_site_fract_y
 _atom_site_fract_z
 _atom_site_occupancy
  Cs  Cs0  1  0.00013294  0.00137436  0.00010298  1
  Cs  Cs1  1  0.00024476  -0.00008921  0.33059072  1
  Cs  Cs2  1  -0.00249657  -0.00213060  0.67295737  1
  Cs  Cs3  1  -0.00058556  0.33314188  0.00139579  1
  Cs  Cs4  1  -0.00244130  0.33453743  0.33231695  1
  Cs  Cs5  1  -0.00075115  0.33624677  0.66628782  1
  Cs  Cs6  1  0.00205236  0.66557553  0.00073493  1
  Cs  Cs7  1  0.00032010  0.66539941  0.33396446  1
  Cs  Cs8  1  0.00153544  0.66596258  0.66629137  1
  Cs  Cs9  1  0.33174284  0.00078265  -0.00070962  1
  Cs  Cs10  1  0.33592105  0.00406332  0.33600111  1
  Cs  Cs11  1  0.34022083  0.01074626  0.66360767  1
  Cs  Cs12  1  0.33576120  0.33236903  -0.00197497  1
  Cs  Cs13  1  0.33304534  0.33083810  0.33530203  1
  Cs  Cs14  1  0.33720427  0.32783662  0.66507106  1
  Cs  Cs15  1  0.33567749  0.66629246  0.00043050  1
  Cs  Cs16  1  0.33180100  0.66677746  0.33192549  1
  Cs  Cs17  1  0.32781700  0.66475098  0.66796797  1
  Cs  Cs18  1  0.66660248  -0.00074730  -0.00499687  1
  Cs  Cs19  1  0.66558338  -0.00017508  0.33410474  1
  Cs  Cs20  1  0.66148252  -0.00688404  0.67307038  1
  Cs  Cs21  1  0.66595444  0.33381970  0.00046479  1
  Cs  Cs22  1  0.67024198  0.33396422  0.33133235  1
  Cs  Cs23  1  0.66598232  0.33277688  0.66705910  1
  Cs  Cs24  1  0.65701459  0.66653584  0.00114005  1
  Cs  Cs25  1  0.66571080  0.66838034  0.33292085  1
  Cs  Cs26  1  0.66609965  0.67338319  0.66671997  1
  Sn  Sn27  1  0.50119752  0.16686885  0.16674854  1
  Sn  Sn28  1  0.16661937  0.83271848  0.83326099  1
  Sn  Sn29  1  0.83387881  0.83274687  0.16671472  1
  Sn  Sn30  1  0.83296054  0.49963790  0.50020518  1
  Sn  Sn31  1  0.50024982  0.50054543  0.49979597  1
  Sn  Sn32  1  0.83225113  0.16659817  0.16754438  1
  Sn  Sn33  1  0.83375742  0.50034766  0.83354481  1
  Sn  Sn34  1  0.16571815  0.50025454  0.83351324  1
  Sn  Sn35  1  0.83376977  0.50061577  0.16626530  1
  Sn  Sn36  1  0.83372048  0.16648554  0.49982990  1
  Sn  Sn37  1  0.16683696  0.50036342  0.49983820  1
  Sn  Sn38  1  0.16616145  0.50051887  0.16659997  1
  Sn  Sn39  1  0.16635967  0.83322701  0.49998699  1
  Sn  Sn40  1  0.16572421  0.83250539  0.16688709  1
  Pb  Pb41  1  0.16597599  0.16686405  0.16673278  1
  Pb  Pb42  1  0.49975969  0.50010769  0.83044594  1
  Pb  Pb43  1  0.50040148  0.16694634  0.83615125  1
  Pb  Pb44  1  0.49614104  0.83293374  0.83330548  1
  Pb  Pb45  1  0.50360306  0.16885798  0.49822970  1
  Pb  Pb46  1  0.83527044  0.83325078  0.49828342  1
  Pb  Pb47  1  0.49943478  0.83574020  0.16684976  1
  Pb  Pb48  1  0.49965331  0.49847010  0.16861272  1
  Pb  Pb49  1  0.49681256  0.83082359  0.49975755  1
  Pb  Pb50  1  0.16637107  0.16724806  0.83312216  1
  Pb  Pb51  1  0.16363720  0.16684588  0.50000399  1
  Pb  Pb52  1  0.83529330  0.83021420  0.83636936  1
  Pb  Pb53  1  0.83344990  0.16892433  0.83328247  1
  I  I54  1  0.16355417  -0.00326704  0.16612042  1
  I  I55  1  0.16458524  -0.00301477  0.49807738  1
  I  I56  1  0.16666492  -0.00341827  0.83563696  1
  I  I57  1  0.16346388  0.33693546  0.16719806  1
  I  I58  1  0.16820557  0.33732577  0.49936083  1
  I  I59  1  0.16296436  0.33775644  0.83407567  1
  I  I60  1  0.15985131  0.66579481  0.16737089  1
  I  I61  1  0.16458513  0.66486058  0.49960335  1
  I  I62  1  0.16234184  0.66529050  0.83301627  1
  I  I63  1  0.50386616  0.00352890  0.16808640  1
  I  I64  1  0.49838383  0.00027215  0.49908339  1
  I  I65  1  0.49858078  -0.00004752  0.83257334  1
  I  I66  1  0.50459273  0.33075613  0.16842425  1
  I  I67  1  0.49318075  0.33670599  0.49941209  1
  I  I68  1  0.49634406  0.33380957  0.83318846  1
  I  I69  1  0.50223562  0.66658038  0.16721604  1
  I  I70  1  0.50638500  0.66265565  0.49797888  1
  I  I71  1  0.50304525  0.66621167  0.83556268  1
  I  I72  1  0.83465060  0.00011233  0.17239518  1
  I  I73  1  0.83681172  0.00228882  0.49232474  1
  I  I74  1  0.83518829  -0.00052716  0.83360689  1
  I  I75  1  0.83386105  0.33469053  0.16753785  1
  I  I76  1  0.83570678  0.33564421  0.49485017  1
  I  I77  1  0.84048660  0.33747619  0.83719806  1
  I  I78  1  0.83938245  0.66535099  0.16782598  1
  I  I79  1  0.83254957  0.66288351  0.49909180  1
  I  I80  1  0.83643269  0.66213437  0.83004553  1
  I  I81  1  0.16570467  0.16727853  0.00022878  1
  I  I82  1  0.16884819  0.16663881  0.33324973  1
  I  I83  1  0.16546928  0.16670426  0.66642954  1
  I  I84  1  0.15931228  0.50515104  0.00063945  1
  I  I85  1  0.16395218  0.50523793  0.33328781  1
  I  I86  1  0.16299159  0.50615349  0.66615136  1
  I  I87  1  0.16259377  0.82722151  0.00083048  1
  I  I88  1  0.16283999  0.82614168  0.33267271  1
  I  I89  1  0.16614911  0.82435915  0.66646213  1
  I  I90  1  0.50647065  0.16888154  0.00422452  1
  I  I91  1  0.50123017  0.16724534  0.33049065  1
  I  I92  1  0.49937387  0.16754332  0.66624286  1
  I  I93  1  0.49972839  0.49795223  0.00013550  1
  I  I94  1  0.49917588  0.49877746  0.33631517  1
  I  I95  1  0.49937625  0.49877753  0.66260919  1
  I  I96  1  0.49855805  0.83324957  0.00031718  1
  I  I97  1  0.49685754  0.83314301  0.33320670  1
  I  I98  1  0.50158226  0.83384219  0.66647843  1
  I  I99  1  0.83038165  0.16777761  0.00363331  1
  I  I100  1  0.83111216  0.17291790  0.33210474  1
  I  I101  1  0.83652913  0.17354734  0.66360799  1
  I  I102  1  0.84101054  0.49898356  0.00132330  1
  I  I103  1  0.83627266  0.49848722  0.33293005  1
  I  I104  1  0.83713556  0.49402857  0.66565812  1
  I  I105  1  0.83965928  0.83574179  0.00447602  1
  I  I106  1  0.83962844  0.82931692  0.33000920  1
  I  I107  1  0.83493643  0.83444511  0.66686193  1
  I  I108  1  -0.00343422  0.16761285  0.17001601  1
  I  I109  1  -0.00385085  0.17437235  0.49137151  1
  I  I110  1  -0.00025000  0.16501681  0.83665354  1
  I  I111  1  -0.00044283  0.49834282  0.17005468  1
  I  I112  1  0.00002283  0.49968146  0.49950666  1
  I  I113  1  0.00067515  0.50258429  0.83002640  1
  I  I114  1  0.00076623  0.83430678  0.16724813  1
  I  I115  1  0.00356073  0.82653646  0.50073280  1
  I  I116  1  0.00357031  0.83105483  0.83100761  1
  I  I117  1  0.33519083  0.16742499  0.16611377  1
  I  I118  1  0.33346683  0.16730661  0.49853352  1
  I  I119  1  0.33334111  0.16842343  0.83517682  1
  I  I120  1  0.32985657  0.50309799  0.16655558  1
  I  I121  1  0.33165875  0.50519011  0.49921819  1
  I  I122  1  0.32944161  0.50458903  0.83484487  1
  I  I123  1  0.32926137  0.82894103  0.16588575  1
  I  I124  1  0.32815390  0.82742990  0.49631745  1
  I  I125  1  0.32771465  0.82423467  0.83792093  1
  I  I126  1  0.66909901  0.16859253  0.17128214  1
  I  I127  1  0.67127562  0.17412189  0.49607653  1
  I  I128  1  0.66716020  0.16933091  0.83156369  1
  I  I129  1  0.67014923  0.50187119  0.16684183  1
  I  I130  1  0.66827073  0.49375190  0.49859858  1
  I  I131  1  0.66992934  0.49743743  0.83504560  1
  I  I132  1  0.66991796  0.82938266  0.16784948  1
  I  I133  1  0.66691204  0.83212529  0.49729670  1
  I  I134  1  0.66691924  0.83271535  0.83486193  1
