# generated using pymatgen
data_Cs27Sn13Pb14I81
_symmetry_space_group_name_H-M   'P 1'
_cell_length_a   18.97682769
_cell_length_b   18.97758686
_cell_length_c   18.97621360
_cell_angle_alpha   89.99991520
_cell_angle_beta   90.00080474
_cell_angle_gamma   90.00012393
_symmetry_Int_Tables_number   1
_chemical_formula_structural   Cs27Sn13Pb14I81
_chemical_formula_sum   'Cs27 Sn13 Pb14 I81'
_cell_volume   6833.98721978
_cell_formula_units_Z   1
loop_
 _symmetry_equiv_pos_site_id
 _symmetry_equiv_pos_as_xyz
  1  'x, y, z'
loop_
 _atom_site_type_symbol
 _atom_site_label
 _atom_site_symmetry_multiplicity
 _atom_site_fract_x
 _atom_site_fract_y
 _atom_site_fract_z
 _atom_site_occupancy
  Cs  Cs0  1  0.00490761  -0.00017827  0.00108675  1
  Cs  Cs1  1  -0.00096359  0.00001893  0.33229636  1
  Cs  Cs2  1  -0.00052991  0.00217205  0.66802273  1
  Cs  Cs3  1  0.00323054  0.33506748  -0.00172300  1
  Cs  Cs4  1  -0.00101976  0.33228353  0.33227077  1
  Cs  Cs5  1  -0.00006481  0.33261053  0.67018381  1
  Cs  Cs6  1  0.00836225  0.66524881  -0.00238618  1
  Cs  Cs7  1  0.00103714  0.66783841  0.33372880  1
  Cs  Cs8  1  -0.01176731  0.66489980  0.66801692  1
  Cs  Cs9  1  0.32979431  -0.00497627  -0.00325052  1
  Cs  Cs10  1  0.33397229  0.00052706  0.33614110  1
  Cs  Cs11  1  0.33060469  0.00189264  0.66599070  1
  Cs  Cs12  1  0.33241631  0.33588341  -0.00160172  1
  Cs  Cs13  1  0.33505916  0.33317073  0.33627359  1
  Cs  Cs14  1  0.33223462  0.33059572  0.66452344  1
  Cs  Cs15  1  0.32983281  0.66838971  0.00118837  1
  Cs  Cs16  1  0.33296538  0.66634060  0.33323958  1
  Cs  Cs17  1  0.33671105  0.66750632  0.66195509  1
  Cs  Cs18  1  0.66668162  0.00171315  0.00134948  1
  Cs  Cs19  1  0.66676237  0.00170598  0.33030413  1
  Cs  Cs20  1  0.66829560  -0.00186695  0.66917847  1
  Cs  Cs21  1  0.66643086  0.33138100  0.00190398  1
  Cs  Cs22  1  0.66561221  0.33199494  0.33011269  1
  Cs  Cs23  1  0.66706424  0.33402819  0.66812797  1
  Cs  Cs24  1  0.66479604  0.66698148  0.00024186  1
  Cs  Cs25  1  0.66653870  0.66631359  0.33370562  1
  Cs  Cs26  1  0.67103016  0.66793802  0.66707570  1
  Sn  Sn27  1  0.16739355  0.16692427  0.16702908  1
  Sn  Sn28  1  0.16679619  0.83228782  0.50001415  1
  Sn  Sn29  1  0.49960610  0.83275870  0.49911291  1
  Sn  Sn30  1  0.50005824  0.49936452  0.83319292  1
  Sn  Sn31  1  0.16671715  0.50087237  0.50006968  1
  Sn  Sn32  1  0.50065738  0.50077658  0.16660661  1
  Sn  Sn33  1  0.83285364  0.16682892  0.50059071  1
  Sn  Sn34  1  0.83240088  0.16670611  0.83267006  1
  Sn  Sn35  1  0.50056376  0.16717307  0.83334737  1
  Sn  Sn36  1  0.49966372  0.50059459  0.50006774  1
  Sn  Sn37  1  0.83303580  0.50120194  0.16666217  1
  Sn  Sn38  1  0.50080683  0.83254376  0.16757784  1
  Sn  Sn39  1  0.83290064  0.83202349  0.16653794  1
  Pb  Pb40  1  0.16661154  0.83275447  0.82919044  1
  Pb  Pb41  1  0.83326086  0.83557915  0.83688105  1
  Pb  Pb42  1  0.16733469  0.49857164  0.16870580  1
  Pb  Pb43  1  0.16458791  0.16681610  0.49865276  1
  Pb  Pb44  1  0.83103147  0.49823381  0.83634786  1
  Pb  Pb45  1  0.16692410  0.16679396  0.83550468  1
  Pb  Pb46  1  0.50188845  0.16641530  0.50194631  1
  Pb  Pb47  1  0.83267296  0.49817588  0.49811592  1
  Pb  Pb48  1  0.83272975  0.83520293  0.49813724  1
  Pb  Pb49  1  0.49778255  0.16636759  0.16444029  1
  Pb  Pb50  1  0.16728505  0.83476793  0.16860555  1
  Pb  Pb51  1  0.16948093  0.50036104  0.82972154  1
  Pb  Pb52  1  0.83471571  0.16677300  0.16589375  1
  Pb  Pb53  1  0.49996317  0.83291030  0.83317392  1
  I  I54  1  0.16503056  0.00229471  0.16884609  1
  I  I55  1  0.17090623  -0.00253187  0.49734295  1
  I  I56  1  0.16925922  0.00018267  0.83272236  1
  I  I57  1  0.16492146  0.33107276  0.16932252  1
  I  I58  1  0.17151902  0.33599050  0.49764311  1
  I  I59  1  0.16537018  0.33347128  0.83179702  1
  I  I60  1  0.16556706  0.66665591  0.16618690  1
  I  I61  1  0.17242013  0.66655687  0.49706100  1
  I  I62  1  0.16872084  0.66634383  0.84031715  1
  I  I63  1  0.50335089  -0.00299433  0.17049376  1
  I  I64  1  0.49693887  -0.00296477  0.49612370  1
  I  I65  1  0.50388325  0.00255256  0.83389304  1
  I  I66  1  0.50333248  0.33642291  0.16947932  1
  I  I67  1  0.49698582  0.33642150  0.49721548  1
  I  I68  1  0.50398573  0.33410130  0.83371060  1
  I  I69  1  0.50374477  0.66605788  0.16589343  1
  I  I70  1  0.49617666  0.66602498  0.50036331  1
  I  I71  1  0.49900968  0.66337820  0.83342019  1
  I  I72  1  0.82990893  -0.00220817  0.16769394  1
  I  I73  1  0.83368136  0.00292726  0.50055183  1
  I  I74  1  0.82624976  0.00385511  0.83096325  1
  I  I75  1  0.82927734  0.33565836  0.16771764  1
  I  I76  1  0.83362773  0.33049106  0.50014201  1
  I  I77  1  0.83108611  0.33020130  0.83180941  1
  I  I78  1  0.82837740  0.66648266  0.16947491  1
  I  I79  1  0.83433694  0.66661224  0.50007313  1
  I  I80  1  0.83176984  0.66642230  0.83114596  1
  I  I81  1  0.16405775  0.16643978  0.00315409  1
  I  I82  1  0.16397364  0.16676400  0.33115840  1
  I  I83  1  0.16709894  0.16609806  0.66658370  1
  I  I84  1  0.16655265  0.49678173  0.00010148  1
  I  I85  1  0.17255775  0.50207130  0.33645205  1
  I  I86  1  0.17147669  0.50157318  0.66167923  1
  I  I87  1  0.16670270  0.83678655  0.00036021  1
  I  I88  1  0.16853384  0.83076631  0.33636139  1
  I  I89  1  0.17527263  0.83252554  0.66108852  1
  I  I90  1  0.50655972  0.17081838  -0.00320698  1
  I  I91  1  0.50121836  0.16885820  0.33328165  1
  I  I92  1  0.50117725  0.17062349  0.66978795  1
  I  I93  1  0.50583850  0.49870983  0.00094460  1
  I  I94  1  0.49978361  0.50415016  0.33330781  1
  I  I95  1  0.49444239  0.49911563  0.66576221  1
  I  I96  1  0.50451696  0.83159353  0.00320934  1
  I  I97  1  0.49991232  0.82653139  0.33326347  1
  I  I98  1  0.49524344  0.83105123  0.66330644  1
  I  I99  1  0.82981335  0.16670366  -0.00239473  1
  I  I100  1  0.83593433  0.16657152  0.33460308  1
  I  I101  1  0.83030738  0.16683057  0.66692500  1
  I  I102  1  0.82802834  0.50034747  0.00434617  1
  I  I103  1  0.82767141  0.49946832  0.33026569  1
  I  I104  1  0.83336817  0.49924934  0.66671934  1
  I  I105  1  0.82546061  0.83258681  0.00497845  1
  I  I106  1  0.83162492  0.83358327  0.33025966  1
  I  I107  1  0.83368709  0.83403958  0.66652923  1
  I  I108  1  0.00208738  0.16638282  0.16670595  1
  I  I109  1  -0.00313691  0.16658536  0.50408110  1
  I  I110  1  -0.00285161  0.16561235  0.83067211  1
  I  I111  1  -0.00232688  0.50104867  0.16956671  1
  I  I112  1  0.00214110  0.50236438  0.49609183  1
  I  I113  1  -0.00020432  0.49759724  0.83389809  1
  I  I114  1  -0.00230215  0.83243337  0.16850252  1
  I  I115  1  0.00222911  0.83110555  0.49739584  1
  I  I116  1  -0.00018736  0.83664732  0.83429322  1
  I  I117  1  0.33071626  0.16701649  0.16715927  1
  I  I118  1  0.33358354  0.16648814  0.50044290  1
  I  I119  1  0.33639728  0.17059082  0.83496564  1
  I  I120  1  0.33704588  0.50269599  0.16493740  1
  I  I121  1  0.33505833  0.50253162  0.49769397  1
  I  I122  1  0.33808054  0.49287745  0.83958573  1
  I  I123  1  0.33668451  0.83025988  0.16794771  1
  I  I124  1  0.33477435  0.83030133  0.49385200  1
  I  I125  1  0.33375763  0.83725369  0.83945477  1
  I  I126  1  0.66640671  0.16649515  0.16766929  1
  I  I127  1  0.66951793  0.16689656  0.49943279  1
  I  I128  1  0.66636526  0.17055192  0.83064512  1
  I  I129  1  0.66515627  0.50196446  0.16926509  1
  I  I130  1  0.66303300  0.50316714  0.50135862  1
  I  I131  1  0.66272408  0.49805951  0.82821508  1
  I  I132  1  0.66543685  0.83109487  0.17280106  1
  I  I133  1  0.66338342  0.82967656  0.49813459  1
  I  I134  1  0.66645925  0.83292369  0.82824735  1
