# generated using pymatgen
data_Cs27Sn14Pb13I81
_symmetry_space_group_name_H-M   'P 1'
_cell_length_a   18.96162188
_cell_length_b   18.95570579
_cell_length_c   18.96500611
_cell_angle_alpha   89.99915558
_cell_angle_beta   89.99920223
_cell_angle_gamma   89.99840643
_symmetry_Int_Tables_number   1
_chemical_formula_structural   Cs27Sn14Pb13I81
_chemical_formula_sum   'Cs27 Sn14 Pb13 I81'
_cell_volume   6816.60969982
_cell_formula_units_Z   1
loop_
 _symmetry_equiv_pos_site_id
 _symmetry_equiv_pos_as_xyz
  1  'x, y, z'
loop_
 _atom_site_type_symbol
 _atom_site_label
 _atom_site_symmetry_multiplicity
 _atom_site_fract_x
 _atom_site_fract_y
 _atom_site_fract_z
 _atom_site_occupancy
  Cs  Cs0  1  -0.00384928  0.00152192  -0.00263358  1
  Cs  Cs1  1  0.00037981  0.00086151  0.33752795  1
  Cs  Cs2  1  0.00204105  -0.00007398  0.66756115  1
  Cs  Cs3  1  -0.00133228  0.33119193  0.00291103  1
  Cs  Cs4  1  -0.00025578  0.33570115  0.33222403  1
  Cs  Cs5  1  0.00209126  0.33181040  0.66650774  1
  Cs  Cs6  1  0.00188703  0.66745396  0.00170822  1
  Cs  Cs7  1  -0.00272528  0.66384140  0.33356988  1
  Cs  Cs8  1  -0.00124757  0.66874455  0.66512096  1
  Cs  Cs9  1  0.33317892  -0.00075070  0.00039170  1
  Cs  Cs10  1  0.33811197  -0.00256951  0.33315305  1
  Cs  Cs11  1  0.33173423  0.00091422  0.66483209  1
  Cs  Cs12  1  0.33405375  0.33423039  -0.00028429  1
  Cs  Cs13  1  0.33246032  0.33166254  0.33446216  1
  Cs  Cs14  1  0.33362096  0.33324036  0.66635253  1
  Cs  Cs15  1  0.33301905  0.66839622  0.00218893  1
  Cs  Cs16  1  0.33304628  0.67156404  0.32802079  1
  Cs  Cs17  1  0.33064983  0.66175655  0.66967284  1
  Cs  Cs18  1  0.66937870  -0.00053569  -0.00038031  1
  Cs  Cs19  1  0.66076415  -0.00317488  0.33558256  1
  Cs  Cs20  1  0.66620197  0.00081142  0.66549675  1
  Cs  Cs21  1  0.66649592  0.33199445  -0.00010124  1
  Cs  Cs22  1  0.66749280  0.33418068  0.33330198  1
  Cs  Cs23  1  0.66414904  0.33455441  0.66768572  1
  Cs  Cs24  1  0.66472400  0.66959599  -0.00355620  1
  Cs  Cs25  1  0.66990309  0.66905623  0.33574189  1
  Cs  Cs26  1  0.66990118  0.66489842  0.66922320  1
  Sn  Sn27  1  0.16535623  0.49903802  0.83300919  1
  Sn  Sn28  1  0.16763919  0.49935300  0.50040333  1
  Sn  Sn29  1  0.16760343  0.16757515  0.83371196  1
  Sn  Sn30  1  0.83380651  0.16695933  0.50005292  1
  Sn  Sn31  1  0.83273721  0.83253799  0.83410631  1
  Sn  Sn32  1  0.50009487  0.49945002  0.16795226  1
  Sn  Sn33  1  0.16582308  0.16746728  0.49984727  1
  Sn  Sn34  1  0.83363028  0.83337571  0.16624132  1
  Sn  Sn35  1  0.50033015  0.83459989  0.83298488  1
  Sn  Sn36  1  0.49909527  0.50002716  0.49851455  1
  Sn  Sn37  1  0.83479136  0.50033189  0.83369684  1
  Sn  Sn38  1  0.49916402  0.16566149  0.83408973  1
  Sn  Sn39  1  0.16726827  0.16672869  0.16657609  1
  Sn  Sn40  1  0.49930774  0.16751628  0.16574856  1
  Pb  Pb41  1  0.49943236  0.49968623  0.83356316  1
  Pb  Pb42  1  0.49931451  0.16808162  0.50001808  1
  Pb  Pb43  1  0.50158811  0.83368063  0.16472561  1
  Pb  Pb44  1  0.16693114  0.83276137  0.49987307  1
  Pb  Pb45  1  0.49973614  0.82951495  0.50337025  1
  Pb  Pb46  1  0.83378356  0.49812672  0.50196556  1
  Pb  Pb47  1  0.16840545  0.49820647  0.16660676  1
  Pb  Pb48  1  0.83335161  0.83573926  0.50067966  1
  Pb  Pb49  1  0.83275073  0.16491543  0.16910399  1
  Pb  Pb50  1  0.16393053  0.83656367  0.16665393  1
  Pb  Pb51  1  0.83069527  0.50190547  0.16406951  1
  Pb  Pb52  1  0.16648217  0.83329155  0.83330992  1
  Pb  Pb53  1  0.83326403  0.16660825  0.83187281  1
  I  I54  1  0.17361097  0.00518325  0.16610586  1
  I  I55  1  0.16213547  0.00392831  0.50206966  1
  I  I56  1  0.16722835  0.00356290  0.83254875  1
  I  I57  1  0.16751055  0.32966508  0.16606897  1
  I  I58  1  0.16677936  0.33261766  0.50221989  1
  I  I59  1  0.16732171  0.33259846  0.83175263  1
  I  I60  1  0.16830804  0.66644370  0.16635709  1
  I  I61  1  0.17024550  0.66249597  0.50651801  1
  I  I62  1  0.16654246  0.66338236  0.82801368  1
  I  I63  1  0.49734055  0.00315933  0.16457619  1
  I  I64  1  0.50048360  0.00011929  0.49812061  1
  I  I65  1  0.50061888  0.00145765  0.83865545  1
  I  I66  1  0.49716921  0.33219207  0.16344140  1
  I  I67  1  0.49886283  0.33598306  0.50236710  1
  I  I68  1  0.49939252  0.33078266  0.83399636  1
  I  I69  1  0.50139863  0.66425878  0.16825435  1
  I  I70  1  0.49507167  0.66153738  0.49543449  1
  I  I71  1  0.50187261  0.66831363  0.83283321  1
  I  I72  1  0.83246414  -0.00266516  0.15860422  1
  I  I73  1  0.83917860  0.00375642  0.50247026  1
  I  I74  1  0.83203390  -0.00226911  0.83552112  1
  I  I75  1  0.83386768  0.33321009  0.16578820  1
  I  I76  1  0.83504078  0.33033453  0.50178052  1
  I  I77  1  0.83332138  0.33546923  0.83043269  1
  I  I78  1  0.83144056  0.66979560  0.16522712  1
  I  I79  1  0.83330228  0.66644313  0.49929889  1
  I  I80  1  0.83122794  0.66689934  0.83542427  1
  I  I81  1  0.17128339  0.17028782  -0.00098072  1
  I  I82  1  0.16577195  0.17032242  0.33385809  1
  I  I83  1  0.16668207  0.17027497  0.66720863  1
  I  I84  1  0.16500434  0.49596945  -0.00296553  1
  I  I85  1  0.16883638  0.49495631  0.33609671  1
  I  I86  1  0.16951598  0.49249962  0.66703789  1
  I  I87  1  0.16850349  0.83211745  -0.00024140  1
  I  I88  1  0.16458486  0.83330811  0.33313651  1
  I  I89  1  0.16480929  0.83790147  0.66694946  1
  I  I90  1  0.49360120  0.16905482  -0.00038333  1
  I  I91  1  0.49792499  0.16894254  0.33082474  1
  I  I92  1  0.49802412  0.16519169  0.66938698  1
  I  I93  1  0.50056886  0.49860356  0.00180729  1
  I  I94  1  0.49548840  0.49316966  0.33331042  1
  I  I95  1  0.49910425  0.49944755  0.66504299  1
  I  I96  1  0.50229903  0.83225379  -0.00335421  1
  I  I97  1  0.50239853  0.83576438  0.33321582  1
  I  I98  1  0.50653059  0.83934111  0.67131200  1
  I  I99  1  0.83538720  0.16752403  -0.00007848  1
  I  I100  1  0.83750075  0.16577001  0.33663039  1
  I  I101  1  0.83686046  0.16580900  0.66423422  1
  I  I102  1  0.83715073  0.49971643  -0.00414249  1
  I  I103  1  0.83487362  0.50144888  0.33330296  1
  I  I104  1  0.83152987  0.50512345  0.67009065  1
  I  I105  1  0.82907898  0.83131201  -0.00176624  1
  I  I106  1  0.83296081  0.83596926  0.33103247  1
  I  I107  1  0.82954437  0.83009772  0.67018739  1
  I  I108  1  0.00277741  0.16485777  0.16388766  1
  I  I109  1  0.00205020  0.17106363  0.50085345  1
  I  I110  1  0.00284221  0.16748106  0.83464232  1
  I  I111  1  -0.00003315  0.49962275  0.16840077  1
  I  I112  1  0.00311263  0.49706321  0.50314441  1
  I  I113  1  0.00107930  0.49969144  0.82772266  1
  I  I114  1  -0.00381636  0.83415308  0.15879653  1
  I  I115  1  -0.00010292  0.83114020  0.50198033  1
  I  I116  1  -0.00292382  0.83281386  0.83645297  1
  I  I117  1  0.33365245  0.17018914  0.16694967  1
  I  I118  1  0.33027956  0.16965242  0.50117722  1
  I  I119  1  0.33290988  0.16729930  0.83180716  1
  I  I120  1  0.33656721  0.49855109  0.16459369  1
  I  I121  1  0.33232275  0.49308823  0.50438668  1
  I  I122  1  0.33081480  0.49853276  0.83154454  1
  I  I123  1  0.33356828  0.83182757  0.16507719  1
  I  I124  1  0.33355191  0.83897524  0.50089210  1
  I  I125  1  0.33592912  0.83409129  0.83333209  1
  I  I126  1  0.66345417  0.16900097  0.16262015  1
  I  I127  1  0.66803106  0.16796557  0.50113280  1
  I  I128  1  0.66403565  0.16679753  0.83580250  1
  I  I129  1  0.66265725  0.49290666  0.17033895  1
  I  I130  1  0.66443739  0.49747514  0.49902437  1
  I  I131  1  0.66814420  0.50092507  0.83294821  1
  I  I132  1  0.66930319  0.83555567  0.16295154  1
  I  I133  1  0.66654530  0.83516856  0.49880611  1
  I  I134  1  0.66703335  0.83269614  0.83707066  1
