# generated using pymatgen
data_Cs27Sn13Pb14I81
_symmetry_space_group_name_H-M   'P 1'
_cell_length_a   18.97724907
_cell_length_b   18.97724904
_cell_length_c   18.98154522
_cell_angle_alpha   90.00076367
_cell_angle_beta   89.99923639
_cell_angle_gamma   90.00135183
_symmetry_Int_Tables_number   1
_chemical_formula_structural   Cs27Sn13Pb14I81
_chemical_formula_sum   'Cs27 Sn13 Pb14 I81'
_cell_volume   6835.93742021
_cell_formula_units_Z   1
loop_
 _symmetry_equiv_pos_site_id
 _symmetry_equiv_pos_as_xyz
  1  'x, y, z'
loop_
 _atom_site_type_symbol
 _atom_site_label
 _atom_site_symmetry_multiplicity
 _atom_site_fract_x
 _atom_site_fract_y
 _atom_site_fract_z
 _atom_site_occupancy
  Cs  Cs0  1  0.00245184  0.00145887  -0.00005231  1
  Cs  Cs1  1  -0.00358718  0.00415323  0.33571417  1
  Cs  Cs2  1  -0.00141464  0.00114593  0.66448164  1
  Cs  Cs3  1  -0.00088891  0.33422208  0.00250510  1
  Cs  Cs4  1  -0.00229262  0.33562629  0.33472795  1
  Cs  Cs5  1  0.00227303  0.33106013  0.66494098  1
  Cs  Cs6  1  0.00068350  0.66560833  -0.00065350  1
  Cs  Cs7  1  -0.00066190  0.66186402  0.33330957  1
  Cs  Cs8  1  -0.00293663  0.66828490  0.66824027  1
  Cs  Cs9  1  0.33367326  -0.00033990  0.00077553  1
  Cs  Cs10  1  0.33626081  -0.00292752  0.33300704  1
  Cs  Cs11  1  0.33238711  0.00094624  0.66457198  1
  Cs  Cs12  1  0.33187443  0.33088153  -0.00005226  1
  Cs  Cs13  1  0.32918002  0.33692047  0.33571428  1
  Cs  Cs14  1  0.33218756  0.33474775  0.66448165  1
  Cs  Cs15  1  0.33366603  0.66736624  -0.00009711  1
  Cs  Cs16  1  0.33252995  0.66937160  0.33266175  1
  Cs  Cs17  1  0.33472748  0.66432652  0.66731412  1
  Cs  Cs18  1  0.66596706  -0.00033270  -0.00009715  1
  Cs  Cs19  1  0.66396182  0.00080351  0.33266185  1
  Cs  Cs20  1  0.66900675  -0.00139433  0.66731410  1
  Cs  Cs21  1  0.66772499  0.33264981  -0.00065337  1
  Cs  Cs22  1  0.67146925  0.33399513  0.33330972  1
  Cs  Cs23  1  0.66504844  0.33627003  0.66824022  1
  Cs  Cs24  1  0.66549864  0.66783470  -0.00263619  1
  Cs  Cs25  1  0.66803750  0.66529587  0.33422590  1
  Cs  Cs26  1  0.66895810  0.66437520  0.66943090  1
  Sn  Sn27  1  0.16612163  0.83353014  0.16706788  1
  Sn  Sn28  1  0.83267325  0.16729019  0.83357368  1
  Sn  Sn29  1  0.83334072  0.83345459  0.16667014  1
  Sn  Sn30  1  0.16693910  0.83271401  0.83315835  1
  Sn  Sn31  1  0.49987876  0.49999263  0.16667009  1
  Sn  Sn32  1  0.50018242  0.83315090  0.16717280  1
  Sn  Sn33  1  0.50061941  0.16639426  0.83315837  1
  Sn  Sn34  1  0.49980321  0.16721169  0.16706788  1
  Sn  Sn35  1  0.16728847  0.83327554  0.49987785  1
  Sn  Sn36  1  0.83421013  0.49912321  0.83363520  1
  Sn  Sn37  1  0.49957895  0.83375436  0.49974112  1
  Sn  Sn38  1  0.16604314  0.50066002  0.83357370  1
  Sn  Sn39  1  0.50005779  0.16604483  0.49987787  1
  Pb  Pb40  1  0.16655236  0.16678093  0.83343447  1
  Pb  Pb41  1  0.16855256  0.16478083  0.16699486  1
  Pb  Pb42  1  0.83578954  0.83373928  0.83521427  1
  Pb  Pb43  1  0.83299326  0.83329130  0.49734748  1
  Pb  Pb44  1  0.49809130  0.83524197  0.83293854  1
  Pb  Pb45  1  0.50004202  0.50034012  0.49734751  1
  Pb  Pb46  1  0.83062697  0.16665819  0.50239655  1
  Pb  Pb47  1  0.83141959  0.16489556  0.16481933  1
  Pb  Pb48  1  0.83335247  0.49998082  0.50274245  1
  Pb  Pb49  1  0.16875768  0.16457566  0.49966772  1
  Pb  Pb50  1  0.83135670  0.50197663  0.16454967  1
  Pb  Pb51  1  0.49959402  0.49754387  0.83521428  1
  Pb  Pb52  1  0.16843777  0.50191385  0.16481930  1
  Pb  Pb53  1  0.16667512  0.50270635  0.50239656  1
  I  I54  1  0.16974594  -0.00477503  0.16199997  1
  I  I55  1  0.16908230  -0.00436609  0.50333309  1
  I  I56  1  0.16784850  -0.00307627  0.83430907  1
  I  I57  1  0.17024292  0.33360484  0.16241631  1
  I  I58  1  0.16918324  0.33348454  0.50352411  1
  I  I59  1  0.16680913  0.33599404  0.83423838  1
  I  I60  1  0.17061275  0.67094493  0.16771946  1
  I  I61  1  0.17495279  0.67133397  0.49723195  1
  I  I62  1  0.16194915  0.66760294  0.83409382  1
  I  I63  1  0.49957387  -0.00089564  0.16673262  1
  I  I64  1  0.49598258  -0.00076339  0.49543890  1
  I  I65  1  0.50389581  0.00325067  0.83793397  1
  I  I66  1  0.50062893  0.33245576  0.16426051  1
  I  I67  1  0.50141641  0.33007578  0.50054619  1
  I  I68  1  0.49922522  0.32950384  0.83349219  1
  I  I69  1  0.49923108  0.66860920  0.17013984  1
  I  I70  1  0.49565074  0.67029775  0.49493745  1
  I  I71  1  0.50219442  0.66669292  0.83393724  1
  I  I72  1  0.83135585  -0.00341837  0.16344833  1
  I  I73  1  0.83542342  -0.00021959  0.50387510  1
  I  I74  1  0.82910557  0.00244492  0.83496438  1
  I  I75  1  0.82994760  0.33336740  0.16588049  1
  I  I76  1  0.83067513  0.33312750  0.49714860  1
  I  I77  1  0.83371437  0.33324656  0.83440131  1
  I  I78  1  0.83049319  0.67019959  0.16376092  1
  I  I79  1  0.82971461  0.66710509  0.50294765  1
  I  I80  1  0.83560845  0.66457216  0.83534445  1
  I  I81  1  0.17134256  0.16199085  -0.00014969  1
  I  I82  1  0.16807283  0.16526033  0.33332730  1
  I  I83  1  0.17012344  0.16321018  0.66691194  1
  I  I84  1  0.16457406  0.50666022  -0.00329291  1
  I  I85  1  0.16903135  0.50118049  0.33319536  1
  I  I86  1  0.16491340  0.50551356  0.67079097  1
  I  I87  1  0.16784890  0.82994659  0.00038620  1
  I  I88  1  0.17057999  0.83519921  0.33278828  1
  I  I89  1  0.17244078  0.82986734  0.66670290  1
  I  I90  1  0.50338665  0.16548424  0.00038615  1
  I  I91  1  0.49813464  0.16275328  0.33278828  1
  I  I92  1  0.50346556  0.16089282  0.66670289  1
  I  I93  1  0.49979974  0.50307993  0.00298905  1
  I  I94  1  0.49962774  0.49794113  0.32929317  1
  I  I95  1  0.50047231  0.50028910  0.66689291  1
  I  I96  1  0.49886665  0.83446659  0.00303464  1
  I  I97  1  0.49533413  0.83799930  0.33203605  1
  I  I98  1  0.49502606  0.83830729  0.66391045  1
  I  I99  1  0.82667322  0.16875925  -0.00329290  1
  I  I100  1  0.83215243  0.16430219  0.33319534  1
  I  I101  1  0.82782007  0.16841981  0.67079095  1
  I  I102  1  0.83666243  0.49667080  -0.00343742  1
  I  I103  1  0.83165220  0.50168110  0.33274448  1
  I  I104  1  0.83468098  0.49865239  0.67150270  1
  I  I105  1  0.83025365  0.83353387  0.00298905  1
  I  I106  1  0.83539218  0.83370533  0.32929317  1
  I  I107  1  0.83304408  0.83286105  0.66689295  1
  I  I108  1  -0.00027151  0.16308991  0.16241631  1
  I  I109  1  -0.00015124  0.16414974  0.50352416  1
  I  I110  1  -0.00266072  0.16652417  0.83423836  1
  I  I111  1  -0.00003409  0.50338591  0.16588071  1
  I  I112  1  0.00020587  0.50265879  0.49714841  1
  I  I113  1  0.00008674  0.49961922  0.83440133  1
  I  I114  1  0.00087756  0.83270462  0.16426067  1
  I  I115  1  0.00325755  0.83191681  0.50054637  1
  I  I116  1  0.00382948  0.83410806  0.83349201  1
  I  I117  1  0.33810838  0.16358763  0.16200023  1
  I  I118  1  0.33769941  0.16425115  0.50333267  1
  I  I119  1  0.33640957  0.16548481  0.83430917  1
  I  I120  1  0.33675172  0.50197709  0.16344798  1
  I  I121  1  0.33355288  0.49790989  0.50387540  1
  I  I122  1  0.33088843  0.50422779  0.83496445  1
  I  I123  1  0.33422901  0.83375946  0.16673272  1
  I  I124  1  0.33409675  0.83735070  0.49543878  1
  I  I125  1  0.33008268  0.82943755  0.83793417  1
  I  I126  1  0.66238840  0.16272072  0.16771911  1
  I  I127  1  0.66199937  0.15838075  0.49723231  1
  I  I128  1  0.66573039  0.17138423  0.83409376  1
  I  I129  1  0.66313378  0.50284030  0.16376114  1
  I  I130  1  0.66622828  0.50361827  0.50294764  1
  I  I131  1  0.66876112  0.49772466  0.83534428  1
  I  I132  1  0.66472416  0.83410192  0.17013961  1
  I  I133  1  0.66303559  0.83768287  0.49493757  1
  I  I134  1  0.66664039  0.83113906  0.83393740  1
