# generated using pymatgen
data_Cs27Sn13Pb14I81
_symmetry_space_group_name_H-M   'P 1'
_cell_length_a   18.97647603
_cell_length_b   18.97486654
_cell_length_c   18.97949488
_cell_angle_alpha   90.00222992
_cell_angle_beta   90.00132557
_cell_angle_gamma   90.00056890
_symmetry_Int_Tables_number   1
_chemical_formula_structural   Cs27Sn13Pb14I81
_chemical_formula_sum   'Cs27 Sn13 Pb14 I81'
_cell_volume   6834.06249070
_cell_formula_units_Z   1
loop_
 _symmetry_equiv_pos_site_id
 _symmetry_equiv_pos_as_xyz
  1  'x, y, z'
loop_
 _atom_site_type_symbol
 _atom_site_label
 _atom_site_symmetry_multiplicity
 _atom_site_fract_x
 _atom_site_fract_y
 _atom_site_fract_z
 _atom_site_occupancy
  Cs  Cs0  1  -0.00378371  -0.00274488  -0.00298959  1
  Cs  Cs1  1  0.00170762  0.00138081  0.33703267  1
  Cs  Cs2  1  -0.00144881  0.00016964  0.66605673  1
  Cs  Cs3  1  0.00105037  0.33753637  0.00171422  1
  Cs  Cs4  1  0.00367760  0.33755255  0.33209484  1
  Cs  Cs5  1  0.00281212  0.33415827  0.66472381  1
  Cs  Cs6  1  -0.00056898  0.66597581  0.00412727  1
  Cs  Cs7  1  -0.00403686  0.66202733  0.33047555  1
  Cs  Cs8  1  0.00220646  0.66772755  0.66645814  1
  Cs  Cs9  1  0.33409931  0.00050293  0.00078242  1
  Cs  Cs10  1  0.33353324  0.00109435  0.32941472  1
  Cs  Cs11  1  0.33257600  -0.00106804  0.66704742  1
  Cs  Cs12  1  0.33451419  0.33360177  0.00060149  1
  Cs  Cs13  1  0.32474215  0.32936472  0.33164383  1
  Cs  Cs14  1  0.33253926  0.33368869  0.66703793  1
  Cs  Cs15  1  0.33223335  0.66534450  -0.00354644  1
  Cs  Cs16  1  0.33857014  0.67019268  0.33838683  1
  Cs  Cs17  1  0.33448967  0.66643845  0.66784122  1
  Cs  Cs18  1  0.66969189  -0.00043479  0.00170541  1
  Cs  Cs19  1  0.66510036  0.00009334  0.33219769  1
  Cs  Cs20  1  0.66949055  0.00245018  0.66747579  1
  Cs  Cs21  1  0.66433358  0.33284449  -0.00236868  1
  Cs  Cs22  1  0.66924350  0.33375367  0.33410363  1
  Cs  Cs23  1  0.66680018  0.33180511  0.66765597  1
  Cs  Cs24  1  0.66845644  0.66573699  0.00164464  1
  Cs  Cs25  1  0.66664048  0.66506806  0.33339831  1
  Cs  Cs26  1  0.66322150  0.66396425  0.66474152  1
  Sn  Sn27  1  0.49997042  0.83385246  0.83336765  1
  Sn  Sn28  1  0.16729427  0.83440941  0.83349959  1
  Sn  Sn29  1  0.49932272  0.16620644  0.83271423  1
  Sn  Sn30  1  0.16732230  0.16583743  0.83343214  1
  Sn  Sn31  1  0.50107289  0.49989647  0.83412205  1
  Sn  Sn32  1  0.83280037  0.50017429  0.83296102  1
  Sn  Sn33  1  0.83358185  0.83373646  0.50020487  1
  Sn  Sn34  1  0.16678409  0.83342299  0.16660639  1
  Sn  Sn35  1  0.83339669  0.16652447  0.16758151  1
  Sn  Sn36  1  0.50037410  0.16673406  0.50042979  1
  Sn  Sn37  1  0.49968644  0.49977310  0.16643695  1
  Sn  Sn38  1  0.16583693  0.83364077  0.49985783  1
  Sn  Sn39  1  0.83276492  0.16610334  0.49892675  1
  Pb  Pb40  1  0.50019978  0.83569713  0.50203179  1
  Pb  Pb41  1  0.83342964  0.83116375  0.83144166  1
  Pb  Pb42  1  0.83133266  0.49777182  0.16455688  1
  Pb  Pb43  1  0.50138713  0.16828279  0.16649309  1
  Pb  Pb44  1  0.16680936  0.50332181  0.49986702  1
  Pb  Pb45  1  0.16722046  0.50025909  0.83328410  1
  Pb  Pb46  1  0.16962567  0.50275348  0.16665923  1
  Pb  Pb47  1  0.83358316  0.16826966  0.83279015  1
  Pb  Pb48  1  0.83521110  0.83509057  0.16943087  1
  Pb  Pb49  1  0.16655389  0.16484617  0.50194233  1
  Pb  Pb50  1  0.49984321  0.49674944  0.50013303  1
  Pb  Pb51  1  0.16416993  0.16464966  0.16371439  1
  Pb  Pb52  1  0.49834321  0.83141343  0.16407491  1
  Pb  Pb53  1  0.83321964  0.49962184  0.50209374  1
  I  I54  1  0.16810152  -0.00325486  0.16814017  1
  I  I55  1  0.16521914  -0.00329937  0.50024216  1
  I  I56  1  0.17401276  -0.00104205  0.83302028  1
  I  I57  1  0.16598000  0.33311775  0.16467237  1
  I  I58  1  0.16632668  0.33275820  0.50271653  1
  I  I59  1  0.16921026  0.33056662  0.83251704  1
  I  I60  1  0.16524192  0.67084048  0.16232172  1
  I  I61  1  0.16183225  0.67213026  0.50449214  1
  I  I62  1  0.16991684  0.67023590  0.83216262  1
  I  I63  1  0.50006777  0.00004435  0.16563421  1
  I  I64  1  0.50166681  0.00347263  0.50598949  1
  I  I65  1  0.49463392  0.00048319  0.82848193  1
  I  I66  1  0.50149261  0.33594313  0.15895258  1
  I  I67  1  0.50721174  0.32890882  0.50710715  1
  I  I68  1  0.50037656  0.33277503  0.83322681  1
  I  I69  1  0.49972041  0.66354759  0.16049476  1
  I  I70  1  0.49963130  0.66688563  0.50139286  1
  I  I71  1  0.49909447  0.66679095  0.83700102  1
  I  I72  1  0.83161084  0.00301921  0.16531221  1
  I  I73  1  0.83382526  0.00065446  0.49869969  1
  I  I74  1  0.83134841  0.00001567  0.83462470  1
  I  I75  1  0.83361503  0.32997970  0.17265099  1
  I  I76  1  0.82800926  0.32983674  0.49864448  1
  I  I77  1  0.82851543  0.33582064  0.83228954  1
  I  I78  1  0.83402171  0.66664956  0.16712510  1
  I  I79  1  0.83870355  0.66957824  0.50303124  1
  I  I80  1  0.82891120  0.66363233  0.83170903  1
  I  I81  1  0.17153565  0.16152900  -0.00419404  1
  I  I82  1  0.16969114  0.16466545  0.33339011  1
  I  I83  1  0.16624321  0.16117038  0.66996613  1
  I  I84  1  0.16398405  0.50226005  -0.00031400  1
  I  I85  1  0.16806253  0.49927763  0.33306280  1
  I  I86  1  0.16801461  0.50155158  0.66710384  1
  I  I87  1  0.17209077  0.83682896  -0.00155075  1
  I  I88  1  0.16173915  0.83261672  0.33404487  1
  I  I89  1  0.16654125  0.83706668  0.66754131  1
  I  I90  1  0.49804843  0.16577654  -0.00346323  1
  I  I91  1  0.50305916  0.16778417  0.33593380  1
  I  I92  1  0.50250102  0.16803429  0.66821267  1
  I  I93  1  0.50354191  0.49812004  -0.00250052  1
  I  I94  1  0.49975902  0.50009964  0.33076317  1
  I  I95  1  0.50314320  0.50170403  0.67026844  1
  I  I96  1  0.49523112  0.83797512  -0.00449878  1
  I  I97  1  0.49834565  0.83236999  0.33349403  1
  I  I98  1  0.49455652  0.82881268  0.67033365  1
  I  I99  1  0.83345581  0.16905050  0.00133042  1
  I  I100  1  0.82684777  0.16215960  0.33485351  1
  I  I101  1  0.83195488  0.16398773  0.66413429  1
  I  I102  1  0.83125776  0.49850500  -0.00336573  1
  I  I103  1  0.83149256  0.50189166  0.33327302  1
  I  I104  1  0.82615294  0.49780943  0.66996975  1
  I  I105  1  0.83437643  0.83437027  -0.00014040  1
  I  I106  1  0.83790703  0.83447504  0.33746947  1
  I  I107  1  0.83877950  0.84037489  0.66379607  1
  I  I108  1  -0.00341038  0.16655019  0.17161496  1
  I  I109  1  -0.00267967  0.16383870  0.49932280  1
  I  I110  1  0.00237580  0.16263426  0.83324839  1
  I  I111  1  -0.00003728  0.50000052  0.16457857  1
  I  I112  1  -0.00020767  0.49540972  0.50321128  1
  I  I113  1  -0.00218551  0.49895414  0.83196644  1
  I  I114  1  0.00328289  0.83403544  0.15945041  1
  I  I115  1  0.00033707  0.83976484  0.50347562  1
  I  I116  1  0.00312700  0.83683198  0.83386168  1
  I  I117  1  0.33318297  0.16737600  0.16893113  1
  I  I118  1  0.33581576  0.16635301  0.50376497  1
  I  I119  1  0.33471887  0.16777337  0.82824838  1
  I  I120  1  0.33716446  0.49807333  0.15729587  1
  I  I121  1  0.33365919  0.50031912  0.50304549  1
  I  I122  1  0.33675756  0.50014808  0.83660491  1
  I  I123  1  0.33017029  0.83400041  0.17138380  1
  I  I124  1  0.33069736  0.83398115  0.49953817  1
  I  I125  1  0.33300178  0.83191111  0.83097904  1
  I  I126  1  0.66928332  0.16667651  0.16558251  1
  I  I127  1  0.66708301  0.16122292  0.50315482  1
  I  I128  1  0.66383074  0.16521383  0.83218049  1
  I  I129  1  0.66359804  0.50072332  0.16263735  1
  I  I130  1  0.66648343  0.50535173  0.49965956  1
  I  I131  1  0.66473221  0.49925277  0.83624253  1
  I  I132  1  0.66667321  0.83303935  0.16628781  1
  I  I133  1  0.66908511  0.83592807  0.50307354  1
  I  I134  1  0.66382130  0.83585116  0.83098151  1
