# generated using pymatgen
data_Cs27Sn14Pb13I81
_symmetry_space_group_name_H-M   'P 1'
_cell_length_a   18.99425062
_cell_length_b   18.96673915
_cell_length_c   18.97185468
_cell_angle_alpha   89.99952421
_cell_angle_beta   89.99960606
_cell_angle_gamma   90.00029764
_symmetry_Int_Tables_number   1
_chemical_formula_structural   Cs27Sn14Pb13I81
_chemical_formula_sum   'Cs27 Sn14 Pb13 I81'
_cell_volume   6834.78133451
_cell_formula_units_Z   1
loop_
 _symmetry_equiv_pos_site_id
 _symmetry_equiv_pos_as_xyz
  1  'x, y, z'
loop_
 _atom_site_type_symbol
 _atom_site_label
 _atom_site_symmetry_multiplicity
 _atom_site_fract_x
 _atom_site_fract_y
 _atom_site_fract_z
 _atom_site_occupancy
  Cs  Cs0  1  -0.00024795  0.00105826  0.00018583  1
  Cs  Cs1  1  -0.00152077  -0.00261900  0.33606391  1
  Cs  Cs2  1  0.00206336  0.00018491  0.66372075  1
  Cs  Cs3  1  0.00182714  0.33588219  -0.00185390  1
  Cs  Cs4  1  -0.00020506  0.33462795  0.33346078  1
  Cs  Cs5  1  0.00393027  0.33310053  0.66840146  1
  Cs  Cs6  1  -0.00217357  0.66216544  0.00186286  1
  Cs  Cs7  1  -0.00357582  0.66796245  0.33443596  1
  Cs  Cs8  1  -0.00060307  0.66698787  0.66371526  1
  Cs  Cs9  1  0.33409118  -0.00056922  0.00079163  1
  Cs  Cs10  1  0.33395684  0.00011456  0.32990411  1
  Cs  Cs11  1  0.33232793  -0.00042243  0.66790537  1
  Cs  Cs12  1  0.33049323  0.33766262  0.00060744  1
  Cs  Cs13  1  0.33467698  0.33386056  0.33283970  1
  Cs  Cs14  1  0.32846919  0.33146229  0.66680337  1
  Cs  Cs15  1  0.33401090  0.66699781  0.00028447  1
  Cs  Cs16  1  0.33343792  0.66585198  0.33437439  1
  Cs  Cs17  1  0.33567344  0.66806332  0.66530493  1
  Cs  Cs18  1  0.66648212  -0.00004848  -0.00077966  1
  Cs  Cs19  1  0.66790893  0.00201407  0.33198644  1
  Cs  Cs20  1  0.66628003  0.00073782  0.67058104  1
  Cs  Cs21  1  0.66723225  0.33354916  -0.00019129  1
  Cs  Cs22  1  0.66533419  0.33113946  0.33542954  1
  Cs  Cs23  1  0.66750597  0.33348311  0.66486013  1
  Cs  Cs24  1  0.66814586  0.66259940  -0.00052204  1
  Cs  Cs25  1  0.66857000  0.66665092  0.33253355  1
  Cs  Cs26  1  0.66413532  0.66540452  0.66779644  1
  Sn  Sn27  1  0.50014309  0.83394979  0.83384599  1
  Sn  Sn28  1  0.16710274  0.83405229  0.16584606  1
  Sn  Sn29  1  0.16678296  0.16580415  0.16656266  1
  Sn  Sn30  1  0.49967746  0.83383158  0.16645093  1
  Sn  Sn31  1  0.50019255  0.83309345  0.49967798  1
  Sn  Sn32  1  0.16702136  0.50023405  0.49990642  1
  Sn  Sn33  1  0.83335252  0.83394585  0.83352518  1
  Sn  Sn34  1  0.83272224  0.16569512  0.83422236  1
  Sn  Sn35  1  0.83301869  0.49996495  0.50011694  1
  Sn  Sn36  1  0.49989182  0.50056547  0.50003073  1
  Sn  Sn37  1  0.49987641  0.16591541  0.16525700  1
  Sn  Sn38  1  0.50039625  0.16615172  0.83442500  1
  Sn  Sn39  1  0.16659084  0.83339337  0.83420671  1
  Sn  Sn40  1  0.83328851  0.16635004  0.16584604  1
  Pb  Pb41  1  0.16873251  0.83200110  0.49940646  1
  Pb  Pb42  1  0.16690933  0.16461175  0.83543214  1
  Pb  Pb43  1  0.83313605  0.83508286  0.16456896  1
  Pb  Pb44  1  0.16677304  0.50088865  0.16845628  1
  Pb  Pb45  1  0.49988146  0.49938121  0.83131221  1
  Pb  Pb46  1  0.16675997  0.16848132  0.49692748  1
  Pb  Pb47  1  0.83049908  0.83188729  0.50269323  1
  Pb  Pb48  1  0.49993110  0.16601784  0.50041551  1
  Pb  Pb49  1  0.83336059  0.16830458  0.50079261  1
  Pb  Pb50  1  0.50006640  0.50014208  0.16866725  1
  Pb  Pb51  1  0.16681712  0.50340106  0.83129016  1
  Pb  Pb52  1  0.83322965  0.49941806  0.83151961  1
  Pb  Pb53  1  0.83316241  0.49682812  0.16870186  1
  I  I54  1  0.16888619  -0.00052468  0.16359903  1
  I  I55  1  0.16832532  -0.00040152  0.50175966  1
  I  I56  1  0.16773919  -0.00359424  0.83296168  1
  I  I57  1  0.16751099  0.33023611  0.16939262  1
  I  I58  1  0.16992874  0.33691970  0.49920381  1
  I  I59  1  0.16634840  0.33308198  0.83317910  1
  I  I60  1  0.17299042  0.67056407  0.16383769  1
  I  I61  1  0.16532377  0.66391393  0.49881527  1
  I  I62  1  0.16797077  0.67182049  0.84003308  1
  I  I63  1  0.49897810  -0.00030671  0.16894244  1
  I  I64  1  0.49931173  -0.00328719  0.50031413  1
  I  I65  1  0.50101640  -0.00119723  0.83106678  1
  I  I66  1  0.49953327  0.32959260  0.16411588  1
  I  I67  1  0.50047796  0.33591030  0.49928160  1
  I  I68  1  0.50573057  0.32956142  0.83659711  1
  I  I69  1  0.49440653  0.67045171  0.16425731  1
  I  I70  1  0.49962569  0.66750767  0.50072699  1
  I  I71  1  0.50061933  0.67038744  0.83522815  1
  I  I72  1  0.83270659  0.00334945  0.16657290  1
  I  I73  1  0.83175811  -0.00010147  0.49829916  1
  I  I74  1  0.83088433  0.00016142  0.83636869  1
  I  I75  1  0.83296283  0.32832125  0.16029437  1
  I  I76  1  0.82962972  0.33655809  0.50046071  1
  I  I77  1  0.82772058  0.32953576  0.83586588  1
  I  I78  1  0.83381010  0.66694333  0.16605799  1
  I  I79  1  0.83549112  0.66376777  0.50139835  1
  I  I80  1  0.83195760  0.66983727  0.83097027  1
  I  I81  1  0.16692474  0.16563832  0.00354615  1
  I  I82  1  0.16765414  0.15993725  0.32844807  1
  I  I83  1  0.16642554  0.16702385  0.66705551  1
  I  I84  1  0.16603182  0.49811533  0.00015633  1
  I  I85  1  0.16757859  0.50107968  0.33656720  1
  I  I86  1  0.16728849  0.50063546  0.66304706  1
  I  I87  1  0.17243256  0.83729264  0.00035887  1
  I  I88  1  0.17189894  0.83589329  0.33010577  1
  I  I89  1  0.16774007  0.83078788  0.66931151  1
  I  I90  1  0.50125101  0.15812264  0.00041321  1
  I  I91  1  0.50042451  0.16447263  0.33009847  1
  I  I92  1  0.50599427  0.16393290  0.67000804  1
  I  I93  1  0.50025208  0.50245302  0.00000209  1
  I  I94  1  0.49983224  0.50366170  0.33702878  1
  I  I95  1  0.50036990  0.50496856  0.66299290  1
  I  I96  1  0.49854664  0.83897617  -0.00019893  1
  I  I97  1  0.49424054  0.83305142  0.33233785  1
  I  I98  1  0.50004003  0.83232416  0.66775857  1
  I  I99  1  0.83161709  0.16254233  -0.00028708  1
  I  I100  1  0.83201828  0.16936043  0.33023053  1
  I  I101  1  0.82688930  0.16431415  0.67049362  1
  I  I102  1  0.83365164  0.50185158  -0.00019626  1
  I  I103  1  0.83295823  0.49970803  0.33693871  1
  I  I104  1  0.83233776  0.49886422  0.66341844  1
  I  I105  1  0.82874894  0.83436880  -0.00356846  1
  I  I106  1  0.83381167  0.83343854  0.33326693  1
  I  I107  1  0.83443943  0.83954903  0.67085999  1
  I  I108  1  0.00003581  0.16375661  0.16392574  1
  I  I109  1  -0.00002342  0.16947319  0.50028344  1
  I  I110  1  -0.00262117  0.16341349  0.83644571  1
  I  I111  1  0.00001354  0.50068933  0.17114176  1
  I  I112  1  0.00005676  0.49833678  0.49986620  1
  I  I113  1  -0.00000462  0.49947218  0.82899415  1
  I  I114  1  0.00267572  0.83692477  0.16315906  1
  I  I115  1  -0.00009240  0.83045370  0.50004781  1
  I  I116  1  -0.00003947  0.83676413  0.83723990  1
  I  I117  1  0.33425263  0.16254466  0.16447381  1
  I  I118  1  0.33357413  0.17083006  0.50126326  1
  I  I119  1  0.33633426  0.16292733  0.83532349  1
  I  I120  1  0.33344301  0.49485362  0.17082663  1
  I  I121  1  0.33408551  0.50487722  0.49934722  1
  I  I122  1  0.33338885  0.49856917  0.82932449  1
  I  I123  1  0.33423291  0.84059326  0.16337834  1
  I  I124  1  0.33677437  0.82725283  0.50421568  1
  I  I125  1  0.33457574  0.83643901  0.83262018  1
  I  I126  1  0.66574524  0.16328383  0.16403482  1
  I  I127  1  0.66647265  0.17036198  0.49499332  1
  I  I128  1  0.66612992  0.15870939  0.84036129  1
  I  I129  1  0.66656314  0.50112573  0.17088434  1
  I  I130  1  0.66589759  0.50375012  0.50046302  1
  I  I131  1  0.66654243  0.50452641  0.82914653  1
  I  I132  1  0.66341217  0.83676754  0.16768713  1
  I  I133  1  0.66240069  0.82745409  0.49844340  1
  I  I134  1  0.66558827  0.83718158  0.83170853  1
