# generated using pymatgen
data_Cs27Sn13Pb14I81
_symmetry_space_group_name_H-M   'P 1'
_cell_length_a   19.00202757
_cell_length_b   18.99230040
_cell_length_c   18.98305344
_cell_angle_alpha   89.99867114
_cell_angle_beta   90.00046742
_cell_angle_gamma   89.99902396
_symmetry_Int_Tables_number   1
_chemical_formula_structural   Cs27Sn13Pb14I81
_chemical_formula_sum   'Cs27 Sn13 Pb14 I81'
_cell_volume   6850.83621506
_cell_formula_units_Z   1
loop_
 _symmetry_equiv_pos_site_id
 _symmetry_equiv_pos_as_xyz
  1  'x, y, z'
loop_
 _atom_site_type_symbol
 _atom_site_label
 _atom_site_symmetry_multiplicity
 _atom_site_fract_x
 _atom_site_fract_y
 _atom_site_fract_z
 _atom_site_occupancy
  Cs  Cs0  1  -0.00105711  -0.00092516  -0.00017688  1
  Cs  Cs1  1  -0.00002363  -0.00196761  0.33225988  1
  Cs  Cs2  1  0.00199931  0.00050358  0.67302914  1
  Cs  Cs3  1  -0.00027091  0.34189866  -0.00556135  1
  Cs  Cs4  1  -0.00057350  0.33362984  0.33432556  1
  Cs  Cs5  1  0.00215853  0.32930238  0.66841475  1
  Cs  Cs6  1  0.00116731  0.66023583  -0.00612702  1
  Cs  Cs7  1  -0.00038623  0.66885396  0.33413492  1
  Cs  Cs8  1  -0.00002339  0.66982829  0.66689845  1
  Cs  Cs9  1  0.33247530  -0.00178267  0.00358510  1
  Cs  Cs10  1  0.33182969  -0.00073089  0.33162331  1
  Cs  Cs11  1  0.33103520  0.00006034  0.66919060  1
  Cs  Cs12  1  0.33393857  0.34081541  0.00011694  1
  Cs  Cs13  1  0.33192548  0.33159709  0.33495307  1
  Cs  Cs14  1  0.33204930  0.33040248  0.66471294  1
  Cs  Cs15  1  0.34011570  0.65782782  -0.00793798  1
  Cs  Cs16  1  0.33312099  0.66959713  0.33236659  1
  Cs  Cs17  1  0.33460371  0.66966318  0.67029797  1
  Cs  Cs18  1  0.66821843  0.00117725  0.00115713  1
  Cs  Cs19  1  0.66773785  -0.00010474  0.33270417  1
  Cs  Cs20  1  0.66691805  -0.00057149  0.66749820  1
  Cs  Cs21  1  0.66766069  0.33648546  -0.00232739  1
  Cs  Cs22  1  0.66812036  0.33185005  0.33490829  1
  Cs  Cs23  1  0.66661271  0.33208864  0.66398023  1
  Cs  Cs24  1  0.65836997  0.65708162  -0.00818184  1
  Cs  Cs25  1  0.66697513  0.66906052  0.33376533  1
  Cs  Cs26  1  0.66487273  0.66924386  0.66801080  1
  Sn  Sn27  1  0.16580686  0.16652770  0.16696898  1
  Sn  Sn28  1  0.83300095  0.16613864  0.49920310  1
  Sn  Sn29  1  0.83351432  0.50006361  0.49937868  1
  Sn  Sn30  1  0.49986382  0.49947601  0.49918063  1
  Sn  Sn31  1  0.50055583  0.16691548  0.49976037  1
  Sn  Sn32  1  0.83396588  0.83330606  0.16684082  1
  Sn  Sn33  1  0.16569450  0.83341516  0.16699056  1
  Sn  Sn34  1  0.83403551  0.16632031  0.16746666  1
  Sn  Sn35  1  0.16578182  0.83292522  0.49902429  1
  Sn  Sn36  1  0.16664218  0.50119751  0.49924779  1
  Sn  Sn37  1  0.49994301  0.16617177  0.83345954  1
  Sn  Sn38  1  0.83437649  0.83394856  0.49921071  1
  Sn  Sn39  1  0.50025673  0.16667398  0.16675152  1
  Pb  Pb40  1  0.16668580  0.49990574  0.82945684  1
  Pb  Pb41  1  0.16652494  0.50098045  0.16881225  1
  Pb  Pb42  1  0.83167493  0.16651827  0.83384604  1
  Pb  Pb43  1  0.83326758  0.49991371  0.82956559  1
  Pb  Pb44  1  0.16654868  0.83352478  0.83453999  1
  Pb  Pb45  1  0.50007616  0.49695873  0.82959602  1
  Pb  Pb46  1  0.49997749  0.83399444  0.49996359  1
  Pb  Pb47  1  0.16916291  0.16651437  0.83762781  1
  Pb  Pb48  1  0.83339979  0.50063912  0.16857621  1
  Pb  Pb49  1  0.50014336  0.49731799  0.16972292  1
  Pb  Pb50  1  0.50041929  0.83476609  0.16661474  1
  Pb  Pb51  1  0.50013349  0.83619736  0.83359705  1
  Pb  Pb52  1  0.16626375  0.16590665  0.49854902  1
  Pb  Pb53  1  0.83328495  0.83349029  0.83456235  1
  I  I54  1  0.16753945  0.00027862  0.17395267  1
  I  I55  1  0.16467701  -0.00277258  0.49768223  1
  I  I56  1  0.16883830  0.00016470  0.82558023  1
  I  I57  1  0.16795025  0.33046369  0.16886206  1
  I  I58  1  0.16531373  0.33503652  0.49856750  1
  I  I59  1  0.16662010  0.33311048  0.83255512  1
  I  I60  1  0.15969028  0.67052866  0.17126425  1
  I  I61  1  0.16381527  0.66727314  0.49421987  1
  I  I62  1  0.16825255  0.66665397  0.83758457  1
  I  I63  1  0.49971366  0.00411087  0.17148859  1
  I  I64  1  0.50327739  0.00380059  0.49945165  1
  I  I65  1  0.50064049  0.00451615  0.82837510  1
  I  I66  1  0.49997747  0.32821353  0.16475398  1
  I  I67  1  0.50273851  0.33197812  0.49970839  1
  I  I68  1  0.50046920  0.32948061  0.83670810  1
  I  I69  1  0.49948176  0.66647604  0.16789563  1
  I  I70  1  0.50266548  0.66403584  0.50029098  1
  I  I71  1  0.49974613  0.66594417  0.83265581  1
  I  I72  1  0.83295255  0.00107780  0.17523999  1
  I  I73  1  0.83169470  0.00042467  0.49600760  1
  I  I74  1  0.83108426  0.00010269  0.82647211  1
  I  I75  1  0.83229977  0.32989120  0.17156338  1
  I  I76  1  0.83173735  0.33255650  0.49634189  1
  I  I77  1  0.83298736  0.33313041  0.83394245  1
  I  I78  1  0.84074019  0.67046416  0.17373765  1
  I  I79  1  0.83354188  0.66720497  0.49605913  1
  I  I80  1  0.83226903  0.66668179  0.83381403  1
  I  I81  1  0.16520803  0.15873269  0.00582711  1
  I  I82  1  0.17195828  0.16610562  0.33067455  1
  I  I83  1  0.16716648  0.16724814  0.66660223  1
  I  I84  1  0.16744914  0.49953211  0.00008401  1
  I  I85  1  0.16673578  0.50000538  0.33731677  1
  I  I86  1  0.16664190  0.50491499  0.66080135  1
  I  I87  1  0.16166526  0.84182736  0.00433038  1
  I  I88  1  0.16289439  0.83384154  0.33401354  1
  I  I89  1  0.16297145  0.82901143  0.66323710  1
  I  I90  1  0.49979800  0.16250035  0.00112797  1
  I  I91  1  0.50127822  0.17106427  0.33375782  1
  I  I92  1  0.50512628  0.17141160  0.66480794  1
  I  I93  1  0.49925401  0.49979259  -0.00028396  1
  I  I94  1  0.50059721  0.49331626  0.33782755  1
  I  I95  1  0.50061228  0.49385952  0.66167979  1
  I  I96  1  0.49988011  0.83613234  0.00036926  1
  I  I97  1  0.49918093  0.83527607  0.33355320  1
  I  I98  1  0.49997088  0.83547892  0.66612390  1
  I  I99  1  0.83203369  0.16017625  0.00401436  1
  I  I100  1  0.82788624  0.16647921  0.33419490  1
  I  I101  1  0.82869835  0.16724679  0.66293082  1
  I  I102  1  0.83334278  0.49934424  0.00007705  1
  I  I103  1  0.83282483  0.49827010  0.33753120  1
  I  I104  1  0.83271988  0.49900859  0.66052935  1
  I  I105  1  0.83847317  0.84322022  0.00442800  1
  I  I106  1  0.83721009  0.83512027  0.33462828  1
  I  I107  1  0.83693280  0.83349570  0.66265076  1
  I  I108  1  -0.00087152  0.16188249  0.17506205  1
  I  I109  1  -0.00301251  0.17006300  0.49527523  1
  I  I110  1  0.00012699  0.16657558  0.83098370  1
  I  I111  1  -0.00002097  0.49237251  0.16986541  1
  I  I112  1  -0.00038078  0.49971357  0.49874673  1
  I  I113  1  0.00004596  0.49869087  0.83293123  1
  I  I114  1  -0.00022753  0.84471992  0.17407292  1
  I  I115  1  -0.00058662  0.82989955  0.49615548  1
  I  I116  1  -0.00003637  0.83512557  0.83071883  1
  I  I117  1  0.33349767  0.16248301  0.16822822  1
  I  I118  1  0.33584936  0.17037768  0.49915145  1
  I  I119  1  0.33706139  0.16678407  0.82781545  1
  I  I120  1  0.33331037  0.49887465  0.17073798  1
  I  I121  1  0.33340012  0.49780393  0.49916737  1
  I  I122  1  0.33359977  0.49927857  0.83202162  1
  I  I123  1  0.33013746  0.84009703  0.17367002  1
  I  I124  1  0.33023536  0.83062858  0.49590079  1
  I  I125  1  0.33316223  0.83430838  0.83114466  1
  I  I126  1  0.66707593  0.16243914  0.16867105  1
  I  I127  1  0.66683703  0.16980453  0.49651432  1
  I  I128  1  0.66365536  0.16723740  0.83571588  1
  I  I129  1  0.66674935  0.50077732  0.16977739  1
  I  I130  1  0.66699875  0.49758490  0.49963795  1
  I  I131  1  0.66637847  0.49984808  0.83268321  1
  I  I132  1  0.67036778  0.83962650  0.17456086  1
  I  I133  1  0.67000919  0.83155708  0.49583817  1
  I  I134  1  0.66684198  0.83337745  0.83120683  1
