# generated using pymatgen
data_Cs27Sn13Pb14I81
_symmetry_space_group_name_H-M   'P 1'
_cell_length_a   18.98248903
_cell_length_b   18.97210237
_cell_length_c   18.97832695
_cell_angle_alpha   90.00008321
_cell_angle_beta   90.00109112
_cell_angle_gamma   90.00052267
_symmetry_Int_Tables_number   1
_chemical_formula_structural   Cs27Sn13Pb14I81
_chemical_formula_sum   'Cs27 Sn13 Pb14 I81'
_cell_volume   6834.81149361
_cell_formula_units_Z   1
loop_
 _symmetry_equiv_pos_site_id
 _symmetry_equiv_pos_as_xyz
  1  'x, y, z'
loop_
 _atom_site_type_symbol
 _atom_site_label
 _atom_site_symmetry_multiplicity
 _atom_site_fract_x
 _atom_site_fract_y
 _atom_site_fract_z
 _atom_site_occupancy
  Cs  Cs0  1  0.00089023  0.00036394  0.00013826  1
  Cs  Cs1  1  -0.00046921  -0.00111216  0.33148562  1
  Cs  Cs2  1  -0.00108574  0.00106592  0.66832165  1
  Cs  Cs3  1  -0.00041972  0.33328895  0.00135689  1
  Cs  Cs4  1  0.00316686  0.33554172  0.33153853  1
  Cs  Cs5  1  -0.00019438  0.32722039  0.66702930  1
  Cs  Cs6  1  -0.00106995  0.66611172  -0.00035213  1
  Cs  Cs7  1  -0.00085109  0.66493018  0.33241573  1
  Cs  Cs8  1  -0.00110621  0.66770424  0.66712269  1
  Cs  Cs9  1  0.33699281  0.00080121  0.00211063  1
  Cs  Cs10  1  0.33546464  0.00118576  0.33101781  1
  Cs  Cs11  1  0.33168124  0.00290388  0.66760797  1
  Cs  Cs12  1  0.33710380  0.33260063  -0.00249088  1
  Cs  Cs13  1  0.33243326  0.33507019  0.33519207  1
  Cs  Cs14  1  0.33096910  0.32656359  0.66747293  1
  Cs  Cs15  1  0.33403234  0.66741229  -0.00480771  1
  Cs  Cs16  1  0.33192236  0.66378170  0.33662339  1
  Cs  Cs17  1  0.33408154  0.66680745  0.66690791  1
  Cs  Cs18  1  0.65778497  0.00037491  0.00475499  1
  Cs  Cs19  1  0.66341927  0.00170363  0.33088031  1
  Cs  Cs20  1  0.67052257  0.00533185  0.66532377  1
  Cs  Cs21  1  0.66369913  0.33315405  -0.00234933  1
  Cs  Cs22  1  0.66466599  0.33318953  0.33411461  1
  Cs  Cs23  1  0.66842164  0.33109604  0.66791832  1
  Cs  Cs24  1  0.66623528  0.66777271  -0.00022774  1
  Cs  Cs25  1  0.66817784  0.66649401  0.33444659  1
  Cs  Cs26  1  0.66766138  0.66569169  0.66567721  1
  Sn  Sn27  1  0.83377706  0.83269731  0.83298000  1
  Sn  Sn28  1  0.16566695  0.16621120  0.16670631  1
  Sn  Sn29  1  0.16563047  0.50063278  0.83300281  1
  Sn  Sn30  1  0.16587218  0.83251838  0.83329441  1
  Sn  Sn31  1  0.83325707  0.83260322  0.50046456  1
  Sn  Sn32  1  0.83386909  0.16664883  0.16672267  1
  Sn  Sn33  1  0.83305069  0.50059428  0.50070608  1
  Sn  Sn34  1  0.50073728  0.50080814  0.49951816  1
  Sn  Sn35  1  0.83448221  0.50087771  0.83240079  1
  Sn  Sn36  1  0.50007708  0.50090354  0.16734364  1
  Sn  Sn37  1  0.50028095  0.83268627  0.50032777  1
  Sn  Sn38  1  0.16646884  0.83304227  0.50011230  1
  Sn  Sn39  1  0.16630203  0.83351414  0.16658777  1
  Pb  Pb40  1  0.50016252  0.16629652  0.83308106  1
  Pb  Pb41  1  0.83486935  0.83472517  0.16652060  1
  Pb  Pb42  1  0.49938431  0.16928474  0.16696637  1
  Pb  Pb43  1  0.83355358  0.16676905  0.49765553  1
  Pb  Pb44  1  0.50043864  0.50018914  0.83186216  1
  Pb  Pb45  1  0.83166160  0.49832562  0.16656071  1
  Pb  Pb46  1  0.16859244  0.50039091  0.16422021  1
  Pb  Pb47  1  0.16626126  0.50168798  0.50250619  1
  Pb  Pb48  1  0.50009294  0.16702652  0.50003616  1
  Pb  Pb49  1  0.50047782  0.83339005  0.83040335  1
  Pb  Pb50  1  0.49717831  0.83079710  0.16917284  1
  Pb  Pb51  1  0.83337950  0.16610998  0.83584612  1
  Pb  Pb52  1  0.16644856  0.16597606  0.83576588  1
  Pb  Pb53  1  0.16641554  0.16352349  0.49734389  1
  I  I54  1  0.16280811  -0.00123073  0.16581638  1
  I  I55  1  0.16646621  -0.00538276  0.50583815  1
  I  I56  1  0.16221013  -0.00398099  0.83041818  1
  I  I57  1  0.16452385  0.33120709  0.16455998  1
  I  I58  1  0.16749167  0.33354482  0.50003928  1
  I  I59  1  0.16366623  0.33616792  0.83484150  1
  I  I60  1  0.16830463  0.66977095  0.16846117  1
  I  I61  1  0.16696098  0.67031506  0.49456116  1
  I  I62  1  0.16322758  0.66802972  0.83612227  1
  I  I63  1  0.50126603  -0.00027955  0.16748316  1
  I  I64  1  0.50015401  -0.00373063  0.50069779  1
  I  I65  1  0.49961054  -0.00077622  0.83301193  1
  I  I66  1  0.49826368  0.33690045  0.17283210  1
  I  I67  1  0.50515136  0.33728889  0.49605366  1
  I  I68  1  0.49916891  0.33403518  0.83292917  1
  I  I69  1  0.49984650  0.66333597  0.16829760  1
  I  I70  1  0.50056840  0.66667840  0.49550648  1
  I  I71  1  0.49814570  0.66666532  0.83739585  1
  I  I72  1  0.83547153  0.00254203  0.16702039  1
  I  I73  1  0.83329035  -0.00381387  0.50394431  1
  I  I74  1  0.83893359  -0.00379755  0.82788210  1
  I  I75  1  0.83989809  0.33061138  0.16697241  1
  I  I76  1  0.82750133  0.33694156  0.50366896  1
  I  I77  1  0.83650988  0.33669913  0.82962916  1
  I  I78  1  0.83388520  0.66665413  0.16683966  1
  I  I79  1  0.83236414  0.66729282  0.50267251  1
  I  I80  1  0.83790532  0.66680330  0.83017762  1
  I  I81  1  0.16299475  0.16131498  0.00348513  1
  I  I82  1  0.16310374  0.16258668  0.32936583  1
  I  I83  1  0.16833698  0.16680840  0.66682612  1
  I  I84  1  0.16250693  0.50542875  -0.00347109  1
  I  I85  1  0.16523040  0.50055689  0.33346538  1
  I  I86  1  0.16788248  0.50635970  0.67030792  1
  I  I87  1  0.16134835  0.83325508  -0.00071449  1
  I  I88  1  0.16686213  0.83833323  0.33380090  1
  I  I89  1  0.16665699  0.82739358  0.66678669  1
  I  I90  1  0.50050420  0.16892593  0.00065060  1
  I  I91  1  0.50005657  0.16475624  0.33327296  1
  I  I92  1  0.49961749  0.16918482  0.66623422  1
  I  I93  1  0.49901472  0.49718934  0.00165177  1
  I  I94  1  0.50464128  0.50338097  0.33483700  1
  I  I95  1  0.50140735  0.50583349  0.66308178  1
  I  I96  1  0.50001323  0.83288931  0.00011927  1
  I  I97  1  0.50148676  0.83185197  0.33725313  1
  I  I98  1  0.49517495  0.82494393  0.66236223  1
  I  I99  1  0.83831501  0.16752601  0.00332283  1
  I  I100  1  0.83759286  0.16611955  0.33007614  1
  I  I101  1  0.83212644  0.16671519  0.66669022  1
  I  I102  1  0.83551807  0.50321809  -0.00306357  1
  I  I103  1  0.83084936  0.50370949  0.33633697  1
  I  I104  1  0.83075966  0.50429619  0.66631107  1
  I  I105  1  0.83938488  0.82954415  -0.00304888  1
  I  I106  1  0.83462428  0.83017474  0.33653962  1
  I  I107  1  0.83775962  0.82961449  0.66609754  1
  I  I108  1  0.00087003  0.16336811  0.16664036  1
  I  I109  1  -0.00003607  0.16762800  0.49990765  1
  I  I110  1  -0.00004476  0.16759579  0.83304716  1
  I  I111  1  0.00013547  0.50018595  0.16881056  1
  I  I112  1  -0.00303384  0.50448811  0.50110975  1
  I  I113  1  -0.00081961  0.50461452  0.82974050  1
  I  I114  1  0.00321423  0.83393106  0.17083009  1
  I  I115  1  -0.00032802  0.82990529  0.50023566  1
  I  I116  1  0.00039751  0.82944530  0.82888362  1
  I  I117  1  0.33027400  0.16179017  0.16601001  1
  I  I118  1  0.33317549  0.16770478  0.49767588  1
  I  I119  1  0.33275541  0.16811069  0.83591079  1
  I  I120  1  0.33616823  0.49892340  0.17250988  1
  I  I121  1  0.33567618  0.50462356  0.49652981  1
  I  I122  1  0.33065398  0.50435263  0.83508197  1
  I  I123  1  0.32898944  0.83981296  0.16503031  1
  I  I124  1  0.33297806  0.82923436  0.49883266  1
  I  I125  1  0.32995255  0.82932412  0.83329390  1
  I  I126  1  0.66887643  0.16755069  0.16636860  1
  I  I127  1  0.66694675  0.16179103  0.49631617  1
  I  I128  1  0.66731464  0.16733411  0.83709404  1
  I  I129  1  0.66395854  0.49777062  0.16670687  1
  I  I130  1  0.66735867  0.50784577  0.50053167  1
  I  I131  1  0.67010244  0.50419140  0.83326113  1
  I  I132  1  0.66652907  0.83571531  0.16594723  1
  I  I133  1  0.66763140  0.82879112  0.50423884  1
  I  I134  1  0.67042208  0.82828770  0.82986694  1
