# generated using pymatgen
data_Cs27Sn13Pb14I81
_symmetry_space_group_name_H-M   'P 1'
_cell_length_a   18.99816405
_cell_length_b   18.98889994
_cell_length_c   18.98784060
_cell_angle_alpha   90.00023397
_cell_angle_beta   90.00114493
_cell_angle_gamma   90.00059341
_symmetry_Int_Tables_number   1
_chemical_formula_structural   Cs27Sn13Pb14I81
_chemical_formula_sum   'Cs27 Sn13 Pb14 I81'
_cell_volume   6849.94393026
_cell_formula_units_Z   1
loop_
 _symmetry_equiv_pos_site_id
 _symmetry_equiv_pos_as_xyz
  1  'x, y, z'
loop_
 _atom_site_type_symbol
 _atom_site_label
 _atom_site_symmetry_multiplicity
 _atom_site_fract_x
 _atom_site_fract_y
 _atom_site_fract_z
 _atom_site_occupancy
  Cs  Cs0  1  0.00137626  0.00148684  0.00424274  1
  Cs  Cs1  1  -0.00326447  -0.00074248  0.32967997  1
  Cs  Cs2  1  -0.00826119  0.00582297  0.66458548  1
  Cs  Cs3  1  -0.00053544  0.33581993  -0.00091864  1
  Cs  Cs4  1  0.00225855  0.33466542  0.33514534  1
  Cs  Cs5  1  0.00181478  0.32522243  0.66367660  1
  Cs  Cs6  1  0.00276030  0.66385016  -0.00255453  1
  Cs  Cs7  1  0.00173256  0.66689164  0.33528101  1
  Cs  Cs8  1  -0.00260868  0.66717393  0.66721005  1
  Cs  Cs9  1  0.33370755  -0.00132643  0.00059506  1
  Cs  Cs10  1  0.33398507  -0.00417657  0.32965400  1
  Cs  Cs11  1  0.33442433  0.00226201  0.66932237  1
  Cs  Cs12  1  0.33223305  0.33386714  -0.00132291  1
  Cs  Cs13  1  0.33401189  0.33759858  0.34078307  1
  Cs  Cs14  1  0.33251362  0.32809475  0.66028826  1
  Cs  Cs15  1  0.33233898  0.66811149  -0.00233052  1
  Cs  Cs16  1  0.33310808  0.66734505  0.33612270  1
  Cs  Cs17  1  0.33268488  0.66636139  0.66854514  1
  Cs  Cs18  1  0.66431772  0.00035825  0.00210572  1
  Cs  Cs19  1  0.66853233  -0.00038986  0.33192784  1
  Cs  Cs20  1  0.67334229  0.00398435  0.66426517  1
  Cs  Cs21  1  0.66989931  0.33761566  0.00144509  1
  Cs  Cs22  1  0.66293966  0.33869392  0.33211938  1
  Cs  Cs23  1  0.66677038  0.32212432  0.66593463  1
  Cs  Cs24  1  0.66691500  0.66274181  -0.00175093  1
  Cs  Cs25  1  0.66575860  0.66361843  0.33346666  1
  Cs  Cs26  1  0.67019736  0.66989594  0.66981281  1
  Sn  Sn27  1  0.16699363  0.83317514  0.83177678  1
  Sn  Sn28  1  0.16731666  0.16834928  0.16662091  1
  Sn  Sn29  1  0.16723370  0.49925364  0.16635974  1
  Sn  Sn30  1  0.83317686  0.50024668  0.50049071  1
  Sn  Sn31  1  0.49912421  0.50029162  0.83286763  1
  Sn  Sn32  1  0.49941215  0.83282278  0.83298527  1
  Sn  Sn33  1  0.16790982  0.50042087  0.83348823  1
  Sn  Sn34  1  0.83302187  0.16646468  0.16667562  1
  Sn  Sn35  1  0.16706012  0.83354427  0.50185667  1
  Sn  Sn36  1  0.83216643  0.83290691  0.16612088  1
  Sn  Sn37  1  0.49973589  0.16663679  0.16647774  1
  Sn  Sn38  1  0.50112447  0.83336419  0.16653670  1
  Sn  Sn39  1  0.49943455  0.83315811  0.50046556  1
  Pb  Pb40  1  0.16680108  0.16629675  0.83524223  1
  Pb  Pb41  1  0.83331710  0.16664899  0.83644405  1
  Pb  Pb42  1  0.83315870  0.83219093  0.49765411  1
  Pb  Pb43  1  0.49985964  0.16354124  0.49697971  1
  Pb  Pb44  1  0.83321041  0.16941768  0.49659969  1
  Pb  Pb45  1  0.83347857  0.83341197  0.83611267  1
  Pb  Pb46  1  0.50190868  0.50253538  0.50364908  1
  Pb  Pb47  1  0.16707510  0.83308474  0.16618360  1
  Pb  Pb48  1  0.83371592  0.49987919  0.83058228  1
  Pb  Pb49  1  0.16553171  0.50205398  0.50117023  1
  Pb  Pb50  1  0.83573984  0.50017803  0.16787904  1
  Pb  Pb51  1  0.49988502  0.16628562  0.83570283  1
  Pb  Pb52  1  0.16688293  0.16292989  0.49700262  1
  Pb  Pb53  1  0.49750323  0.50051705  0.16503717  1
  I  I54  1  0.16588051  0.00181480  0.16728769  1
  I  I55  1  0.17025011  -0.00500043  0.50419934  1
  I  I56  1  0.17246937  -0.00362929  0.83254093  1
  I  I57  1  0.16500606  0.33329315  0.16027110  1
  I  I58  1  0.16401562  0.33322418  0.50126517  1
  I  I59  1  0.17010594  0.33658714  0.83752984  1
  I  I60  1  0.16583191  0.66474581  0.16576781  1
  I  I61  1  0.16972803  0.66986114  0.49590746  1
  I  I62  1  0.17056713  0.66704062  0.83776332  1
  I  I63  1  0.49845391  -0.00136185  0.16504635  1
  I  I64  1  0.49691767  -0.00484996  0.50475859  1
  I  I65  1  0.49455163  -0.00388940  0.83348980  1
  I  I66  1  0.50347614  0.33091876  0.16356049  1
  I  I67  1  0.50189525  0.33349479  0.49941703  1
  I  I68  1  0.49611627  0.33633769  0.83653074  1
  I  I69  1  0.50334084  0.67014292  0.16820005  1
  I  I70  1  0.49651535  0.67058314  0.49216894  1
  I  I71  1  0.49582616  0.66828463  0.83703862  1
  I  I72  1  0.83575566  -0.00021749  0.16743212  1
  I  I73  1  0.83357787  0.00006807  0.50051276  1
  I  I74  1  0.83379495  -0.00036353  0.83007972  1
  I  I75  1  0.83071509  0.33059595  0.16826707  1
  I  I76  1  0.83529279  0.33674388  0.49879903  1
  I  I77  1  0.83254612  0.33364944  0.83563821  1
  I  I78  1  0.82958572  0.66920979  0.16851364  1
  I  I79  1  0.83420273  0.66489530  0.49559457  1
  I  I80  1  0.83322194  0.66671106  0.83734865  1
  I  I81  1  0.16621858  0.16432006  0.00393519  1
  I  I82  1  0.16632568  0.17146029  0.32850415  1
  I  I83  1  0.16598902  0.16989236  0.66649625  1
  I  I84  1  0.16834430  0.50308355  -0.00023680  1
  I  I85  1  0.16393934  0.49780178  0.33119214  1
  I  I86  1  0.16908035  0.50461743  0.67014240  1
  I  I87  1  0.16958489  0.83242678  -0.00225391  1
  I  I88  1  0.16936150  0.83352420  0.33470894  1
  I  I89  1  0.17532572  0.82528471  0.66768013  1
  I  I90  1  0.49976371  0.15917514  0.00404589  1
  I  I91  1  0.50015015  0.16149050  0.32851676  1
  I  I92  1  0.50039272  0.16702210  0.66664860  1
  I  I93  1  0.49911912  0.50622185  -0.00265346  1
  I  I94  1  0.49973504  0.50027000  0.33347109  1
  I  I95  1  0.49261659  0.50664414  0.67131680  1
  I  I96  1  0.49900267  0.83430655  0.00021050  1
  I  I97  1  0.49912484  0.83878207  0.33258684  1
  I  I98  1  0.49392525  0.82628116  0.66731912  1
  I  I99  1  0.83352225  0.16317845  0.00505295  1
  I  I100  1  0.83419290  0.16048998  0.32875200  1
  I  I101  1  0.83369657  0.16759506  0.66610359  1
  I  I102  1  0.83261659  0.49921096  -0.00004913  1
  I  I103  1  0.83542696  0.50104665  0.33527951  1
  I  I104  1  0.83510626  0.50515160  0.66341564  1
  I  I105  1  0.83030239  0.83695066  0.00427589  1
  I  I106  1  0.83104664  0.83701088  0.32971160  1
  I  I107  1  0.83141628  0.83137040  0.66660604  1
  I  I108  1  0.00007455  0.16429668  0.16627574  1
  I  I109  1  0.00009197  0.16422368  0.49747800  1
  I  I110  1  0.00032449  0.16673050  0.83672983  1
  I  I111  1  0.00351654  0.49797109  0.16119581  1
  I  I112  1  -0.00187170  0.50431611  0.49839012  1
  I  I113  1  0.00361864  0.50573644  0.83832336  1
  I  I114  1  -0.00149713  0.83667509  0.16765864  1
  I  I115  1  0.00254033  0.83069308  0.50151570  1
  I  I116  1  0.00347321  0.82776415  0.83140425  1
  I  I117  1  0.33356704  0.16320160  0.16513147  1
  I  I118  1  0.33331851  0.17099224  0.49653073  1
  I  I119  1  0.33332853  0.16601879  0.83842029  1
  I  I120  1  0.32967936  0.49733389  0.16584798  1
  I  I121  1  0.33346513  0.49965563  0.49681966  1
  I  I122  1  0.33254520  0.50635023  0.83951515  1
  I  I123  1  0.33606419  0.83664845  0.16662313  1
  I  I124  1  0.33382007  0.83181160  0.49565102  1
  I  I125  1  0.33376957  0.82916224  0.83622685  1
  I  I126  1  0.66636713  0.15933595  0.16646110  1
  I  I127  1  0.66658000  0.16505817  0.49879193  1
  I  I128  1  0.66633573  0.16728057  0.83561190  1
  I  I129  1  0.66646307  0.49772204  0.16587602  1
  I  I130  1  0.66909595  0.50318516  0.49682578  1
  I  I131  1  0.66362107  0.50629723  0.83381841  1
  I  I132  1  0.66528973  0.84138019  0.16731779  1
  I  I133  1  0.66362896  0.83141418  0.50134204  1
  I  I134  1  0.66309174  0.82866785  0.83221629  1
