# generated using pymatgen
data_Cs27Sn13Pb14I81
_symmetry_space_group_name_H-M   'P 1'
_cell_length_a   18.97704723
_cell_length_b   18.97179866
_cell_length_c   18.98158013
_cell_angle_alpha   89.99800273
_cell_angle_beta   90.00102092
_cell_angle_gamma   90.00034505
_symmetry_Int_Tables_number   1
_chemical_formula_structural   Cs27Sn13Pb14I81
_chemical_formula_sum   'Cs27 Sn13 Pb14 I81'
_cell_volume   6833.91397675
_cell_formula_units_Z   1
loop_
 _symmetry_equiv_pos_site_id
 _symmetry_equiv_pos_as_xyz
  1  'x, y, z'
loop_
 _atom_site_type_symbol
 _atom_site_label
 _atom_site_symmetry_multiplicity
 _atom_site_fract_x
 _atom_site_fract_y
 _atom_site_fract_z
 _atom_site_occupancy
  Cs  Cs0  1  0.00056752  0.00016319  -0.00334571  1
  Cs  Cs1  1  -0.00087614  0.00239376  0.33494827  1
  Cs  Cs2  1  0.00564115  -0.00002320  0.66907077  1
  Cs  Cs3  1  -0.00127659  0.33680131  0.00048856  1
  Cs  Cs4  1  -0.00182721  0.33205966  0.33606490  1
  Cs  Cs5  1  -0.00155276  0.33340582  0.66431586  1
  Cs  Cs6  1  -0.00081660  0.66465148  0.00007533  1
  Cs  Cs7  1  0.00047527  0.66523565  0.33154816  1
  Cs  Cs8  1  0.00226787  0.66771436  0.66811690  1
  Cs  Cs9  1  0.33236985  0.00768367  0.00078460  1
  Cs  Cs10  1  0.33224538  0.00300004  0.32998417  1
  Cs  Cs11  1  0.32252608  0.00340152  0.67021575  1
  Cs  Cs12  1  0.33367764  0.32677445  -0.00204595  1
  Cs  Cs13  1  0.33300684  0.32720042  0.33866423  1
  Cs  Cs14  1  0.34217942  0.33249830  0.66306961  1
  Cs  Cs15  1  0.33461997  0.66569126  0.00268824  1
  Cs  Cs16  1  0.33290694  0.66727903  0.33338107  1
  Cs  Cs17  1  0.33264434  0.66355139  0.66203075  1
  Cs  Cs18  1  0.66725673  -0.00241712  0.00017941  1
  Cs  Cs19  1  0.66726406  -0.00150604  0.33395802  1
  Cs  Cs20  1  0.66916906  -0.00141318  0.66356925  1
  Cs  Cs21  1  0.66745602  0.33476191  -0.00152245  1
  Cs  Cs22  1  0.66933987  0.32949684  0.33611697  1
  Cs  Cs23  1  0.66235448  0.33203967  0.66584834  1
  Cs  Cs24  1  0.66684126  0.66770007  0.00144119  1
  Cs  Cs25  1  0.66722158  0.66836147  0.33074029  1
  Cs  Cs26  1  0.66561223  0.66710330  0.66758134  1
  Sn  Sn27  1  0.83316175  0.50137601  0.50129902  1
  Sn  Sn28  1  0.83380831  0.83423975  0.16721585  1
  Sn  Sn29  1  0.49955357  0.83261755  0.16658836  1
  Sn  Sn30  1  0.50028555  0.83330325  0.50015788  1
  Sn  Sn31  1  0.49950960  0.83329379  0.83315511  1
  Sn  Sn32  1  0.16658032  0.83266575  0.16633055  1
  Sn  Sn33  1  0.83371486  0.49943969  0.83214907  1
  Sn  Sn34  1  0.83301011  0.83210478  0.49941702  1
  Sn  Sn35  1  0.83306380  0.16739057  0.83407573  1
  Sn  Sn36  1  0.83322834  0.16542204  0.16549110  1
  Sn  Sn37  1  0.16669254  0.50006607  0.83389851  1
  Sn  Sn38  1  0.49864526  0.50010868  0.16665142  1
  Sn  Sn39  1  0.16828499  0.50043376  0.16590666  1
  Pb  Pb40  1  0.16656195  0.83326555  0.49745877  1
  Pb  Pb41  1  0.16669307  0.16685193  0.50010912  1
  Pb  Pb42  1  0.49997661  0.50164938  0.83518224  1
  Pb  Pb43  1  0.16422354  0.17030249  0.83351711  1
  Pb  Pb44  1  0.83332048  0.50026934  0.16664729  1
  Pb  Pb45  1  0.16969235  0.83085263  0.83604607  1
  Pb  Pb46  1  0.16465838  0.50008368  0.49962739  1
  Pb  Pb47  1  0.50268942  0.16361481  0.83337902  1
  Pb  Pb48  1  0.16384438  0.16738394  0.16662462  1
  Pb  Pb49  1  0.83333943  0.16594611  0.50059851  1
  Pb  Pb50  1  0.50252492  0.50204751  0.49694610  1
  Pb  Pb51  1  0.83237023  0.83295923  0.83313474  1
  Pb  Pb52  1  0.50257455  0.16665082  0.16667625  1
  Pb  Pb53  1  0.50016234  0.16280768  0.50004988  1
  I  I54  1  0.16973001  -0.00314924  0.16818530  1
  I  I55  1  0.16382574  -0.00062201  0.49879231  1
  I  I56  1  0.16614022  -0.00011586  0.83374501  1
  I  I57  1  0.16896359  0.33704362  0.16246548  1
  I  I58  1  0.16237393  0.33399105  0.49580678  1
  I  I59  1  0.16461092  0.33812765  0.84238495  1
  I  I60  1  0.16447101  0.66697040  0.16360025  1
  I  I61  1  0.16669174  0.66677764  0.50158021  1
  I  I62  1  0.15766733  0.66329784  0.83585778  1
  I  I63  1  0.49830589  -0.00401006  0.16740014  1
  I  I64  1  0.50998620  -0.00563027  0.49507352  1
  I  I65  1  0.50290238  -0.00464560  0.83758876  1
  I  I66  1  0.49781222  0.33638639  0.16484513  1
  I  I67  1  0.50154117  0.33363424  0.49826724  1
  I  I68  1  0.49897445  0.33350448  0.83610665  1
  I  I69  1  0.50270289  0.66843285  0.16633500  1
  I  I70  1  0.50301814  0.67031928  0.50064883  1
  I  I71  1  0.50455316  0.66967874  0.83370913  1
  I  I72  1  0.83237526  -0.00197605  0.16699740  1
  I  I73  1  0.82824574  -0.00358124  0.49751338  1
  I  I74  1  0.82947820  0.00170202  0.83532900  1
  I  I75  1  0.83325736  0.33170617  0.16618020  1
  I  I76  1  0.83522081  0.33595225  0.49886022  1
  I  I77  1  0.83715849  0.33437732  0.83540027  1
  I  I78  1  0.83248374  0.66947651  0.16721047  1
  I  I79  1  0.83008140  0.66761458  0.49862597  1
  I  I80  1  0.83528980  0.66395401  0.83350519  1
  I  I81  1  0.16678633  0.16378666  0.00014156  1
  I  I82  1  0.16345306  0.16817227  0.33265545  1
  I  I83  1  0.16232818  0.16521858  0.66724571  1
  I  I84  1  0.16225324  0.50506335  0.00096102  1
  I  I85  1  0.16805402  0.50533214  0.32968127  1
  I  I86  1  0.16227594  0.50029755  0.66957926  1
  I  I87  1  0.16378632  0.83071286  0.00424411  1
  I  I88  1  0.16904728  0.82656407  0.32899563  1
  I  I89  1  0.16632292  0.83298871  0.66694745  1
  I  I90  1  0.50056630  0.16330655  0.00016609  1
  I  I91  1  0.50329079  0.16631346  0.33306040  1
  I  I92  1  0.50368096  0.16740967  0.66677556  1
  I  I93  1  0.50287218  0.50796716  0.00317716  1
  I  I94  1  0.49693840  0.50691292  0.32902955  1
  I  I95  1  0.49828140  0.50253833  0.66647328  1
  I  I96  1  0.50261535  0.82904638  0.00175048  1
  I  I97  1  0.50244161  0.82895609  0.33211057  1
  I  I98  1  0.50905786  0.83318780  0.66606998  1
  I  I99  1  0.83308138  0.16660012  0.00045322  1
  I  I100  1  0.83323385  0.16604558  0.33077072  1
  I  I101  1  0.83315705  0.16799108  0.66962055  1
  I  I102  1  0.83413102  0.49961116  -0.00193603  1
  I  I103  1  0.83274345  0.50136420  0.33498919  1
  I  I104  1  0.83853882  0.50039316  0.66750230  1
  I  I105  1  0.83156123  0.83339347  0.00293663  1
  I  I106  1  0.82897012  0.83271919  0.33216216  1
  I  I107  1  0.82720568  0.83230333  0.66414029  1
  I  I108  1  -0.00422231  0.16283882  0.16369280  1
  I  I109  1  -0.00092884  0.16460018  0.49831483  1
  I  I110  1  -0.00403067  0.16529781  0.83774799  1
  I  I111  1  0.00189978  0.50367439  0.16551495  1
  I  I112  1  -0.00390806  0.50596334  0.49835375  1
  I  I113  1  -0.00118598  0.49780186  0.83679099  1
  I  I114  1  -0.00088540  0.83219339  0.17103112  1
  I  I115  1  -0.00348189  0.83032654  0.49507351  1
  I  I116  1  0.00021804  0.83518315  0.83356993  1
  I  I117  1  0.33329565  0.16396450  0.16708567  1
  I  I118  1  0.33367267  0.16614699  0.49948055  1
  I  I119  1  0.33329271  0.16622851  0.83301411  1
  I  I120  1  0.33292519  0.51104874  0.16072119  1
  I  I121  1  0.33370667  0.50128941  0.50228816  1
  I  I122  1  0.33089438  0.50462622  0.83744932  1
  I  I123  1  0.33411765  0.82716371  0.16714175  1
  I  I124  1  0.33649939  0.83304870  0.49860280  1
  I  I125  1  0.33754093  0.83058603  0.83243732  1
  I  I126  1  0.67068613  0.16308347  0.16376692  1
  I  I127  1  0.66719917  0.16898589  0.49896619  1
  I  I128  1  0.67080104  0.17391469  0.83790049  1
  I  I129  1  0.66492141  0.50456039  0.16628009  1
  I  I130  1  0.67060480  0.50212980  0.50404210  1
  I  I131  1  0.66965018  0.49786221  0.83215032  1
  I  I132  1  0.66660275  0.83262559  0.16724094  1
  I  I133  1  0.66757066  0.82956799  0.49451715  1
  I  I134  1  0.66454252  0.83111935  0.83880565  1
