# generated using pymatgen
data_Cs27Sn14Pb13I81
_symmetry_space_group_name_H-M   'P 1'
_cell_length_a   18.96970129
_cell_length_b   18.96965978
_cell_length_c   18.98734267
_cell_angle_alpha   90.00022805
_cell_angle_beta   89.99859323
_cell_angle_gamma   89.99626025
_symmetry_Int_Tables_number   1
_chemical_formula_structural   Cs27Sn14Pb13I81
_chemical_formula_sum   'Cs27 Sn14 Pb13 I81'
_cell_volume   6832.57206699
_cell_formula_units_Z   1
loop_
 _symmetry_equiv_pos_site_id
 _symmetry_equiv_pos_as_xyz
  1  'x, y, z'
loop_
 _atom_site_type_symbol
 _atom_site_label
 _atom_site_symmetry_multiplicity
 _atom_site_fract_x
 _atom_site_fract_y
 _atom_site_fract_z
 _atom_site_occupancy
  Cs  Cs0  1  -0.00166901  -0.00062356  0.00044922  1
  Cs  Cs1  1  0.00037425  0.00178394  0.33177151  1
  Cs  Cs2  1  -0.00109553  0.00252311  0.66858268  1
  Cs  Cs3  1  -0.00021976  0.33089560  -0.00111445  1
  Cs  Cs4  1  -0.00357548  0.33047926  0.33687333  1
  Cs  Cs5  1  -0.00083022  0.33335500  0.66620664  1
  Cs  Cs6  1  0.00112027  0.67154370  0.00140889  1
  Cs  Cs7  1  0.00838384  0.66794858  0.33540936  1
  Cs  Cs8  1  0.00120349  0.66074985  0.66498080  1
  Cs  Cs9  1  0.33472431  0.00105815  -0.00343776  1
  Cs  Cs10  1  0.33431577  -0.00312814  0.33960415  1
  Cs  Cs11  1  0.33606486  -0.00060910  0.66573611  1
  Cs  Cs12  1  0.33551303  0.33642030  0.00234128  1
  Cs  Cs13  1  0.33732747  0.33325153  0.32371080  1
  Cs  Cs14  1  0.33350527  0.33292763  0.67029411  1
  Cs  Cs15  1  0.33380577  0.66365673  0.00057555  1
  Cs  Cs16  1  0.32648228  0.66982027  0.33121999  1
  Cs  Cs17  1  0.33316823  0.66811182  0.66649660  1
  Cs  Cs18  1  0.66778276  -0.00336348  -0.00145075  1
  Cs  Cs19  1  0.66513636  -0.00027828  0.33732516  1
  Cs  Cs20  1  0.66512384  -0.00052395  0.66586410  1
  Cs  Cs21  1  0.66544995  0.33345676  0.00084604  1
  Cs  Cs22  1  0.66792097  0.33503425  0.33019444  1
  Cs  Cs23  1  0.66728720  0.33561966  0.66727411  1
  Cs  Cs24  1  0.66662720  0.66962306  -0.00134651  1
  Cs  Cs25  1  0.66637956  0.66409897  0.33486591  1
  Cs  Cs26  1  0.66647854  0.66486667  0.66769091  1
  Sn  Sn27  1  0.83365036  0.83364466  0.50011959  1
  Sn  Sn28  1  0.83367156  0.49999457  0.16553725  1
  Sn  Sn29  1  0.16723913  0.83402602  0.83315275  1
  Sn  Sn30  1  0.49918971  0.83247589  0.83401917  1
  Sn  Sn31  1  0.50013624  0.83355016  0.16615202  1
  Sn  Sn32  1  0.16616836  0.16640038  0.16637296  1
  Sn  Sn33  1  0.16597774  0.16592062  0.83341780  1
  Sn  Sn34  1  0.16642182  0.16704947  0.50023813  1
  Sn  Sn35  1  0.83278136  0.49927455  0.83469672  1
  Sn  Sn36  1  0.83374878  0.16710122  0.16627824  1
  Sn  Sn37  1  0.49947085  0.49978540  0.50051864  1
  Sn  Sn38  1  0.83369351  0.16560065  0.50026118  1
  Sn  Sn39  1  0.50087610  0.50085598  0.83242847  1
  Sn  Sn40  1  0.83372070  0.16738840  0.83344886  1
  Pb  Pb41  1  0.83203197  0.83346984  0.16899119  1
  Pb  Pb42  1  0.16422142  0.83561712  0.50274342  1
  Pb  Pb43  1  0.16637743  0.49964525  0.83343136  1
  Pb  Pb44  1  0.83245051  0.49950154  0.50001849  1
  Pb  Pb45  1  0.50152703  0.83119402  0.50058679  1
  Pb  Pb46  1  0.16886407  0.83617782  0.16432378  1
  Pb  Pb47  1  0.83340675  0.83307993  0.83167950  1
  Pb  Pb48  1  0.50199081  0.50220888  0.16606777  1
  Pb  Pb49  1  0.50055404  0.16412365  0.16662543  1
  Pb  Pb50  1  0.50021483  0.16686334  0.83337529  1
  Pb  Pb51  1  0.16324899  0.49745125  0.16654128  1
  Pb  Pb52  1  0.50020844  0.16927769  0.50000582  1
  Pb  Pb53  1  0.16992927  0.49667851  0.49993307  1
  I  I54  1  0.15856269  0.00420494  0.16799777  1
  I  I55  1  0.16586702  0.00392373  0.49786366  1
  I  I56  1  0.16663143  0.00152012  0.83339943  1
  I  I57  1  0.16783335  0.32886628  0.16298415  1
  I  I58  1  0.15748966  0.32849043  0.50428127  1
  I  I59  1  0.16555997  0.32971081  0.83280191  1
  I  I60  1  0.16602241  0.66701889  0.16555654  1
  I  I61  1  0.16435421  0.66683071  0.50175163  1
  I  I62  1  0.16736561  0.66922876  0.83295361  1
  I  I63  1  0.50252287  -0.00340544  0.15968303  1
  I  I64  1  0.49949475  0.00000405  0.50013428  1
  I  I65  1  0.49952672  -0.00267682  0.83704043  1
  I  I66  1  0.49799127  0.33339587  0.16651080  1
  I  I67  1  0.50263398  0.33680875  0.50732098  1
  I  I68  1  0.50137840  0.33615002  0.82919485  1
  I  I69  1  0.50341431  0.66971038  0.16447651  1
  I  I70  1  0.50571958  0.66365598  0.50251859  1
  I  I71  1  0.50121416  0.66649495  0.83320075  1
  I  I72  1  0.83625093  0.00349187  0.16375328  1
  I  I73  1  0.83505418  0.00216071  0.50048137  1
  I  I74  1  0.83419394  0.00294067  0.83545896  1
  I  I75  1  0.83537588  0.33191687  0.16835521  1
  I  I76  1  0.83619677  0.33004331  0.50024346  1
  I  I77  1  0.83315775  0.33237140  0.83140934  1
  I  I78  1  0.82831431  0.66417349  0.16259324  1
  I  I79  1  0.82882204  0.66829168  0.50132398  1
  I  I80  1  0.83181418  0.66399059  0.83546571  1
  I  I81  1  0.15996520  0.16260957  -0.00074069  1
  I  I82  1  0.15932134  0.16863008  0.33329225  1
  I  I83  1  0.16020732  0.16327046  0.66737055  1
  I  I84  1  0.17213454  0.49754089  -0.00017556  1
  I  I85  1  0.16752036  0.49980004  0.33326427  1
  I  I86  1  0.16168230  0.49742540  0.66685053  1
  I  I87  1  0.16619112  0.83926463  -0.00359274  1
  I  I88  1  0.16846340  0.83411774  0.33346658  1
  I  I89  1  0.17327731  0.83941078  0.67040520  1
  I  I90  1  0.49947086  0.17036463  -0.00012015  1
  I  I91  1  0.49998719  0.16689704  0.33331275  1
  I  I92  1  0.50021740  0.16273551  0.66681766  1
  I  I93  1  0.50228924  0.50195002  -0.00309339  1
  I  I94  1  0.50320936  0.49943359  0.33497661  1
  I  I95  1  0.50703404  0.50465331  0.66868695  1
  I  I96  1  0.49815165  0.82823321  -0.00186545  1
  I  I97  1  0.50375586  0.83335170  0.33164334  1
  I  I98  1  0.49751502  0.83136779  0.66979294  1
  I  I99  1  0.83891952  0.17158791  -0.00042495  1
  I  I100  1  0.83859231  0.16695297  0.33322039  1
  I  I101  1  0.83874558  0.16706209  0.66718533  1
  I  I102  1  0.82701438  0.49151345  -0.00119228  1
  I  I103  1  0.83004610  0.49579930  0.33126611  1
  I  I104  1  0.83082397  0.49706523  0.66944347  1
  I  I105  1  0.83390066  0.83537002  -0.00022631  1
  I  I106  1  0.82944721  0.83769157  0.33654550  1
  I  I107  1  0.83113153  0.83824249  0.66419681  1
  I  I108  1  -0.00112181  0.17006158  0.16646158  1
  I  I109  1  -0.00122568  0.16341103  0.50033224  1
  I  I110  1  -0.00062577  0.16639405  0.83303814  1
  I  I111  1  -0.00490210  0.49975450  0.16039774  1
  I  I112  1  -0.00003269  0.50244442  0.50055742  1
  I  I113  1  -0.00333338  0.49867415  0.83629302  1
  I  I114  1  0.00010150  0.83107373  0.16599805  1
  I  I115  1  -0.00364549  0.83355561  0.50043265  1
  I  I116  1  0.00212064  0.83562955  0.83130301  1
  I  I117  1  0.33037517  0.16491552  0.16656191  1
  I  I118  1  0.33018797  0.16819895  0.50090484  1
  I  I119  1  0.33027907  0.16562616  0.83276517  1
  I  I120  1  0.33341628  0.49831975  0.16675857  1
  I  I121  1  0.33766574  0.50049328  0.50825302  1
  I  I122  1  0.33619590  0.50051731  0.82885192  1
  I  I123  1  0.33674777  0.83360674  0.16612131  1
  I  I124  1  0.33312026  0.83415703  0.49841671  1
  I  I125  1  0.33395500  0.83442295  0.83635808  1
  I  I126  1  0.67045745  0.17000340  0.16677426  1
  I  I127  1  0.67025380  0.16390079  0.50034540  1
  I  I128  1  0.67011505  0.16726411  0.83317257  1
  I  I129  1  0.66983506  0.49219011  0.16595278  1
  I  I130  1  0.66467331  0.49832264  0.50237022  1
  I  I131  1  0.66711196  0.49980610  0.83266742  1
  I  I132  1  0.66427614  0.83511994  0.15907420  1
  I  I133  1  0.66934810  0.84091822  0.50214412  1
  I  I134  1  0.66431668  0.83250882  0.83529605  1
