# generated using pymatgen
data_Cs27Sn13Pb14I81
_symmetry_space_group_name_H-M   'P 1'
_cell_length_a   18.97076067
_cell_length_b   18.97953989
_cell_length_c   18.98038634
_cell_angle_alpha   90.00261343
_cell_angle_beta   89.99811142
_cell_angle_gamma   89.99993218
_symmetry_Int_Tables_number   1
_chemical_formula_structural   Cs27Sn13Pb14I81
_chemical_formula_sum   'Cs27 Sn13 Pb14 I81'
_cell_volume   6834.00783622
_cell_formula_units_Z   1
loop_
 _symmetry_equiv_pos_site_id
 _symmetry_equiv_pos_as_xyz
  1  'x, y, z'
loop_
 _atom_site_type_symbol
 _atom_site_label
 _atom_site_symmetry_multiplicity
 _atom_site_fract_x
 _atom_site_fract_y
 _atom_site_fract_z
 _atom_site_occupancy
  Cs  Cs0  1  0.00184776  0.00158756  0.00012431  1
  Cs  Cs1  1  -0.00400932  0.00193735  0.33384909  1
  Cs  Cs2  1  0.00054610  0.00037491  0.66683575  1
  Cs  Cs3  1  -0.00297145  0.33302469  0.00113477  1
  Cs  Cs4  1  -0.00383260  0.33522003  0.33190386  1
  Cs  Cs5  1  0.00318517  0.33170355  0.66580314  1
  Cs  Cs6  1  -0.00273963  0.66498920  0.00306935  1
  Cs  Cs7  1  0.00379131  0.66123405  0.32831482  1
  Cs  Cs8  1  0.00054583  0.66740529  0.66782510  1
  Cs  Cs9  1  0.33351854  0.00090559  0.00134252  1
  Cs  Cs10  1  0.33410090  -0.00047939  0.33189919  1
  Cs  Cs11  1  0.33139416  0.00249733  0.66693689  1
  Cs  Cs12  1  0.33614571  0.32929731  -0.00184713  1
  Cs  Cs13  1  0.33458030  0.33432302  0.33508914  1
  Cs  Cs14  1  0.33339496  0.33274095  0.66555126  1
  Cs  Cs15  1  0.33383233  0.67076169  0.00455076  1
  Cs  Cs16  1  0.33400641  0.66629533  0.33029445  1
  Cs  Cs17  1  0.33177975  0.66576818  0.66530162  1
  Cs  Cs18  1  0.66501501  -0.00307664  -0.00177368  1
  Cs  Cs19  1  0.67010590  -0.00173699  0.33608130  1
  Cs  Cs20  1  0.66926657  -0.00930290  0.66577879  1
  Cs  Cs21  1  0.66637401  0.33696495  -0.00021005  1
  Cs  Cs22  1  0.66659966  0.33276656  0.33293603  1
  Cs  Cs23  1  0.66306215  0.33567739  0.66615014  1
  Cs  Cs24  1  0.67008741  0.66700380  -0.00840160  1
  Cs  Cs25  1  0.66290448  0.66872677  0.33623979  1
  Cs  Cs26  1  0.66997683  0.67201378  0.67109274  1
  Sn  Sn27  1  0.49949570  0.16749638  0.16778033  1
  Sn  Sn28  1  0.16671704  0.83416273  0.50009285  1
  Sn  Sn29  1  0.49999581  0.49928256  0.16704951  1
  Sn  Sn30  1  0.16572727  0.16675934  0.83339545  1
  Sn  Sn31  1  0.16662675  0.83339192  0.83288755  1
  Sn  Sn32  1  0.16695932  0.49984840  0.83386918  1
  Sn  Sn33  1  0.16712686  0.16602844  0.49938119  1
  Sn  Sn34  1  0.16695665  0.16701025  0.16717862  1
  Sn  Sn35  1  0.83342242  0.16696483  0.83293725  1
  Sn  Sn36  1  0.83331297  0.83344519  0.16688131  1
  Sn  Sn37  1  0.50103715  0.49933808  0.49948114  1
  Sn  Sn38  1  0.83241405  0.49976454  0.50021054  1
  Sn  Sn39  1  0.49954692  0.16700613  0.49929461  1
  Pb  Pb40  1  0.50238523  0.83380172  0.16678426  1
  Pb  Pb41  1  0.49777536  0.50010153  0.83297304  1
  Pb  Pb42  1  0.50009181  0.16647144  0.83278467  1
  Pb  Pb43  1  0.83034043  0.50192157  0.16851112  1
  Pb  Pb44  1  0.49755983  0.83350341  0.50001884  1
  Pb  Pb45  1  0.83284955  0.16800085  0.50194646  1
  Pb  Pb46  1  0.83656008  0.83061096  0.49827313  1
  Pb  Pb47  1  0.16730955  0.49966050  0.50113897  1
  Pb  Pb48  1  0.16525335  0.83570200  0.16692103  1
  Pb  Pb49  1  0.49693790  0.83336627  0.83319506  1
  Pb  Pb50  1  0.83563403  0.49785869  0.83107863  1
  Pb  Pb51  1  0.16886166  0.49710300  0.16405647  1
  Pb  Pb52  1  0.83616747  0.83547751  0.83501897  1
  Pb  Pb53  1  0.83231020  0.16564502  0.16484368  1
  I  I54  1  0.17225946  0.00389179  0.16219603  1
  I  I55  1  0.17123250  0.00187136  0.50490152  1
  I  I56  1  0.16308811  0.00123477  0.83225411  1
  I  I57  1  0.16674089  0.32885338  0.16778374  1
  I  I58  1  0.16797971  0.33020083  0.50211530  1
  I  I59  1  0.16367369  0.33169173  0.83219684  1
  I  I60  1  0.16710445  0.66656237  0.16614342  1
  I  I61  1  0.16576606  0.66865034  0.50607389  1
  I  I62  1  0.16861646  0.66720035  0.82632845  1
  I  I63  1  0.49611989  0.00370521  0.16973905  1
  I  I64  1  0.49675950  0.00353506  0.49592532  1
  I  I65  1  0.49879141  0.00045094  0.83441721  1
  I  I66  1  0.49570172  0.33219068  0.17068475  1
  I  I67  1  0.49694540  0.33258806  0.49656627  1
  I  I68  1  0.49651654  0.33313101  0.83339111  1
  I  I69  1  0.49995508  0.66379806  0.17172385  1
  I  I70  1  0.50085652  0.66343529  0.49561998  1
  I  I71  1  0.49821183  0.66644226  0.83415659  1
  I  I72  1  0.83343520  -0.00195753  0.16623444  1
  I  I73  1  0.83129693  -0.00006006  0.50059234  1
  I  I74  1  0.83918525  0.00323988  0.83252137  1
  I  I75  1  0.83557338  0.33336209  0.16595486  1
  I  I76  1  0.83514253  0.33579267  0.50003230  1
  I  I77  1  0.84112962  0.33018321  0.83479977  1
  I  I78  1  0.83532337  0.66938391  0.16666806  1
  I  I79  1  0.82801880  0.66307572  0.50022434  1
  I  I80  1  0.83486251  0.66668897  0.83392472  1
  I  I81  1  0.16715718  0.16639518  -0.00051603  1
  I  I82  1  0.17143404  0.16153814  0.33408073  1
  I  I83  1  0.16699746  0.16614652  0.66662960  1
  I  I84  1  0.16761074  0.50068958  -0.00377031  1
  I  I85  1  0.16456078  0.50095714  0.33315184  1
  I  I86  1  0.16825031  0.49540971  0.66904534  1
  I  I87  1  0.16529954  0.83484527  -0.00260760  1
  I  I88  1  0.16545813  0.83771877  0.33596713  1
  I  I89  1  0.16670139  0.83848676  0.66693814  1
  I  I90  1  0.49592093  0.17058042  0.00288471  1
  I  I91  1  0.49130309  0.17093591  0.33364416  1
  I  I92  1  0.49486431  0.17224136  0.66324566  1
  I  I93  1  0.49703924  0.49443006  0.00286533  1
  I  I94  1  0.50235441  0.49520077  0.33413354  1
  I  I95  1  0.50076822  0.49423816  0.66318267  1
  I  I96  1  0.49800257  0.83383293  0.00028990  1
  I  I97  1  0.49695154  0.83282513  0.33340678  1
  I  I98  1  0.50292711  0.83357279  0.66632017  1
  I  I99  1  0.83990878  0.16576806  -0.00285471  1
  I  I100  1  0.83695566  0.16636410  0.33342680  1
  I  I101  1  0.84011521  0.16736041  0.66955854  1
  I  I102  1  0.83282147  0.50074859  -0.00009212  1
  I  I103  1  0.83512909  0.49845332  0.33638785  1
  I  I104  1  0.82681831  0.49975468  0.66341622  1
  I  I105  1  0.83491314  0.83362839  0.00249030  1
  I  I106  1  0.83542310  0.83622336  0.33095145  1
  I  I107  1  0.83232751  0.83321248  0.66666895  1
  I  I108  1  0.00271844  0.16372471  0.16775270  1
  I  I109  1  0.00319933  0.16495563  0.49904502  1
  I  I110  1  0.00292168  0.16641542  0.83331274  1
  I  I111  1  0.00003828  0.49987110  0.16776973  1
  I  I112  1  -0.00131382  0.50024792  0.50317091  1
  I  I113  1  0.00377817  0.50085815  0.83063643  1
  I  I114  1  -0.00216631  0.83540146  0.16643614  1
  I  I115  1  0.00426400  0.83907325  0.50444838  1
  I  I116  1  0.00421242  0.83290905  0.82927136  1
  I  I117  1  0.33283655  0.16884468  0.16455220  1
  I  I118  1  0.33236140  0.16895894  0.50180323  1
  I  I119  1  0.32972967  0.16633050  0.83335330  1
  I  I120  1  0.33656282  0.49974171  0.17405438  1
  I  I121  1  0.33603670  0.49845376  0.49808161  1
  I  I122  1  0.32955116  0.49582963  0.83016753  1
  I  I123  1  0.33322258  0.83194928  0.16570812  1
  I  I124  1  0.32940143  0.83325296  0.50358117  1
  I  I125  1  0.32824512  0.83746353  0.83104944  1
  I  I126  1  0.66315946  0.16901214  0.16992922  1
  I  I127  1  0.66347924  0.17019609  0.49615035  1
  I  I128  1  0.66914901  0.16771316  0.83452098  1
  I  I129  1  0.66259794  0.49186080  0.16773325  1
  I  I130  1  0.66516880  0.49289944  0.49598679  1
  I  I131  1  0.66671903  0.49745572  0.83507611  1
  I  I132  1  0.66973931  0.83617115  0.16710517  1
  I  I133  1  0.66686113  0.83595980  0.49863445  1
  I  I134  1  0.66734283  0.83540307  0.83479838  1
