# generated using pymatgen
data_Cs27Sn13Pb14I81
_symmetry_space_group_name_H-M   'P 1'
_cell_length_a   19.05177920
_cell_length_b   19.07036082
_cell_length_c   19.06415181
_cell_angle_alpha   89.99755144
_cell_angle_beta   89.99957884
_cell_angle_gamma   90.00131165
_symmetry_Int_Tables_number   1
_chemical_formula_structural   Cs27Sn13Pb14I81
_chemical_formula_sum   'Cs27 Sn13 Pb14 I81'
_cell_volume   6926.46967277
_cell_formula_units_Z   1
loop_
 _symmetry_equiv_pos_site_id
 _symmetry_equiv_pos_as_xyz
  1  'x, y, z'
loop_
 _atom_site_type_symbol
 _atom_site_label
 _atom_site_symmetry_multiplicity
 _atom_site_fract_x
 _atom_site_fract_y
 _atom_site_fract_z
 _atom_site_occupancy
  Cs  Cs0  1  0.00151261  -0.00085648  -0.00051569  1
  Cs  Cs1  1  -0.00848782  0.00072282  0.33579956  1
  Cs  Cs2  1  -0.00219046  -0.00021242  0.66454960  1
  Cs  Cs3  1  0.00312928  0.33740914  0.00022042  1
  Cs  Cs4  1  0.00103629  0.33177031  0.33049563  1
  Cs  Cs5  1  -0.00099699  0.33279356  0.66748661  1
  Cs  Cs6  1  0.00002446  0.66324076  -0.00092212  1
  Cs  Cs7  1  0.00259408  0.66690042  0.33016122  1
  Cs  Cs8  1  -0.01015095  0.66788867  0.66776019  1
  Cs  Cs9  1  0.33349973  0.00146784  -0.00480515  1
  Cs  Cs10  1  0.33274442  -0.00588302  0.34160152  1
  Cs  Cs11  1  0.33417622  0.00130820  0.66825674  1
  Cs  Cs12  1  0.33375940  0.33358049  -0.00266759  1
  Cs  Cs13  1  0.33213828  0.33554294  0.33604878  1
  Cs  Cs14  1  0.33261205  0.32975680  0.66810892  1
  Cs  Cs15  1  0.33130904  0.66641221  -0.00254008  1
  Cs  Cs16  1  0.34398605  0.66877051  0.33832277  1
  Cs  Cs17  1  0.33316003  0.66970834  0.66881350  1
  Cs  Cs18  1  0.66549678  0.00112409  0.01395375  1
  Cs  Cs19  1  0.68201604  -0.00850169  0.32041910  1
  Cs  Cs20  1  0.67229861  0.00251082  0.66605924  1
  Cs  Cs21  1  0.65646705  0.32787820  0.00338527  1
  Cs  Cs22  1  0.66885626  0.33503681  0.33634006  1
  Cs  Cs23  1  0.67195697  0.33498305  0.66096031  1
  Cs  Cs24  1  0.67271395  0.67273356  -0.00088968  1
  Cs  Cs25  1  0.64479758  0.67332465  0.34080463  1
  Cs  Cs26  1  0.67988306  0.66375267  0.66161545  1
  Sn  Sn27  1  0.16777197  0.16775560  0.49984752  1
  Sn  Sn28  1  0.16658855  0.50017889  0.16703013  1
  Sn  Sn29  1  0.16714128  0.83305175  0.83405188  1
  Sn  Sn30  1  0.49944568  0.16622156  0.49971882  1
  Sn  Sn31  1  0.83302683  0.49989494  0.16657807  1
  Sn  Sn32  1  0.16709717  0.83344061  0.16562386  1
  Sn  Sn33  1  0.16556734  0.16678848  0.83345403  1
  Sn  Sn34  1  0.16763678  0.16635181  0.16681005  1
  Sn  Sn35  1  0.16649000  0.49946974  0.50047407  1
  Sn  Sn36  1  0.49973330  0.50170464  0.83319309  1
  Sn  Sn37  1  0.16733706  0.50026934  0.83247086  1
  Sn  Sn38  1  0.49961044  0.83202877  0.83258436  1
  Sn  Sn39  1  0.83422383  0.16730740  0.83436405  1
  Pb  Pb40  1  0.83299190  0.49753928  0.83567029  1
  Pb  Pb41  1  0.83334034  0.83599103  0.83387060  1
  Pb  Pb42  1  0.49963723  0.83664061  0.50394241  1
  Pb  Pb43  1  0.83396255  0.16705375  0.50162713  1
  Pb  Pb44  1  0.83676868  0.82972391  0.16629414  1
  Pb  Pb45  1  0.83639862  0.16947066  0.16404605  1
  Pb  Pb46  1  0.83329699  0.83268239  0.49950454  1
  Pb  Pb47  1  0.16659432  0.83319282  0.50055317  1
  Pb  Pb48  1  0.83644139  0.49990585  0.49644402  1
  Pb  Pb49  1  0.49660598  0.16664370  0.17011634  1
  Pb  Pb50  1  0.49924851  0.49982773  0.16407782  1
  Pb  Pb51  1  0.49706128  0.49788481  0.50342091  1
  Pb  Pb52  1  0.50003513  0.16641523  0.83176626  1
  Pb  Pb53  1  0.49644873  0.83357457  0.16373087  1
  I  I54  1  0.17012078  0.00037187  0.16061519  1
  I  I55  1  0.17144938  0.00303959  0.50076935  1
  I  I56  1  0.16705220  0.00032587  0.83714439  1
  I  I57  1  0.16178096  0.33352465  0.16345061  1
  I  I58  1  0.17103310  0.33284500  0.50079300  1
  I  I59  1  0.16678520  0.33342388  0.83600456  1
  I  I60  1  0.15965471  0.66595753  0.16113462  1
  I  I61  1  0.16482344  0.66361224  0.49916729  1
  I  I62  1  0.17337104  0.66623582  0.83732326  1
  I  I63  1  0.49992975  0.00016696  0.16129426  1
  I  I64  1  0.48505614  0.00376863  0.50520959  1
  I  I65  1  0.49329973  -0.00214938  0.83056386  1
  I  I66  1  0.49757552  0.33328591  0.15966295  1
  I  I67  1  0.49618147  0.33062167  0.50515363  1
  I  I68  1  0.49461066  0.33541498  0.83374096  1
  I  I69  1  0.49853176  0.66658903  0.17306900  1
  I  I70  1  0.50010404  0.66694802  0.49524006  1
  I  I71  1  0.48465488  0.66636621  0.83504621  1
  I  I72  1  0.83130838  -0.00016286  0.16725648  1
  I  I73  1  0.83678201  0.00064160  0.50092571  1
  I  I74  1  0.84092761  0.00335958  0.83094384  1
  I  I75  1  0.84433168  0.33622679  0.16563274  1
  I  I76  1  0.82867539  0.33330937  0.50144621  1
  I  I77  1  0.84154980  0.33061004  0.83258066  1
  I  I78  1  0.84567970  0.66277929  0.16161684  1
  I  I79  1  0.83711697  0.66585076  0.50534214  1
  I  I80  1  0.83550800  0.66658040  0.83361482  1
  I  I81  1  0.15976797  0.16932263  -0.00077643  1
  I  I82  1  0.17427550  0.17190885  0.33329039  1
  I  I83  1  0.16688743  0.17019039  0.66738970  1
  I  I84  1  0.16632709  0.49699487  -0.00046876  1
  I  I85  1  0.15812149  0.49456792  0.33292152  1
  I  I86  1  0.17440918  0.49481140  0.66769841  1
  I  I87  1  0.17096161  0.83413390  -0.00111473  1
  I  I88  1  0.16318284  0.83359959  0.33064475  1
  I  I89  1  0.17226642  0.83459246  0.67016874  1
  I  I90  1  0.50241214  0.16636307  0.00009955  1
  I  I91  1  0.48949107  0.17061795  0.33756684  1
  I  I92  1  0.48933036  0.16671589  0.66485754  1
  I  I93  1  0.48999619  0.50060721  -0.00346460  1
  I  I94  1  0.50122044  0.49865241  0.33358388  1
  I  I95  1  0.49156131  0.50354785  0.67072396  1
  I  I96  1  0.49794927  0.83075525  -0.00399239  1
  I  I97  1  0.50039304  0.83307489  0.33365007  1
  I  I98  1  0.48574417  0.82939210  0.67094897  1
  I  I99  1  0.84008013  0.16605462  -0.00316389  1
  I  I100  1  0.83215050  0.16600107  0.33305138  1
  I  I101  1  0.84200683  0.16737363  0.66938390  1
  I  I102  1  0.84548960  0.49943725  0.00231449  1
  I  I103  1  0.84525970  0.49614255  0.32921161  1
  I  I104  1  0.83205448  0.49968355  0.66656965  1
  I  I105  1  0.82846956  0.83490106  -0.00005812  1
  I  I106  1  0.83761655  0.83855733  0.33247465  1
  I  I107  1  0.83709766  0.83277690  0.66741767  1
  I  I108  1  0.00480404  0.16288334  0.17446518  1
  I  I109  1  0.00382302  0.17077015  0.49713588  1
  I  I110  1  0.00376562  0.16700126  0.83042791  1
  I  I111  1  0.00430131  0.49917476  0.16291614  1
  I  I112  1  0.00472490  0.49078939  0.50944771  1
  I  I113  1  0.00396850  0.50324521  0.83056464  1
  I  I114  1  0.00451970  0.83757540  0.15706455  1
  I  I115  1  0.00074294  0.83766708  0.50439211  1
  I  I116  1  0.00356357  0.82933726  0.83780630  1
  I  I117  1  0.32808149  0.17222597  0.15530067  1
  I  I118  1  0.33017670  0.17169995  0.50430376  1
  I  I119  1  0.32937746  0.16694292  0.83646421  1
  I  I120  1  0.32896860  0.49940419  0.16921557  1
  I  I121  1  0.32928636  0.49815453  0.49096832  1
  I  I122  1  0.33025001  0.49642193  0.83667434  1
  I  I123  1  0.32868208  0.82848933  0.16594663  1
  I  I124  1  0.33275140  0.83017846  0.49405566  1
  I  I125  1  0.33099680  0.83595880  0.83862064  1
  I  I126  1  0.66686986  0.16869789  0.16481548  1
  I  I127  1  0.66418841  0.16711843  0.50989178  1
  I  I128  1  0.66892873  0.16855026  0.82792422  1
  I  I129  1  0.66916118  0.49601688  0.16027572  1
  I  I130  1  0.66648048  0.49772530  0.50040090  1
  I  I131  1  0.66389465  0.50316978  0.83660264  1
  I  I132  1  0.66671661  0.83337459  0.16628941  1
  I  I133  1  0.66594072  0.83526921  0.50305575  1
  I  I134  1  0.66377420  0.82766460  0.82921460  1
