# generated using pymatgen
data_Cs27Sn14Pb13I81
_symmetry_space_group_name_H-M   'P 1'
_cell_length_a   18.97840707
_cell_length_b   18.97853676
_cell_length_c   18.97046847
_cell_angle_alpha   89.99902242
_cell_angle_beta   89.99854708
_cell_angle_gamma   89.99972822
_symmetry_Int_Tables_number   1
_chemical_formula_structural   Cs27Sn14Pb13I81
_chemical_formula_sum   'Cs27 Sn14 Pb13 I81'
_cell_volume   6832.82878961
_cell_formula_units_Z   1
loop_
 _symmetry_equiv_pos_site_id
 _symmetry_equiv_pos_as_xyz
  1  'x, y, z'
loop_
 _atom_site_type_symbol
 _atom_site_label
 _atom_site_symmetry_multiplicity
 _atom_site_fract_x
 _atom_site_fract_y
 _atom_site_fract_z
 _atom_site_occupancy
  Cs  Cs0  1  0.00032593  0.00304050  -0.00001061  1
  Cs  Cs1  1  0.00149331  -0.00212090  0.33623882  1
  Cs  Cs2  1  -0.00265869  0.00119480  0.66362248  1
  Cs  Cs3  1  -0.00079286  0.33260777  -0.00043805  1
  Cs  Cs4  1  0.00170723  0.33375509  0.33357310  1
  Cs  Cs5  1  -0.00117261  0.33574895  0.66634876  1
  Cs  Cs6  1  0.00112999  0.66569413  -0.00040998  1
  Cs  Cs7  1  -0.00028656  0.66698373  0.33274652  1
  Cs  Cs8  1  0.00173466  0.66311338  0.66820213  1
  Cs  Cs9  1  0.33396840  0.00130042  -0.00057913  1
  Cs  Cs10  1  0.32923656  0.00137126  0.33406169  1
  Cs  Cs11  1  0.33604641  -0.00162811  0.66558756  1
  Cs  Cs12  1  0.33294487  0.33055547  -0.00072233  1
  Cs  Cs13  1  0.33354908  0.33436075  0.33552775  1
  Cs  Cs14  1  0.33560957  0.33313314  0.66549189  1
  Cs  Cs15  1  0.33136018  0.67243275  -0.00308482  1
  Cs  Cs16  1  0.33535473  0.66470943  0.33353982  1
  Cs  Cs17  1  0.33285627  0.66945310  0.66930076  1
  Cs  Cs18  1  0.66591413  0.00308044  -0.00104138  1
  Cs  Cs19  1  0.66901873  -0.00877094  0.34211465  1
  Cs  Cs20  1  0.66828125  -0.00345210  0.66194563  1
  Cs  Cs21  1  0.66754296  0.33217081  -0.00139932  1
  Cs  Cs22  1  0.66081483  0.33751458  0.33391926  1
  Cs  Cs23  1  0.66732093  0.33421900  0.66884846  1
  Cs  Cs24  1  0.66643892  0.66788889  0.00716155  1
  Cs  Cs25  1  0.66013389  0.67112958  0.32680777  1
  Cs  Cs26  1  0.66593376  0.66610622  0.66555418  1
  Sn  Sn27  1  0.83230032  0.50028179  0.83304501  1
  Sn  Sn28  1  0.16583098  0.50086867  0.49927773  1
  Sn  Sn29  1  0.50034391  0.16746457  0.83384094  1
  Sn  Sn30  1  0.16633621  0.83344514  0.16717994  1
  Sn  Sn31  1  0.16651673  0.16686334  0.83349562  1
  Sn  Sn32  1  0.83294504  0.16678825  0.16683904  1
  Sn  Sn33  1  0.16628299  0.83210269  0.49956387  1
  Sn  Sn34  1  0.83346000  0.83317545  0.83383365  1
  Sn  Sn35  1  0.16646342  0.16692007  0.16587825  1
  Sn  Sn36  1  0.50090877  0.49953902  0.83384498  1
  Sn  Sn37  1  0.50041756  0.16644991  0.16648888  1
  Sn  Sn38  1  0.83326914  0.16651007  0.83382742  1
  Sn  Sn39  1  0.83353672  0.49994125  0.49978471  1
  Sn  Sn40  1  0.16659580  0.49979455  0.16709732  1
  Pb  Pb41  1  0.83554792  0.83604699  0.16470939  1
  Pb  Pb42  1  0.49988137  0.50005394  0.50234016  1
  Pb  Pb43  1  0.49736382  0.83661106  0.16645429  1
  Pb  Pb44  1  0.83320419  0.16922572  0.49969765  1
  Pb  Pb45  1  0.16673651  0.49805177  0.83324392  1
  Pb  Pb46  1  0.83547720  0.82999788  0.50198876  1
  Pb  Pb47  1  0.50033409  0.16668743  0.50008254  1
  Pb  Pb48  1  0.16469351  0.83626382  0.83311522  1
  Pb  Pb49  1  0.49695952  0.83302467  0.49996021  1
  Pb  Pb50  1  0.50296092  0.83375123  0.83352364  1
  Pb  Pb51  1  0.16659228  0.16713136  0.49983234  1
  Pb  Pb52  1  0.49703106  0.49800502  0.16374567  1
  Pb  Pb53  1  0.83486286  0.49808881  0.16658144  1
  I  I54  1  0.16696399  0.00126220  0.16647114  1
  I  I55  1  0.16719643  -0.00217164  0.49715166  1
  I  I56  1  0.16722685  0.00432905  0.83762389  1
  I  I57  1  0.16623004  0.33220561  0.16651223  1
  I  I58  1  0.16334943  0.33635301  0.49739084  1
  I  I59  1  0.16272190  0.33002542  0.83743211  1
  I  I60  1  0.16525687  0.66640603  0.17090168  1
  I  I61  1  0.16242517  0.66574290  0.49275935  1
  I  I62  1  0.16655892  0.66665131  0.83625221  1
  I  I63  1  0.49752877  0.00486260  0.15737339  1
  I  I64  1  0.49834488  -0.00005046  0.50290169  1
  I  I65  1  0.49883878  0.00380733  0.83789041  1
  I  I66  1  0.49740721  0.32972775  0.16415456  1
  I  I67  1  0.49593679  0.33355193  0.49829231  1
  I  I68  1  0.50400150  0.33207721  0.83625930  1
  I  I69  1  0.49859735  0.66661187  0.16554250  1
  I  I70  1  0.50141245  0.66627650  0.50302046  1
  I  I71  1  0.50274459  0.66375454  0.83093310  1
  I  I72  1  0.83597589  0.00438047  0.15978129  1
  I  I73  1  0.83479845  -0.00026965  0.50132595  1
  I  I74  1  0.83495454  0.00172364  0.83860930  1
  I  I75  1  0.83725325  0.32985649  0.16016997  1
  I  I76  1  0.84185625  0.33687529  0.50718587  1
  I  I77  1  0.83319267  0.33277845  0.83296081  1
  I  I78  1  0.83666613  0.66661795  0.16437127  1
  I  I79  1  0.83736667  0.66233251  0.50718906  1
  I  I80  1  0.83076173  0.66538608  0.82752249  1
  I  I81  1  0.16630802  0.16710421  0.00087147  1
  I  I82  1  0.16678224  0.16640930  0.32972858  1
  I  I83  1  0.16609667  0.16706911  0.66970657  1
  I  I84  1  0.16634649  0.50092358  0.00240263  1
  I  I85  1  0.16108279  0.49763699  0.33326286  1
  I  I86  1  0.16560167  0.50300282  0.66445094  1
  I  I87  1  0.16551905  0.83139183  0.00264479  1
  I  I88  1  0.16578485  0.83650804  0.33254146  1
  I  I89  1  0.16489564  0.82886268  0.66436020  1
  I  I90  1  0.49880067  0.17065228  -0.00095624  1
  I  I91  1  0.49657825  0.16692742  0.32973584  1
  I  I92  1  0.49891789  0.17062554  0.67075769  1
  I  I93  1  0.50604748  0.49672334  -0.00406025  1
  I  I94  1  0.50169415  0.49796788  0.33294189  1
  I  I95  1  0.49904190  0.49201904  0.67046521  1
  I  I96  1  0.49575662  0.83054020  -0.00012139  1
  I  I97  1  0.50375941  0.83519458  0.33301216  1
  I  I98  1  0.49648595  0.83641128  0.66710107  1
  I  I99  1  0.83491169  0.16899498  -0.00141815  1
  I  I100  1  0.83671816  0.16855009  0.33008427  1
  I  I101  1  0.83414442  0.16509427  0.67042574  1
  I  I102  1  0.83187274  0.49985460  -0.00334680  1
  I  I103  1  0.83885016  0.49615991  0.33560194  1
  I  I104  1  0.83682932  0.49744196  0.66828930  1
  I  I105  1  0.83648541  0.82863757  -0.00336813  1
  I  I106  1  0.83303872  0.83486586  0.33330133  1
  I  I107  1  0.83586875  0.84031079  0.67000161  1
  I  I108  1  0.00097317  0.16715754  0.15954045  1
  I  I109  1  0.00009543  0.16553120  0.50163855  1
  I  I110  1  -0.00057517  0.16719964  0.83924656  1
  I  I111  1  0.00330801  0.49641510  0.16502152  1
  I  I112  1  0.00088325  0.50227038  0.50376803  1
  I  I113  1  -0.00252975  0.49804013  0.83221960  1
  I  I114  1  0.00385366  0.83642668  0.16954971  1
  I  I115  1  0.00338892  0.83277333  0.49596364  1
  I  I116  1  -0.00290405  0.83269008  0.83347243  1
  I  I117  1  0.33214913  0.16629828  0.15989704  1
  I  I118  1  0.33308361  0.16807576  0.50187156  1
  I  I119  1  0.33337610  0.17177492  0.83926984  1
  I  I120  1  0.32885189  0.49701140  0.17175648  1
  I  I121  1  0.32989692  0.50285651  0.49693836  1
  I  I122  1  0.33522321  0.49370229  0.83391444  1
  I  I123  1  0.32876237  0.83505965  0.16876923  1
  I  I124  1  0.32845880  0.82773556  0.49787668  1
  I  I125  1  0.33301216  0.83325638  0.83255318  1
  I  I126  1  0.66695621  0.16884885  0.15735467  1
  I  I127  1  0.66687965  0.16877802  0.49961825  1
  I  I128  1  0.66729194  0.16841531  0.83995263  1
  I  I129  1  0.66652483  0.49803021  0.16963949  1
  I  I130  1  0.66961502  0.49619077  0.50464966  1
  I  I131  1  0.66814864  0.49393600  0.82705131  1
  I  I132  1  0.66687888  0.83382824  0.16560670  1
  I  I133  1  0.66718996  0.83371827  0.50158488  1
  I  I134  1  0.67076193  0.83831837  0.83269998  1
