# generated using pymatgen
data_Cs27Sn13Pb14I81
_symmetry_space_group_name_H-M   'P 1'
_cell_length_a   18.98524168
_cell_length_b   18.97109539
_cell_length_c   18.97611205
_cell_angle_alpha   90.00027113
_cell_angle_beta   90.00241793
_cell_angle_gamma   90.00038469
_symmetry_Int_Tables_number   1
_chemical_formula_structural   Cs27Sn13Pb14I81
_chemical_formula_sum   'Cs27 Sn13 Pb14 I81'
_cell_volume   6834.64203976
_cell_formula_units_Z   1
loop_
 _symmetry_equiv_pos_site_id
 _symmetry_equiv_pos_as_xyz
  1  'x, y, z'
loop_
 _atom_site_type_symbol
 _atom_site_label
 _atom_site_symmetry_multiplicity
 _atom_site_fract_x
 _atom_site_fract_y
 _atom_site_fract_z
 _atom_site_occupancy
  Cs  Cs0  1  0.00166355  0.00080100  -0.00375741  1
  Cs  Cs1  1  -0.00073524  -0.00016062  0.33381339  1
  Cs  Cs2  1  0.00062926  0.00362871  0.66839213  1
  Cs  Cs3  1  0.00104621  0.33443189  -0.00334670  1
  Cs  Cs4  1  -0.00091630  0.33250407  0.33519116  1
  Cs  Cs5  1  -0.00014085  0.33356885  0.66708206  1
  Cs  Cs6  1  0.00644470  0.66696961  0.00600947  1
  Cs  Cs7  1  -0.00207298  0.66967844  0.33012098  1
  Cs  Cs8  1  -0.00184205  0.66461725  0.66541508  1
  Cs  Cs9  1  0.33320565  -0.00784790  -0.00059779  1
  Cs  Cs10  1  0.33338358  0.00329923  0.33414921  1
  Cs  Cs11  1  0.33163580  -0.00291036  0.66780577  1
  Cs  Cs12  1  0.33537719  0.33650649  0.00080067  1
  Cs  Cs13  1  0.33523056  0.33112578  0.33538415  1
  Cs  Cs14  1  0.33366595  0.33418716  0.66409758  1
  Cs  Cs15  1  0.32471610  0.67445434  0.00550773  1
  Cs  Cs16  1  0.33330159  0.66824432  0.32893476  1
  Cs  Cs17  1  0.33329667  0.66706215  0.66808779  1
  Cs  Cs18  1  0.66589414  0.00271341  -0.00266496  1
  Cs  Cs19  1  0.66803472  -0.00224849  0.33488719  1
  Cs  Cs20  1  0.66669878  -0.00319412  0.66731938  1
  Cs  Cs21  1  0.66634826  0.33221099  -0.00102938  1
  Cs  Cs22  1  0.66568978  0.33348265  0.33347444  1
  Cs  Cs23  1  0.66677487  0.33504801  0.66673868  1
  Cs  Cs24  1  0.66666322  0.66678051  0.00454136  1
  Cs  Cs25  1  0.66915134  0.67304987  0.32849756  1
  Cs  Cs26  1  0.66799435  0.66582051  0.66582314  1
  Sn  Sn27  1  0.50048239  0.49967225  0.50040868  1
  Sn  Sn28  1  0.83231521  0.16742518  0.49951120  1
  Sn  Sn29  1  0.50003141  0.16706775  0.16671183  1
  Sn  Sn30  1  0.83321550  0.83159652  0.83322456  1
  Sn  Sn31  1  0.83249503  0.50121332  0.83292635  1
  Sn  Sn32  1  0.16661102  0.16733054  0.16642009  1
  Sn  Sn33  1  0.49990529  0.16744266  0.83271886  1
  Sn  Sn34  1  0.83275931  0.49948629  0.50028359  1
  Sn  Sn35  1  0.50049511  0.49970180  0.83301359  1
  Sn  Sn36  1  0.16677297  0.50109254  0.49998797  1
  Sn  Sn37  1  0.16662208  0.83227920  0.50032832  1
  Sn  Sn38  1  0.83346741  0.16721203  0.16734740  1
  Sn  Sn39  1  0.50107137  0.16720931  0.50061307  1
  Pb  Pb40  1  0.83497056  0.83334607  0.50145027  1
  Pb  Pb41  1  0.50180303  0.83186644  0.83308586  1
  Pb  Pb42  1  0.16665840  0.16718187  0.49896280  1
  Pb  Pb43  1  0.17043381  0.16696765  0.83609054  1
  Pb  Pb44  1  0.16640270  0.83608014  0.16946409  1
  Pb  Pb45  1  0.83340663  0.83646629  0.16354533  1
  Pb  Pb46  1  0.50025796  0.83628391  0.16676717  1
  Pb  Pb47  1  0.50003304  0.49848076  0.16652700  1
  Pb  Pb48  1  0.16714748  0.49988487  0.83144387  1
  Pb  Pb49  1  0.83170631  0.16762616  0.83277590  1
  Pb  Pb50  1  0.49811359  0.83276072  0.50014919  1
  Pb  Pb51  1  0.16383172  0.83306425  0.83089022  1
  Pb  Pb52  1  0.16664926  0.49756152  0.16978944  1
  Pb  Pb53  1  0.83330273  0.49784879  0.16650685  1
  I  I54  1  0.16772504  0.00410991  0.17004991  1
  I  I55  1  0.16626556  -0.00140498  0.49747216  1
  I  I56  1  0.16522742  0.00013902  0.83004141  1
  I  I57  1  0.16726772  0.32939018  0.16933984  1
  I  I58  1  0.16679551  0.33604856  0.49829817  1
  I  I59  1  0.16065507  0.33330163  0.83098523  1
  I  I60  1  0.16695627  0.66675824  0.16538414  1
  I  I61  1  0.16634733  0.66508504  0.50191184  1
  I  I62  1  0.17148879  0.66643203  0.83493717  1
  I  I63  1  0.49997813  0.00568294  0.16714520  1
  I  I64  1  0.50259835  0.00373039  0.49930863  1
  I  I65  1  0.50185102  0.00295981  0.83387929  1
  I  I66  1  0.50044331  0.32934064  0.16741508  1
  I  I67  1  0.49827044  0.33274983  0.50015327  1
  I  I68  1  0.50612851  0.33322810  0.83256595  1
  I  I69  1  0.49940854  0.66645307  0.16708815  1
  I  I70  1  0.50236475  0.66259847  0.50650334  1
  I  I71  1  0.50299001  0.66252138  0.82474557  1
  I  I72  1  0.83212765  0.00495440  0.17239377  1
  I  I73  1  0.83101282  0.00324971  0.49789690  1
  I  I74  1  0.83224775  -0.00112860  0.83372841  1
  I  I75  1  0.83216343  0.32925035  0.16685725  1
  I  I76  1  0.83522187  0.33344516  0.50180783  1
  I  I77  1  0.83125580  0.33620291  0.83190389  1
  I  I78  1  0.83381514  0.66666355  0.16966878  1
  I  I79  1  0.83114649  0.66326242  0.50318183  1
  I  I80  1  0.82732307  0.66459181  0.82480651  1
  I  I81  1  0.16311143  0.16622148  0.00414659  1
  I  I82  1  0.17081468  0.16709372  0.33106805  1
  I  I83  1  0.16581839  0.16581430  0.66650951  1
  I  I84  1  0.16631507  0.49855876  0.00014088  1
  I  I85  1  0.16674226  0.50283590  0.33832568  1
  I  I86  1  0.16648553  0.50065570  0.66273653  1
  I  I87  1  0.16666344  0.83508663  0.00017300  1
  I  I88  1  0.16501580  0.82852984  0.33701570  1
  I  I89  1  0.16767636  0.83210051  0.66312530  1
  I  I90  1  0.50127058  0.17068249  -0.00013429  1
  I  I91  1  0.49980638  0.17040565  0.33412703  1
  I  I92  1  0.50522605  0.17058363  0.66562387  1
  I  I93  1  0.50684385  0.49333236  -0.00350099  1
  I  I94  1  0.49976803  0.49461060  0.33704228  1
  I  I95  1  0.50059492  0.49099749  0.66577516  1
  I  I96  1  0.50009486  0.83465845  -0.00020560  1
  I  I97  1  0.50033041  0.83353047  0.33365605  1
  I  I98  1  0.49866945  0.84113055  0.66658965  1
  I  I99  1  0.83206971  0.16572660  0.00214622  1
  I  I100  1  0.82949063  0.17139807  0.33461052  1
  I  I101  1  0.82997978  0.16716700  0.66361592  1
  I  I102  1  0.82765112  0.50117914  -0.00346069  1
  I  I103  1  0.83291649  0.49644023  0.33702036  1
  I  I104  1  0.83316151  0.49732000  0.66544297  1
  I  I105  1  0.83227580  0.82857398  -0.00417082  1
  I  I106  1  0.83472889  0.83226663  0.33336822  1
  I  I107  1  0.83397059  0.83512363  0.66921286  1
  I  I108  1  -0.00091653  0.16659608  0.17370656  1
  I  I109  1  -0.00275035  0.16903330  0.49561625  1
  I  I110  1  -0.00015914  0.16612584  0.83359491  1
  I  I111  1  -0.00012908  0.49517083  0.16622562  1
  I  I112  1  -0.00119082  0.49807015  0.50392331  1
  I  I113  1  -0.00322457  0.50224252  0.82875109  1
  I  I114  1  -0.00010181  0.83709048  0.16645816  1
  I  I115  1  0.00271979  0.83071810  0.50132839  1
  I  I116  1  -0.00401405  0.82943471  0.83252347  1
  I  I117  1  0.33447933  0.16746273  0.16883368  1
  I  I118  1  0.33632507  0.16937314  0.49867930  1
  I  I119  1  0.33869856  0.17259100  0.83008980  1
  I  I120  1  0.33342066  0.49556876  0.16690451  1
  I  I121  1  0.33448501  0.49783708  0.50365331  1
  I  I122  1  0.33704654  0.49276592  0.82809668  1
  I  I123  1  0.33311511  0.83572171  0.16594251  1
  I  I124  1  0.33019891  0.83152837  0.49989802  1
  I  I125  1  0.33323523  0.83502440  0.83337521  1
  I  I126  1  0.66632913  0.16715769  0.16757354  1
  I  I127  1  0.66641584  0.17304616  0.49559691  1
  I  I128  1  0.66369784  0.16742639  0.83744056  1
  I  I129  1  0.66668981  0.49686080  0.17053267  1
  I  I130  1  0.66676252  0.49251915  0.50539236  1
  I  I131  1  0.66667219  0.49849028  0.82470436  1
  I  I132  1  0.66706451  0.83527725  0.16857566  1
  I  I133  1  0.66688912  0.83322977  0.50091065  1
  I  I134  1  0.66957322  0.83402507  0.83058161  1
