# generated using pymatgen
data_Cs27Sn14Pb13I81
_symmetry_space_group_name_H-M   'P 1'
_cell_length_a   18.96279006
_cell_length_b   18.96230020
_cell_length_c   18.95623668
_cell_angle_alpha   89.99959173
_cell_angle_beta   90.00055595
_cell_angle_gamma   89.99786355
_symmetry_Int_Tables_number   1
_chemical_formula_structural   Cs27Sn14Pb13I81
_chemical_formula_sum   'Cs27 Sn14 Pb13 I81'
_cell_volume   6816.24789736
_cell_formula_units_Z   1
loop_
 _symmetry_equiv_pos_site_id
 _symmetry_equiv_pos_as_xyz
  1  'x, y, z'
loop_
 _atom_site_type_symbol
 _atom_site_label
 _atom_site_symmetry_multiplicity
 _atom_site_fract_x
 _atom_site_fract_y
 _atom_site_fract_z
 _atom_site_occupancy
  Cs  Cs0  1  0.00021754  -0.00985481  -0.00799666  1
  Cs  Cs1  1  -0.00093820  0.00298576  0.33386729  1
  Cs  Cs2  1  0.00178717  -0.00169109  0.67033312  1
  Cs  Cs3  1  0.00221168  0.33519695  0.00034208  1
  Cs  Cs4  1  -0.00156665  0.33395944  0.33222490  1
  Cs  Cs5  1  -0.00046572  0.33242891  0.66626948  1
  Cs  Cs6  1  -0.00220525  0.67131329  0.00756168  1
  Cs  Cs7  1  0.00428926  0.66487595  0.32877613  1
  Cs  Cs8  1  -0.00216099  0.66796265  0.66550007  1
  Cs  Cs9  1  0.33296803  0.00131797  0.00126613  1
  Cs  Cs10  1  0.33504276  -0.00099084  0.33255629  1
  Cs  Cs11  1  0.33173368  0.00132383  0.66612551  1
  Cs  Cs12  1  0.33256516  0.33255584  -0.00212554  1
  Cs  Cs13  1  0.33288979  0.33317621  0.33367866  1
  Cs  Cs14  1  0.33387181  0.33360297  0.66740086  1
  Cs  Cs15  1  0.33437086  0.66458512  0.00613084  1
  Cs  Cs16  1  0.33131122  0.66754484  0.33402181  1
  Cs  Cs17  1  0.33659714  0.66461534  0.66428065  1
  Cs  Cs18  1  0.66663030  -0.00220517  0.00628737  1
  Cs  Cs19  1  0.66601232  0.00415450  0.32885576  1
  Cs  Cs20  1  0.66701209  -0.00028102  0.66548725  1
  Cs  Cs21  1  0.66586863  0.33325840  -0.00099346  1
  Cs  Cs22  1  0.66880064  0.33021275  0.33349218  1
  Cs  Cs23  1  0.66672258  0.33438613  0.66644074  1
  Cs  Cs24  1  0.66920270  0.66979122  -0.00087083  1
  Cs  Cs25  1  0.66544333  0.66587337  0.33566900  1
  Cs  Cs26  1  0.66567793  0.66581861  0.66710940  1
  Sn  Sn27  1  0.50107891  0.16554575  0.83252214  1
  Sn  Sn28  1  0.50098174  0.83362504  0.50082245  1
  Sn  Sn29  1  0.49965714  0.83455950  0.83244632  1
  Sn  Sn30  1  0.16650894  0.49906497  0.50100555  1
  Sn  Sn31  1  0.50051311  0.49961246  0.16794495  1
  Sn  Sn32  1  0.83466009  0.49929120  0.83258548  1
  Sn  Sn33  1  0.16738883  0.16752754  0.49907775  1
  Sn  Sn34  1  0.49930390  0.16667615  0.50076446  1
  Sn  Sn35  1  0.83347195  0.50081827  0.50068898  1
  Sn  Sn36  1  0.16623819  0.16658730  0.16727737  1
  Sn  Sn37  1  0.83233913  0.16732722  0.83315249  1
  Sn  Sn38  1  0.16532496  0.50032556  0.83257419  1
  Sn  Sn39  1  0.83259963  0.83261578  0.50011461  1
  Sn  Sn40  1  0.50011215  0.49975166  0.49893976  1
  Pb  Pb41  1  0.83315527  0.83334792  0.17064533  1
  Pb  Pb42  1  0.50002093  0.83095374  0.16729253  1
  Pb  Pb43  1  0.83094980  0.49977194  0.16678260  1
  Pb  Pb44  1  0.83655584  0.16678527  0.16269137  1
  Pb  Pb45  1  0.50032937  0.49994098  0.83288665  1
  Pb  Pb46  1  0.16676668  0.83337292  0.50004335  1
  Pb  Pb47  1  0.16844036  0.49861932  0.16704939  1
  Pb  Pb48  1  0.83352227  0.16673052  0.50151697  1
  Pb  Pb49  1  0.16688705  0.83683962  0.16682200  1
  Pb  Pb50  1  0.16681781  0.16810902  0.83270195  1
  Pb  Pb51  1  0.49876529  0.16856220  0.16661631  1
  Pb  Pb52  1  0.83119400  0.83284703  0.83138962  1
  Pb  Pb53  1  0.16995858  0.82937579  0.83298002  1
  I  I54  1  0.16951682  0.00481059  0.17337800  1
  I  I55  1  0.17000483  0.00329838  0.49611067  1
  I  I56  1  0.16414764  0.00000668  0.83385085  1
  I  I57  1  0.16904800  0.33093628  0.16859354  1
  I  I58  1  0.17032121  0.33404400  0.50049726  1
  I  I59  1  0.16857338  0.33617920  0.83111564  1
  I  I60  1  0.16820865  0.66640137  0.16640108  1
  I  I61  1  0.16961402  0.66310902  0.50430452  1
  I  I62  1  0.16301642  0.66143271  0.82598809  1
  I  I63  1  0.49809267  0.00021014  0.16829823  1
  I  I64  1  0.49961245  0.00057814  0.50505917  1
  I  I65  1  0.50417597  0.00126133  0.82553948  1
  I  I66  1  0.49877865  0.33633462  0.17059326  1
  I  I67  1  0.49909407  0.33355639  0.50069016  1
  I  I68  1  0.50020907  0.33100957  0.83027500  1
  I  I69  1  0.49837360  0.66295119  0.16958030  1
  I  I70  1  0.50025848  0.66589008  0.50080396  1
  I  I71  1  0.49942985  0.66842219  0.82968965  1
  I  I72  1  0.83267363  0.00026059  0.16741614  1
  I  I73  1  0.83009490  -0.00208088  0.50183936  1
  I  I74  1  0.83210389  0.00231811  0.83144451  1
  I  I75  1  0.83211143  0.33332998  0.17137478  1
  I  I76  1  0.83092949  0.33629873  0.50251641  1
  I  I77  1  0.83065078  0.33427741  0.82692458  1
  I  I78  1  0.83298647  0.66629826  0.16120612  1
  I  I79  1  0.82925737  0.66491238  0.50612546  1
  I  I80  1  0.83445967  0.66357554  0.83034240  1
  I  I81  1  0.16790127  0.17021035  0.00137806  1
  I  I82  1  0.17252304  0.17248440  0.33575945  1
  I  I83  1  0.16894695  0.16948475  0.66374165  1
  I  I84  1  0.16605864  0.49720702  -0.00253593  1
  I  I85  1  0.16518801  0.49839333  0.33702182  1
  I  I86  1  0.16912451  0.49381101  0.66496382  1
  I  I87  1  0.16839015  0.83338952  -0.00039711  1
  I  I88  1  0.16851661  0.82815021  0.33389424  1
  I  I89  1  0.16542244  0.83884262  0.66641952  1
  I  I90  1  0.50126767  0.16525142  -0.00313361  1
  I  I91  1  0.49791309  0.16497058  0.33682230  1
  I  I92  1  0.49750124  0.16882486  0.66559710  1
  I  I93  1  0.49855869  0.49926133  0.00125140  1
  I  I94  1  0.49920384  0.50027862  0.33642009  1
  I  I95  1  0.49960396  0.49994961  0.66358829  1
  I  I96  1  0.49943754  0.83578111  -0.00293530  1
  I  I97  1  0.50329603  0.83532907  0.33744661  1
  I  I98  1  0.50309974  0.83133167  0.66506072  1
  I  I99  1  0.82729229  0.17373601  -0.00528400  1
  I  I100  1  0.83120909  0.16649764  0.33357440  1
  I  I101  1  0.83327778  0.16906247  0.66937828  1
  I  I102  1  0.83554225  0.49532060  -0.00349891  1
  I  I103  1  0.83546969  0.50387256  0.33726451  1
  I  I104  1  0.83149520  0.49961970  0.66566201  1
  I  I105  1  0.83203519  0.83316295  -0.00037193  1
  I  I106  1  0.82648518  0.82761048  0.33885814  1
  I  I107  1  0.83049723  0.83100200  0.66337494  1
  I  I108  1  0.00414759  0.17007907  0.17521601  1
  I  I109  1  0.00258025  0.16996171  0.49801773  1
  I  I110  1  -0.00215687  0.17017414  0.83263988  1
  I  I111  1  0.00012438  0.49881376  0.16832978  1
  I  I112  1  0.00008249  0.49951763  0.50516628  1
  I  I113  1  -0.00070270  0.49277345  0.82490039  1
  I  I114  1  -0.00000690  0.83186382  0.16661892  1
  I  I115  1  -0.00283831  0.83025054  0.50032094  1
  I  I116  1  -0.00020868  0.83684402  0.83173956  1
  I  I117  1  0.33094777  0.16938186  0.16659713  1
  I  I118  1  0.33445693  0.16985258  0.50223812  1
  I  I119  1  0.33609528  0.16560922  0.83195065  1
  I  I120  1  0.33633030  0.49934565  0.16961860  1
  I  I121  1  0.33380519  0.49948853  0.50077365  1
  I  I122  1  0.33164338  0.49916694  0.83004583  1
  I  I123  1  0.33378382  0.83129212  0.16823593  1
  I  I124  1  0.33687439  0.83077675  0.50315988  1
  I  I125  1  0.33791407  0.83860389  0.82596260  1
  I  I126  1  0.66668528  0.16751935  0.16869051  1
  I  I127  1  0.66371950  0.16926825  0.50292142  1
  I  I128  1  0.66549281  0.17027635  0.82687181  1
  I  I129  1  0.66294511  0.49893880  0.17064417  1
  I  I130  1  0.66616331  0.50059408  0.50068248  1
  I  I131  1  0.66899954  0.49886353  0.82993043  1
  I  I132  1  0.66626117  0.83343884  0.16404462  1
  I  I133  1  0.66523137  0.82891268  0.50464571  1
  I  I134  1  0.66319704  0.83143277  0.82973250  1
