# generated using pymatgen
data_Cs27Sn14Pb13I81
_symmetry_space_group_name_H-M   'P 1'
_cell_length_a   18.97537551
_cell_length_b   18.97960052
_cell_length_c   18.97105256
_cell_angle_alpha   90.00092907
_cell_angle_beta   90.00159628
_cell_angle_gamma   90.00044693
_symmetry_Int_Tables_number   1
_chemical_formula_structural   Cs27Sn14Pb13I81
_chemical_formula_sum   'Cs27 Sn14 Pb13 I81'
_cell_volume   6832.33061051
_cell_formula_units_Z   1
loop_
 _symmetry_equiv_pos_site_id
 _symmetry_equiv_pos_as_xyz
  1  'x, y, z'
loop_
 _atom_site_type_symbol
 _atom_site_label
 _atom_site_symmetry_multiplicity
 _atom_site_fract_x
 _atom_site_fract_y
 _atom_site_fract_z
 _atom_site_occupancy
  Cs  Cs0  1  -0.00196515  0.00311976  -0.00157785  1
  Cs  Cs1  1  0.00174939  -0.00027236  0.33671059  1
  Cs  Cs2  1  -0.00189014  0.00395140  0.66617024  1
  Cs  Cs3  1  -0.00192008  0.33417318  -0.00113049  1
  Cs  Cs4  1  0.00243366  0.32959415  0.33244229  1
  Cs  Cs5  1  -0.00186656  0.32879985  0.66929132  1
  Cs  Cs6  1  0.00092949  0.66483443  -0.00064994  1
  Cs  Cs7  1  0.00204801  0.66919809  0.33163780  1
  Cs  Cs8  1  0.00362739  0.66804819  0.66915431  1
  Cs  Cs9  1  0.34449180  0.00110059  0.00010398  1
  Cs  Cs10  1  0.33187981  0.00223561  0.33329405  1
  Cs  Cs11  1  0.33658136  -0.00266168  0.66670682  1
  Cs  Cs12  1  0.33499748  0.33263715  0.00216245  1
  Cs  Cs13  1  0.33129859  0.33205112  0.33250637  1
  Cs  Cs14  1  0.33490141  0.33422625  0.66573943  1
  Cs  Cs15  1  0.33051702  0.66721266  -0.00225655  1
  Cs  Cs16  1  0.33147292  0.66587201  0.33547867  1
  Cs  Cs17  1  0.32992312  0.66894209  0.66553208  1
  Cs  Cs18  1  0.66126990  -0.00067992  0.00067731  1
  Cs  Cs19  1  0.66721172  -0.00737179  0.33304626  1
  Cs  Cs20  1  0.66537540  0.00137008  0.66731613  1
  Cs  Cs21  1  0.66892361  0.33327018  -0.00168964  1
  Cs  Cs22  1  0.66701348  0.33864882  0.33635390  1
  Cs  Cs23  1  0.66643513  0.33547415  0.66549002  1
  Cs  Cs24  1  0.66792827  0.66617409  0.00230419  1
  Cs  Cs25  1  0.66812551  0.66719496  0.33437533  1
  Cs  Cs26  1  0.66760868  0.66208226  0.66256474  1
  Sn  Sn27  1  0.16726170  0.83276614  0.49932429  1
  Sn  Sn28  1  0.16711222  0.16646454  0.83384009  1
  Sn  Sn29  1  0.50020061  0.16582999  0.49955010  1
  Sn  Sn30  1  0.49996241  0.50015978  0.16584572  1
  Sn  Sn31  1  0.50048561  0.50031072  0.83416274  1
  Sn  Sn32  1  0.83325584  0.83318625  0.83340108  1
  Sn  Sn33  1  0.83323607  0.16709347  0.16638669  1
  Sn  Sn34  1  0.49945738  0.83410209  0.49986726  1
  Sn  Sn35  1  0.83257037  0.50030380  0.83395978  1
  Sn  Sn36  1  0.83375288  0.16648196  0.83441830  1
  Sn  Sn37  1  0.16612285  0.50012608  0.49950407  1
  Sn  Sn38  1  0.16650426  0.50055735  0.16744676  1
  Sn  Sn39  1  0.16666368  0.83333334  0.16651851  1
  Sn  Sn40  1  0.83347168  0.49922788  0.16609208  1
  Pb  Pb41  1  0.16830254  0.16630900  0.50200512  1
  Pb  Pb42  1  0.50312888  0.16901539  0.16910038  1
  Pb  Pb43  1  0.49791434  0.50053424  0.49982608  1
  Pb  Pb44  1  0.83545252  0.83317912  0.16471880  1
  Pb  Pb45  1  0.16506662  0.16652512  0.16449145  1
  Pb  Pb46  1  0.50081682  0.16881027  0.83200650  1
  Pb  Pb47  1  0.16521690  0.83599508  0.83367385  1
  Pb  Pb48  1  0.83405021  0.83317929  0.50234978  1
  Pb  Pb49  1  0.83678400  0.49998478  0.49975074  1
  Pb  Pb50  1  0.50249711  0.83029406  0.83126597  1
  Pb  Pb51  1  0.16640523  0.49844361  0.83379856  1
  Pb  Pb52  1  0.49748430  0.83068461  0.16873539  1
  Pb  Pb53  1  0.83086461  0.16676411  0.49960797  1
  I  I54  1  0.16295927  -0.00249282  0.17133304  1
  I  I55  1  0.16857506  -0.00296345  0.49649570  1
  I  I56  1  0.15916002  0.00338946  0.83204844  1
  I  I57  1  0.16785612  0.33659688  0.17018062  1
  I  I58  1  0.16868396  0.33567697  0.49637318  1
  I  I59  1  0.16078367  0.33095823  0.83240932  1
  I  I60  1  0.16450806  0.66506973  0.17057351  1
  I  I61  1  0.17256471  0.66693892  0.49770165  1
  I  I62  1  0.16550210  0.66667151  0.83213671  1
  I  I63  1  0.49971245  -0.00009685  0.16626107  1
  I  I64  1  0.49414272  -0.00078800  0.50178110  1
  I  I65  1  0.50050353  -0.00013511  0.83253358  1
  I  I66  1  0.49441493  0.33722917  0.16570293  1
  I  I67  1  0.49907740  0.33218969  0.50103154  1
  I  I68  1  0.50469075  0.33664381  0.83353427  1
  I  I69  1  0.50613019  0.66248034  0.16520826  1
  I  I70  1  0.49704655  0.66881298  0.50075879  1
  I  I71  1  0.50398387  0.66241558  0.83495574  1
  I  I72  1  0.83582475  0.00241714  0.16215733  1
  I  I73  1  0.83722754  0.00000080  0.50024081  1
  I  I74  1  0.83984313  0.00119990  0.83544646  1
  I  I75  1  0.83547778  0.33488324  0.15861470  1
  I  I76  1  0.83217650  0.33349769  0.50463827  1
  I  I77  1  0.83385823  0.33372591  0.83734671  1
  I  I78  1  0.83216581  0.66331999  0.16239411  1
  I  I79  1  0.82765353  0.66650169  0.50118399  1
  I  I80  1  0.82944929  0.66510162  0.83653461  1
  I  I81  1  0.16364334  0.16841016  -0.00320932  1
  I  I82  1  0.16541871  0.16730623  0.33314690  1
  I  I83  1  0.15928234  0.16827734  0.66970241  1
  I  I84  1  0.16627582  0.50353685  0.00306918  1
  I  I85  1  0.16743417  0.50311331  0.33223182  1
  I  I86  1  0.16819906  0.50330687  0.66471294  1
  I  I87  1  0.16289814  0.82690509  0.00257195  1
  I  I88  1  0.16903207  0.82860334  0.33381660  1
  I  I89  1  0.16920498  0.82888960  0.66390912  1
  I  I90  1  0.49777658  0.16616953  0.00019492  1
  I  I91  1  0.49906222  0.16543878  0.33658909  1
  I  I92  1  0.50082484  0.16628105  0.66419092  1
  I  I93  1  0.49874926  0.49882181  0.00043099  1
  I  I94  1  0.50288029  0.49969401  0.33062824  1
  I  I95  1  0.50424642  0.49898715  0.66878145  1
  I  I96  1  0.49849799  0.83455910  0.00006893  1
  I  I97  1  0.49984241  0.83491562  0.33678233  1
  I  I98  1  0.49296441  0.83436526  0.66343198  1
  I  I99  1  0.83806397  0.16899895  -0.00117391  1
  I  I100  1  0.83262218  0.17350765  0.33012324  1
  I  I101  1  0.83644661  0.16786552  0.67004534  1
  I  I102  1  0.83489234  0.49912300  -0.00007346  1
  I  I103  1  0.82990557  0.49538621  0.32966509  1
  I  I104  1  0.82891689  0.49853188  0.67001987  1
  I  I105  1  0.83633290  0.83252447  -0.00320973  1
  I  I106  1  0.83172195  0.83340208  0.33314983  1
  I  I107  1  0.83530145  0.83323764  0.67050619  1
  I  I108  1  -0.00296373  0.17309813  0.16455780  1
  I  I109  1  -0.00002840  0.16660470  0.50006259  1
  I  I110  1  -0.00182758  0.16985086  0.83475217  1
  I  I111  1  -0.00018494  0.50022934  0.16587301  1
  I  I112  1  0.00458649  0.50614222  0.49712684  1
  I  I113  1  -0.00298268  0.50074114  0.83583839  1
  I  I114  1  0.00324639  0.82681152  0.17334018  1
  I  I115  1  0.00351578  0.82845126  0.49704286  1
  I  I116  1  -0.00276970  0.82781171  0.83166576  1
  I  I117  1  0.33350948  0.16799330  0.16517577  1
  I  I118  1  0.33594861  0.16687056  0.50277153  1
  I  I119  1  0.33166913  0.16922992  0.83077255  1
  I  I120  1  0.33278128  0.50451836  0.16680329  1
  I  I121  1  0.33021471  0.50081624  0.49711890  1
  I  I122  1  0.33526155  0.49691140  0.83534991  1
  I  I123  1  0.32942869  0.82808317  0.16697531  1
  I  I124  1  0.33231485  0.83243376  0.49758805  1
  I  I125  1  0.33343907  0.83359857  0.83417750  1
  I  I126  1  0.67090737  0.17134630  0.15887020  1
  I  I127  1  0.66315354  0.16210839  0.50258453  1
  I  I128  1  0.67011718  0.16587935  0.83558060  1
  I  I129  1  0.66736133  0.49479580  0.16175109  1
  I  I130  1  0.66663470  0.50040400  0.49848531  1
  I  I131  1  0.66792198  0.49807738  0.83934591  1
  I  I132  1  0.66666163  0.83274227  0.16811370  1
  I  I133  1  0.66410843  0.83733988  0.50228863  1
  I  I134  1  0.67042314  0.83881952  0.83290640  1
