# generated using pymatgen
data_Cs27Sn14Pb13I81
_symmetry_space_group_name_H-M   'P 1'
_cell_length_a   18.96216436
_cell_length_b   18.96223492
_cell_length_c   18.95860598
_cell_angle_alpha   90.00044569
_cell_angle_beta   89.99950326
_cell_angle_gamma   90.00107848
_symmetry_Int_Tables_number   1
_chemical_formula_structural   Cs27Sn14Pb13I81
_chemical_formula_sum   'Cs27 Sn14 Pb13 I81'
_cell_volume   6816.85144324
_cell_formula_units_Z   1
loop_
 _symmetry_equiv_pos_site_id
 _symmetry_equiv_pos_as_xyz
  1  'x, y, z'
loop_
 _atom_site_type_symbol
 _atom_site_label
 _atom_site_symmetry_multiplicity
 _atom_site_fract_x
 _atom_site_fract_y
 _atom_site_fract_z
 _atom_site_occupancy
  Cs  Cs0  1  0.00393039  0.00107652  -0.00126582  1
  Cs  Cs1  1  -0.00293143  -0.00196795  0.33503019  1
  Cs  Cs2  1  -0.00088265  -0.00010455  0.66645261  1
  Cs  Cs3  1  -0.00150538  0.33235794  -0.00061193  1
  Cs  Cs4  1  0.00037652  0.33745433  0.33248746  1
  Cs  Cs5  1  0.00354631  0.33439916  0.66759924  1
  Cs  Cs6  1  -0.00230468  0.66659096  0.00123430  1
  Cs  Cs7  1  -0.00018901  0.66467483  0.33408211  1
  Cs  Cs8  1  0.00037178  0.66551284  0.66366065  1
  Cs  Cs9  1  0.32753248  -0.00563136  0.00400886  1
  Cs  Cs10  1  0.33608663  0.00123224  0.32750397  1
  Cs  Cs11  1  0.33100779  -0.00086629  0.66891028  1
  Cs  Cs12  1  0.33081832  0.33045157  0.00037259  1
  Cs  Cs13  1  0.33536619  0.33424233  0.33413971  1
  Cs  Cs14  1  0.33111838  0.33353149  0.66491172  1
  Cs  Cs15  1  0.33612697  0.67416638  -0.00188185  1
  Cs  Cs16  1  0.33333178  0.66520206  0.33564101  1
  Cs  Cs17  1  0.33477446  0.66758475  0.66491466  1
  Cs  Cs18  1  0.66641466  -0.00044072  0.00027636  1
  Cs  Cs19  1  0.66616614  0.00327189  0.33656122  1
  Cs  Cs20  1  0.66901451  0.00358191  0.66310970  1
  Cs  Cs21  1  0.66903462  0.33484754  -0.00274687  1
  Cs  Cs22  1  0.66528588  0.33183621  0.33312582  1
  Cs  Cs23  1  0.66581856  0.33116781  0.67030892  1
  Cs  Cs24  1  0.66621215  0.66579057  -0.00260166  1
  Cs  Cs25  1  0.66726966  0.66694845  0.33277528  1
  Cs  Cs26  1  0.66464698  0.66646774  0.66977765  1
  Sn  Sn27  1  0.16699940  0.50051356  0.83476826  1
  Sn  Sn28  1  0.83271040  0.16565006  0.83420012  1
  Sn  Sn29  1  0.50152773  0.50053877  0.49956196  1
  Sn  Sn30  1  0.83184269  0.49972731  0.49965805  1
  Sn  Sn31  1  0.49930240  0.83300693  0.49986201  1
  Sn  Sn32  1  0.49979039  0.16621508  0.83391434  1
  Sn  Sn33  1  0.83333063  0.83416842  0.83401530  1
  Sn  Sn34  1  0.83286855  0.49997373  0.16741943  1
  Sn  Sn35  1  0.83335110  0.16665104  0.16601310  1
  Sn  Sn36  1  0.16706535  0.50024064  0.16503994  1
  Sn  Sn37  1  0.83322479  0.83337784  0.16581147  1
  Sn  Sn38  1  0.50016397  0.50005103  0.16693038  1
  Sn  Sn39  1  0.16767368  0.83485122  0.49962700  1
  Sn  Sn40  1  0.16664395  0.16523036  0.49937569  1
  Pb  Pb41  1  0.16436551  0.16861785  0.16897635  1
  Pb  Pb42  1  0.83502083  0.16946681  0.50021139  1
  Pb  Pb43  1  0.83292901  0.83132056  0.50002642  1
  Pb  Pb44  1  0.50226713  0.83597029  0.83115544  1
  Pb  Pb45  1  0.83464226  0.49981046  0.83357677  1
  Pb  Pb46  1  0.49744501  0.49856686  0.83351429  1
  Pb  Pb47  1  0.16714268  0.50030850  0.49940639  1
  Pb  Pb48  1  0.50249692  0.83130130  0.16878284  1
  Pb  Pb49  1  0.16630528  0.16788964  0.83215736  1
  Pb  Pb50  1  0.16432038  0.83100798  0.83137609  1
  Pb  Pb51  1  0.50206880  0.16876435  0.16420663  1
  Pb  Pb52  1  0.16453120  0.83100341  0.16896787  1
  Pb  Pb53  1  0.49793624  0.16687814  0.50151522  1
  I  I54  1  0.16472488  -0.00016904  0.16697956  1
  I  I55  1  0.16953024  -0.00063651  0.50224565  1
  I  I56  1  0.16708730  -0.00024284  0.83148744  1
  I  I57  1  0.16338967  0.33715387  0.16680771  1
  I  I58  1  0.16517420  0.33218675  0.50089157  1
  I  I59  1  0.16344204  0.33601218  0.83278861  1
  I  I60  1  0.16303344  0.66257630  0.16655666  1
  I  I61  1  0.16653318  0.66840320  0.50009445  1
  I  I62  1  0.16461617  0.66313062  0.83421608  1
  I  I63  1  0.50240520  -0.00005454  0.16848041  1
  I  I64  1  0.49861523  -0.00242120  0.50272701  1
  I  I65  1  0.50243926  0.00361735  0.83019792  1
  I  I66  1  0.50182453  0.33734654  0.17365636  1
  I  I67  1  0.50163762  0.33639947  0.49728298  1
  I  I68  1  0.50745515  0.33095183  0.83110288  1
  I  I69  1  0.50224982  0.66267777  0.16798292  1
  I  I70  1  0.49774144  0.66541167  0.49721894  1
  I  I71  1  0.50077912  0.66677889  0.83367130  1
  I  I72  1  0.83381977  0.00005981  0.16265257  1
  I  I73  1  0.83232263  0.00004017  0.49759832  1
  I  I74  1  0.83052378  0.00064834  0.83934481  1
  I  I75  1  0.83390815  0.33446987  0.16668876  1
  I  I76  1  0.83090714  0.33751005  0.49619869  1
  I  I77  1  0.83178979  0.33094136  0.83548738  1
  I  I78  1  0.83417221  0.66543160  0.16734379  1
  I  I79  1  0.83571345  0.66335656  0.49630488  1
  I  I80  1  0.83606369  0.66853373  0.83519325  1
  I  I81  1  0.16736959  0.16842491  0.00030555  1
  I  I82  1  0.16543620  0.16658898  0.33681833  1
  I  I83  1  0.16414573  0.16826022  0.66407207  1
  I  I84  1  0.16375567  0.49781071  0.00112694  1
  I  I85  1  0.16449365  0.49998762  0.33091824  1
  I  I86  1  0.16479396  0.49914037  0.66786129  1
  I  I87  1  0.16696537  0.83315404  0.00021818  1
  I  I88  1  0.16686989  0.83335822  0.33704365  1
  I  I89  1  0.16687172  0.83256915  0.66325689  1
  I  I90  1  0.50247873  0.17040023  -0.00348172  1
  I  I91  1  0.50074581  0.16613233  0.33320165  1
  I  I92  1  0.50712703  0.16942229  0.66922564  1
  I  I93  1  0.50426457  0.49733499  0.00291008  1
  I  I94  1  0.49917453  0.50255457  0.33368879  1
  I  I95  1  0.50262750  0.50208257  0.66370919  1
  I  I96  1  0.50009264  0.83178305  0.00008758  1
  I  I97  1  0.49868725  0.83150402  0.33695321  1
  I  I98  1  0.49866252  0.82544854  0.66310540  1
  I  I99  1  0.83031914  0.16987942  0.00008120  1
  I  I100  1  0.83572257  0.16566514  0.33070894  1
  I  I101  1  0.83156023  0.16380045  0.66934999  1
  I  I102  1  0.83186711  0.49995184  0.00313986  1
  I  I103  1  0.83615867  0.50043551  0.33194794  1
  I  I104  1  0.83252060  0.50077356  0.66443402  1
  I  I105  1  0.83346537  0.83035669  0.00063753  1
  I  I106  1  0.83400735  0.83373665  0.33085310  1
  I  I107  1  0.83394542  0.83613915  0.66875786  1
  I  I108  1  -0.00411148  0.16999411  0.16100325  1
  I  I109  1  0.00263755  0.16403199  0.50193835  1
  I  I110  1  -0.00315359  0.16530225  0.83584536  1
  I  I111  1  -0.00134640  0.49979690  0.16818522  1
  I  I112  1  -0.00179171  0.50021806  0.49724230  1
  I  I113  1  0.00232643  0.49809196  0.83446200  1
  I  I114  1  -0.00385991  0.83013901  0.16622029  1
  I  I115  1  0.00167465  0.83371130  0.50013623  1
  I  I116  1  -0.00374741  0.83853086  0.83459203  1
  I  I117  1  0.33329300  0.16967610  0.16614277  1
  I  I118  1  0.33029470  0.16980358  0.50321323  1
  I  I119  1  0.33524650  0.17204529  0.82853264  1
  I  I120  1  0.33350769  0.49883923  0.16921973  1
  I  I121  1  0.33578657  0.50049736  0.49746143  1
  I  I122  1  0.32993530  0.49667304  0.83449823  1
  I  I123  1  0.33343918  0.83135314  0.16649734  1
  I  I124  1  0.33352282  0.82883518  0.50109282  1
  I  I125  1  0.33333111  0.83380882  0.83289500  1
  I  I126  1  0.67069513  0.16950589  0.16703712  1
  I  I127  1  0.66682077  0.16528634  0.49928358  1
  I  I128  1  0.66843377  0.16577066  0.83472667  1
  I  I129  1  0.66784653  0.49985250  0.17254748  1
  I  I130  1  0.66633971  0.50471679  0.49305085  1
  I  I131  1  0.66664787  0.50077837  0.83377964  1
  I  I132  1  0.67085948  0.83011124  0.16563689  1
  I  I133  1  0.66451465  0.82935891  0.50000080  1
  I  I134  1  0.67042491  0.83198133  0.83478016  1
