# generated using pymatgen
data_Cs27Sn13Pb14I81
_symmetry_space_group_name_H-M   'P 1'
_cell_length_a   18.96951674
_cell_length_b   18.98154314
_cell_length_c   18.98154305
_cell_angle_alpha   89.99827316
_cell_angle_beta   90.00147400
_cell_angle_gamma   89.99852609
_symmetry_Int_Tables_number   1
_chemical_formula_structural   Cs27Sn13Pb14I81
_chemical_formula_sum   'Cs27 Sn13 Pb14 I81'
_cell_volume   6834.69749185
_cell_formula_units_Z   1
loop_
 _symmetry_equiv_pos_site_id
 _symmetry_equiv_pos_as_xyz
  1  'x, y, z'
loop_
 _atom_site_type_symbol
 _atom_site_label
 _atom_site_symmetry_multiplicity
 _atom_site_fract_x
 _atom_site_fract_y
 _atom_site_fract_z
 _atom_site_occupancy
  Cs  Cs0  1  -0.00075518  0.00060603  -0.00177798  1
  Cs  Cs1  1  0.00111537  -0.00281304  0.33554146  1
  Cs  Cs2  1  -0.00093382  -0.00029381  0.66696042  1
  Cs  Cs3  1  -0.00057902  0.33134932  -0.00149150  1
  Cs  Cs4  1  0.00026465  0.33440589  0.33226075  1
  Cs  Cs5  1  0.00111532  0.33112535  0.66947975  1
  Cs  Cs6  1  0.00087490  0.66756681  -0.00090012  1
  Cs  Cs7  1  -0.00057906  0.66815812  0.33531738  1
  Cs  Cs8  1  -0.00075510  0.66844466  0.66606057  1
  Cs  Cs9  1  0.33383357  -0.00289336  -0.00038493  1
  Cs  Cs10  1  0.33482776  0.00111293  0.33447400  1
  Cs  Cs11  1  0.33478482  0.00101561  0.66565104  1
  Cs  Cs12  1  0.32985017  0.33634891  -0.00185700  1
  Cs  Cs13  1  0.33490226  0.33040202  0.33626453  1
  Cs  Cs14  1  0.33482761  0.33219271  0.66555375  1
  Cs  Cs15  1  0.33646717  0.66804230  -0.00137548  1
  Cs  Cs16  1  0.32985031  0.66852372  0.33031802  1
  Cs  Cs17  1  0.33383354  0.66705151  0.66955993  1
  Cs  Cs18  1  0.66715141  -0.00049185  0.00231419  1
  Cs  Cs19  1  0.66108013  0.00353040  0.33285223  1
  Cs  Cs20  1  0.66552881  0.00047047  0.66619625  1
  Cs  Cs21  1  0.67013778  0.33263277  0.00916580  1
  Cs  Cs22  1  0.66240299  0.33746436  0.32920209  1
  Cs  Cs23  1  0.66108004  0.33381460  0.66313632  1
  Cs  Cs24  1  0.65984576  0.66839757  -0.00173088  1
  Cs  Cs25  1  0.67013780  0.65750113  0.33403402  1
  Cs  Cs26  1  0.66715141  0.66435235  0.66715855  1
  Sn  Sn27  1  0.83411713  0.83262756  0.83403909  1
  Sn  Sn28  1  0.16573778  0.50103267  0.83310200  1
  Sn  Sn29  1  0.16597105  0.83280802  0.83385860  1
  Sn  Sn30  1  0.83403278  0.50045272  0.83327706  1
  Sn  Sn31  1  0.16634244  0.16636539  0.16740203  1
  Sn  Sn32  1  0.83403282  0.83338961  0.16621398  1
  Sn  Sn33  1  0.83371347  0.16686358  0.49980314  1
  Sn  Sn34  1  0.16549974  0.16722893  0.49943774  1
  Sn  Sn35  1  0.16573776  0.83356466  0.16563402  1
  Sn  Sn36  1  0.16634241  0.49926461  0.50030125  1
  Sn  Sn37  1  0.50020085  0.83258633  0.49986153  1
  Sn  Sn38  1  0.50020086  0.16680518  0.83408038  1
  Sn  Sn39  1  0.16623258  0.50013066  0.16653605  1
  Pb  Pb40  1  0.83572841  0.49757977  0.50225399  1
  Pb  Pb41  1  0.16768641  0.16648392  0.83325177  1
  Pb  Pb42  1  0.83572845  0.16441264  0.16908685  1
  Pb  Pb43  1  0.49727246  0.50009400  0.16657264  1
  Pb  Pb44  1  0.16768642  0.83341494  0.50018269  1
  Pb  Pb45  1  0.50023298  0.83313304  0.16909244  1
  Pb  Pb46  1  0.50026418  0.83468525  0.83198139  1
  Pb  Pb47  1  0.49970769  0.16565015  0.50101652  1
  Pb  Pb48  1  0.50023298  0.49757418  0.83353362  1
  Pb  Pb49  1  0.83108134  0.16681577  0.83185137  1
  Pb  Pb50  1  0.83108134  0.83481531  0.49985095  1
  Pb  Pb51  1  0.83580477  0.50243732  0.16422936  1
  Pb  Pb52  1  0.49716558  0.16660655  0.16396797  1
  Pb  Pb53  1  0.49716564  0.50269861  0.50006013  1
  I  I54  1  0.16365149  -0.00070083  0.16678182  1
  I  I55  1  0.16571637  0.00245639  0.49759659  1
  I  I56  1  0.16425697  -0.00280505  0.83576157  1
  I  I57  1  0.16853741  0.33359613  0.16647945  1
  I  I58  1  0.16379426  0.33305888  0.49796161  1
  I  I59  1  0.16439474  0.33606169  0.83553834  1
  I  I60  1  0.16366821  0.66707381  0.16704248  1
  I  I61  1  0.16956078  0.66427121  0.49845849  1
  I  I62  1  0.16443945  0.66684581  0.83503811  1
  I  I63  1  0.49634617  -0.00014511  0.16704155  1
  I  I64  1  0.49651984  -0.00195157  0.50183830  1
  I  I65  1  0.49770499  0.00208938  0.83070297  1
  I  I66  1  0.49949648  0.33312411  0.16690397  1
  I  I67  1  0.50030071  0.33345799  0.50230135  1
  I  I68  1  0.49683877  0.33028198  0.82970448  1
  I  I69  1  0.49648290  0.66695309  0.16629569  1
  I  I70  1  0.49896283  0.67013797  0.50209162  1
  I  I71  1  0.49886289  0.66662126  0.83170322  1
  I  I72  1  0.84001115  -0.00349927  0.15972943  1
  I  I73  1  0.84076234  0.00247891  0.50270009  1
  I  I74  1  0.83743427  -0.00311693  0.83510348  1
  I  I75  1  0.83448366  0.33345340  0.16515682  1
  I  I76  1  0.83572262  0.32981437  0.50302240  1
  I  I77  1  0.83893002  0.33604418  0.83059692  1
  I  I78  1  0.83999111  0.67041925  0.16754715  1
  I  I79  1  0.83310122  0.66653340  0.49883197  1
  I  I80  1  0.83827826  0.66762584  0.83529892  1
  I  I81  1  0.16956113  0.16820850  0.00239552  1
  I  I82  1  0.16379413  0.16870487  0.33360779  1
  I  I83  1  0.16571612  0.16907006  0.66421028  1
  I  I84  1  0.16366796  0.49962341  -0.00040712  1
  I  I85  1  0.16853754  0.50018777  0.33307055  1
  I  I86  1  0.16365154  0.49988486  0.66736747  1
  I  I87  1  0.16443958  0.83162885  -0.00017912  1
  I  I88  1  0.16439472  0.83112793  0.33060497  1
  I  I89  1  0.16425691  0.83090507  0.66947170  1
  I  I90  1  0.49896275  0.16457484  -0.00347127  1
  I  I91  1  0.50030077  0.16436565  0.33320869  1
  I  I92  1  0.49651994  0.16482811  0.66861824  1
  I  I93  1  0.49648300  0.50037140  -0.00028638  1
  I  I94  1  0.49949651  0.49976227  0.33354256  1
  I  I95  1  0.49634603  0.49962525  0.66681179  1
  I  I96  1  0.49886273  0.83496333  0.00004536  1
  I  I97  1  0.49683845  0.83696221  0.33638467  1
  I  I98  1  0.49770539  0.83596388  0.66457731  1
  I  I99  1  0.83310101  0.16783480  0.00013326  1
  I  I100  1  0.83572251  0.16364464  0.33685230  1
  I  I101  1  0.84076261  0.16396604  0.66418775  1
  I  I102  1  0.83999131  0.49911920  -0.00375264  1
  I  I103  1  0.83448362  0.50150998  0.33321325  1
  I  I104  1  0.84001131  0.50693738  0.67016597  1
  I  I105  1  0.83827834  0.83136782  -0.00095913  1
  I  I106  1  0.83893013  0.83606938  0.33062244  1
  I  I107  1  0.83743419  0.83156335  0.66978362  1
  I  I108  1  0.00426026  0.16867826  0.16635848  1
  I  I109  1  0.00195227  0.16815667  0.49850983  1
  I  I110  1  0.00005753  0.16625222  0.83367430  1
  I  I111  1  0.00444889  0.49789549  0.16877144  1
  I  I112  1  0.00426024  0.50030796  0.49798834  1
  I  I113  1  0.00186731  0.50347421  0.83300069  1
  I  I114  1  0.00186727  0.83366589  0.16319243  1
  I  I115  1  0.00005758  0.83299271  0.50041449  1
  I  I116  1  0.00090710  0.83074819  0.83591851  1
  I  I117  1  0.32838773  0.16397238  0.17354795  1
  I  I118  1  0.32995921  0.16914914  0.49751762  1
  I  I119  1  0.33496048  0.16546867  0.83104128  1
  I  I120  1  0.32772156  0.50342072  0.16324567  1
  I  I121  1  0.32838772  0.49311903  0.50269430  1
  I  I122  1  0.32945441  0.50328390  0.83395066  1
  I  I123  1  0.32945443  0.83271611  0.16338277  1
  I  I124  1  0.33496052  0.83562507  0.50119819  1
  I  I125  1  0.33016988  0.83046598  0.83620048  1
  I  I126  1  0.66697966  0.16421863  0.16779556  1
  I  I127  1  0.66884174  0.16201729  0.50464950  1
  I  I128  1  0.66392721  0.16475978  0.82820151  1
  I  I129  1  0.66743708  0.50144450  0.16522199  1
  I  I130  1  0.66697960  0.49887120  0.50244827  1
  I  I131  1  0.66991662  0.50490361  0.83185394  1
  I  I132  1  0.66991662  0.83481262  0.16176306  1
  I  I133  1  0.66392721  0.83846503  0.50190634  1
  I  I134  1  0.66997800  0.83062475  0.83604208  1
