# generated using pymatgen
data_Cs27Sn13Pb14I81
_symmetry_space_group_name_H-M   'P 1'
_cell_length_a   18.97770702
_cell_length_b   18.98265266
_cell_length_c   18.97210828
_cell_angle_alpha   90.00049600
_cell_angle_beta   89.99845587
_cell_angle_gamma   89.99934612
_symmetry_Int_Tables_number   1
_chemical_formula_structural   Cs27Sn13Pb14I81
_chemical_formula_sum   'Cs27 Sn13 Pb14 I81'
_cell_volume   6834.64927067
_cell_formula_units_Z   1
loop_
 _symmetry_equiv_pos_site_id
 _symmetry_equiv_pos_as_xyz
  1  'x, y, z'
loop_
 _atom_site_type_symbol
 _atom_site_label
 _atom_site_symmetry_multiplicity
 _atom_site_fract_x
 _atom_site_fract_y
 _atom_site_fract_z
 _atom_site_occupancy
  Cs  Cs0  1  -0.00255131  -0.00276700  -0.00014433  1
  Cs  Cs1  1  0.00169323  0.00140273  0.33245417  1
  Cs  Cs2  1  0.00087652  0.00046531  0.66927190  1
  Cs  Cs3  1  -0.00509746  0.33745119  0.00272651  1
  Cs  Cs4  1  0.00039731  0.33334766  0.33388550  1
  Cs  Cs5  1  0.00117286  0.33065360  0.66382992  1
  Cs  Cs6  1  -0.00508138  0.66639400  -0.00927411  1
  Cs  Cs7  1  0.00403847  0.66383300  0.33415375  1
  Cs  Cs8  1  -0.00085023  0.66939741  0.67228975  1
  Cs  Cs9  1  0.33412358  0.00026355  -0.00107085  1
  Cs  Cs10  1  0.33313882  -0.00065897  0.33249912  1
  Cs  Cs11  1  0.33180973  0.00398876  0.67080979  1
  Cs  Cs12  1  0.33593078  0.33315918  -0.00204969  1
  Cs  Cs13  1  0.33293769  0.33437833  0.33401644  1
  Cs  Cs14  1  0.33522350  0.33066777  0.67042363  1
  Cs  Cs15  1  0.33212320  0.66621702  0.00035044  1
  Cs  Cs16  1  0.33335019  0.66604048  0.33297059  1
  Cs  Cs17  1  0.33305380  0.66532525  0.66787562  1
  Cs  Cs18  1  0.66677720  -0.00046093  0.00378129  1
  Cs  Cs19  1  0.66572347  -0.00527043  0.33276431  1
  Cs  Cs20  1  0.66712578  -0.00016684  0.66508839  1
  Cs  Cs21  1  0.66744042  0.33399366  -0.00156577  1
  Cs  Cs22  1  0.66585579  0.33309546  0.33443793  1
  Cs  Cs23  1  0.66474784  0.33205699  0.66599119  1
  Cs  Cs24  1  0.67447417  0.66835011  -0.00207283  1
  Cs  Cs25  1  0.66461150  0.67309625  0.33474887  1
  Cs  Cs26  1  0.66885890  0.66964814  0.66560156  1
  Sn  Sn27  1  0.16697232  0.83262432  0.49958694  1
  Sn  Sn28  1  0.49911320  0.16752223  0.16781476  1
  Sn  Sn29  1  0.49985402  0.83319030  0.83322350  1
  Sn  Sn30  1  0.16675011  0.83274826  0.16725038  1
  Sn  Sn31  1  0.16744345  0.50008484  0.16720016  1
  Sn  Sn32  1  0.83316137  0.49947218  0.49955155  1
  Sn  Sn33  1  0.83316850  0.16705246  0.83250391  1
  Sn  Sn34  1  0.49959022  0.49942587  0.16744870  1
  Sn  Sn35  1  0.49997890  0.49932338  0.49913042  1
  Sn  Sn36  1  0.50058507  0.16718725  0.49901956  1
  Sn  Sn37  1  0.16693214  0.50076075  0.49978360  1
  Sn  Sn38  1  0.83243018  0.16726950  0.50050063  1
  Sn  Sn39  1  0.16751956  0.16718546  0.16681639  1
  Pb  Pb40  1  0.49746094  0.83347417  0.50148124  1
  Pb  Pb41  1  0.83262057  0.16677740  0.16777392  1
  Pb  Pb42  1  0.16681463  0.49961624  0.83343395  1
  Pb  Pb43  1  0.16700365  0.16706161  0.49855459  1
  Pb  Pb44  1  0.83281945  0.50008797  0.16934407  1
  Pb  Pb45  1  0.16404971  0.16697703  0.83718297  1
  Pb  Pb46  1  0.83682551  0.83295252  0.16709081  1
  Pb  Pb47  1  0.83065890  0.83597156  0.83298771  1
  Pb  Pb48  1  0.16834299  0.83333575  0.83336266  1
  Pb  Pb49  1  0.50165467  0.16528229  0.83363440  1
  Pb  Pb50  1  0.49812660  0.83275205  0.16504911  1
  Pb  Pb51  1  0.83306966  0.49746356  0.82989504  1
  Pb  Pb52  1  0.50011088  0.50200163  0.83351309  1
  Pb  Pb53  1  0.83628335  0.83362695  0.49973006  1
  I  I54  1  0.16997226  0.00017389  0.17106513  1
  I  I55  1  0.16677644  -0.00169981  0.49524308  1
  I  I56  1  0.16679649  0.00014285  0.83202034  1
  I  I57  1  0.16986168  0.33398856  0.17135567  1
  I  I58  1  0.16550377  0.33627695  0.49551237  1
  I  I59  1  0.16786512  0.33315032  0.83130526  1
  I  I60  1  0.17174334  0.66566181  0.17262780  1
  I  I61  1  0.16734367  0.66523562  0.49218188  1
  I  I62  1  0.16653556  0.66661100  0.83668928  1
  I  I63  1  0.49665280  0.00284634  0.16910574  1
  I  I64  1  0.50351145  0.00313082  0.49704379  1
  I  I65  1  0.50006954  -0.00220313  0.83310654  1
  I  I66  1  0.49186341  0.33313249  0.17015035  1
  I  I67  1  0.49900740  0.33353998  0.49705250  1
  I  I68  1  0.50132911  0.33322261  0.83340326  1
  I  I69  1  0.49545274  0.66333074  0.17100531  1
  I  I70  1  0.50223768  0.66333777  0.49681758  1
  I  I71  1  0.49817015  0.66949558  0.83287717  1
  I  I72  1  0.83330654  0.00029517  0.16803559  1
  I  I73  1  0.82989295  0.00347994  0.50335014  1
  I  I74  1  0.83396466  0.00356665  0.82607260  1
  I  I75  1  0.83931490  0.33326495  0.16387793  1
  I  I76  1  0.83505088  0.33322199  0.50357910  1
  I  I77  1  0.83160524  0.32985395  0.83297524  1
  I  I78  1  0.83105333  0.66634157  0.16798684  1
  I  I79  1  0.83030242  0.66339421  0.49773277  1
  I  I80  1  0.83337909  0.66666164  0.83343094  1
  I  I81  1  0.17248839  0.16592103  0.00552121  1
  I  I82  1  0.16551167  0.16626673  0.33033883  1
  I  I83  1  0.16895374  0.16573462  0.66646915  1
  I  I84  1  0.17209143  0.50030096  0.00417880  1
  I  I85  1  0.16698165  0.50095155  0.33360316  1
  I  I86  1  0.16712683  0.50517813  0.66248948  1
  I  I87  1  0.16864405  0.83358193  0.00340029  1
  I  I88  1  0.16773078  0.83237585  0.33293848  1
  I  I89  1  0.16747078  0.82806270  0.66361299  1
  I  I90  1  0.49729859  0.16923642  0.00333094  1
  I  I91  1  0.50177646  0.16973446  0.33364857  1
  I  I92  1  0.50158006  0.16980626  0.66355023  1
  I  I93  1  0.49314482  0.49589223  0.00378448  1
  I  I94  1  0.49841983  0.49600570  0.33409326  1
  I  I95  1  0.49875821  0.49632913  0.66274809  1
  I  I96  1  0.49711647  0.83525151  -0.00225937  1
  I  I97  1  0.50081885  0.83429296  0.33332028  1
  I  I98  1  0.49725283  0.83396377  0.66882803  1
  I  I99  1  0.83430322  0.16410093  -0.00178577  1
  I  I100  1  0.83319448  0.17143206  0.33676692  1
  I  I101  1  0.82770504  0.17060408  0.66459331  1
  I  I102  1  0.83420668  0.49931455  0.00001186  1
  I  I103  1  0.83501167  0.49154919  0.33746642  1
  I  I104  1  0.83329811  0.49901166  0.66159298  1
  I  I105  1  0.83488630  0.83555933  -0.00018773  1
  I  I106  1  0.82867920  0.83728968  0.33378721  1
  I  I107  1  0.83625450  0.83128598  0.66628513  1
  I  I108  1  0.00287018  0.16646388  0.16691785  1
  I  I109  1  -0.00207240  0.16928389  0.50196029  1
  I  I110  1  -0.00358657  0.16599552  0.82550920  1
  I  I111  1  0.00343060  0.49853312  0.17113116  1
  I  I112  1  0.00069505  0.49898779  0.49572724  1
  I  I113  1  -0.00016136  0.50076456  0.83490731  1
  I  I114  1  0.00551183  0.83522215  0.17057710  1
  I  I115  1  0.00428316  0.83003794  0.49580429  1
  I  I116  1  -0.00012938  0.83402098  0.83429064  1
  I  I117  1  0.33391310  0.16680904  0.17251508  1
  I  I118  1  0.33615476  0.16886227  0.49755002  1
  I  I119  1  0.33361152  0.16479926  0.83083256  1
  I  I120  1  0.33292377  0.49932443  0.17453660  1
  I  I121  1  0.33348391  0.50041137  0.49552295  1
  I  I122  1  0.33356217  0.49957929  0.82854812  1
  I  I123  1  0.33002047  0.83380308  0.17035761  1
  I  I124  1  0.32979383  0.82959749  0.49586995  1
  I  I125  1  0.33575005  0.83556808  0.83303343  1
  I  I126  1  0.66309149  0.17172842  0.16672544  1
  I  I127  1  0.66583638  0.17399035  0.49910962  1
  I  I128  1  0.66935696  0.16529909  0.83259638  1
  I  I129  1  0.66292325  0.49338488  0.16962217  1
  I  I130  1  0.66572545  0.49434223  0.49700234  1
  I  I131  1  0.66658924  0.50152495  0.83525512  1
  I  I132  1  0.66620557  0.83435961  0.16412384  1
  I  I133  1  0.66636627  0.83110686  0.50257745  1
  I  I134  1  0.66333849  0.83258252  0.83300758  1
