# generated using pymatgen
data_Cs27Sn13Pb14I81
_symmetry_space_group_name_H-M   'P 1'
_cell_length_a   18.96873937
_cell_length_b   18.97916412
_cell_length_c   18.98391373
_cell_angle_alpha   89.99987204
_cell_angle_beta   90.00166789
_cell_angle_gamma   89.99823203
_symmetry_Int_Tables_number   1
_chemical_formula_structural   Cs27Sn13Pb14I81
_chemical_formula_sum   'Cs27 Sn13 Pb14 I81'
_cell_volume   6834.41430115
_cell_formula_units_Z   1
loop_
 _symmetry_equiv_pos_site_id
 _symmetry_equiv_pos_as_xyz
  1  'x, y, z'
loop_
 _atom_site_type_symbol
 _atom_site_label
 _atom_site_symmetry_multiplicity
 _atom_site_fract_x
 _atom_site_fract_y
 _atom_site_fract_z
 _atom_site_occupancy
  Cs  Cs0  1  0.00007003  0.00004446  -0.00013960  1
  Cs  Cs1  1  -0.00238763  -0.00310675  0.33459741  1
  Cs  Cs2  1  0.00105841  -0.00018210  0.66594030  1
  Cs  Cs3  1  0.00264378  0.32916913  0.00188251  1
  Cs  Cs4  1  -0.00074250  0.33731620  0.33444578  1
  Cs  Cs5  1  -0.00011994  0.33396203  0.66474717  1
  Cs  Cs6  1  -0.00128037  0.66996102  -0.00056430  1
  Cs  Cs7  1  0.00081927  0.66753556  0.33485169  1
  Cs  Cs8  1  0.00023104  0.66515690  0.66604716  1
  Cs  Cs9  1  0.33036476  0.00334347  0.00284061  1
  Cs  Cs10  1  0.34153225  0.00006422  0.33581442  1
  Cs  Cs11  1  0.33201466  0.00041252  0.66394547  1
  Cs  Cs12  1  0.33148830  0.33324731  0.00646771  1
  Cs  Cs13  1  0.33574688  0.33646428  0.32662470  1
  Cs  Cs14  1  0.33297878  0.33266233  0.66642434  1
  Cs  Cs15  1  0.33982595  0.66406951  -0.00063885  1
  Cs  Cs16  1  0.33386902  0.66468558  0.33128595  1
  Cs  Cs17  1  0.33305593  0.66636473  0.66742056  1
  Cs  Cs18  1  0.66827925  -0.00192158  -0.00093707  1
  Cs  Cs19  1  0.66497619  0.00120031  0.33463070  1
  Cs  Cs20  1  0.66465092  0.00046157  0.66597703  1
  Cs  Cs21  1  0.66578629  0.33565920  -0.00178817  1
  Cs  Cs22  1  0.66756044  0.33076182  0.33434838  1
  Cs  Cs23  1  0.66623256  0.33454471  0.66718241  1
  Cs  Cs24  1  0.66035230  0.66439312  -0.00791297  1
  Cs  Cs25  1  0.66670902  0.66822901  0.33228135  1
  Cs  Cs26  1  0.66410063  0.66273086  0.67625169  1
  Sn  Sn27  1  0.83353769  0.50067720  0.16651296  1
  Sn  Sn28  1  0.16607406  0.50054511  0.83341438  1
  Sn  Sn29  1  0.50017126  0.50008699  0.49990934  1
  Sn  Sn30  1  0.16619586  0.83354558  0.16710538  1
  Sn  Sn31  1  0.83262598  0.16650746  0.83298266  1
  Sn  Sn32  1  0.16594798  0.83418130  0.49961224  1
  Sn  Sn33  1  0.83369697  0.16652841  0.16695314  1
  Sn  Sn34  1  0.83426267  0.16596456  0.50014467  1
  Sn  Sn35  1  0.83367228  0.83367341  0.49996015  1
  Sn  Sn36  1  0.16641926  0.83245056  0.83335465  1
  Sn  Sn37  1  0.16610970  0.16633077  0.49940260  1
  Sn  Sn38  1  0.50032450  0.16634264  0.83334744  1
  Sn  Sn39  1  0.83373694  0.83297219  0.16711540  1
  Pb  Pb40  1  0.50282601  0.50004968  0.16878387  1
  Pb  Pb41  1  0.49739131  0.49751393  0.83183300  1
  Pb  Pb42  1  0.83174478  0.50059850  0.49864063  1
  Pb  Pb43  1  0.83499255  0.83521137  0.83298889  1
  Pb  Pb44  1  0.16449821  0.16424867  0.17012016  1
  Pb  Pb45  1  0.83550548  0.49730809  0.83570804  1
  Pb  Pb46  1  0.50059522  0.83109652  0.50023498  1
  Pb  Pb47  1  0.50067911  0.83343602  0.16664470  1
  Pb  Pb48  1  0.50027424  0.16825137  0.50131006  1
  Pb  Pb49  1  0.16816467  0.50033441  0.50104708  1
  Pb  Pb50  1  0.16628218  0.16629454  0.83174395  1
  Pb  Pb51  1  0.50288324  0.16654207  0.16405488  1
  Pb  Pb52  1  0.16450583  0.50269464  0.16439525  1
  Pb  Pb53  1  0.49664427  0.83606902  0.83321924  1
  I  I54  1  0.16046723  -0.00375050  0.15982249  1
  I  I55  1  0.16270132  -0.00087555  0.50354227  1
  I  I56  1  0.16618060  -0.00270621  0.83439915  1
  I  I57  1  0.16503749  0.33319741  0.16541348  1
  I  I58  1  0.16261149  0.33068676  0.50465775  1
  I  I59  1  0.16609716  0.33475061  0.82996581  1
  I  I60  1  0.15991216  0.67078242  0.17244991  1
  I  I61  1  0.16298542  0.67028459  0.49899771  1
  I  I62  1  0.16546227  0.66798281  0.83051771  1
  I  I63  1  0.50102500  0.00012132  0.16728405  1
  I  I64  1  0.49935377  0.00001575  0.50128447  1
  I  I65  1  0.50405916  0.00363178  0.83121134  1
  I  I66  1  0.50072177  0.33324204  0.16693979  1
  I  I67  1  0.50026925  0.33562865  0.50208048  1
  I  I68  1  0.50338582  0.33008321  0.83110194  1
  I  I69  1  0.50217844  0.66666652  0.16676827  1
  I  I70  1  0.49947231  0.66374255  0.50031896  1
  I  I71  1  0.50094776  0.66651519  0.83250546  1
  I  I72  1  0.83748901  -0.00020686  0.16702088  1
  I  I73  1  0.83691489  0.00045010  0.49603870  1
  I  I74  1  0.83291669  0.00339476  0.83698032  1
  I  I75  1  0.83192441  0.33228361  0.16674120  1
  I  I76  1  0.83626016  0.33021191  0.49908101  1
  I  I77  1  0.83260378  0.32916840  0.83189781  1
  I  I78  1  0.83842908  0.66819614  0.17352120  1
  I  I79  1  0.83781868  0.67006884  0.49419242  1
  I  I80  1  0.83294867  0.66672848  0.83312294  1
  I  I81  1  0.16628418  0.16596496  0.00024488  1
  I  I82  1  0.16201783  0.16338180  0.33802195  1
  I  I83  1  0.16139436  0.16165041  0.66395937  1
  I  I84  1  0.16621125  0.50269211  -0.00340590  1
  I  I85  1  0.16781834  0.49962540  0.33308632  1
  I  I86  1  0.16671693  0.50468888  0.66891646  1
  I  I87  1  0.16170449  0.82970722  0.00028612  1
  I  I88  1  0.16107949  0.83764898  0.33400590  1
  I  I89  1  0.16300492  0.83395287  0.66575564  1
  I  I90  1  0.50296734  0.16744942  -0.00383027  1
  I  I91  1  0.49991896  0.16799522  0.33338141  1
  I  I92  1  0.50555635  0.16788583  0.66899135  1
  I  I93  1  0.49994345  0.49928854  -0.00011715  1
  I  I94  1  0.49745804  0.49833143  0.33628008  1
  I  I95  1  0.50178971  0.49972926  0.66433313  1
  I  I96  1  0.50114380  0.83253780  -0.00016158  1
  I  I97  1  0.49612570  0.83343028  0.33356664  1
  I  I98  1  0.50048083  0.83279486  0.66666837  1
  I  I99  1  0.82885624  0.16647445  0.00032525  1
  I  I100  1  0.83822506  0.16615251  0.33382047  1
  I  I101  1  0.83371696  0.16214963  0.66567672  1
  I  I102  1  0.83417720  0.50149681  0.00359863  1
  I  I103  1  0.83336776  0.49576116  0.33064855  1
  I  I104  1  0.83253128  0.49960191  0.66684931  1
  I  I105  1  0.83830461  0.83558735  0.00271561  1
  I  I106  1  0.84121639  0.83784825  0.33336666  1
  I  I107  1  0.83803859  0.83857609  0.66367085  1
  I  I108  1  -0.00400963  0.16825794  0.16036344  1
  I  I109  1  -0.00128697  0.16352270  0.50310441  1
  I  I110  1  -0.00280513  0.16639117  0.83504920  1
  I  I111  1  -0.00348075  0.49674443  0.16828211  1
  I  I112  1  -0.00010511  0.49904976  0.50039079  1
  I  I113  1  0.00307541  0.50244007  0.83095179  1
  I  I114  1  -0.00088080  0.83391495  0.16734261  1
  I  I115  1  0.00015461  0.83703196  0.49925599  1
  I  I116  1  0.00325075  0.83312529  0.83308336  1
  I  I117  1  0.33298202  0.16566112  0.16572849  1
  I  I118  1  0.33061646  0.16239035  0.50461333  1
  I  I119  1  0.33483639  0.16627408  0.82886630  1
  I  I120  1  0.33309024  0.50103158  0.16622732  1
  I  I121  1  0.33570258  0.49901463  0.50236948  1
  I  I122  1  0.32976643  0.50277291  0.83220195  1
  I  I123  1  0.32980389  0.83322226  0.16751864  1
  I  I124  1  0.32975956  0.83755383  0.49980537  1
  I  I125  1  0.32829275  0.83153377  0.83233688  1
  I  I126  1  0.67175825  0.16343525  0.17294513  1
  I  I127  1  0.67038419  0.16357682  0.49790613  1
  I  I128  1  0.66846715  0.16715020  0.83149796  1
  I  I129  1  0.67105537  0.50165211  0.16651885  1
  I  I130  1  0.66430994  0.49843022  0.49929808  1
  I  I131  1  0.66681612  0.50061183  0.83371075  1
  I  I132  1  0.67124473  0.83504839  0.17284668  1
  I  I133  1  0.67055767  0.83826978  0.49348507  1
  I  I134  1  0.66684167  0.83251000  0.83322146  1
