# generated using pymatgen
data_Cs27Sn13Pb14I81
_symmetry_space_group_name_H-M   'P 1'
_cell_length_a   18.98080164
_cell_length_b   18.97669747
_cell_length_c   18.97247040
_cell_angle_alpha   89.99905673
_cell_angle_beta   90.00166306
_cell_angle_gamma   90.00041010
_symmetry_Int_Tables_number   1
_chemical_formula_structural   Cs27Sn13Pb14I81
_chemical_formula_sum   'Cs27 Sn13 Pb14 I81'
_cell_volume   6833.74970832
_cell_formula_units_Z   1
loop_
 _symmetry_equiv_pos_site_id
 _symmetry_equiv_pos_as_xyz
  1  'x, y, z'
loop_
 _atom_site_type_symbol
 _atom_site_label
 _atom_site_symmetry_multiplicity
 _atom_site_fract_x
 _atom_site_fract_y
 _atom_site_fract_z
 _atom_site_occupancy
  Cs  Cs0  1  -0.00068926  0.00906654  0.00041320  1
  Cs  Cs1  1  0.00017779  0.00020829  0.33531946  1
  Cs  Cs2  1  0.00074974  -0.00270856  0.66461765  1
  Cs  Cs3  1  -0.00108092  0.32278255  0.00066680  1
  Cs  Cs4  1  0.00093002  0.33444792  0.33211583  1
  Cs  Cs5  1  -0.00065454  0.33290261  0.66698864  1
  Cs  Cs6  1  -0.00115610  0.66569605  -0.00225433  1
  Cs  Cs7  1  0.00392991  0.66515370  0.33702785  1
  Cs  Cs8  1  0.00141704  0.66854298  0.66549427  1
  Cs  Cs9  1  0.32926261  -0.00309047  0.00219247  1
  Cs  Cs10  1  0.33629438  -0.00261825  0.32982897  1
  Cs  Cs11  1  0.33613727  0.00437005  0.66750999  1
  Cs  Cs12  1  0.33105551  0.33144673  -0.00192866  1
  Cs  Cs13  1  0.33440877  0.33658993  0.33489372  1
  Cs  Cs14  1  0.33699556  0.32897349  0.66688150  1
  Cs  Cs15  1  0.33331575  0.66887169  0.00077038  1
  Cs  Cs16  1  0.32929789  0.66528443  0.33087550  1
  Cs  Cs17  1  0.33130352  0.66604389  0.66779033  1
  Cs  Cs18  1  0.66979717  -0.00224435  0.00357914  1
  Cs  Cs19  1  0.66613486  0.00077465  0.33380142  1
  Cs  Cs20  1  0.66340377  -0.00049720  0.66347254  1
  Cs  Cs21  1  0.66935952  0.33536151  -0.00311868  1
  Cs  Cs22  1  0.66636862  0.33402695  0.33403780  1
  Cs  Cs23  1  0.66410828  0.33422725  0.66951006  1
  Cs  Cs24  1  0.66635189  0.66583005  0.00048152  1
  Cs  Cs25  1  0.66692039  0.66530751  0.33228390  1
  Cs  Cs26  1  0.66754509  0.66609441  0.66743581  1
  Sn  Sn27  1  0.50070219  0.49902908  0.16709858  1
  Sn  Sn28  1  0.49996994  0.83189307  0.50042132  1
  Sn  Sn29  1  0.83394764  0.16782368  0.49998225  1
  Sn  Sn30  1  0.83268199  0.49927370  0.49950876  1
  Sn  Sn31  1  0.50074036  0.50121833  0.49955616  1
  Sn  Sn32  1  0.50008051  0.83293226  0.83263029  1
  Sn  Sn33  1  0.16641599  0.50007681  0.83355902  1
  Sn  Sn34  1  0.83287437  0.50088131  0.16725473  1
  Sn  Sn35  1  0.83339405  0.83311749  0.83417047  1
  Sn  Sn36  1  0.50023670  0.16804047  0.16635858  1
  Sn  Sn37  1  0.16596553  0.16685324  0.49965464  1
  Sn  Sn38  1  0.83360675  0.83231414  0.16631291  1
  Sn  Sn39  1  0.16648433  0.83264206  0.83328949  1
  Pb  Pb40  1  0.50153589  0.83235414  0.16669365  1
  Pb  Pb41  1  0.83286890  0.16366017  0.83023698  1
  Pb  Pb42  1  0.50028624  0.16369951  0.83672782  1
  Pb  Pb43  1  0.16943389  0.16685830  0.16959457  1
  Pb  Pb44  1  0.83179865  0.83264113  0.49982357  1
  Pb  Pb45  1  0.83169987  0.16725169  0.16889273  1
  Pb  Pb46  1  0.16684343  0.49848197  0.50194031  1
  Pb  Pb47  1  0.49833584  0.50182739  0.83360113  1
  Pb  Pb48  1  0.16666196  0.16637175  0.83130754  1
  Pb  Pb49  1  0.83520118  0.50161848  0.83333124  1
  Pb  Pb50  1  0.16982208  0.83529144  0.50200600  1
  Pb  Pb51  1  0.16615798  0.49996696  0.16413537  1
  Pb  Pb52  1  0.50039043  0.16717624  0.49857711  1
  Pb  Pb53  1  0.16291682  0.83318808  0.16419101  1
  I  I54  1  0.16846493  -0.00005083  0.16458453  1
  I  I55  1  0.16105795  0.00297239  0.50215296  1
  I  I56  1  0.16714660  -0.00337923  0.83195214  1
  I  I57  1  0.16282734  0.33347343  0.16209536  1
  I  I58  1  0.16751833  0.33079102  0.50338553  1
  I  I59  1  0.16717329  0.33574315  0.83222113  1
  I  I60  1  0.17184395  0.66662768  0.16914497  1
  I  I61  1  0.16474090  0.66668588  0.50043045  1
  I  I62  1  0.16697016  0.66799577  0.83190889  1
  I  I63  1  0.50146292  0.00117336  0.16758451  1
  I  I64  1  0.50036505  -0.00204953  0.50251087  1
  I  I65  1  0.49780301  -0.00475020  0.82702524  1
  I  I66  1  0.50500113  0.33518858  0.17395494  1
  I  I67  1  0.50058099  0.33635257  0.49729629  1
  I  I68  1  0.49681107  0.33362179  0.83019003  1
  I  I69  1  0.50301468  0.66371316  0.16770380  1
  I  I70  1  0.50600411  0.66572527  0.49862895  1
  I  I71  1  0.50194825  0.67011320  0.83367211  1
  I  I72  1  0.83096123  -0.00222997  0.16353501  1
  I  I73  1  0.83487068  0.00158221  0.50073973  1
  I  I74  1  0.83578117  -0.00481836  0.83900173  1
  I  I75  1  0.83093867  0.33660488  0.16934388  1
  I  I76  1  0.83150108  0.33475295  0.49433425  1
  I  I77  1  0.83632878  0.33350726  0.83585102  1
  I  I78  1  0.82631207  0.66575754  0.16787152  1
  I  I79  1  0.83004613  0.66380851  0.49928212  1
  I  I80  1  0.83124106  0.66996948  0.83229762  1
  I  I81  1  0.16772172  0.16610508  -0.00001021  1
  I  I82  1  0.16194843  0.16767153  0.33722334  1
  I  I83  1  0.16444953  0.16618485  0.66355936  1
  I  I84  1  0.16813458  0.50573601  -0.00361971  1
  I  I85  1  0.16708462  0.49816033  0.33348029  1
  I  I86  1  0.16624901  0.50485761  0.66952272  1
  I  I87  1  0.17413215  0.82995652  -0.00422372  1
  I  I88  1  0.16737940  0.83503030  0.33354997  1
  I  I89  1  0.16110391  0.82976245  0.67016289  1
  I  I90  1  0.50093810  0.17249053  0.00438353  1
  I  I91  1  0.50033484  0.16480562  0.33097044  1
  I  I92  1  0.49939570  0.16747729  0.66648048  1
  I  I93  1  0.50381480  0.49798150  0.00303821  1
  I  I94  1  0.50352246  0.50192663  0.33391099  1
  I  I95  1  0.50334289  0.50228730  0.66374752  1
  I  I96  1  0.49850810  0.83395654  -0.00255862  1
  I  I97  1  0.50328468  0.83394716  0.33561515  1
  I  I98  1  0.50266417  0.82896075  0.66656487  1
  I  I99  1  0.83258441  0.16802310  0.00025822  1
  I  I100  1  0.83568881  0.16469836  0.33670417  1
  I  I101  1  0.83539334  0.17151794  0.66222602  1
  I  I102  1  0.82887155  0.50379198  0.00289693  1
  I  I103  1  0.82921573  0.50232239  0.33348381  1
  I  I104  1  0.82979468  0.49771267  0.66358874  1
  I  I105  1  0.82992121  0.82740530  -0.00013443  1
  I  I106  1  0.82873595  0.83319126  0.33114342  1
  I  I107  1  0.83438399  0.83380509  0.66913344  1
  I  I108  1  -0.00024972  0.16628393  0.16562824  1
  I  I109  1  -0.00117163  0.17110560  0.50038974  1
  I  I110  1  -0.00021425  0.16480381  0.83556116  1
  I  I111  1  -0.00373707  0.50542911  0.17117764  1
  I  I112  1  -0.00299867  0.49807813  0.49677509  1
  I  I113  1  0.00271979  0.50744081  0.83171344  1
  I  I114  1  -0.00515956  0.82781904  0.16375889  1
  I  I115  1  -0.00004752  0.83238679  0.50099675  1
  I  I116  1  -0.00021042  0.82882929  0.83720825  1
  I  I117  1  0.33734211  0.17108690  0.16904954  1
  I  I118  1  0.33188140  0.16585243  0.49974762  1
  I  I119  1  0.33347939  0.16491894  0.82992047  1
  I  I120  1  0.33660911  0.49670576  0.17089732  1
  I  I121  1  0.33651768  0.50218724  0.49681588  1
  I  I122  1  0.33070006  0.50640502  0.83262125  1
  I  I123  1  0.33344321  0.83419891  0.16604820  1
  I  I124  1  0.33785748  0.82985050  0.50381003  1
  I  I125  1  0.33362758  0.82967771  0.82806951  1
  I  I126  1  0.66404242  0.16642038  0.17066720  1
  I  I127  1  0.66894163  0.16654797  0.49802434  1
  I  I128  1  0.66659455  0.16587313  0.82965225  1
  I  I129  1  0.66669047  0.50065240  0.17056373  1
  I  I130  1  0.66667959  0.49831950  0.49694969  1
  I  I131  1  0.66671834  0.50207595  0.83289379  1
  I  I132  1  0.66929623  0.83236542  0.16117804  1
  I  I133  1  0.66392407  0.83476474  0.50537654  1
  I  I134  1  0.66667133  0.83394532  0.83316470  1
