# generated using pymatgen
data_Cs27Sn13Pb14I81
_symmetry_space_group_name_H-M   'P 1'
_cell_length_a   18.97907974
_cell_length_b   18.97990332
_cell_length_c   18.97121706
_cell_angle_alpha   90.00272245
_cell_angle_beta   90.00014463
_cell_angle_gamma   90.00033693
_symmetry_Int_Tables_number   1
_chemical_formula_structural   Cs27Sn13Pb14I81
_chemical_formula_sum   'Cs27 Sn13 Pb14 I81'
_cell_volume   6833.83264361
_cell_formula_units_Z   1
loop_
 _symmetry_equiv_pos_site_id
 _symmetry_equiv_pos_as_xyz
  1  'x, y, z'
loop_
 _atom_site_type_symbol
 _atom_site_label
 _atom_site_symmetry_multiplicity
 _atom_site_fract_x
 _atom_site_fract_y
 _atom_site_fract_z
 _atom_site_occupancy
  Cs  Cs0  1  0.00568848  -0.00100805  -0.00105438  1
  Cs  Cs1  1  0.00199010  -0.00138690  0.33254036  1
  Cs  Cs2  1  -0.00333183  0.00256996  0.66717725  1
  Cs  Cs3  1  0.00034275  0.33593040  0.00022895  1
  Cs  Cs4  1  -0.00483742  0.33400660  0.33479956  1
  Cs  Cs5  1  0.00011018  0.33314052  0.66588828  1
  Cs  Cs6  1  0.00061470  0.66537072  -0.00182113  1
  Cs  Cs7  1  0.00231394  0.66726164  0.33258545  1
  Cs  Cs8  1  0.00009812  0.66537820  0.66956079  1
  Cs  Cs9  1  0.32942165  0.01022943  0.00084205  1
  Cs  Cs10  1  0.33037641  -0.00393225  0.33137996  1
  Cs  Cs11  1  0.33646797  0.00115826  0.66743458  1
  Cs  Cs12  1  0.33395339  0.32879142  -0.00269250  1
  Cs  Cs13  1  0.33492235  0.33537945  0.33553491  1
  Cs  Cs14  1  0.33541725  0.33502711  0.66826127  1
  Cs  Cs15  1  0.33166058  0.66488069  0.00155967  1
  Cs  Cs16  1  0.33219778  0.66831746  0.33640457  1
  Cs  Cs17  1  0.33907293  0.66574231  0.66085940  1
  Cs  Cs18  1  0.66280663  -0.00331823  -0.00075153  1
  Cs  Cs19  1  0.66692855  0.00135841  0.33406198  1
  Cs  Cs20  1  0.66940071  -0.00300662  0.66677279  1
  Cs  Cs21  1  0.66466269  0.33316331  0.00454438  1
  Cs  Cs22  1  0.67057761  0.33089612  0.33145764  1
  Cs  Cs23  1  0.66782138  0.33403787  0.66534068  1
  Cs  Cs24  1  0.66579138  0.66838179  0.00048606  1
  Cs  Cs25  1  0.66599017  0.66718557  0.33044625  1
  Cs  Cs26  1  0.66237174  0.66909282  0.66919258  1
  Sn  Sn27  1  0.16631405  0.50107039  0.83368390  1
  Sn  Sn28  1  0.83345559  0.16658596  0.50066873  1
  Sn  Sn29  1  0.49882190  0.50056891  0.16662136  1
  Sn  Sn30  1  0.83308337  0.83337288  0.16705805  1
  Sn  Sn31  1  0.83326314  0.16767677  0.83332260  1
  Sn  Sn32  1  0.83361622  0.49911163  0.83264074  1
  Sn  Sn33  1  0.50021153  0.83285155  0.16645985  1
  Sn  Sn34  1  0.16757681  0.49990690  0.16632636  1
  Sn  Sn35  1  0.50016597  0.16664556  0.49994983  1
  Sn  Sn36  1  0.83357478  0.83294920  0.49919895  1
  Sn  Sn37  1  0.16658924  0.16670685  0.49994593  1
  Sn  Sn38  1  0.16711146  0.83237150  0.83279489  1
  Sn  Sn39  1  0.83335336  0.50059948  0.50090648  1
  Pb  Pb40  1  0.16488125  0.49852275  0.50052793  1
  Pb  Pb41  1  0.50332055  0.16675223  0.83081095  1
  Pb  Pb42  1  0.50016653  0.50006960  0.83549528  1
  Pb  Pb43  1  0.49643959  0.83331976  0.83620035  1
  Pb  Pb44  1  0.50000347  0.16646726  0.16882845  1
  Pb  Pb45  1  0.83437097  0.83304262  0.83343041  1
  Pb  Pb46  1  0.16636873  0.17002464  0.16928035  1
  Pb  Pb47  1  0.16449534  0.83519480  0.50254171  1
  Pb  Pb48  1  0.16471419  0.16758222  0.83129595  1
  Pb  Pb49  1  0.83343893  0.50184027  0.16624211  1
  Pb  Pb50  1  0.50222633  0.83525174  0.49793922  1
  Pb  Pb51  1  0.16677596  0.83143071  0.16499089  1
  Pb  Pb52  1  0.83348970  0.16366097  0.16613165  1
  Pb  Pb53  1  0.50298567  0.49837474  0.49751247  1
  I  I54  1  0.16712643  -0.00012449  0.16497658  1
  I  I55  1  0.16354812  0.00325028  0.50145281  1
  I  I56  1  0.16385400  -0.00155113  0.83245239  1
  I  I57  1  0.17135636  0.33791345  0.15948910  1
  I  I58  1  0.16283500  0.33045825  0.50069640  1
  I  I59  1  0.16348580  0.33654445  0.83641540  1
  I  I60  1  0.16649060  0.66347080  0.16565176  1
  I  I61  1  0.16379178  0.66653455  0.49831487  1
  I  I62  1  0.15808068  0.66505205  0.83777543  1
  I  I63  1  0.50586703  -0.00294425  0.16836864  1
  I  I64  1  0.50277435  0.00326951  0.49786367  1
  I  I65  1  0.50000878  0.00002685  0.83587849  1
  I  I66  1  0.49677927  0.33621022  0.16782416  1
  I  I67  1  0.50280650  0.33036785  0.49763987  1
  I  I68  1  0.49604664  0.33340890  0.83626801  1
  I  I69  1  0.50159935  0.66655327  0.16708140  1
  I  I70  1  0.50170369  0.66669125  0.50039881  1
  I  I71  1  0.50563059  0.66664871  0.83099675  1
  I  I72  1  0.82761954  -0.00423659  0.17069259  1
  I  I73  1  0.83297959  0.00091843  0.50042794  1
  I  I74  1  0.83523541  0.00206425  0.82898543  1
  I  I75  1  0.83281562  0.33359482  0.16951778  1
  I  I76  1  0.83370639  0.33281716  0.50403678  1
  I  I77  1  0.83917473  0.33415146  0.82492392  1
  I  I78  1  0.83237204  0.66952119  0.17087267  1
  I  I79  1  0.83451610  0.66647410  0.49963394  1
  I  I80  1  0.83653771  0.66380685  0.83052092  1
  I  I81  1  0.16470183  0.16429894  -0.00035030  1
  I  I82  1  0.16223570  0.16669168  0.33737947  1
  I  I83  1  0.16616781  0.16836468  0.66339604  1
  I  I84  1  0.16298731  0.50372428  -0.00072269  1
  I  I85  1  0.16824938  0.49806812  0.33105145  1
  I  I86  1  0.16210644  0.50154174  0.66964162  1
  I  I87  1  0.16243928  0.83212479  -0.00279774  1
  I  I88  1  0.16711282  0.83346516  0.33342458  1
  I  I89  1  0.16295886  0.82663910  0.67016999  1
  I  I90  1  0.50144801  0.16628102  0.00009646  1
  I  I91  1  0.50510743  0.16759904  0.33684064  1
  I  I92  1  0.49834448  0.16712272  0.66265420  1
  I  I93  1  0.50217989  0.50327320  0.00364405  1
  I  I94  1  0.49508615  0.50366664  0.32971254  1
  I  I95  1  0.49775559  0.49835542  0.66637379  1
  I  I96  1  0.50998165  0.82931351  0.00412745  1
  I  I97  1  0.50122258  0.82963088  0.33000570  1
  I  I98  1  0.50112256  0.83476970  0.66651525  1
  I  I99  1  0.83479292  0.17150763  -0.00318478  1
  I  I100  1  0.83279640  0.16996689  0.33692466  1
  I  I101  1  0.83367518  0.16527363  0.66504042  1
  I  I102  1  0.83488818  0.49680374  -0.00280388  1
  I  I103  1  0.83322712  0.49662186  0.33577408  1
  I  I104  1  0.83951528  0.49971778  0.66671323  1
  I  I105  1  0.83083082  0.83239189  0.00233783  1
  I  I106  1  0.83046369  0.83360490  0.33412176  1
  I  I107  1  0.83609057  0.83511355  0.66401777  1
  I  I108  1  -0.00017410  0.16620378  0.17017468  1
  I  I109  1  -0.00183603  0.16687390  0.50386151  1
  I  I110  1  -0.00321435  0.16736329  0.82606978  1
  I  I111  1  0.00193591  0.50126242  0.16552175  1
  I  I112  1  -0.00356423  0.49677892  0.49834501  1
  I  I113  1  -0.00046627  0.49981788  0.83577621  1
  I  I114  1  -0.00241593  0.83252029  0.16988890  1
  I  I115  1  -0.00404785  0.83602036  0.49359474  1
  I  I116  1  0.00198626  0.83204168  0.83552326  1
  I  I117  1  0.33318080  0.16201250  0.16867293  1
  I  I118  1  0.33321670  0.16770856  0.49805098  1
  I  I119  1  0.33317174  0.16626186  0.83138250  1
  I  I120  1  0.33306160  0.50518020  0.16241519  1
  I  I121  1  0.33344392  0.49655908  0.50153695  1
  I  I122  1  0.33003882  0.50355599  0.83594242  1
  I  I123  1  0.33579829  0.83074448  0.16531506  1
  I  I124  1  0.33329811  0.83601809  0.49911605  1
  I  I125  1  0.32872526  0.82691915  0.83372559  1
  I  I126  1  0.66689368  0.17162539  0.16917483  1
  I  I127  1  0.66847868  0.16673549  0.50280889  1
  I  I128  1  0.67151438  0.17150116  0.82786957  1
  I  I129  1  0.66487827  0.50210210  0.16787595  1
  I  I130  1  0.67130676  0.49761820  0.50389791  1
  I  I131  1  0.67021461  0.49581219  0.83014993  1
  I  I132  1  0.66715904  0.82765244  0.17017343  1
  I  I133  1  0.67079327  0.83569808  0.49981353  1
  I  I134  1  0.66674785  0.83398790  0.83221703  1
