# generated using pymatgen
data_Cs27Sn14Pb13I81
_symmetry_space_group_name_H-M   'P 1'
_cell_length_a   18.98441149
_cell_length_b   18.97029425
_cell_length_c   18.97445278
_cell_angle_alpha   90.00402998
_cell_angle_beta   90.00021088
_cell_angle_gamma   89.99798313
_symmetry_Int_Tables_number   1
_chemical_formula_structural   Cs27Sn14Pb13I81
_chemical_formula_sum   'Cs27 Sn14 Pb13 I81'
_cell_volume   6833.45697511
_cell_formula_units_Z   1
loop_
 _symmetry_equiv_pos_site_id
 _symmetry_equiv_pos_as_xyz
  1  'x, y, z'
loop_
 _atom_site_type_symbol
 _atom_site_label
 _atom_site_symmetry_multiplicity
 _atom_site_fract_x
 _atom_site_fract_y
 _atom_site_fract_z
 _atom_site_occupancy
  Cs  Cs0  1  -0.00060028  0.00097787  -0.00082422  1
  Cs  Cs1  1  0.00175902  0.00079464  0.33420049  1
  Cs  Cs2  1  -0.00297560  -0.00301487  0.66601666  1
  Cs  Cs3  1  -0.00073731  0.33367698  -0.00313271  1
  Cs  Cs4  1  0.00176852  0.33182994  0.33358629  1
  Cs  Cs5  1  0.00030633  0.33203444  0.66937746  1
  Cs  Cs6  1  -0.00247334  0.66505838  0.00019554  1
  Cs  Cs7  1  0.00123413  0.66673670  0.33454190  1
  Cs  Cs8  1  0.00104494  0.66925021  0.66490098  1
  Cs  Cs9  1  0.33560424  0.00073503  -0.00085174  1
  Cs  Cs10  1  0.33026881  0.00130667  0.33206865  1
  Cs  Cs11  1  0.33634703  0.00402914  0.66892024  1
  Cs  Cs12  1  0.33110620  0.33152391  -0.00290813  1
  Cs  Cs13  1  0.33488699  0.33648367  0.33172019  1
  Cs  Cs14  1  0.33492637  0.32720712  0.67626048  1
  Cs  Cs15  1  0.33588404  0.66809989  -0.00090876  1
  Cs  Cs16  1  0.33263716  0.66428227  0.33549404  1
  Cs  Cs17  1  0.33164023  0.66652519  0.66314463  1
  Cs  Cs18  1  0.66657862  -0.00260918  0.00167701  1
  Cs  Cs19  1  0.66662548  0.00128686  0.33169977  1
  Cs  Cs20  1  0.66911186  0.00317566  0.66695646  1
  Cs  Cs21  1  0.66938924  0.33609487  0.00124969  1
  Cs  Cs22  1  0.66447611  0.33292067  0.33335339  1
  Cs  Cs23  1  0.66487580  0.33034676  0.66709412  1
  Cs  Cs24  1  0.66670154  0.66668817  0.00185119  1
  Cs  Cs25  1  0.66580379  0.66616814  0.33216632  1
  Cs  Cs26  1  0.66600300  0.66597683  0.66529283  1
  Sn  Sn27  1  0.50072727  0.16753154  0.16700794  1
  Sn  Sn28  1  0.50000310  0.83306696  0.49977086  1
  Sn  Sn29  1  0.83299645  0.83248405  0.50035219  1
  Sn  Sn30  1  0.16697465  0.50009775  0.49961125  1
  Sn  Sn31  1  0.83329341  0.16582553  0.83452098  1
  Sn  Sn32  1  0.16699778  0.83303285  0.50001298  1
  Sn  Sn33  1  0.83278597  0.16665798  0.16610181  1
  Sn  Sn34  1  0.49951578  0.50053986  0.49967935  1
  Sn  Sn35  1  0.16611907  0.83303811  0.83318307  1
  Sn  Sn36  1  0.49920004  0.49941301  0.16715650  1
  Sn  Sn37  1  0.16663914  0.83227276  0.16664022  1
  Sn  Sn38  1  0.83349015  0.50063288  0.49995449  1
  Sn  Sn39  1  0.83384469  0.83361520  0.83290940  1
  Sn  Sn40  1  0.16741318  0.50107433  0.16712436  1
  Pb  Pb41  1  0.16410351  0.16358709  0.83333366  1
  Pb  Pb42  1  0.16675182  0.16738495  0.16675707  1
  Pb  Pb43  1  0.16688174  0.16725918  0.50007405  1
  Pb  Pb44  1  0.50049309  0.83309784  0.83039419  1
  Pb  Pb45  1  0.16668745  0.50258081  0.83325386  1
  Pb  Pb46  1  0.49981502  0.16711526  0.49789010  1
  Pb  Pb47  1  0.83376119  0.49806659  0.16902883  1
  Pb  Pb48  1  0.83338304  0.16659001  0.49991138  1
  Pb  Pb49  1  0.49992513  0.50025430  0.83332725  1
  Pb  Pb50  1  0.83555936  0.83493243  0.16707492  1
  Pb  Pb51  1  0.83331611  0.50080601  0.83036599  1
  Pb  Pb52  1  0.49758743  0.83280704  0.16895849  1
  Pb  Pb53  1  0.50294181  0.16653159  0.83671017  1
  I  I54  1  0.16599414  -0.00292842  0.16820950  1
  I  I55  1  0.16514952  -0.00421846  0.49855570  1
  I  I56  1  0.16535915  -0.00476944  0.83277760  1
  I  I57  1  0.16733255  0.33679609  0.17372859  1
  I  I58  1  0.16544996  0.33759466  0.49259391  1
  I  I59  1  0.16565573  0.33335622  0.83304582  1
  I  I60  1  0.17147056  0.66644968  0.16859908  1
  I  I61  1  0.16616155  0.66745414  0.49931840  1
  I  I62  1  0.15867648  0.67070064  0.83240330  1
  I  I63  1  0.50269753  0.00195203  0.16802411  1
  I  I64  1  0.50013048  -0.00312492  0.49935722  1
  I  I65  1  0.49673380  -0.00022365  0.83304183  1
  I  I66  1  0.49877295  0.33457576  0.17365018  1
  I  I67  1  0.50133781  0.33707456  0.49726767  1
  I  I68  1  0.50187033  0.33317135  0.82712440  1
  I  I69  1  0.49785873  0.66362594  0.16938760  1
  I  I70  1  0.50033312  0.66624474  0.49445194  1
  I  I71  1  0.50369470  0.66699350  0.83963473  1
  I  I72  1  0.82891015  0.00293770  0.16786279  1
  I  I73  1  0.83440158  -0.00342711  0.50096780  1
  I  I74  1  0.83802391  -0.00121410  0.83055958  1
  I  I75  1  0.83409292  0.33010388  0.16251583  1
  I  I76  1  0.83311312  0.33639862  0.49885263  1
  I  I77  1  0.83183913  0.33074813  0.83619672  1
  I  I78  1  0.83052410  0.66664069  0.16341431  1
  I  I79  1  0.83394745  0.66775840  0.50498317  1
  I  I80  1  0.83813014  0.67030180  0.83050031  1
  I  I81  1  0.16843401  0.16638291  0.00019941  1
  I  I82  1  0.16244495  0.15991241  0.33306648  1
  I  I83  1  0.16491149  0.16840567  0.66684503  1
  I  I84  1  0.17168937  0.50350283  0.00336619  1
  I  I85  1  0.16709099  0.50788346  0.33386919  1
  I  I86  1  0.16634294  0.50441696  0.66296824  1
  I  I87  1  0.16125835  0.83017598  0.00019445  1
  I  I88  1  0.16616134  0.83010525  0.33433107  1
  I  I89  1  0.16488441  0.82950758  0.66537862  1
  I  I90  1  0.50014304  0.17212575  0.00459481  1
  I  I91  1  0.50755011  0.16774485  0.33005127  1
  I  I92  1  0.50086539  0.16719436  0.66682204  1
  I  I93  1  0.49506346  0.49537939  0.00389990  1
  I  I94  1  0.49909256  0.49971601  0.33399459  1
  I  I95  1  0.49963229  0.50541810  0.66253571  1
  I  I96  1  0.49947662  0.83363211  0.00030973  1
  I  I97  1  0.50196445  0.83231585  0.33713670  1
  I  I98  1  0.49568629  0.82657826  0.66204468  1
  I  I99  1  0.82962653  0.16040128  -0.00006632  1
  I  I100  1  0.82971845  0.16664525  0.33079592  1
  I  I101  1  0.83516834  0.16461742  0.66903522  1
  I  I102  1  0.83278393  0.50147472  0.00015218  1
  I  I103  1  0.83341816  0.50548714  0.33708609  1
  I  I104  1  0.83391558  0.49933115  0.66196278  1
  I  I105  1  0.83861623  0.83686306  -0.00240614  1
  I  I106  1  0.83435538  0.83107165  0.33665092  1
  I  I107  1  0.83812142  0.83565041  0.66572966  1
  I  I108  1  -0.00254745  0.16566761  0.16310727  1
  I  I109  1  -0.00020795  0.16744473  0.49679017  1
  I  I110  1  -0.00374948  0.16597284  0.84020837  1
  I  I111  1  0.00294439  0.50293161  0.17121406  1
  I  I112  1  0.00064260  0.50616121  0.49594230  1
  I  I113  1  -0.00008846  0.49650919  0.83479437  1
  I  I114  1  0.00357599  0.82938807  0.17146259  1
  I  I115  1  0.00021541  0.82842304  0.50089954  1
  I  I116  1  -0.00021862  0.83738704  0.82782321  1
  I  I117  1  0.33584759  0.16738677  0.16974345  1
  I  I118  1  0.33343395  0.16388788  0.49732978  1
  I  I119  1  0.33345776  0.16595152  0.83351211  1
  I  I120  1  0.33326934  0.49817552  0.17545368  1
  I  I121  1  0.33314235  0.50857473  0.49367450  1
  I  I122  1  0.33315549  0.50172724  0.82903289  1
  I  I123  1  0.32952959  0.83519929  0.16624600  1
  I  I124  1  0.33241114  0.82748406  0.49913820  1
  I  I125  1  0.33025331  0.83136565  0.83293019  1
  I  I126  1  0.66658061  0.17162720  0.16381144  1
  I  I127  1  0.66677817  0.16600574  0.50132907  1
  I  I128  1  0.67065878  0.15874272  0.83298868  1
  I  I129  1  0.66418222  0.49699733  0.17140588  1
  I  I130  1  0.66620530  0.50642973  0.49649881  1
  I  I131  1  0.66688164  0.50216667  0.83341031  1
  I  I132  1  0.66659207  0.83211455  0.16652949  1
  I  I133  1  0.66733016  0.82770833  0.50445066  1
  I  I134  1  0.67024619  0.83777563  0.82845169  1
