# generated using pymatgen
data_Cs27Sn14Pb13I81
_symmetry_space_group_name_H-M   'P 1'
_cell_length_a   18.96550322
_cell_length_b   18.96460983
_cell_length_c   18.95303809
_cell_angle_alpha   89.99914901
_cell_angle_beta   89.99903823
_cell_angle_gamma   89.99996697
_symmetry_Int_Tables_number   1
_chemical_formula_structural   Cs27Sn14Pb13I81
_chemical_formula_sum   'Cs27 Sn14 Pb13 I81'
_cell_volume   6816.90305593
_cell_formula_units_Z   1
loop_
 _symmetry_equiv_pos_site_id
 _symmetry_equiv_pos_as_xyz
  1  'x, y, z'
loop_
 _atom_site_type_symbol
 _atom_site_label
 _atom_site_symmetry_multiplicity
 _atom_site_fract_x
 _atom_site_fract_y
 _atom_site_fract_z
 _atom_site_occupancy
  Cs  Cs0  1  0.00212332  0.00079021  -0.00056127  1
  Cs  Cs1  1  -0.00120248  0.00140222  0.33259714  1
  Cs  Cs2  1  0.00023583  -0.00301184  0.66750030  1
  Cs  Cs3  1  -0.00035071  0.33296883  -0.00054647  1
  Cs  Cs4  1  0.00130908  0.33349125  0.33308883  1
  Cs  Cs5  1  -0.00166083  0.33451957  0.66771386  1
  Cs  Cs6  1  -0.00026357  0.66617293  0.00050306  1
  Cs  Cs7  1  -0.00034490  0.66175279  0.33404151  1
  Cs  Cs8  1  0.00097651  0.67001016  0.66561797  1
  Cs  Cs9  1  0.33018390  -0.00087135  0.00036527  1
  Cs  Cs10  1  0.33280643  0.00294830  0.33286612  1
  Cs  Cs11  1  0.33418008  -0.00110320  0.66512596  1
  Cs  Cs12  1  0.33344253  0.33513657  0.00049172  1
  Cs  Cs13  1  0.33060953  0.33179364  0.33409296  1
  Cs  Cs14  1  0.33680795  0.33062836  0.66500086  1
  Cs  Cs15  1  0.33446359  0.66634043  0.00007129  1
  Cs  Cs16  1  0.33370034  0.66195430  0.33347764  1
  Cs  Cs17  1  0.33287204  0.66946779  0.66698128  1
  Cs  Cs18  1  0.66689167  -0.00060483  0.00207028  1
  Cs  Cs19  1  0.66748484  -0.00090212  0.33219622  1
  Cs  Cs20  1  0.66651008  -0.00012827  0.66664940  1
  Cs  Cs21  1  0.66570015  0.33856880  -0.00843245  1
  Cs  Cs22  1  0.66770552  0.33207986  0.33569431  1
  Cs  Cs23  1  0.66533341  0.33401991  0.67045860  1
  Cs  Cs24  1  0.66488935  0.66241387  0.00680231  1
  Cs  Cs25  1  0.66660601  0.66750637  0.33207673  1
  Cs  Cs26  1  0.66635456  0.66682405  0.66528070  1
  Sn  Sn27  1  0.16651289  0.83364064  0.16636069  1
  Sn  Sn28  1  0.50064611  0.50068174  0.50006620  1
  Sn  Sn29  1  0.16663733  0.16566363  0.16576745  1
  Sn  Sn30  1  0.83345559  0.16649227  0.49981028  1
  Sn  Sn31  1  0.83259579  0.83326566  0.50044952  1
  Sn  Sn32  1  0.50070352  0.83275135  0.50035457  1
  Sn  Sn33  1  0.50025815  0.16681527  0.16625059  1
  Sn  Sn34  1  0.83284046  0.83327480  0.83334028  1
  Sn  Sn35  1  0.16668882  0.16663537  0.83369084  1
  Sn  Sn36  1  0.83253869  0.50024626  0.50023015  1
  Sn  Sn37  1  0.50039797  0.83344799  0.83320818  1
  Sn  Sn38  1  0.16668936  0.50011368  0.83301129  1
  Sn  Sn39  1  0.16668248  0.83355855  0.83420591  1
  Sn  Sn40  1  0.83291397  0.16670042  0.16672615  1
  Pb  Pb41  1  0.83543314  0.83484327  0.16699665  1
  Pb  Pb42  1  0.83498239  0.16473531  0.83341882  1
  Pb  Pb43  1  0.50233166  0.16613620  0.49851566  1
  Pb  Pb44  1  0.49767093  0.16429035  0.83555744  1
  Pb  Pb45  1  0.83497801  0.50302979  0.83113033  1
  Pb  Pb46  1  0.49777912  0.83470423  0.16727031  1
  Pb  Pb47  1  0.16692086  0.49991310  0.50240646  1
  Pb  Pb48  1  0.49800924  0.50257889  0.83112612  1
  Pb  Pb49  1  0.16418277  0.16659904  0.49996511  1
  Pb  Pb50  1  0.16683020  0.83337872  0.49947853  1
  Pb  Pb51  1  0.83322897  0.49686138  0.16895391  1
  Pb  Pb52  1  0.50006301  0.49706244  0.16937249  1
  Pb  Pb53  1  0.16663794  0.49976530  0.16433357  1
  I  I54  1  0.16633042  0.00093313  0.15919946  1
  I  I55  1  0.16684365  -0.00011068  0.50374870  1
  I  I56  1  0.16612402  -0.00101087  0.83787331  1
  I  I57  1  0.16621718  0.32957692  0.16337509  1
  I  I58  1  0.16671594  0.33319698  0.50065038  1
  I  I59  1  0.16531013  0.33240495  0.83682541  1
  I  I60  1  0.16672466  0.66955249  0.16281930  1
  I  I61  1  0.16240383  0.66687231  0.49966025  1
  I  I62  1  0.16648628  0.66853729  0.83575334  1
  I  I63  1  0.50062345  0.00274947  0.16915723  1
  I  I64  1  0.50327079  -0.00304543  0.50277108  1
  I  I65  1  0.49762309  -0.00395929  0.82635281  1
  I  I66  1  0.49615032  0.32887598  0.16871626  1
  I  I67  1  0.50319240  0.33546040  0.49759850  1
  I  I68  1  0.49755568  0.33329469  0.83252696  1
  I  I69  1  0.49742520  0.66684323  0.16537181  1
  I  I70  1  0.50698540  0.66790289  0.50355295  1
  I  I71  1  0.49706418  0.67092889  0.83200850  1
  I  I72  1  0.83311243  0.00306148  0.17260857  1
  I  I73  1  0.83067530  -0.00086912  0.49972060  1
  I  I74  1  0.83636361  -0.00349105  0.82768216  1
  I  I75  1  0.83771897  0.32836000  0.17193589  1
  I  I76  1  0.83146851  0.33317269  0.49438544  1
  I  I77  1  0.83662958  0.33334068  0.83236485  1
  I  I78  1  0.83599859  0.66682963  0.16727411  1
  I  I79  1  0.83040925  0.66765654  0.50554049  1
  I  I80  1  0.83682445  0.67129660  0.82781817  1
  I  I81  1  0.16430267  0.16466390  0.00045730  1
  I  I82  1  0.16792424  0.16172773  0.32991401  1
  I  I83  1  0.16488565  0.16443604  0.66984530  1
  I  I84  1  0.16661544  0.50101501  -0.00376032  1
  I  I85  1  0.16650409  0.49993214  0.33351058  1
  I  I86  1  0.16568488  0.50191383  0.67039070  1
  I  I87  1  0.16647163  0.83493002  -0.00164954  1
  I  I88  1  0.16652010  0.84008178  0.33043381  1
  I  I89  1  0.16619886  0.83430110  0.66992144  1
  I  I90  1  0.50417257  0.16393001  0.00364645  1
  I  I91  1  0.49453304  0.16465869  0.33047392  1
  I  I92  1  0.49910738  0.16791080  0.66675392  1
  I  I93  1  0.49844964  0.50054984  -0.00028862  1
  I  I94  1  0.50295688  0.50775713  0.33754881  1
  I  I95  1  0.50372722  0.50007806  0.66305118  1
  I  I96  1  0.50062659  0.83647260  -0.00266748  1
  I  I97  1  0.50406675  0.83141791  0.33647420  1
  I  I98  1  0.49775556  0.83100582  0.66648329  1
  I  I99  1  0.83404261  0.16298797  0.00264107  1
  I  I100  1  0.83581934  0.16445820  0.33359549  1
  I  I101  1  0.83532776  0.16727638  0.66394593  1
  I  I102  1  0.83503000  0.49974826  -0.00038590  1
  I  I103  1  0.83140949  0.50596830  0.33767705  1
  I  I104  1  0.83051917  0.49444389  0.66275286  1
  I  I105  1  0.83315034  0.83663035  -0.00265361  1
  I  I106  1  0.83012874  0.83267624  0.33658378  1
  I  I107  1  0.83599424  0.83561190  0.66601544  1
  I  I108  1  0.00064288  0.16253075  0.16746489  1
  I  I109  1  -0.00409501  0.16575539  0.49518885  1
  I  I110  1  0.00333097  0.16367293  0.83740068  1
  I  I111  1  0.00004662  0.49861822  0.16988469  1
  I  I112  1  -0.00314969  0.50103923  0.50102010  1
  I  I113  1  0.00308181  0.50190585  0.83120758  1
  I  I114  1  0.00344479  0.83966363  0.16258708  1
  I  I115  1  -0.00317493  0.83334378  0.50322711  1
  I  I116  1  0.00065393  0.83399695  0.83194323  1
  I  I117  1  0.33204708  0.16242905  0.16285413  1
  I  I118  1  0.33352732  0.16711223  0.49877112  1
  I  I119  1  0.32927310  0.16436223  0.83765323  1
  I  I120  1  0.33322511  0.49786127  0.17005664  1
  I  I121  1  0.33632355  0.50554640  0.50112328  1
  I  I122  1  0.32996783  0.50177580  0.83135525  1
  I  I123  1  0.32976864  0.83992950  0.16235147  1
  I  I124  1  0.33636639  0.82897692  0.50318963  1
  I  I125  1  0.33257585  0.83357683  0.83251164  1
  I  I126  1  0.66744434  0.16517985  0.17413956  1
  I  I127  1  0.67046701  0.16555942  0.49443503  1
  I  I128  1  0.66665823  0.16485642  0.83467837  1
  I  I129  1  0.66666869  0.49975146  0.16382530  1
  I  I130  1  0.66735534  0.50090052  0.49998227  1
  I  I131  1  0.66658701  0.50007983  0.83393321  1
  I  I132  1  0.66670043  0.83644261  0.16395585  1
  I  I133  1  0.66729508  0.83355361  0.50720425  1
  I  I134  1  0.66682186  0.83528037  0.82683127  1
