# generated using pymatgen
data_Cs27Sn13Pb14I81
_symmetry_space_group_name_H-M   'P 1'
_cell_length_a   18.98297427
_cell_length_b   18.97780294
_cell_length_c   18.97188350
_cell_angle_alpha   90.00066086
_cell_angle_beta   89.99905496
_cell_angle_gamma   90.00054602
_symmetry_Int_Tables_number   1
_chemical_formula_structural   Cs27Sn13Pb14I81
_chemical_formula_sum   'Cs27 Sn13 Pb14 I81'
_cell_volume   6834.71863664
_cell_formula_units_Z   1
loop_
 _symmetry_equiv_pos_site_id
 _symmetry_equiv_pos_as_xyz
  1  'x, y, z'
loop_
 _atom_site_type_symbol
 _atom_site_label
 _atom_site_symmetry_multiplicity
 _atom_site_fract_x
 _atom_site_fract_y
 _atom_site_fract_z
 _atom_site_occupancy
  Cs  Cs0  1  -0.00193403  0.00084784  -0.00018677  1
  Cs  Cs1  1  0.00245619  0.00023581  0.33363409  1
  Cs  Cs2  1  0.00394178  -0.00034188  0.66522792  1
  Cs  Cs3  1  0.00019513  0.33269760  0.00092355  1
  Cs  Cs4  1  -0.00440119  0.33485551  0.33135664  1
  Cs  Cs5  1  0.00367136  0.33481400  0.66238876  1
  Cs  Cs6  1  -0.00306671  0.66715896  0.00047262  1
  Cs  Cs7  1  0.00186601  0.66564021  0.33469370  1
  Cs  Cs8  1  0.00092371  0.66725797  0.66267638  1
  Cs  Cs9  1  0.33377106  0.00145251  -0.00086036  1
  Cs  Cs10  1  0.33246276  -0.00086246  0.33509881  1
  Cs  Cs11  1  0.33346994  -0.00057540  0.66634231  1
  Cs  Cs12  1  0.33213147  0.33401016  -0.00230778  1
  Cs  Cs13  1  0.33901346  0.33327610  0.33560619  1
  Cs  Cs14  1  0.32790270  0.34102624  0.66465844  1
  Cs  Cs15  1  0.33590943  0.66478868  0.00025346  1
  Cs  Cs16  1  0.33395742  0.66695209  0.33224969  1
  Cs  Cs17  1  0.33156334  0.66386273  0.66762322  1
  Cs  Cs18  1  0.66720042  -0.00066069  -0.00108045  1
  Cs  Cs19  1  0.66525908  -0.00042486  0.33361646  1
  Cs  Cs20  1  0.66535838  -0.00115815  0.66831190  1
  Cs  Cs21  1  0.66830639  0.33165245  -0.00045062  1
  Cs  Cs22  1  0.66809928  0.33328762  0.34042014  1
  Cs  Cs23  1  0.66703492  0.33426648  0.65970768  1
  Cs  Cs24  1  0.66673292  0.66776628  0.00102469  1
  Cs  Cs25  1  0.66318403  0.66762439  0.33180680  1
  Cs  Cs26  1  0.66706228  0.66776625  0.66751383  1
  Sn  Sn27  1  0.49915991  0.83396430  0.83289498  1
  Sn  Sn28  1  0.16753026  0.83345353  0.83456812  1
  Sn  Sn29  1  0.50099114  0.83364730  0.50107315  1
  Sn  Sn30  1  0.50036858  0.16658101  0.16574729  1
  Sn  Sn31  1  0.83273543  0.16769154  0.83365341  1
  Sn  Sn32  1  0.83312908  0.49876324  0.83394796  1
  Sn  Sn33  1  0.83291717  0.16720590  0.16588660  1
  Sn  Sn34  1  0.83249260  0.83378130  0.49986102  1
  Sn  Sn35  1  0.50045664  0.16651909  0.83370761  1
  Sn  Sn36  1  0.16615786  0.49974760  0.16613877  1
  Sn  Sn37  1  0.83369665  0.49933359  0.16553808  1
  Sn  Sn38  1  0.16677244  0.16701175  0.16623295  1
  Sn  Sn39  1  0.16667446  0.83333568  0.16527328  1
  Pb  Pb40  1  0.83325945  0.50240787  0.49967698  1
  Pb  Pb41  1  0.49992548  0.16486704  0.50115047  1
  Pb  Pb42  1  0.83332589  0.83374583  0.83190292  1
  Pb  Pb43  1  0.50250146  0.49933668  0.83349730  1
  Pb  Pb44  1  0.16395568  0.50256488  0.83567887  1
  Pb  Pb45  1  0.16661048  0.16525187  0.83488966  1
  Pb  Pb46  1  0.50063749  0.49674069  0.16638228  1
  Pb  Pb47  1  0.49774218  0.83542808  0.16607555  1
  Pb  Pb48  1  0.83338251  0.16444449  0.50044028  1
  Pb  Pb49  1  0.83534038  0.83352551  0.16860439  1
  Pb  Pb50  1  0.50004710  0.50318213  0.50018617  1
  Pb  Pb51  1  0.16733693  0.83339285  0.50018242  1
  Pb  Pb52  1  0.16673702  0.16685527  0.49711168  1
  Pb  Pb53  1  0.16651925  0.49991840  0.49674354  1
  I  I54  1  0.16607778  0.00027070  0.16360652  1
  I  I55  1  0.16521075  -0.00045235  0.49613114  1
  I  I56  1  0.16512416  -0.00294584  0.83936411  1
  I  I57  1  0.16471421  0.33280832  0.16746555  1
  I  I58  1  0.16638842  0.33349173  0.50164117  1
  I  I59  1  0.16971055  0.33345070  0.83427653  1
  I  I60  1  0.16128491  0.66677495  0.16369881  1
  I  I61  1  0.16609440  0.66709063  0.49708673  1
  I  I62  1  0.17106862  0.67059765  0.83866218  1
  I  I63  1  0.50138659  0.00353426  0.16574221  1
  I  I64  1  0.50364891  -0.00327665  0.50062557  1
  I  I65  1  0.50264828  -0.00006200  0.83413186  1
  I  I66  1  0.49494375  0.32857593  0.16021704  1
  I  I67  1  0.49972174  0.33309038  0.49887350  1
  I  I68  1  0.50207912  0.32958875  0.84014969  1
  I  I69  1  0.49961091  0.66680410  0.16788062  1
  I  I70  1  0.50419050  0.67166431  0.50469876  1
  I  I71  1  0.49747739  0.66983756  0.82878124  1
  I  I72  1  0.83443451  0.00322564  0.16331203  1
  I  I73  1  0.83013989  -0.00324266  0.49953205  1
  I  I74  1  0.83220623  0.00279654  0.83780256  1
  I  I75  1  0.83868986  0.33252785  0.16328392  1
  I  I76  1  0.83388531  0.33333833  0.49926415  1
  I  I77  1  0.82793453  0.33218812  0.83895546  1
  I  I78  1  0.83862319  0.66399870  0.16384223  1
  I  I79  1  0.82980972  0.67013680  0.50050206  1
  I  I80  1  0.83424098  0.66470625  0.83687156  1
  I  I81  1  0.16623030  0.16728077  0.00373893  1
  I  I82  1  0.16591634  0.16207628  0.32748710  1
  I  I83  1  0.16586578  0.16236259  0.66723948  1
  I  I84  1  0.16465400  0.49786468  0.00394754  1
  I  I85  1  0.15930619  0.50332849  0.32792993  1
  I  I86  1  0.16519075  0.50284976  0.66718235  1
  I  I87  1  0.17096518  0.83405844  0.00059219  1
  I  I88  1  0.16593117  0.83378785  0.33014101  1
  I  I89  1  0.16674527  0.83441289  0.66963850  1
  I  I90  1  0.50129816  0.15980664  -0.00004900  1
  I  I91  1  0.49953346  0.16567712  0.33027207  1
  I  I92  1  0.50720827  0.16243031  0.67064103  1
  I  I93  1  0.49850305  0.50686916  0.00009151  1
  I  I94  1  0.50110213  0.50031349  0.33293367  1
  I  I95  1  0.50249735  0.49578397  0.66700997  1
  I  I96  1  0.49785200  0.83574094  -0.00297341  1
  I  I97  1  0.50244946  0.83473035  0.33514043  1
  I  I98  1  0.49871308  0.83971038  0.66804543  1
  I  I99  1  0.83293566  0.16886488  0.00089484  1
  I  I100  1  0.83381839  0.16986433  0.32967141  1
  I  I101  1  0.82720200  0.16919946  0.67040144  1
  I  I102  1  0.83727926  0.49735606  0.00097594  1
  I  I103  1  0.83821875  0.49601481  0.32968830  1
  I  I104  1  0.83146722  0.49690043  0.66968573  1
  I  I105  1  0.83200436  0.83287423  0.00007542  1
  I  I106  1  0.82883708  0.83352049  0.33617139  1
  I  I107  1  0.83411846  0.83323542  0.66430147  1
  I  I108  1  -0.00044284  0.16658795  0.16319251  1
  I  I109  1  -0.00024602  0.16152959  0.50070524  1
  I  I110  1  -0.00295683  0.16734322  0.83830441  1
  I  I111  1  -0.00037626  0.49592695  0.16319679  1
  I  I112  1  -0.00036431  0.50477370  0.50197767  1
  I  I113  1  -0.00384638  0.49566100  0.83608919  1
  I  I114  1  0.00336096  0.83764070  0.16277571  1
  I  I115  1  -0.00186772  0.83294292  0.49971672  1
  I  I116  1  0.00209819  0.83342882  0.83601949  1
  I  I117  1  0.33325371  0.16481826  0.16339437  1
  I  I118  1  0.33354422  0.16219177  0.49837746  1
  I  I119  1  0.33616039  0.16124147  0.83883889  1
  I  I120  1  0.33040042  0.50070876  0.16812413  1
  I  I121  1  0.33320908  0.50201714  0.49852672  1
  I  I122  1  0.33306627  0.49895809  0.83397686  1
  I  I123  1  0.32965354  0.83299838  0.16805732  1
  I  I124  1  0.33621696  0.83469945  0.50050878  1
  I  I125  1  0.33419233  0.83930269  0.83164083  1
  I  I126  1  0.66739581  0.16981929  0.16283249  1
  I  I127  1  0.66667112  0.16618219  0.49381763  1
  I  I128  1  0.66677507  0.16290904  0.84241065  1
  I  I129  1  0.67030699  0.49716435  0.16348532  1
  I  I130  1  0.66699770  0.49952854  0.49648061  1
  I  I131  1  0.67048134  0.50261885  0.84114383  1
  I  I132  1  0.66658707  0.83306382  0.16564623  1
  I  I133  1  0.66585339  0.83402070  0.50531779  1
  I  I134  1  0.66421235  0.83457560  0.83040145  1
