# generated using pymatgen
data_Cs27Sn13Pb14I81
_symmetry_space_group_name_H-M   'P 1'
_cell_length_a   18.97933598
_cell_length_b   18.96950045
_cell_length_c   18.98108821
_cell_angle_alpha   89.99912002
_cell_angle_beta   89.99938805
_cell_angle_gamma   89.99973455
_symmetry_Int_Tables_number   1
_chemical_formula_structural   Cs27Sn13Pb14I81
_chemical_formula_sum   'Cs27 Sn13 Pb14 I81'
_cell_volume   6833.73314178
_cell_formula_units_Z   1
loop_
 _symmetry_equiv_pos_site_id
 _symmetry_equiv_pos_as_xyz
  1  'x, y, z'
loop_
 _atom_site_type_symbol
 _atom_site_label
 _atom_site_symmetry_multiplicity
 _atom_site_fract_x
 _atom_site_fract_y
 _atom_site_fract_z
 _atom_site_occupancy
  Cs  Cs0  1  -0.00186489  0.00169913  0.00052748  1
  Cs  Cs1  1  0.00144747  0.00022025  0.33499586  1
  Cs  Cs2  1  0.00091990  -0.00115021  0.66334007  1
  Cs  Cs3  1  0.00148842  0.33440407  -0.00616286  1
  Cs  Cs4  1  -0.00112220  0.33470081  0.33183324  1
  Cs  Cs5  1  0.00004759  0.33627062  0.67732873  1
  Cs  Cs6  1  0.00064256  0.66548128  -0.00094200  1
  Cs  Cs7  1  0.00104118  0.66628625  0.33324190  1
  Cs  Cs8  1  0.00062638  0.66597837  0.66793774  1
  Cs  Cs9  1  0.33487579  0.00566573  0.00828668  1
  Cs  Cs10  1  0.32556927  0.00649094  0.32826803  1
  Cs  Cs11  1  0.33185593  0.00393447  0.66366745  1
  Cs  Cs12  1  0.33133131  0.33054350  -0.00164449  1
  Cs  Cs13  1  0.33420394  0.33019541  0.33674653  1
  Cs  Cs14  1  0.33385320  0.32488520  0.66485536  1
  Cs  Cs15  1  0.33575556  0.66669322  -0.00043192  1
  Cs  Cs16  1  0.33000108  0.66676251  0.33163875  1
  Cs  Cs17  1  0.33503148  0.66736300  0.66876511  1
  Cs  Cs18  1  0.66605137  -0.00024863  -0.00015042  1
  Cs  Cs19  1  0.66896793  -0.00012249  0.33209284  1
  Cs  Cs20  1  0.66722364  -0.00269381  0.66812411  1
  Cs  Cs21  1  0.66701564  0.33080793  -0.00105678  1
  Cs  Cs22  1  0.66669199  0.33511271  0.33657862  1
  Cs  Cs23  1  0.66597252  0.33265010  0.66407235  1
  Cs  Cs24  1  0.66379885  0.66863753  0.00074221  1
  Cs  Cs25  1  0.66666774  0.66559444  0.33447338  1
  Cs  Cs26  1  0.66559548  0.66725637  0.66524214  1
  Sn  Sn27  1  0.16674330  0.50035637  0.16738123  1
  Sn  Sn28  1  0.50004575  0.50034194  0.83368421  1
  Sn  Sn29  1  0.49985225  0.83333073  0.49979038  1
  Sn  Sn30  1  0.16738866  0.83350574  0.83362629  1
  Sn  Sn31  1  0.83334805  0.83324161  0.16689756  1
  Sn  Sn32  1  0.49941302  0.83296564  0.83271083  1
  Sn  Sn33  1  0.83324586  0.16690618  0.16753508  1
  Sn  Sn34  1  0.16668161  0.50017418  0.50007335  1
  Sn  Sn35  1  0.83263754  0.83369103  0.49985415  1
  Sn  Sn36  1  0.83315234  0.49987611  0.16657270  1
  Sn  Sn37  1  0.83348710  0.16641637  0.49964636  1
  Sn  Sn38  1  0.50007267  0.50028039  0.16601405  1
  Sn  Sn39  1  0.83351326  0.83286807  0.83320260  1
  Pb  Pb40  1  0.16419023  0.83146515  0.16445774  1
  Pb  Pb41  1  0.50149990  0.83201877  0.16711930  1
  Pb  Pb42  1  0.50249664  0.16306977  0.49974696  1
  Pb  Pb43  1  0.83322198  0.16404523  0.83304256  1
  Pb  Pb44  1  0.83493074  0.50025792  0.49849557  1
  Pb  Pb45  1  0.49793118  0.50190201  0.50000260  1
  Pb  Pb46  1  0.16675719  0.83195229  0.50150198  1
  Pb  Pb47  1  0.16326376  0.16968796  0.50008515  1
  Pb  Pb48  1  0.50263002  0.16995374  0.16686598  1
  Pb  Pb49  1  0.16668705  0.16307196  0.83337646  1
  Pb  Pb50  1  0.16939314  0.50153313  0.83349977  1
  Pb  Pb51  1  0.83079166  0.50236068  0.83573995  1
  Pb  Pb52  1  0.16373427  0.16986543  0.16668410  1
  Pb  Pb53  1  0.50018717  0.16591495  0.83326843  1
  I  I54  1  0.16588912  -0.00000767  0.16497205  1
  I  I55  1  0.16810928  -0.00004439  0.50237327  1
  I  I56  1  0.16681173  -0.00522244  0.83160454  1
  I  I57  1  0.16511059  0.33815825  0.16928167  1
  I  I58  1  0.16719361  0.33751777  0.49511180  1
  I  I59  1  0.16712539  0.33370801  0.83337288  1
  I  I60  1  0.16328014  0.66320867  0.16956219  1
  I  I61  1  0.16343277  0.66418121  0.49558614  1
  I  I62  1  0.16338901  0.66948368  0.83359920  1
  I  I63  1  0.50219355  -0.00002172  0.16518466  1
  I  I64  1  0.50197259  -0.00513753  0.50806134  1
  I  I65  1  0.50211842  -0.00447944  0.82891315  1
  I  I66  1  0.50172263  0.33846953  0.16071831  1
  I  I67  1  0.50056933  0.33342981  0.50074187  1
  I  I68  1  0.49967391  0.33649066  0.83878238  1
  I  I69  1  0.50350426  0.66361442  0.16515730  1
  I  I70  1  0.50801351  0.66983583  0.50207831  1
  I  I71  1  0.50109352  0.66792970  0.83425393  1
  I  I72  1  0.83264876  -0.00101029  0.16634830  1
  I  I73  1  0.83005496  -0.00183979  0.49560104  1
  I  I74  1  0.83026832  -0.00469449  0.83824871  1
  I  I75  1  0.83286475  0.33392176  0.17267787  1
  I  I76  1  0.83523498  0.33108716  0.49357412  1
  I  I77  1  0.83257255  0.33359697  0.83313272  1
  I  I78  1  0.83330798  0.66675273  0.16635428  1
  I  I79  1  0.83107794  0.67000104  0.49942574  1
  I  I80  1  0.83496179  0.67085904  0.83236470  1
  I  I81  1  0.16365519  0.16886529  0.00024341  1
  I  I82  1  0.16755442  0.16336109  0.33331382  1
  I  I83  1  0.16366982  0.17064073  0.66652969  1
  I  I84  1  0.16356771  0.50188521  0.00284967  1
  I  I85  1  0.16709441  0.50248571  0.33199741  1
  I  I86  1  0.16624363  0.50288264  0.66473271  1
  I  I87  1  0.16674414  0.82950659  -0.00346022  1
  I  I88  1  0.16622759  0.83238989  0.33312522  1
  I  I89  1  0.16156568  0.82877809  0.66944691  1
  I  I90  1  0.50311495  0.16228737  0.00017963  1
  I  I91  1  0.49994043  0.16711083  0.33329960  1
  I  I92  1  0.50295113  0.17230854  0.66647623  1
  I  I93  1  0.49992708  0.50724114  0.00043663  1
  I  I94  1  0.50276289  0.50193064  0.33043952  1
  I  I95  1  0.49854062  0.50430845  0.66919845  1
  I  I96  1  0.50204528  0.82988651  -0.00278798  1
  I  I97  1  0.50723999  0.83008588  0.33589489  1
  I  I98  1  0.50619909  0.82674807  0.66770680  1
  I  I99  1  0.83340292  0.16653177  0.00314168  1
  I  I100  1  0.83290038  0.16132940  0.33262015  1
  I  I101  1  0.83333081  0.16124253  0.66360213  1
  I  I102  1  0.83855447  0.49958322  0.00426732  1
  I  I103  1  0.82940283  0.50458596  0.32980757  1
  I  I104  1  0.83462767  0.49970967  0.66683462  1
  I  I105  1  0.83336987  0.83206019  0.00019279  1
  I  I106  1  0.82855062  0.83312571  0.33338714  1
  I  I107  1  0.83257922  0.83793126  0.66646568  1
  I  I108  1  -0.00456579  0.16628408  0.17044219  1
  I  I109  1  -0.00448247  0.15753489  0.49449187  1
  I  I110  1  -0.00040606  0.16695079  0.83403015  1
  I  I111  1  -0.00075608  0.50102942  0.17194497  1
  I  I112  1  0.00258512  0.50255149  0.49415544  1
  I  I113  1  0.00004143  0.50188426  0.83420294  1
  I  I114  1  -0.00458724  0.83090394  0.16741633  1
  I  I115  1  -0.00335739  0.83550227  0.50051366  1
  I  I116  1  -0.00117526  0.83337054  0.83385606  1
  I  I117  1  0.33321062  0.16642845  0.16602504  1
  I  I118  1  0.33311765  0.16607773  0.50081438  1
  I  I119  1  0.33347862  0.16581804  0.83322061  1
  I  I120  1  0.33353745  0.50323129  0.16607262  1
  I  I121  1  0.33042875  0.50418853  0.49405571  1
  I  I122  1  0.33682598  0.50860104  0.83960850  1
  I  I123  1  0.33327554  0.83030200  0.16628627  1
  I  I124  1  0.33595852  0.82827148  0.50643413  1
  I  I125  1  0.33457828  0.82666486  0.82739862  1
  I  I126  1  0.67107055  0.16729486  0.16953219  1
  I  I127  1  0.67070469  0.16700827  0.49564541  1
  I  I128  1  0.66695855  0.16555185  0.83423008  1
  I  I129  1  0.66734262  0.50091816  0.16230842  1
  I  I130  1  0.66669822  0.49881174  0.49900413  1
  I  I131  1  0.66311957  0.50628564  0.83757186  1
  I  I132  1  0.67040906  0.83079614  0.16311121  1
  I  I133  1  0.66812286  0.83495854  0.50459756  1
  I  I134  1  0.66692248  0.82971684  0.83276029  1
