# generated using pymatgen
data_Cs27Sn14Pb13I81
_symmetry_space_group_name_H-M   'P 1'
_cell_length_a   18.97120021
_cell_length_b   18.98062673
_cell_length_c   18.97474742
_cell_angle_alpha   89.99879043
_cell_angle_beta   89.99881088
_cell_angle_gamma   90.00084246
_symmetry_Int_Tables_number   1
_chemical_formula_structural   Cs27Sn14Pb13I81
_chemical_formula_sum   'Cs27 Sn14 Pb13 I81'
_cell_volume   6832.52703800
_cell_formula_units_Z   1
loop_
 _symmetry_equiv_pos_site_id
 _symmetry_equiv_pos_as_xyz
  1  'x, y, z'
loop_
 _atom_site_type_symbol
 _atom_site_label
 _atom_site_symmetry_multiplicity
 _atom_site_fract_x
 _atom_site_fract_y
 _atom_site_fract_z
 _atom_site_occupancy
  Cs  Cs0  1  0.00305716  0.00120664  -0.00332909  1
  Cs  Cs1  1  -0.00574680  0.00095103  0.33833707  1
  Cs  Cs2  1  -0.00047594  0.00013733  0.66683004  1
  Cs  Cs3  1  -0.00075167  0.33498036  0.00444186  1
  Cs  Cs4  1  0.00056432  0.33555767  0.33429496  1
  Cs  Cs5  1  0.00125993  0.33282337  0.66538523  1
  Cs  Cs6  1  0.00126679  0.66291668  0.00396728  1
  Cs  Cs7  1  0.00021953  0.66305987  0.33655515  1
  Cs  Cs8  1  0.00213107  0.66680184  0.66309053  1
  Cs  Cs9  1  0.32847097  -0.00114267  0.00417812  1
  Cs  Cs10  1  0.33880406  0.00042206  0.32608735  1
  Cs  Cs11  1  0.33222076  -0.00090255  0.66886269  1
  Cs  Cs12  1  0.32897152  0.33030925  0.00324291  1
  Cs  Cs13  1  0.33737052  0.33054709  0.33349999  1
  Cs  Cs14  1  0.33495043  0.33645071  0.66429911  1
  Cs  Cs15  1  0.33204913  0.67108277  0.00501929  1
  Cs  Cs16  1  0.33346859  0.66785888  0.33046094  1
  Cs  Cs17  1  0.33369936  0.66518616  0.66630770  1
  Cs  Cs18  1  0.66635975  -0.00071652  -0.00084163  1
  Cs  Cs19  1  0.66737370  -0.00014763  0.33104132  1
  Cs  Cs20  1  0.66816723  -0.00108723  0.66829729  1
  Cs  Cs21  1  0.67006106  0.33751597  -0.00438385  1
  Cs  Cs22  1  0.66334359  0.33102204  0.33424961  1
  Cs  Cs23  1  0.66252839  0.33428114  0.66921342  1
  Cs  Cs24  1  0.66683235  0.66364407  -0.00199682  1
  Cs  Cs25  1  0.66669207  0.66978360  0.33241317  1
  Cs  Cs26  1  0.66420769  0.66826077  0.66943860  1
  Sn  Sn27  1  0.49896446  0.83369501  0.50063105  1
  Sn  Sn28  1  0.83320877  0.16593762  0.16641246  1
  Sn  Sn29  1  0.83357672  0.83387318  0.16508595  1
  Sn  Sn30  1  0.50030398  0.83445411  0.83271833  1
  Sn  Sn31  1  0.83282048  0.16604882  0.83331736  1
  Sn  Sn32  1  0.16654473  0.50006454  0.83295222  1
  Sn  Sn33  1  0.83318608  0.83369424  0.83439318  1
  Sn  Sn34  1  0.83357092  0.16808104  0.50036698  1
  Sn  Sn35  1  0.50030369  0.49982149  0.16658167  1
  Sn  Sn36  1  0.16827727  0.83381148  0.50011907  1
  Sn  Sn37  1  0.16622501  0.49970390  0.50092301  1
  Sn  Sn38  1  0.16659821  0.16654671  0.50018802  1
  Sn  Sn39  1  0.83302678  0.49887634  0.50065992  1
  Sn  Sn40  1  0.50016934  0.16582610  0.83317501  1
  Pb  Pb41  1  0.16890914  0.49990195  0.16764709  1
  Pb  Pb42  1  0.16374454  0.16644273  0.16990017  1
  Pb  Pb43  1  0.50275534  0.16849592  0.16334602  1
  Pb  Pb44  1  0.16629458  0.16850895  0.83132080  1
  Pb  Pb45  1  0.49738076  0.50032153  0.83524187  1
  Pb  Pb46  1  0.83179915  0.49982764  0.16931515  1
  Pb  Pb47  1  0.50219408  0.83229267  0.16582403  1
  Pb  Pb48  1  0.49981009  0.50226342  0.49862884  1
  Pb  Pb49  1  0.16633759  0.83158041  0.83168703  1
  Pb  Pb50  1  0.83522288  0.50015002  0.83099722  1
  Pb  Pb51  1  0.16312134  0.83366582  0.16991478  1
  Pb  Pb52  1  0.50035124  0.16414451  0.50190500  1
  Pb  Pb53  1  0.83323034  0.83359068  0.50067129  1
  I  I54  1  0.17120845  0.00001263  0.16647923  1
  I  I55  1  0.16329834  0.00020482  0.50041650  1
  I  I56  1  0.16645632  0.00004109  0.83070328  1
  I  I57  1  0.16506144  0.33326185  0.16747083  1
  I  I58  1  0.16004545  0.33355224  0.50395839  1
  I  I59  1  0.16704910  0.33617725  0.82628940  1
  I  I60  1  0.16419596  0.66675670  0.16862590  1
  I  I61  1  0.16489711  0.66624825  0.50390889  1
  I  I62  1  0.16645886  0.66390624  0.82563061  1
  I  I63  1  0.49974860  0.00014259  0.16935015  1
  I  I64  1  0.49733539  -0.00373246  0.50092362  1
  I  I65  1  0.50506404  -0.00075353  0.82825276  1
  I  I66  1  0.50133431  0.33584467  0.16786596  1
  I  I67  1  0.49833694  0.33310651  0.50023630  1
  I  I68  1  0.50502708  0.33088681  0.83462411  1
  I  I69  1  0.50270284  0.66472733  0.16622833  1
  I  I70  1  0.49830187  0.67010388  0.50551011  1
  I  I71  1  0.50425948  0.66979733  0.83034277  1
  I  I72  1  0.83207287  0.00049784  0.17054273  1
  I  I73  1  0.83665172  0.00263474  0.49993899  1
  I  I74  1  0.82993174  0.00041064  0.83106665  1
  I  I75  1  0.83196732  0.33040453  0.16437981  1
  I  I76  1  0.84145571  0.33215018  0.49921268  1
  I  I77  1  0.83007064  0.33026923  0.83500635  1
  I  I78  1  0.83115300  0.66909623  0.16420393  1
  I  I79  1  0.83684979  0.66506948  0.49921703  1
  I  I80  1  0.82936686  0.66958709  0.83569277  1
  I  I81  1  0.16643983  0.16996694  -0.00019296  1
  I  I82  1  0.16179158  0.17012769  0.33837403  1
  I  I83  1  0.15975336  0.16478149  0.66312936  1
  I  I84  1  0.16781215  0.50033751  -0.00228384  1
  I  I85  1  0.16236003  0.50064850  0.33730713  1
  I  I86  1  0.16343673  0.50028203  0.66452304  1
  I  I87  1  0.16916769  0.82995996  -0.00004692  1
  I  I88  1  0.17128982  0.82956452  0.33836950  1
  I  I89  1  0.16442723  0.83437521  0.66324120  1
  I  I90  1  0.50434424  0.16093534  -0.00448650  1
  I  I91  1  0.50014830  0.16652845  0.33333991  1
  I  I92  1  0.50639785  0.16628408  0.66965074  1
  I  I93  1  0.50063674  0.50175875  0.00242581  1
  I  I94  1  0.49988656  0.50211202  0.33114144  1
  I  I95  1  0.50111798  0.49940832  0.66676707  1
  I  I96  1  0.50320308  0.83482577  -0.00332532  1
  I  I97  1  0.49768962  0.83040189  0.33551298  1
  I  I98  1  0.50339858  0.83492072  0.66735685  1
  I  I99  1  0.82769256  0.16217958  -0.00088173  1
  I  I100  1  0.83877000  0.16606999  0.33416158  1
  I  I101  1  0.83410686  0.16545543  0.66664640  1
  I  I102  1  0.83486119  0.49810779  -0.00015167  1
  I  I103  1  0.83964913  0.49815478  0.33721110  1
  I  I104  1  0.83487494  0.49712819  0.66296365  1
  I  I105  1  0.82693730  0.84011248  -0.00124597  1
  I  I106  1  0.83353610  0.83582930  0.33205735  1
  I  I107  1  0.83231979  0.83636404  0.66914093  1
  I  I108  1  -0.00461090  0.16440730  0.16101451  1
  I  I109  1  -0.00113834  0.16503292  0.50154264  1
  I  I110  1  -0.00354984  0.16266974  0.83392558  1
  I  I111  1  -0.00014274  0.50022002  0.16595731  1
  I  I112  1  0.00053659  0.50232036  0.50233197  1
  I  I113  1  0.00289059  0.50023144  0.83041500  1
  I  I114  1  -0.00480105  0.83591794  0.16151143  1
  I  I115  1  0.00195698  0.83243855  0.49947885  1
  I  I116  1  -0.00318016  0.83769607  0.83461334  1
  I  I117  1  0.33362450  0.16892269  0.16702568  1
  I  I118  1  0.33084035  0.17043964  0.50330861  1
  I  I119  1  0.33575137  0.16403350  0.83046063  1
  I  I120  1  0.33638201  0.50187999  0.16794802  1
  I  I121  1  0.33024217  0.49770547  0.50260315  1
  I  I122  1  0.33005287  0.49950074  0.82501206  1
  I  I123  1  0.33338197  0.83072431  0.16540096  1
  I  I124  1  0.33309028  0.83162345  0.50655130  1
  I  I125  1  0.33610187  0.83572286  0.82984808  1
  I  I126  1  0.67074030  0.16295716  0.17399775  1
  I  I127  1  0.67009414  0.16976944  0.49836905  1
  I  I128  1  0.66823233  0.16373875  0.83058112  1
  I  I129  1  0.66451674  0.50082695  0.16772256  1
  I  I130  1  0.66910029  0.49666439  0.49764647  1
  I  I131  1  0.66671069  0.49997439  0.83252843  1
  I  I132  1  0.66999271  0.83649399  0.17007225  1
  I  I133  1  0.66483857  0.83250849  0.50068944  1
  I  I134  1  0.66697212  0.83613098  0.82977476  1
