# generated using pymatgen
data_Cs27Sn13Pb14I81
_symmetry_space_group_name_H-M   'P 1'
_cell_length_a   18.98019482
_cell_length_b   18.97601054
_cell_length_c   18.97613720
_cell_angle_alpha   89.99595891
_cell_angle_beta   90.00168672
_cell_angle_gamma   89.99931338
_symmetry_Int_Tables_number   1
_chemical_formula_structural   Cs27Sn13Pb14I81
_chemical_formula_sum   'Cs27 Sn13 Pb14 I81'
_cell_volume   6834.60451715
_cell_formula_units_Z   1
loop_
 _symmetry_equiv_pos_site_id
 _symmetry_equiv_pos_as_xyz
  1  'x, y, z'
loop_
 _atom_site_type_symbol
 _atom_site_label
 _atom_site_symmetry_multiplicity
 _atom_site_fract_x
 _atom_site_fract_y
 _atom_site_fract_z
 _atom_site_occupancy
  Cs  Cs0  1  0.00107354  0.00055867  0.00164557  1
  Cs  Cs1  1  0.00143973  0.00101758  0.33175957  1
  Cs  Cs2  1  0.00044248  -0.00006144  0.66808890  1
  Cs  Cs3  1  0.00113701  0.33475448  0.00110331  1
  Cs  Cs4  1  -0.00128930  0.33196853  0.33254903  1
  Cs  Cs5  1  -0.00585857  0.32959285  0.66740004  1
  Cs  Cs6  1  -0.00210256  0.66420583  -0.00005818  1
  Cs  Cs7  1  0.00364364  0.66619532  0.33340608  1
  Cs  Cs8  1  0.00595281  0.66959303  0.66643372  1
  Cs  Cs9  1  0.33576314  0.00404721  0.00080184  1
  Cs  Cs10  1  0.33334648  0.00137295  0.33305367  1
  Cs  Cs11  1  0.33216286  -0.00191403  0.66578982  1
  Cs  Cs12  1  0.33361620  0.33339066  -0.00143587  1
  Cs  Cs13  1  0.33272118  0.33289918  0.33335932  1
  Cs  Cs14  1  0.33305461  0.33312591  0.66757163  1
  Cs  Cs15  1  0.33313183  0.66254482  -0.00207954  1
  Cs  Cs16  1  0.33004365  0.66355456  0.33688963  1
  Cs  Cs17  1  0.33073492  0.66884891  0.66491345  1
  Cs  Cs18  1  0.66285498  -0.00156969  0.00152591  1
  Cs  Cs19  1  0.66477273  -0.00311958  0.33130796  1
  Cs  Cs20  1  0.66745166  -0.00062297  0.66663895  1
  Cs  Cs21  1  0.66535323  0.33476551  -0.00071904  1
  Cs  Cs22  1  0.66857341  0.33533851  0.33594090  1
  Cs  Cs23  1  0.67075318  0.33392427  0.66502492  1
  Cs  Cs24  1  0.66763828  0.66742545  -0.00063205  1
  Cs  Cs25  1  0.66640261  0.66790374  0.33296726  1
  Cs  Cs26  1  0.66546645  0.66695303  0.66895137  1
  Sn  Sn27  1  0.83282939  0.83318490  0.50058683  1
  Sn  Sn28  1  0.16721565  0.16663999  0.49950033  1
  Sn  Sn29  1  0.83247514  0.50102011  0.83402282  1
  Sn  Sn30  1  0.83224583  0.49923462  0.16621001  1
  Sn  Sn31  1  0.83334727  0.16715408  0.16649996  1
  Sn  Sn32  1  0.50086859  0.50011761  0.16629389  1
  Sn  Sn33  1  0.50099330  0.50093229  0.83395471  1
  Sn  Sn34  1  0.83261475  0.83267779  0.83260770  1
  Sn  Sn35  1  0.49962699  0.16601175  0.50000829  1
  Sn  Sn36  1  0.50070735  0.83274480  0.83275700  1
  Sn  Sn37  1  0.16696061  0.83380926  0.16621201  1
  Sn  Sn38  1  0.16607468  0.16577316  0.16733948  1
  Sn  Sn39  1  0.50083734  0.83405360  0.50060846  1
  Pb  Pb40  1  0.16632186  0.49629487  0.50022425  1
  Pb  Pb41  1  0.50008913  0.50041543  0.50074605  1
  Pb  Pb42  1  0.16689896  0.83514521  0.49815307  1
  Pb  Pb43  1  0.83335997  0.50297623  0.50032206  1
  Pb  Pb44  1  0.83308370  0.16627987  0.83613915  1
  Pb  Pb45  1  0.16693435  0.83343961  0.83593101  1
  Pb  Pb46  1  0.50020665  0.16677081  0.83054523  1
  Pb  Pb47  1  0.83309480  0.16411304  0.49774573  1
  Pb  Pb48  1  0.16628651  0.50000032  0.83310915  1
  Pb  Pb49  1  0.16640627  0.49922711  0.16661271  1
  Pb  Pb50  1  0.16662693  0.16660425  0.83350687  1
  Pb  Pb51  1  0.50004598  0.16911603  0.16869987  1
  Pb  Pb52  1  0.83466172  0.83289690  0.16631253  1
  Pb  Pb53  1  0.49761645  0.83094230  0.16662474  1
  I  I54  1  0.16079906  0.00130179  0.16997371  1
  I  I55  1  0.16830480  0.00293654  0.49604290  1
  I  I56  1  0.16613068  -0.00025472  0.83339706  1
  I  I57  1  0.16506480  0.33014534  0.17158424  1
  I  I58  1  0.17322265  0.32811984  0.49208371  1
  I  I59  1  0.16751147  0.33337355  0.83466532  1
  I  I60  1  0.16615101  0.66861347  0.16649030  1
  I  I61  1  0.16732733  0.66714785  0.49732763  1
  I  I62  1  0.16654359  0.66692105  0.83617954  1
  I  I63  1  0.50161392  -0.00004972  0.16466098  1
  I  I64  1  0.49972502  -0.00110185  0.50429485  1
  I  I65  1  0.50412106  -0.00339668  0.83162458  1
  I  I66  1  0.49933381  0.33690616  0.16193023  1
  I  I67  1  0.49437010  0.33082229  0.49840421  1
  I  I68  1  0.50341024  0.33674846  0.83664018  1
  I  I69  1  0.50512058  0.66329680  0.16718252  1
  I  I70  1  0.50445902  0.66991766  0.50037968  1
  I  I71  1  0.50416405  0.66705348  0.83214947  1
  I  I72  1  0.83728097  0.00190483  0.16774968  1
  I  I73  1  0.83204946  -0.00363791  0.50438558  1
  I  I74  1  0.82962411  -0.00354874  0.83048044  1
  I  I75  1  0.83588256  0.33402920  0.16249786  1
  I  I76  1  0.83406941  0.33310942  0.50186535  1
  I  I77  1  0.82941705  0.33654682  0.83547028  1
  I  I78  1  0.83147622  0.66398029  0.16553196  1
  I  I79  1  0.82623190  0.67089550  0.49795267  1
  I  I80  1  0.82884573  0.66669902  0.83646343  1
  I  I81  1  0.16231787  0.16358960  0.00384814  1
  I  I82  1  0.16672576  0.16231272  0.33238198  1
  I  I83  1  0.17132322  0.16675458  0.66322672  1
  I  I84  1  0.16766234  0.49773683  0.00018468  1
  I  I85  1  0.16754526  0.50378280  0.33291954  1
  I  I86  1  0.16774758  0.49988884  0.66675270  1
  I  I87  1  0.16561898  0.83999108  0.00369016  1
  I  I88  1  0.16557315  0.83495346  0.33042275  1
  I  I89  1  0.16608334  0.83484389  0.66658406  1
  I  I90  1  0.49902456  0.16432594  0.00015039  1
  I  I91  1  0.49870649  0.16145924  0.33646824  1
  I  I92  1  0.49376728  0.16694791  0.66254739  1
  I  I93  1  0.50341410  0.50503785  -0.00051371  1
  I  I94  1  0.50330149  0.49961736  0.33089418  1
  I  I95  1  0.50506830  0.50039409  0.67009229  1
  I  I96  1  0.50401236  0.83096492  -0.00282749  1
  I  I97  1  0.50322575  0.83593601  0.33605785  1
  I  I98  1  0.50326844  0.83158866  0.66678475  1
  I  I99  1  0.83988036  0.16614841  0.00417460  1
  I  I100  1  0.83528073  0.17126477  0.32987761  1
  I  I101  1  0.83478630  0.16969103  0.66648454  1
  I  I102  1  0.82973395  0.50224190  0.00018667  1
  I  I103  1  0.82996878  0.49722454  0.33013390  1
  I  I104  1  0.82771160  0.50077121  0.67021512  1
  I  I105  1  0.83015636  0.83227651  -0.00276767  1
  I  I106  1  0.83025347  0.83449083  0.33533966  1
  I  I107  1  0.82990134  0.82886967  0.66736471  1
  I  I108  1  0.00028276  0.16828954  0.17224406  1
  I  I109  1  0.00221732  0.16562998  0.49654484  1
  I  I110  1  -0.00036398  0.16700053  0.82892498  1
  I  I111  1  -0.00319035  0.49924363  0.16216916  1
  I  I112  1  -0.00042621  0.50157640  0.49901308  1
  I  I113  1  -0.00411229  0.50428464  0.83877924  1
  I  I114  1  0.00233577  0.83362125  0.16770075  1
  I  I115  1  -0.00246959  0.83359455  0.50315390  1
  I  I116  1  -0.00337256  0.82894498  0.82985724  1
  I  I117  1  0.33082296  0.16400108  0.16935968  1
  I  I118  1  0.33352203  0.16123124  0.49398445  1
  I  I119  1  0.33365568  0.16721456  0.83783798  1
  I  I120  1  0.33604497  0.50081469  0.16254356  1
  I  I121  1  0.33366058  0.50461839  0.49880542  1
  I  I122  1  0.33715108  0.50375706  0.83795957  1
  I  I123  1  0.33026639  0.83884048  0.16734151  1
  I  I124  1  0.33633970  0.83477755  0.50334121  1
  I  I125  1  0.33691059  0.82866766  0.82923923  1
  I  I126  1  0.66909647  0.16884842  0.16791761  1
  I  I127  1  0.66418020  0.16471970  0.49888666  1
  I  I128  1  0.66665484  0.16644708  0.83344305  1
  I  I129  1  0.66754971  0.49507639  0.16294129  1
  I  I130  1  0.66663149  0.49382864  0.49753572  1
  I  I131  1  0.66670488  0.50455053  0.83883958  1
  I  I132  1  0.66651630  0.83602385  0.16774082  1
  I  I133  1  0.66578985  0.83926932  0.50242323  1
  I  I134  1  0.66658130  0.82927423  0.82991795  1
