# generated using pymatgen
data_Cs27Sn14Pb13I81
_symmetry_space_group_name_H-M   'P 1'
_cell_length_a   18.97021473
_cell_length_b   18.97221134
_cell_length_c   18.98465931
_cell_angle_alpha   90.00057490
_cell_angle_beta   89.99861697
_cell_angle_gamma   89.99789123
_symmetry_Int_Tables_number   1
_chemical_formula_structural   Cs27Sn14Pb13I81
_chemical_formula_sum   'Cs27 Sn14 Pb13 I81'
_cell_volume   6832.71031230
_cell_formula_units_Z   1
loop_
 _symmetry_equiv_pos_site_id
 _symmetry_equiv_pos_as_xyz
  1  'x, y, z'
loop_
 _atom_site_type_symbol
 _atom_site_label
 _atom_site_symmetry_multiplicity
 _atom_site_fract_x
 _atom_site_fract_y
 _atom_site_fract_z
 _atom_site_occupancy
  Cs  Cs0  1  -0.00115379  -0.00190004  -0.00138378  1
  Cs  Cs1  1  -0.00301127  -0.00191750  0.33411661  1
  Cs  Cs2  1  -0.00051273  -0.00051097  0.66753616  1
  Cs  Cs3  1  0.00416979  0.33449991  0.00456292  1
  Cs  Cs4  1  0.00107110  0.33606512  0.33240237  1
  Cs  Cs5  1  0.00042550  0.33238427  0.66535787  1
  Cs  Cs6  1  0.00130022  0.66843649  0.00130660  1
  Cs  Cs7  1  -0.00009171  0.66661622  0.32993749  1
  Cs  Cs8  1  0.00182347  0.66780476  0.66785374  1
  Cs  Cs9  1  0.33961878  0.00852543  0.00113113  1
  Cs  Cs10  1  0.33844674  -0.00281536  0.33481378  1
  Cs  Cs11  1  0.33367794  -0.00139157  0.66523300  1
  Cs  Cs12  1  0.33162990  0.32424328  0.00132465  1
  Cs  Cs13  1  0.33357463  0.33486947  0.33275063  1
  Cs  Cs14  1  0.33221828  0.33329588  0.66608448  1
  Cs  Cs15  1  0.33313612  0.66694730  -0.00144593  1
  Cs  Cs16  1  0.33468846  0.66671564  0.33496820  1
  Cs  Cs17  1  0.33184296  0.66800716  0.66566734  1
  Cs  Cs18  1  0.66632474  -0.00086370  0.00287975  1
  Cs  Cs19  1  0.66847628  0.00027742  0.33187583  1
  Cs  Cs20  1  0.67077023  -0.00024478  0.66604508  1
  Cs  Cs21  1  0.66444600  0.33676334  -0.00460338  1
  Cs  Cs22  1  0.66622780  0.33426948  0.33634655  1
  Cs  Cs23  1  0.66587093  0.33678497  0.66465588  1
  Cs  Cs24  1  0.66410596  0.66495213  -0.00512050  1
  Cs  Cs25  1  0.66542732  0.66458852  0.33303559  1
  Cs  Cs26  1  0.66550177  0.66254772  0.67162303  1
  Sn  Sn27  1  0.16667096  0.83387385  0.16556287  1
  Sn  Sn28  1  0.16634666  0.83316893  0.83468644  1
  Sn  Sn29  1  0.83414255  0.83404924  0.83346126  1
  Sn  Sn30  1  0.49976667  0.49996926  0.16700794  1
  Sn  Sn31  1  0.83370848  0.16636607  0.83340911  1
  Sn  Sn32  1  0.83392767  0.83378443  0.16646136  1
  Sn  Sn33  1  0.16646298  0.16706044  0.49969748  1
  Sn  Sn34  1  0.83358049  0.16612555  0.49991936  1
  Sn  Sn35  1  0.50011783  0.16713954  0.50003144  1
  Sn  Sn36  1  0.16714541  0.49942381  0.50057064  1
  Sn  Sn37  1  0.83356517  0.16664465  0.16668065  1
  Sn  Sn38  1  0.49886827  0.49931882  0.49927711  1
  Sn  Sn39  1  0.83334654  0.83341239  0.50007927  1
  Sn  Sn40  1  0.16648443  0.50022145  0.83285905  1
  Pb  Pb41  1  0.83621818  0.50000695  0.83346379  1
  Pb  Pb42  1  0.50313699  0.16657668  0.83039989  1
  Pb  Pb43  1  0.16463782  0.16374907  0.16956674  1
  Pb  Pb44  1  0.16464335  0.16600540  0.83147664  1
  Pb  Pb45  1  0.83122759  0.50029968  0.16648792  1
  Pb  Pb46  1  0.50324134  0.83289909  0.50017643  1
  Pb  Pb47  1  0.16479813  0.83315963  0.50000512  1
  Pb  Pb48  1  0.50282772  0.16876918  0.16897364  1
  Pb  Pb49  1  0.83370047  0.49996615  0.50003941  1
  Pb  Pb50  1  0.16862931  0.50194087  0.16683207  1
  Pb  Pb51  1  0.50032456  0.83144860  0.16657825  1
  Pb  Pb52  1  0.49651183  0.49981324  0.83281762  1
  Pb  Pb53  1  0.49975371  0.83364693  0.83336992  1
  I  I54  1  0.16434160  -0.00412795  0.16145759  1
  I  I55  1  0.16793595  0.00251800  0.50004511  1
  I  I56  1  0.16258726  -0.00311589  0.83471859  1
  I  I57  1  0.16552560  0.33308901  0.16436272  1
  I  I58  1  0.16468127  0.33355895  0.50542712  1
  I  I59  1  0.16549382  0.33541004  0.82957101  1
  I  I60  1  0.15930294  0.66981803  0.16809036  1
  I  I61  1  0.17003668  0.66420735  0.50105310  1
  I  I62  1  0.16101603  0.66743291  0.83045716  1
  I  I63  1  0.49846337  0.00026876  0.16823648  1
  I  I64  1  0.49735217  0.00308629  0.50076041  1
  I  I65  1  0.49435745  0.00027329  0.83146831  1
  I  I66  1  0.50045892  0.33646500  0.16950256  1
  I  I67  1  0.50253835  0.33325441  0.49633181  1
  I  I68  1  0.50163261  0.33334683  0.83574004  1
  I  I69  1  0.50192297  0.66366176  0.17521657  1
  I  I70  1  0.49602891  0.66338807  0.49652658  1
  I  I71  1  0.50606059  0.66643050  0.83067820  1
  I  I72  1  0.83650220  -0.00059288  0.16810613  1
  I  I73  1  0.83370767  0.00113844  0.50016632  1
  I  I74  1  0.83919750  -0.00082924  0.83151484  1
  I  I75  1  0.83161264  0.33021284  0.16898698  1
  I  I76  1  0.83299041  0.32986805  0.50002611  1
  I  I77  1  0.83326371  0.33018697  0.83111966  1
  I  I78  1  0.83622882  0.67038634  0.16749308  1
  I  I79  1  0.83402606  0.66967816  0.49977550  1
  I  I80  1  0.83441863  0.67018729  0.83293981  1
  I  I81  1  0.16492551  0.17044922  0.00014436  1
  I  I82  1  0.16369107  0.17228777  0.33761314  1
  I  I83  1  0.16380125  0.16619080  0.66316242  1
  I  I84  1  0.16615752  0.50357568  -0.00237088  1
  I  I85  1  0.16829276  0.49738456  0.33630623  1
  I  I86  1  0.17132473  0.50260054  0.66547249  1
  I  I87  1  0.15649251  0.82526495  -0.00077878  1
  I  I88  1  0.16103500  0.83338217  0.33144453  1
  I  I89  1  0.16146070  0.83194827  0.66889170  1
  I  I90  1  0.50084303  0.16863969  0.00020951  1
  I  I91  1  0.50246571  0.16826241  0.33719130  1
  I  I92  1  0.50221415  0.17381039  0.66204902  1
  I  I93  1  0.50229467  0.50312245  0.00222743  1
  I  I94  1  0.49509756  0.49683037  0.33528880  1
  I  I95  1  0.49948058  0.49568490  0.66326866  1
  I  I96  1  0.50455883  0.82926573  0.00010782  1
  I  I97  1  0.49934595  0.83416376  0.33356324  1
  I  I98  1  0.50004369  0.83081772  0.66641735  1
  I  I99  1  0.83385048  0.15989147  0.00002156  1
  I  I100  1  0.83287536  0.16014375  0.33441723  1
  I  I101  1  0.83345540  0.16039664  0.66559711  1
  I  I102  1  0.83167518  0.49839592  -0.00005238  1
  I  I103  1  0.83733025  0.50122294  0.33347745  1
  I  I104  1  0.82870176  0.50065311  0.66656584  1
  I  I105  1  0.83786558  0.83971950  -0.00010076  1
  I  I106  1  0.83724008  0.83948110  0.33311077  1
  I  I107  1  0.83705675  0.83985120  0.66698556  1
  I  I108  1  -0.00371029  0.16634164  0.16955766  1
  I  I109  1  -0.00106167  0.16682618  0.50068211  1
  I  I110  1  -0.00360240  0.16491520  0.82927208  1
  I  I111  1  0.00025680  0.49870790  0.16764885  1
  I  I112  1  0.00300434  0.49679044  0.50409977  1
  I  I113  1  0.00382549  0.50191582  0.82611811  1
  I  I114  1  -0.00135479  0.83521436  0.16663523  1
  I  I115  1  -0.00335495  0.83766077  0.50014440  1
  I  I116  1  -0.00093231  0.83283191  0.83330675  1
  I  I117  1  0.33335204  0.16547806  0.16767882  1
  I  I118  1  0.33309804  0.17194702  0.50049587  1
  I  I119  1  0.33306504  0.16661159  0.83181006  1
  I  I120  1  0.33619562  0.50266897  0.17015424  1
  I  I121  1  0.33289688  0.49248350  0.50002233  1
  I  I122  1  0.32886578  0.50754341  0.83030777  1
  I  I123  1  0.33039827  0.83021416  0.16305187  1
  I  I124  1  0.33320322  0.83644164  0.49987981  1
  I  I125  1  0.32939593  0.82762288  0.83635557  1
  I  I126  1  0.67095926  0.15922478  0.16899556  1
  I  I127  1  0.66779000  0.16692716  0.49990781  1
  I  I128  1  0.67158400  0.16005148  0.83183489  1
  I  I129  1  0.66351537  0.50084197  0.17512130  1
  I  I130  1  0.66413446  0.49735277  0.49582865  1
  I  I131  1  0.66656645  0.50089307  0.83252339  1
  I  I132  1  0.67051703  0.83693843  0.16694102  1
  I  I133  1  0.67160105  0.83786308  0.49921726  1
  I  I134  1  0.67074062  0.83726291  0.83355948  1
