# generated using pymatgen
data_Cs27Sn13Pb14I81
_symmetry_space_group_name_H-M   'P 1'
_cell_length_a   18.96521218
_cell_length_b   18.98557028
_cell_length_c   18.98103183
_cell_angle_alpha   89.99998917
_cell_angle_beta   89.99982332
_cell_angle_gamma   89.99902535
_symmetry_Int_Tables_number   1
_chemical_formula_structural   Cs27Sn13Pb14I81
_chemical_formula_sum   'Cs27 Sn13 Pb14 I81'
_cell_volume   6834.41222311
_cell_formula_units_Z   1
loop_
 _symmetry_equiv_pos_site_id
 _symmetry_equiv_pos_as_xyz
  1  'x, y, z'
loop_
 _atom_site_type_symbol
 _atom_site_label
 _atom_site_symmetry_multiplicity
 _atom_site_fract_x
 _atom_site_fract_y
 _atom_site_fract_z
 _atom_site_occupancy
  Cs  Cs0  1  -0.00284144  -0.00197558  -0.00039112  1
  Cs  Cs1  1  -0.00044158  0.00025386  0.33348436  1
  Cs  Cs2  1  0.00120166  -0.00050112  0.66580768  1
  Cs  Cs3  1  0.00095536  0.33378692  0.00003520  1
  Cs  Cs4  1  0.00149008  0.33513270  0.33545834  1
  Cs  Cs5  1  0.00050937  0.33386960  0.66404895  1
  Cs  Cs6  1  -0.00052063  0.66784374  -0.00098420  1
  Cs  Cs7  1  -0.00016922  0.66477826  0.33357379  1
  Cs  Cs8  1  -0.00035955  0.66641513  0.66716368  1
  Cs  Cs9  1  0.33082311  -0.00362603  -0.00067180  1
  Cs  Cs10  1  0.33321249  -0.00153168  0.33342554  1
  Cs  Cs11  1  0.33373950  -0.00161438  0.66648287  1
  Cs  Cs12  1  0.33511464  0.33365004  0.00151695  1
  Cs  Cs13  1  0.33574073  0.33661124  0.33208791  1
  Cs  Cs14  1  0.33571710  0.33503684  0.66620338  1
  Cs  Cs15  1  0.33236699  0.66891330  0.00099924  1
  Cs  Cs16  1  0.33443329  0.66666284  0.33332763  1
  Cs  Cs17  1  0.33459354  0.66756304  0.66339177  1
  Cs  Cs18  1  0.67406461  0.00507373  0.00086317  1
  Cs  Cs19  1  0.66703309  0.00111387  0.33346010  1
  Cs  Cs20  1  0.66198092  0.00362122  0.66372260  1
  Cs  Cs21  1  0.65926232  0.32830813  -0.00724061  1
  Cs  Cs22  1  0.66213006  0.33214980  0.32966390  1
  Cs  Cs23  1  0.66198539  0.33224615  0.67758758  1
  Cs  Cs24  1  0.66760128  0.66521703  -0.00285177  1
  Cs  Cs25  1  0.66730196  0.66805435  0.33388859  1
  Cs  Cs26  1  0.66528295  0.66429449  0.66815475  1
  Sn  Sn27  1  0.16638182  0.16661148  0.16684285  1
  Sn  Sn28  1  0.50017035  0.83354451  0.83477767  1
  Sn  Sn29  1  0.83335771  0.49940021  0.49922019  1
  Sn  Sn30  1  0.49993969  0.83337914  0.16537787  1
  Sn  Sn31  1  0.16640359  0.49946757  0.83410684  1
  Sn  Sn32  1  0.16642338  0.16605796  0.49983886  1
  Sn  Sn33  1  0.16567023  0.83388492  0.49903372  1
  Sn  Sn34  1  0.16642150  0.16748940  0.83320654  1
  Sn  Sn35  1  0.83428998  0.83335911  0.49995408  1
  Sn  Sn36  1  0.16588660  0.50006610  0.16586384  1
  Sn  Sn37  1  0.83373921  0.49951545  0.16698177  1
  Sn  Sn38  1  0.16689469  0.83332923  0.16759203  1
  Sn  Sn39  1  0.83402589  0.16718243  0.49984735  1
  Pb  Pb40  1  0.83554580  0.16958808  0.16864470  1
  Pb  Pb41  1  0.16571698  0.50000995  0.49976441  1
  Pb  Pb42  1  0.49662451  0.50234053  0.83365247  1
  Pb  Pb43  1  0.83548957  0.49991562  0.83381879  1
  Pb  Pb44  1  0.83606150  0.16656049  0.83082818  1
  Pb  Pb45  1  0.49683833  0.16395793  0.83359002  1
  Pb  Pb46  1  0.49741762  0.16372302  0.16667350  1
  Pb  Pb47  1  0.16742704  0.83329029  0.83307520  1
  Pb  Pb48  1  0.83039249  0.83347414  0.83030321  1
  Pb  Pb49  1  0.49947762  0.16682454  0.49983447  1
  Pb  Pb50  1  0.49986106  0.83328468  0.49943710  1
  Pb  Pb51  1  0.50012774  0.50220841  0.16661764  1
  Pb  Pb52  1  0.83366657  0.83161570  0.16834780  1
  Pb  Pb53  1  0.50418857  0.49985957  0.49983447  1
  I  I54  1  0.17189462  -0.00032971  0.16778431  1
  I  I55  1  0.16011866  -0.00023635  0.49802949  1
  I  I56  1  0.16895908  0.00245762  0.83414949  1
  I  I57  1  0.16130605  0.33348268  0.16653306  1
  I  I58  1  0.16225164  0.33066176  0.49855358  1
  I  I59  1  0.16521980  0.33302509  0.83542318  1
  I  I60  1  0.16710727  0.66690764  0.16661157  1
  I  I61  1  0.16347852  0.66932225  0.49795035  1
  I  I62  1  0.16811628  0.66446145  0.83629270  1
  I  I63  1  0.49414527  -0.00436483  0.16462190  1
  I  I64  1  0.50375613  -0.00022366  0.50041663  1
  I  I65  1  0.49631905  -0.00353524  0.83559818  1
  I  I66  1  0.49916002  0.33329483  0.16798865  1
  I  I67  1  0.49658146  0.33325411  0.49987059  1
  I  I68  1  0.50148754  0.33317348  0.83192924  1
  I  I69  1  0.49253354  0.67014971  0.16446395  1
  I  I70  1  0.49788140  0.66702968  0.50074982  1
  I  I71  1  0.49720838  0.66998024  0.83630322  1
  I  I72  1  0.83337263  0.00012035  0.16828560  1
  I  I73  1  0.83837508  -0.00007292  0.50104453  1
  I  I74  1  0.83620476  -0.00001105  0.83304374  1
  I  I75  1  0.84077530  0.33740459  0.17355902  1
  I  I76  1  0.84107586  0.33311495  0.49565536  1
  I  I77  1  0.83192223  0.33333813  0.83030873  1
  I  I78  1  0.83991248  0.66382304  0.17357385  1
  I  I79  1  0.83784191  0.66686534  0.49615788  1
  I  I80  1  0.83628452  0.66662995  0.82970081  1
  I  I81  1  0.16881690  0.16700507  0.00062259  1
  I  I82  1  0.16258562  0.16497235  0.33353662  1
  I  I83  1  0.16254112  0.16590573  0.66583541  1
  I  I84  1  0.16160352  0.49816366  0.00148245  1
  I  I85  1  0.16453097  0.49894089  0.33048346  1
  I  I86  1  0.16522961  0.49792675  0.66849254  1
  I  I87  1  0.16951346  0.83482920  0.00280009  1
  I  I88  1  0.16880276  0.83564847  0.33301147  1
  I  I89  1  0.16520411  0.83570907  0.66379444  1
  I  I90  1  0.49897323  0.16784385  0.00009927  1
  I  I91  1  0.49771187  0.16366692  0.33322937  1
  I  I92  1  0.49814499  0.16322825  0.66675145  1
  I  I93  1  0.50423932  0.50003826  0.00014489  1
  I  I94  1  0.49410714  0.50317376  0.33307202  1
  I  I95  1  0.49848397  0.50394713  0.66688723  1
  I  I96  1  0.49023626  0.83216377  0.00118324  1
  I  I97  1  0.49692941  0.83268312  0.33055548  1
  I  I98  1  0.49894087  0.83319985  0.66852283  1
  I  I99  1  0.83462983  0.16756580  0.00023167  1
  I  I100  1  0.84018868  0.16369722  0.33696550  1
  I  I101  1  0.83969597  0.16812302  0.66217521  1
  I  I102  1  0.83768018  0.50307739  0.00326673  1
  I  I103  1  0.84126363  0.50110135  0.33369556  1
  I  I104  1  0.83576287  0.50112863  0.66346964  1
  I  I105  1  0.83594875  0.83070853  0.00022470  1
  I  I106  1  0.83365139  0.83492148  0.33672314  1
  I  I107  1  0.83991253  0.83041553  0.66172866  1
  I  I108  1  0.00445389  0.16085914  0.16493148  1
  I  I109  1  0.00135949  0.16509395  0.50006725  1
  I  I110  1  0.00461244  0.16828151  0.83522856  1
  I  I111  1  0.00187710  0.50259012  0.16744566  1
  I  I112  1  -0.00239568  0.50078560  0.49874990  1
  I  I113  1  0.00382821  0.49832852  0.83465766  1
  I  I114  1  0.00359670  0.83477402  0.16929884  1
  I  I115  1  0.00121137  0.83444171  0.49494867  1
  I  I116  1  0.00017100  0.83320278  0.83457623  1
  I  I117  1  0.32817225  0.17204606  0.17010478  1
  I  I118  1  0.32878213  0.16024489  0.50042466  1
  I  I119  1  0.32844698  0.17056454  0.83011409  1
  I  I120  1  0.32952084  0.49821455  0.16298417  1
  I  I121  1  0.33307697  0.50105854  0.50028317  1
  I  I122  1  0.32850376  0.49562132  0.83893302  1
  I  I123  1  0.33087448  0.83181503  0.16891147  1
  I  I124  1  0.32993959  0.83809514  0.49943356  1
  I  I125  1  0.33512425  0.83328696  0.83265599  1
  I  I126  1  0.66697808  0.16648680  0.16933275  1
  I  I127  1  0.67017028  0.16424816  0.49914444  1
  I  I128  1  0.66653947  0.16612429  0.83107469  1
  I  I129  1  0.66986779  0.50369063  0.17427089  1
  I  I130  1  0.67263580  0.50299897  0.49301558  1
  I  I131  1  0.66654468  0.50158780  0.83195537  1
  I  I132  1  0.66441686  0.82979237  0.16544137  1
  I  I133  1  0.66981398  0.83314570  0.50018392  1
  I  I134  1  0.66261077  0.83182473  0.83897268  1
