# generated using pymatgen
data_Cs27Sn13Pb14I81
_symmetry_space_group_name_H-M   'P 1'
_cell_length_a   18.97429161
_cell_length_b   18.97433445
_cell_length_c   18.98494234
_cell_angle_alpha   89.99957516
_cell_angle_beta   89.99940140
_cell_angle_gamma   89.99966843
_symmetry_Int_Tables_number   1
_chemical_formula_structural   Cs27Sn13Pb14I81
_chemical_formula_sum   'Cs27 Sn13 Pb14 I81'
_cell_volume   6835.04541748
_cell_formula_units_Z   1
loop_
 _symmetry_equiv_pos_site_id
 _symmetry_equiv_pos_as_xyz
  1  'x, y, z'
loop_
 _atom_site_type_symbol
 _atom_site_label
 _atom_site_symmetry_multiplicity
 _atom_site_fract_x
 _atom_site_fract_y
 _atom_site_fract_z
 _atom_site_occupancy
  Cs  Cs0  1  -0.00548961  0.00052170  -0.00341350  1
  Cs  Cs1  1  -0.00138987  0.00106940  0.33598130  1
  Cs  Cs2  1  -0.00168204  -0.00678964  0.66593404  1
  Cs  Cs3  1  -0.00357876  0.33488213  -0.00057617  1
  Cs  Cs4  1  0.00168906  0.33154238  0.33098800  1
  Cs  Cs5  1  -0.00216978  0.33871416  0.66964703  1
  Cs  Cs6  1  0.00794223  0.66534596  -0.00553379  1
  Cs  Cs7  1  0.00535095  0.66810825  0.33821212  1
  Cs  Cs8  1  -0.00133419  0.66978101  0.66848746  1
  Cs  Cs9  1  0.33542930  -0.00089408  0.00004680  1
  Cs  Cs10  1  0.33463230  0.00062560  0.33268419  1
  Cs  Cs11  1  0.33531426  0.00309020  0.66709415  1
  Cs  Cs12  1  0.33449327  0.33279270  -0.00060892  1
  Cs  Cs13  1  0.33351351  0.33249005  0.33458343  1
  Cs  Cs14  1  0.33561732  0.33034345  0.66562627  1
  Cs  Cs15  1  0.32914922  0.66864963  0.00226835  1
  Cs  Cs16  1  0.32522071  0.66654845  0.33155984  1
  Cs  Cs17  1  0.32967566  0.66463376  0.66589158  1
  Cs  Cs18  1  0.66694023  -0.00025099  0.00120815  1
  Cs  Cs19  1  0.66656681  -0.00028392  0.33207744  1
  Cs  Cs20  1  0.66515431  -0.00064831  0.66707742  1
  Cs  Cs21  1  0.66778061  0.33363360  0.00153102  1
  Cs  Cs22  1  0.66677429  0.33434611  0.33207280  1
  Cs  Cs23  1  0.66533866  0.33644565  0.66659775  1
  Cs  Cs24  1  0.66497946  0.66609340  0.00314019  1
  Cs  Cs25  1  0.66759441  0.66567594  0.33215953  1
  Cs  Cs26  1  0.67138558  0.66516245  0.66375669  1
  Sn  Sn27  1  0.50029528  0.16591851  0.49991616  1
  Sn  Sn28  1  0.16720522  0.16660611  0.83334363  1
  Sn  Sn29  1  0.50039614  0.49932326  0.16609274  1
  Sn  Sn30  1  0.50009474  0.50032632  0.83418318  1
  Sn  Sn31  1  0.83362595  0.83173322  0.16654493  1
  Sn  Sn32  1  0.16744991  0.16647540  0.16615063  1
  Sn  Sn33  1  0.16637859  0.16668525  0.50054498  1
  Sn  Sn34  1  0.50021461  0.83283301  0.83237543  1
  Sn  Sn35  1  0.50000785  0.83367875  0.50042487  1
  Sn  Sn36  1  0.49969851  0.16669979  0.83359241  1
  Sn  Sn37  1  0.83305873  0.50175052  0.16687493  1
  Sn  Sn38  1  0.83303535  0.16702897  0.50041430  1
  Sn  Sn39  1  0.49946929  0.16743175  0.16658600  1
  Pb  Pb40  1  0.16939483  0.49754319  0.83327312  1
  Pb  Pb41  1  0.83080316  0.83316100  0.83555126  1
  Pb  Pb42  1  0.49985524  0.50038210  0.49960770  1
  Pb  Pb43  1  0.83301607  0.16664870  0.83039665  1
  Pb  Pb44  1  0.83331540  0.49803231  0.49750044  1
  Pb  Pb45  1  0.83314824  0.16693773  0.16811400  1
  Pb  Pb46  1  0.16697153  0.49771399  0.16663818  1
  Pb  Pb47  1  0.16657430  0.49763871  0.50031252  1
  Pb  Pb48  1  0.83104940  0.50010789  0.83568888  1
  Pb  Pb49  1  0.50072429  0.83308051  0.16690899  1
  Pb  Pb50  1  0.16938071  0.83565920  0.50009988  1
  Pb  Pb51  1  0.16330955  0.83651579  0.16655405  1
  Pb  Pb52  1  0.16931016  0.83591742  0.83327736  1
  Pb  Pb53  1  0.83106687  0.83503869  0.49816109  1
  I  I54  1  0.17356367  0.00496593  0.16769144  1
  I  I55  1  0.16563460  0.00486786  0.49930481  1
  I  I56  1  0.17352513  0.00466249  0.83327916  1
  I  I57  1  0.16663561  0.32898412  0.16777711  1
  I  I58  1  0.17207857  0.32788097  0.49857199  1
  I  I59  1  0.17322162  0.32872480  0.83316680  1
  I  I60  1  0.16993325  0.66664665  0.16712309  1
  I  I61  1  0.16919531  0.66716059  0.49798313  1
  I  I62  1  0.16844761  0.66669435  0.83455508  1
  I  I63  1  0.49868690  0.00313615  0.16513689  1
  I  I64  1  0.49970099  0.00250959  0.50220858  1
  I  I65  1  0.49642826  0.00154139  0.83295231  1
  I  I66  1  0.50235247  0.33189634  0.16431276  1
  I  I67  1  0.49901570  0.32960826  0.50164417  1
  I  I68  1  0.49644220  0.33192283  0.83387038  1
  I  I69  1  0.50407711  0.66395854  0.16355631  1
  I  I70  1  0.50230098  0.66971249  0.50303194  1
  I  I71  1  0.50300301  0.66660268  0.83444066  1
  I  I72  1  0.83210821  -0.00137453  0.16869434  1
  I  I73  1  0.83440449  0.00354553  0.49582895  1
  I  I74  1  0.83033838  0.00023558  0.83780161  1
  I  I75  1  0.83093666  0.33525963  0.16852357  1
  I  I76  1  0.82942621  0.32914586  0.49741956  1
  I  I77  1  0.83086928  0.33304897  0.83576720  1
  I  I78  1  0.82221027  0.66584436  0.16683149  1
  I  I79  1  0.82939354  0.66684668  0.49933257  1
  I  I80  1  0.83067294  0.66662269  0.83092854  1
  I  I81  1  0.17534590  0.16667415  0.00004161  1
  I  I82  1  0.17004736  0.16712066  0.33338015  1
  I  I83  1  0.17278261  0.16709148  0.66653042  1
  I  I84  1  0.16489433  0.49606254  0.00011188  1
  I  I85  1  0.17014255  0.49615487  0.33303686  1
  I  I86  1  0.16996745  0.49577238  0.66695332  1
  I  I87  1  0.16951043  0.83698365  0.00000320  1
  I  I88  1  0.17038667  0.83668354  0.33325774  1
  I  I89  1  0.16448477  0.83614450  0.66668566  1
  I  I90  1  0.49430654  0.16667046  -0.00001066  1
  I  I91  1  0.49808626  0.16626984  0.33337433  1
  I  I92  1  0.49765445  0.16629406  0.66678657  1
  I  I93  1  0.50429646  0.49498475  0.00049368  1
  I  I94  1  0.50423054  0.49471167  0.33001446  1
  I  I95  1  0.49845437  0.49551054  0.66950375  1
  I  I96  1  0.50215238  0.83745718  -0.00235090  1
  I  I97  1  0.50260805  0.83971119  0.33553852  1
  I  I98  1  0.50009930  0.83978758  0.66691432  1
  I  I99  1  0.83330786  0.16666746  0.00003247  1
  I  I100  1  0.83182554  0.16663709  0.33588646  1
  I  I101  1  0.83114185  0.16548654  0.66254611  1
  I  I102  1  0.82981250  0.49927320  0.00396230  1
  I  I103  1  0.82377867  0.50124771  0.32927300  1
  I  I104  1  0.83134719  0.49720141  0.66667143  1
  I  I105  1  0.82931562  0.83392665  0.00354836  1
  I  I106  1  0.82838838  0.83197556  0.33032629  1
  I  I107  1  0.83334597  0.83606898  0.66652954  1
  I  I108  1  0.00255350  0.16626920  0.16785743  1
  I  I109  1  0.00070123  0.16842036  0.49647673  1
  I  I110  1  0.00309690  0.16685757  0.83533206  1
  I  I111  1  -0.00277289  0.50017754  0.16878566  1
  I  I112  1  -0.00014492  0.49605476  0.49658731  1
  I  I113  1  0.00019655  0.49638933  0.83533486  1
  I  I114  1  -0.00435456  0.82970261  0.16805820  1
  I  I115  1  -0.00005440  0.83680609  0.49729597  1
  I  I116  1  0.00012280  0.83637935  0.83505646  1
  I  I117  1  0.33519192  0.17124696  0.17042244  1
  I  I118  1  0.33451536  0.16342823  0.49970395  1
  I  I119  1  0.33529536  0.16695402  0.83006321  1
  I  I120  1  0.33687883  0.49683430  0.16327492  1
  I  I121  1  0.33386904  0.49780809  0.49696810  1
  I  I122  1  0.33811810  0.50106983  0.84053991  1
  I  I123  1  0.33334912  0.83177944  0.16691099  1
  I  I124  1  0.33776726  0.84002988  0.50177074  1
  I  I125  1  0.33805305  0.83281887  0.83188583  1
  I  I126  1  0.66344518  0.16720131  0.16677875  1
  I  I127  1  0.66485922  0.16315412  0.49849285  1
  I  I128  1  0.66252318  0.16649827  0.83444726  1
  I  I129  1  0.66506633  0.49615558  0.16308504  1
  I  I130  1  0.66620861  0.49501354  0.50144648  1
  I  I131  1  0.66215930  0.49461119  0.83481711  1
  I  I132  1  0.66832761  0.83610076  0.16668857  1
  I  I133  1  0.66294369  0.84173396  0.50329747  1
  I  I134  1  0.66201977  0.83878729  0.83022484  1
