# generated using pymatgen
data_Cs27Sn14Pb13I81
_symmetry_space_group_name_H-M   'P 1'
_cell_length_a   18.97268348
_cell_length_b   18.97832226
_cell_length_c   18.97465542
_cell_angle_alpha   90.00031940
_cell_angle_beta   89.99692499
_cell_angle_gamma   90.00134267
_symmetry_Int_Tables_number   1
_chemical_formula_structural   Cs27Sn14Pb13I81
_chemical_formula_sum   'Cs27 Sn14 Pb13 I81'
_cell_volume   6832.19849525
_cell_formula_units_Z   1
loop_
 _symmetry_equiv_pos_site_id
 _symmetry_equiv_pos_as_xyz
  1  'x, y, z'
loop_
 _atom_site_type_symbol
 _atom_site_label
 _atom_site_symmetry_multiplicity
 _atom_site_fract_x
 _atom_site_fract_y
 _atom_site_fract_z
 _atom_site_occupancy
  Cs  Cs0  1  0.00525484  0.00559511  -0.00261056  1
  Cs  Cs1  1  0.00030850  0.00009139  0.33491050  1
  Cs  Cs2  1  0.00221511  -0.00147562  0.66702149  1
  Cs  Cs3  1  0.00191312  0.33271748  0.00064266  1
  Cs  Cs4  1  -0.00111002  0.33226594  0.33020896  1
  Cs  Cs5  1  -0.00397667  0.33113182  0.67024724  1
  Cs  Cs6  1  0.00077982  0.65939915  0.00209450  1
  Cs  Cs7  1  -0.00204429  0.66643831  0.33424238  1
  Cs  Cs8  1  0.00484837  0.67072448  0.66378579  1
  Cs  Cs9  1  0.33421901  0.00005961  0.00257977  1
  Cs  Cs10  1  0.33312844  0.00328176  0.32858803  1
  Cs  Cs11  1  0.33387189  -0.00245364  0.66714527  1
  Cs  Cs12  1  0.33400505  0.33371119  -0.00016140  1
  Cs  Cs13  1  0.33404156  0.33222430  0.33636820  1
  Cs  Cs14  1  0.33585687  0.33781050  0.66150279  1
  Cs  Cs15  1  0.33559706  0.66596148  -0.00146624  1
  Cs  Cs16  1  0.33073433  0.66453505  0.33648811  1
  Cs  Cs17  1  0.32748100  0.66686171  0.66446746  1
  Cs  Cs18  1  0.66478595  -0.00149331  -0.00098224  1
  Cs  Cs19  1  0.66725158  -0.00206707  0.33318070  1
  Cs  Cs20  1  0.66608780  -0.00153377  0.66827940  1
  Cs  Cs21  1  0.66647871  0.33418030  -0.00171157  1
  Cs  Cs22  1  0.66652255  0.33229091  0.33654721  1
  Cs  Cs23  1  0.66633781  0.33443172  0.66580181  1
  Cs  Cs24  1  0.66527365  0.66654712  -0.00075425  1
  Cs  Cs25  1  0.67128983  0.67207126  0.32983834  1
  Cs  Cs26  1  0.66701674  0.66616888  0.66952139  1
  Sn  Sn27  1  0.16578559  0.16675691  0.49970624  1
  Sn  Sn28  1  0.50024318  0.83330950  0.50048468  1
  Sn  Sn29  1  0.50000632  0.16691080  0.83374154  1
  Sn  Sn30  1  0.83410709  0.16706174  0.49942980  1
  Sn  Sn31  1  0.16643971  0.83347050  0.16637843  1
  Sn  Sn32  1  0.50047133  0.16767521  0.16586169  1
  Sn  Sn33  1  0.50054179  0.83302023  0.83227396  1
  Sn  Sn34  1  0.50063884  0.50001860  0.83383209  1
  Sn  Sn35  1  0.83288444  0.16646146  0.16714688  1
  Sn  Sn36  1  0.16674821  0.16598187  0.16753347  1
  Sn  Sn37  1  0.83272372  0.50114997  0.83235442  1
  Sn  Sn38  1  0.83321146  0.83245716  0.83378766  1
  Sn  Sn39  1  0.83300537  0.49967271  0.50071439  1
  Sn  Sn40  1  0.50030707  0.49917291  0.16652888  1
  Pb  Pb41  1  0.16945507  0.49920895  0.16674572  1
  Pb  Pb42  1  0.83198761  0.83375760  0.50196138  1
  Pb  Pb43  1  0.17001993  0.16691993  0.83296553  1
  Pb  Pb44  1  0.83105622  0.49788516  0.16634123  1
  Pb  Pb45  1  0.50225145  0.50260111  0.49984695  1
  Pb  Pb46  1  0.83138483  0.16674984  0.83313659  1
  Pb  Pb47  1  0.50042212  0.16517622  0.49975624  1
  Pb  Pb48  1  0.49871930  0.83316547  0.16623917  1
  Pb  Pb49  1  0.16895357  0.83576998  0.49765626  1
  Pb  Pb50  1  0.16316788  0.49707111  0.49990849  1
  Pb  Pb51  1  0.16654640  0.49991397  0.83309997  1
  Pb  Pb52  1  0.83594400  0.83609332  0.16348556  1
  Pb  Pb53  1  0.16671724  0.83330987  0.83573427  1
  I  I54  1  0.17001293  0.00229335  0.16937882  1
  I  I55  1  0.16013401  0.00363090  0.49803632  1
  I  I56  1  0.16606709  0.00023982  0.83222242  1
  I  I57  1  0.16524713  0.32942629  0.17003058  1
  I  I58  1  0.16914181  0.32910006  0.49226832  1
  I  I59  1  0.16569833  0.33308599  0.83648536  1
  I  I60  1  0.16989926  0.66891435  0.16425440  1
  I  I61  1  0.16687424  0.66682314  0.49832757  1
  I  I62  1  0.17110314  0.66678958  0.83633816  1
  I  I63  1  0.50050389  0.00300921  0.16380647  1
  I  I64  1  0.50178211  -0.00239912  0.50454217  1
  I  I65  1  0.50397192  -0.00020538  0.83378308  1
  I  I66  1  0.49830671  0.33181769  0.15882708  1
  I  I67  1  0.49798263  0.33333487  0.50229338  1
  I  I68  1  0.50376320  0.33363080  0.83897249  1
  I  I69  1  0.49831402  0.66439016  0.16342737  1
  I  I70  1  0.50176391  0.67001047  0.50307713  1
  I  I71  1  0.50483571  0.66640096  0.83505143  1
  I  I72  1  0.82706046  0.00428933  0.17154945  1
  I  I73  1  0.83534731  0.00308585  0.49706728  1
  I  I74  1  0.82759206  -0.00187123  0.83408903  1
  I  I75  1  0.83781371  0.32959415  0.16547665  1
  I  I76  1  0.83556322  0.33239441  0.50242125  1
  I  I77  1  0.82836143  0.33567688  0.83201368  1
  I  I78  1  0.83349287  0.66666340  0.16950564  1
  I  I79  1  0.82909815  0.66437447  0.50233749  1
  I  I80  1  0.82371429  0.66589139  0.82838970  1
  I  I81  1  0.16422934  0.16312110  0.00329002  1
  I  I82  1  0.16865625  0.16268924  0.33204222  1
  I  I83  1  0.16186395  0.16707508  0.66368441  1
  I  I84  1  0.16197946  0.49733344  0.00019033  1
  I  I85  1  0.16844521  0.50291626  0.33327280  1
  I  I86  1  0.17300690  0.49834020  0.66635483  1
  I  I87  1  0.16944259  0.84272338  0.00323909  1
  I  I88  1  0.16969188  0.83664501  0.33001531  1
  I  I89  1  0.16623640  0.83504125  0.66660317  1
  I  I90  1  0.50044821  0.16499214  0.00073610  1
  I  I91  1  0.49931989  0.16910107  0.33034453  1
  I  I92  1  0.50076111  0.16839721  0.66920233  1
  I  I93  1  0.50517411  0.50083238  -0.00122374  1
  I  I94  1  0.50010532  0.49519627  0.33087301  1
  I  I95  1  0.50258329  0.49610365  0.66980877  1
  I  I96  1  0.50222401  0.83382622  -0.00297991  1
  I  I97  1  0.49825239  0.83478793  0.33495581  1
  I  I98  1  0.50361275  0.83550215  0.66857974  1
  I  I99  1  0.83540563  0.16617914  0.00245265  1
  I  I100  1  0.83167872  0.17207867  0.33337704  1
  I  I101  1  0.83615910  0.16757685  0.66418585  1
  I  I102  1  0.83042142  0.50283861  -0.00297809  1
  I  I103  1  0.83161394  0.49663236  0.33551228  1
  I  I104  1  0.82648261  0.49616678  0.66752040  1
  I  I105  1  0.82421089  0.82848095  -0.00402800  1
  I  I106  1  0.83150254  0.83090761  0.33315855  1
  I  I107  1  0.83035999  0.83513013  0.66996302  1
  I  I108  1  0.00007756  0.16182441  0.17119222  1
  I  I109  1  -0.00085246  0.16991580  0.49170365  1
  I  I110  1  -0.00016562  0.16664164  0.83602430  1
  I  I111  1  -0.00030102  0.49926632  0.16568790  1
  I  I112  1  -0.00486369  0.50016143  0.50582326  1
  I  I113  1  -0.00395705  0.50454765  0.82955779  1
  I  I114  1  0.00340684  0.83956420  0.16610389  1
  I  I115  1  -0.00002296  0.83187358  0.50123358  1
  I  I116  1  -0.00302348  0.82930132  0.83448332  1
  I  I117  1  0.33379505  0.16569076  0.16648327  1
  I  I118  1  0.33161800  0.16325737  0.49653754  1
  I  I119  1  0.33835135  0.16548456  0.83782166  1
  I  I120  1  0.33760969  0.49514456  0.15979118  1
  I  I121  1  0.33360957  0.49964700  0.50034315  1
  I  I122  1  0.33732830  0.50018503  0.83844502  1
  I  I123  1  0.33121187  0.84069782  0.16538891  1
  I  I124  1  0.33681706  0.83415970  0.50726733  1
  I  I125  1  0.33693041  0.83350118  0.83106484  1
  I  I126  1  0.66597306  0.17129257  0.16674641  1
  I  I127  1  0.66934887  0.16918944  0.49706909  1
  I  I128  1  0.66325881  0.16613612  0.83724532  1
  I  I129  1  0.66311851  0.49493017  0.16446586  1
  I  I130  1  0.66976616  0.49133920  0.50181385  1
  I  I131  1  0.66578111  0.50029155  0.83367985  1
  I  I132  1  0.66674813  0.83469710  0.16852746  1
  I  I133  1  0.66402622  0.83669143  0.50043945  1
  I  I134  1  0.66518790  0.83334310  0.83050748  1
