# generated using pymatgen
data_Cs27Sn13Pb14I81
_symmetry_space_group_name_H-M   'P 1'
_cell_length_a   18.97766933
_cell_length_b   18.97973099
_cell_length_c   18.97587763
_cell_angle_alpha   90.00023393
_cell_angle_beta   89.99937705
_cell_angle_gamma   90.00029331
_symmetry_Int_Tables_number   1
_chemical_formula_structural   Cs27Sn13Pb14I81
_chemical_formula_sum   'Cs27 Sn13 Pb14 I81'
_cell_volume   6834.94145043
_cell_formula_units_Z   1
loop_
 _symmetry_equiv_pos_site_id
 _symmetry_equiv_pos_as_xyz
  1  'x, y, z'
loop_
 _atom_site_type_symbol
 _atom_site_label
 _atom_site_symmetry_multiplicity
 _atom_site_fract_x
 _atom_site_fract_y
 _atom_site_fract_z
 _atom_site_occupancy
  Cs  Cs0  1  0.00044425  0.00162329  0.00120957  1
  Cs  Cs1  1  -0.00132395  0.00057320  0.33139288  1
  Cs  Cs2  1  -0.00193052  -0.00051712  0.66778452  1
  Cs  Cs3  1  0.00121360  0.33703187  0.00500054  1
  Cs  Cs4  1  0.00582318  0.33345758  0.32703594  1
  Cs  Cs5  1  0.00103726  0.33399560  0.66731913  1
  Cs  Cs6  1  0.00048719  0.66072785  -0.00680874  1
  Cs  Cs7  1  0.00065303  0.66667527  0.33357660  1
  Cs  Cs8  1  0.00546865  0.66557362  0.67345004  1
  Cs  Cs9  1  0.33445431  0.00039333  -0.00012072  1
  Cs  Cs10  1  0.33172442  0.00001996  0.33849471  1
  Cs  Cs11  1  0.33207301  -0.00422815  0.66053830  1
  Cs  Cs12  1  0.33657172  0.33294737  -0.00061069  1
  Cs  Cs13  1  0.32889175  0.33235615  0.33559622  1
  Cs  Cs14  1  0.33286371  0.33194351  0.66608607  1
  Cs  Cs15  1  0.33449108  0.66770746  0.00024769  1
  Cs  Cs16  1  0.33150266  0.66710708  0.33299949  1
  Cs  Cs17  1  0.32585989  0.67347329  0.66646441  1
  Cs  Cs18  1  0.66614317  0.00047370  -0.00022425  1
  Cs  Cs19  1  0.66792436  -0.00088779  0.33422406  1
  Cs  Cs20  1  0.66710887  0.00007879  0.66587032  1
  Cs  Cs21  1  0.66496168  0.33291243  0.00020830  1
  Cs  Cs22  1  0.66692584  0.33469448  0.33404355  1
  Cs  Cs23  1  0.66623065  0.33239706  0.66596441  1
  Cs  Cs24  1  0.66640545  0.66633426  -0.00145314  1
  Cs  Cs25  1  0.66672239  0.66609679  0.33358395  1
  Cs  Cs26  1  0.66731583  0.66739721  0.66676851  1
  Sn  Sn27  1  0.16702166  0.16665262  0.83341056  1
  Sn  Sn28  1  0.50032946  0.50013494  0.50037750  1
  Sn  Sn29  1  0.83347161  0.83302216  0.16680930  1
  Sn  Sn30  1  0.16639220  0.83330520  0.16630072  1
  Sn  Sn31  1  0.83335057  0.16693864  0.83307072  1
  Sn  Sn32  1  0.50012776  0.83358001  0.16686681  1
  Sn  Sn33  1  0.50034552  0.16655778  0.16672413  1
  Sn  Sn34  1  0.50043842  0.49984243  0.16705599  1
  Sn  Sn35  1  0.83295834  0.49996170  0.49991562  1
  Sn  Sn36  1  0.83310889  0.16731712  0.50025223  1
  Sn  Sn37  1  0.49978432  0.16699165  0.83341098  1
  Sn  Sn38  1  0.50020913  0.49967524  0.83260700  1
  Sn  Sn39  1  0.83307245  0.83271282  0.49964351  1
  Pb  Pb40  1  0.16957763  0.16480792  0.16476510  1
  Pb  Pb41  1  0.50192305  0.83075326  0.49762617  1
  Pb  Pb42  1  0.50165864  0.16836377  0.50016261  1
  Pb  Pb43  1  0.16665060  0.83581874  0.83580994  1
  Pb  Pb44  1  0.16330737  0.83341065  0.49768021  1
  Pb  Pb45  1  0.16337248  0.16663456  0.50238283  1
  Pb  Pb46  1  0.16649971  0.49996157  0.50006050  1
  Pb  Pb47  1  0.16948085  0.50235120  0.16650719  1
  Pb  Pb48  1  0.83113967  0.49737182  0.83110487  1
  Pb  Pb49  1  0.83142614  0.50242113  0.16856325  1
  Pb  Pb50  1  0.16977723  0.49742861  0.83341831  1
  Pb  Pb51  1  0.83144572  0.16520087  0.16667645  1
  Pb  Pb52  1  0.83323202  0.83533826  0.83339398  1
  Pb  Pb53  1  0.50004223  0.83360521  0.83503703  1
  I  I54  1  0.16855094  -0.00312953  0.16545605  1
  I  I55  1  0.16686904  0.00002330  0.50019872  1
  I  I56  1  0.16961344  0.00381050  0.83423859  1
  I  I57  1  0.16730371  0.33317214  0.16612818  1
  I  I58  1  0.16501319  0.33318134  0.49896473  1
  I  I59  1  0.16420795  0.32947414  0.83409537  1
  I  I60  1  0.16842131  0.67046669  0.16760358  1
  I  I61  1  0.16618157  0.66679629  0.49992686  1
  I  I62  1  0.16760018  0.66657441  0.83354912  1
  I  I63  1  0.50097499  0.00001168  0.16054229  1
  I  I64  1  0.50200524  -0.00010322  0.49976084  1
  I  I65  1  0.50090103  0.00374950  0.83902780  1
  I  I66  1  0.50147134  0.33335470  0.16462350  1
  I  I67  1  0.50655779  0.33639312  0.49551413  1
  I  I68  1  0.50077033  0.33252883  0.83898215  1
  I  I69  1  0.50029302  0.66665731  0.16698985  1
  I  I70  1  0.50644865  0.66260887  0.50042462  1
  I  I71  1  0.50160722  0.66355064  0.83494983  1
  I  I72  1  0.82986711  -0.00297798  0.17157576  1
  I  I73  1  0.83375114  0.00006015  0.49990848  1
  I  I74  1  0.82939932  0.00381548  0.82834735  1
  I  I75  1  0.83121963  0.33337284  0.16749047  1
  I  I76  1  0.82740310  0.33335271  0.50625220  1
  I  I77  1  0.83373643  0.32910486  0.82861343  1
  I  I78  1  0.83037314  0.67075011  0.17218518  1
  I  I79  1  0.82739256  0.66657408  0.49255466  1
  I  I80  1  0.83150975  0.66633628  0.83308018  1
  I  I81  1  0.16206648  0.16507477  -0.00317501  1
  I  I82  1  0.16688052  0.16592596  0.33312898  1
  I  I83  1  0.17345975  0.16662674  0.67047215  1
  I  I84  1  0.16697984  0.50085532  -0.00001849  1
  I  I85  1  0.16906728  0.49900369  0.33317124  1
  I  I86  1  0.16883307  0.50069285  0.66683137  1
  I  I87  1  0.16582118  0.83408165  0.00389931  1
  I  I88  1  0.17106075  0.83458702  0.32968006  1
  I  I89  1  0.16583423  0.83358161  0.66665181  1
  I  I90  1  0.50240688  0.17039237  -0.00035616  1
  I  I91  1  0.50283418  0.16640465  0.33062201  1
  I  I92  1  0.49950787  0.17219154  0.66979825  1
  I  I93  1  0.49873279  0.49917050  0.00036392  1
  I  I94  1  0.50499444  0.50103040  0.33295180  1
  I  I95  1  0.50555607  0.49237291  0.66679687  1
  I  I96  1  0.50315926  0.82966313  0.00403977  1
  I  I97  1  0.49874880  0.83495528  0.32902969  1
  I  I98  1  0.50195156  0.83374673  0.66629240  1
  I  I99  1  0.83303681  0.16343434  -0.00269073  1
  I  I100  1  0.82963450  0.16690147  0.33597575  1
  I  I101  1  0.83053454  0.16430196  0.66668630  1
  I  I102  1  0.83179862  0.50062383  -0.00008806  1
  I  I103  1  0.82631603  0.49519470  0.33681619  1
  I  I104  1  0.82654444  0.50473051  0.66294640  1
  I  I105  1  0.83158790  0.83633036  0.00332139  1
  I  I106  1  0.83184110  0.83612935  0.33323160  1
  I  I107  1  0.83189816  0.83269872  0.66349890  1
  I  I108  1  -0.00009845  0.16381858  0.16580932  1
  I  I109  1  -0.00515738  0.16803224  0.50413437  1
  I  I110  1  -0.00077392  0.16299340  0.82693475  1
  I  I111  1  -0.00015141  0.50096080  0.16859657  1
  I  I112  1  -0.00382389  0.50033100  0.49988622  1
  I  I113  1  -0.00014284  0.49924825  0.83159343  1
  I  I114  1  -0.00091454  0.83637747  0.17257648  1
  I  I115  1  -0.00493564  0.83220345  0.49399511  1
  I  I116  1  -0.00021285  0.83547412  0.83570621  1
  I  I117  1  0.33798949  0.16570762  0.16143639  1
  I  I118  1  0.33350531  0.16825475  0.50002750  1
  I  I119  1  0.33490009  0.17129993  0.84051288  1
  I  I120  1  0.33843467  0.50137000  0.16882811  1
  I  I121  1  0.33705928  0.49869430  0.49869136  1
  I  I122  1  0.33825541  0.49438838  0.83265338  1
  I  I123  1  0.33467700  0.83248370  0.16377566  1
  I  I124  1  0.33338600  0.83224378  0.49897041  1
  I  I125  1  0.33354686  0.83486302  0.83527045  1
  I  I126  1  0.66317900  0.16477414  0.16140253  1
  I  I127  1  0.66978172  0.16439031  0.50480805  1
  I  I128  1  0.66588490  0.16988254  0.83363269  1
  I  I129  1  0.66273946  0.50179396  0.16472183  1
  I  I130  1  0.66640200  0.49976863  0.49918269  1
  I  I131  1  0.66295021  0.49426642  0.83653936  1
  I  I132  1  0.66617054  0.83357771  0.17055075  1
  I  I133  1  0.67001452  0.83579555  0.49412854  1
  I  I134  1  0.66661714  0.83627643  0.83649810  1
