# generated using pymatgen
data_Cs27Sn13Pb14I81
_symmetry_space_group_name_H-M   'P 1'
_cell_length_a   18.98244095
_cell_length_b   18.99348222
_cell_length_c   18.99901910
_cell_angle_alpha   89.99891704
_cell_angle_beta   90.00149641
_cell_angle_gamma   89.99990611
_symmetry_Int_Tables_number   1
_chemical_formula_structural   Cs27Sn13Pb14I81
_chemical_formula_sum   'Cs27 Sn13 Pb14 I81'
_cell_volume   6849.95677835
_cell_formula_units_Z   1
loop_
 _symmetry_equiv_pos_site_id
 _symmetry_equiv_pos_as_xyz
  1  'x, y, z'
loop_
 _atom_site_type_symbol
 _atom_site_label
 _atom_site_symmetry_multiplicity
 _atom_site_fract_x
 _atom_site_fract_y
 _atom_site_fract_z
 _atom_site_occupancy
  Cs  Cs0  1  -0.00072403  -0.00037541  0.00348302  1
  Cs  Cs1  1  -0.00114884  -0.01227725  0.33220278  1
  Cs  Cs2  1  0.00336762  0.00145401  0.66366831  1
  Cs  Cs3  1  0.00155437  0.33217898  0.00191570  1
  Cs  Cs4  1  -0.00444904  0.33650986  0.32910217  1
  Cs  Cs5  1  0.00174356  0.33179669  0.66727933  1
  Cs  Cs6  1  -0.00212787  0.67018138  0.00007066  1
  Cs  Cs7  1  -0.00491541  0.67478176  0.33656851  1
  Cs  Cs8  1  -0.00658831  0.66800996  0.66432111  1
  Cs  Cs9  1  0.33375094  0.00024972  0.00038585  1
  Cs  Cs10  1  0.33498437  -0.00244300  0.33553693  1
  Cs  Cs11  1  0.33027976  0.00464573  0.66379668  1
  Cs  Cs12  1  0.33232035  0.33442599  0.00105915  1
  Cs  Cs13  1  0.33511848  0.33551280  0.33300151  1
  Cs  Cs14  1  0.33107164  0.33221892  0.66451718  1
  Cs  Cs15  1  0.33378217  0.66582344  -0.00053810  1
  Cs  Cs16  1  0.33305732  0.66537796  0.33214899  1
  Cs  Cs17  1  0.33482945  0.66445900  0.66944391  1
  Cs  Cs18  1  0.66753695  0.00127214  -0.00147458  1
  Cs  Cs19  1  0.66354020  0.00255590  0.33219890  1
  Cs  Cs20  1  0.66708902  0.00205558  0.66825807  1
  Cs  Cs21  1  0.66853922  0.33194667  0.00033686  1
  Cs  Cs22  1  0.66672675  0.33261992  0.33252370  1
  Cs  Cs23  1  0.66892661  0.33180583  0.66674534  1
  Cs  Cs24  1  0.66944318  0.66758656  -0.01241716  1
  Cs  Cs25  1  0.66649953  0.66517520  0.33565868  1
  Cs  Cs26  1  0.67239418  0.66843671  0.67421726  1
  Sn  Sn27  1  0.83365667  0.16678547  0.50006865  1
  Sn  Sn28  1  0.16712002  0.49971010  0.16719119  1
  Sn  Sn29  1  0.83298414  0.16700285  0.83242312  1
  Sn  Sn30  1  0.49954188  0.50114440  0.49977814  1
  Sn  Sn31  1  0.49975373  0.83191624  0.49993503  1
  Sn  Sn32  1  0.49991572  0.50053578  0.16685699  1
  Sn  Sn33  1  0.16705813  0.49991703  0.49934124  1
  Sn  Sn34  1  0.49985963  0.83251633  0.16684428  1
  Sn  Sn35  1  0.16728356  0.83242294  0.83322113  1
  Sn  Sn36  1  0.49875587  0.16693985  0.16573921  1
  Sn  Sn37  1  0.16676668  0.50109195  0.83348805  1
  Sn  Sn38  1  0.50007608  0.16712531  0.83400530  1
  Sn  Sn39  1  0.16765271  0.16688897  0.16740443  1
  Pb  Pb40  1  0.16672053  0.16699877  0.83514392  1
  Pb  Pb41  1  0.50089775  0.16730905  0.49952124  1
  Pb  Pb42  1  0.49835160  0.49766056  0.83321242  1
  Pb  Pb43  1  0.16920703  0.83049353  0.50214594  1
  Pb  Pb44  1  0.16884370  0.83252606  0.16531388  1
  Pb  Pb45  1  0.83273414  0.49828663  0.49993282  1
  Pb  Pb46  1  0.83338744  0.16663740  0.16679061  1
  Pb  Pb47  1  0.83679994  0.49733774  0.83342148  1
  Pb  Pb48  1  0.82989575  0.83595180  0.50008288  1
  Pb  Pb49  1  0.16424673  0.16887584  0.49621695  1
  Pb  Pb50  1  0.83283105  0.50034852  0.16659995  1
  Pb  Pb51  1  0.83643782  0.83646308  0.83319999  1
  Pb  Pb52  1  0.82919149  0.83303753  0.16648210  1
  Pb  Pb53  1  0.49826841  0.83572194  0.83302810  1
  I  I54  1  0.17020720  0.00230989  0.16228379  1
  I  I55  1  0.16700782  -0.00005769  0.50189013  1
  I  I56  1  0.16709837  -0.00144856  0.83607645  1
  I  I57  1  0.17432405  0.33408383  0.16354909  1
  I  I58  1  0.17446896  0.33684275  0.50620714  1
  I  I59  1  0.16672951  0.33595427  0.83249177  1
  I  I60  1  0.17173657  0.66311131  0.16716452  1
  I  I61  1  0.16789292  0.66236244  0.49367138  1
  I  I62  1  0.17007558  0.66530839  0.83633746  1
  I  I63  1  0.49640445  0.00081898  0.16706571  1
  I  I64  1  0.50310159  -0.00163064  0.49670673  1
  I  I65  1  0.50076495  0.00351963  0.83740772  1
  I  I66  1  0.49584824  0.33342708  0.16714236  1
  I  I67  1  0.49734877  0.33619970  0.49704545  1
  I  I68  1  0.50102393  0.32983398  0.83720698  1
  I  I69  1  0.49406787  0.66563222  0.17300504  1
  I  I70  1  0.49503662  0.66562541  0.49060330  1
  I  I71  1  0.50013117  0.66650753  0.83595661  1
  I  I72  1  0.83548950  0.00025845  0.16659665  1
  I  I73  1  0.83208966  0.00366681  0.50422711  1
  I  I74  1  0.83019734  0.00410596  0.83016541  1
  I  I75  1  0.82978107  0.33313301  0.16651203  1
  I  I76  1  0.83035082  0.33053255  0.50423176  1
  I  I77  1  0.83021274  0.32959141  0.82999980  1
  I  I78  1  0.83671582  0.66673671  0.16774967  1
  I  I79  1  0.83562421  0.66679516  0.49918947  1
  I  I80  1  0.83132379  0.66681250  0.83366927  1
  I  I81  1  0.16684045  0.17227297  0.00279892  1
  I  I82  1  0.17364839  0.17163440  0.32865728  1
  I  I83  1  0.16866995  0.16749304  0.66649777  1
  I  I84  1  0.17133994  0.49844638  0.00090774  1
  I  I85  1  0.17242798  0.49239746  0.33265679  1
  I  I86  1  0.17161406  0.50340518  0.66635385  1
  I  I87  1  0.16968776  0.82905932  -0.00231177  1
  I  I88  1  0.16502772  0.83490786  0.33338633  1
  I  I89  1  0.16977438  0.83053503  0.66981354  1
  I  I90  1  0.50208568  0.16653512  0.00124810  1
  I  I91  1  0.49852679  0.16654236  0.33025124  1
  I  I92  1  0.50245248  0.16616001  0.66863244  1
  I  I93  1  0.49516165  0.50130189  0.00307797  1
  I  I94  1  0.49224820  0.49774596  0.33266560  1
  I  I95  1  0.49495428  0.50203736  0.66391743  1
  I  I96  1  0.49756516  0.83179746  0.00273926  1
  I  I97  1  0.49855520  0.83632867  0.33261180  1
  I  I98  1  0.49814201  0.83007667  0.66409111  1
  I  I99  1  0.83174819  0.16668671  -0.00232018  1
  I  I100  1  0.83157451  0.16861199  0.33547271  1
  I  I101  1  0.82627370  0.16755124  0.66756253  1
  I  I102  1  0.83204273  0.49653013  -0.00014966  1
  I  I103  1  0.83730614  0.49484487  0.33338670  1
  I  I104  1  0.83272598  0.49952356  0.66674120  1
  I  I105  1  0.83169605  0.83617985  -0.00036326  1
  I  I106  1  0.83854014  0.83719489  0.33349608  1
  I  I107  1  0.83052486  0.83230578  0.66669840  1
  I  I108  1  0.00302923  0.17354041  0.16501655  1
  I  I109  1  -0.00304841  0.16943299  0.50789783  1
  I  I110  1  -0.00200170  0.16734664  0.83083961  1
  I  I111  1  0.00396436  0.49183140  0.16594902  1
  I  I112  1  0.00322543  0.49612314  0.49996463  1
  I  I113  1  0.00514926  0.50143804  0.83376093  1
  I  I114  1  0.00038071  0.83539000  0.16491785  1
  I  I115  1  0.00010304  0.83310562  0.50109157  1
  I  I116  1  0.00415936  0.82947629  0.83443574  1
  I  I117  1  0.33480031  0.16818243  0.15997620  1
  I  I118  1  0.33322809  0.16462192  0.50368548  1
  I  I119  1  0.33559609  0.16641746  0.83644358  1
  I  I120  1  0.33363739  0.49791032  0.16721075  1
  I  I121  1  0.33374054  0.50186921  0.49886475  1
  I  I122  1  0.33025473  0.49986141  0.83396023  1
  I  I123  1  0.33689757  0.83482287  0.16955549  1
  I  I124  1  0.33691576  0.83497141  0.49558893  1
  I  I125  1  0.33075631  0.83171449  0.83441683  1
  I  I126  1  0.66315952  0.16721579  0.16582947  1
  I  I127  1  0.66862840  0.16819989  0.50016788  1
  I  I128  1  0.66567773  0.16618958  0.83592153  1
  I  I129  1  0.66210694  0.49708610  0.17345723  1
  I  I130  1  0.66282701  0.50141125  0.49327205  1
  I  I131  1  0.66653549  0.50046189  0.83351701  1
  I  I132  1  0.66075418  0.83616463  0.17029980  1
  I  I133  1  0.66198452  0.82634019  0.49584301  1
  I  I134  1  0.66648987  0.83310469  0.83404353  1
