# generated using pymatgen
data_Cs27Sn13Pb14I81
_symmetry_space_group_name_H-M   'P 1'
_cell_length_a   18.97271385
_cell_length_b   18.98309896
_cell_length_c   18.97736346
_cell_angle_alpha   90.00017269
_cell_angle_beta   90.00067713
_cell_angle_gamma   89.99960305
_symmetry_Int_Tables_number   1
_chemical_formula_structural   Cs27Sn13Pb14I81
_chemical_formula_sum   'Cs27 Sn13 Pb14 I81'
_cell_volume   6834.90438836
_cell_formula_units_Z   1
loop_
 _symmetry_equiv_pos_site_id
 _symmetry_equiv_pos_as_xyz
  1  'x, y, z'
loop_
 _atom_site_type_symbol
 _atom_site_label
 _atom_site_symmetry_multiplicity
 _atom_site_fract_x
 _atom_site_fract_y
 _atom_site_fract_z
 _atom_site_occupancy
  Cs  Cs0  1  0.00510481  -0.00215169  0.00077278  1
  Cs  Cs1  1  -0.00228948  -0.00055017  0.33448168  1
  Cs  Cs2  1  0.00014640  -0.00026360  0.66582978  1
  Cs  Cs3  1  -0.00080002  0.33187544  -0.00034450  1
  Cs  Cs4  1  -0.00074528  0.33288599  0.33565738  1
  Cs  Cs5  1  -0.00099287  0.33479625  0.66556604  1
  Cs  Cs6  1  0.00081971  0.67045240  0.00140120  1
  Cs  Cs7  1  -0.00009617  0.66823470  0.33505595  1
  Cs  Cs8  1  -0.00011787  0.66497862  0.66567446  1
  Cs  Cs9  1  0.33048462  0.00209753  -0.00607547  1
  Cs  Cs10  1  0.34445687  0.00225829  0.33039764  1
  Cs  Cs11  1  0.34087088  -0.00129327  0.67403431  1
  Cs  Cs12  1  0.33273275  0.32807082  0.00864492  1
  Cs  Cs13  1  0.33436473  0.33414122  0.32663357  1
  Cs  Cs14  1  0.33298374  0.33446926  0.66673043  1
  Cs  Cs15  1  0.33241273  0.67100004  0.00634700  1
  Cs  Cs16  1  0.33474596  0.66417412  0.32853209  1
  Cs  Cs17  1  0.33279809  0.66648446  0.66661772  1
  Cs  Cs18  1  0.66374002  -0.00307662  0.00006460  1
  Cs  Cs19  1  0.66428949  -0.00199015  0.33328380  1
  Cs  Cs20  1  0.66280417  -0.00020324  0.66660515  1
  Cs  Cs21  1  0.66852163  0.33431877  -0.00028443  1
  Cs  Cs22  1  0.66763589  0.33295435  0.33364973  1
  Cs  Cs23  1  0.66783457  0.33517129  0.66765776  1
  Cs  Cs24  1  0.66731397  0.66738554  0.00250718  1
  Cs  Cs25  1  0.66660123  0.66831023  0.33171882  1
  Cs  Cs26  1  0.66676135  0.66433734  0.66755877  1
  Sn  Sn27  1  0.83392772  0.83342044  0.50122843  1
  Sn  Sn28  1  0.83351234  0.83437574  0.83209542  1
  Sn  Sn29  1  0.16644612  0.83406073  0.50001119  1
  Sn  Sn30  1  0.16640836  0.16604292  0.50022879  1
  Sn  Sn31  1  0.49990299  0.49979526  0.50080564  1
  Sn  Sn32  1  0.83356795  0.16522812  0.83313498  1
  Sn  Sn33  1  0.83361204  0.16727588  0.16676344  1
  Sn  Sn34  1  0.83388277  0.49935194  0.16783218  1
  Sn  Sn35  1  0.16699558  0.49989271  0.50067816  1
  Sn  Sn36  1  0.49805682  0.49982465  0.83299486  1
  Sn  Sn37  1  0.16811985  0.49978048  0.83302619  1
  Sn  Sn38  1  0.83384451  0.16645028  0.50022467  1
  Sn  Sn39  1  0.83326120  0.50016898  0.49913912  1
  Pb  Pb40  1  0.50229982  0.16946744  0.83317817  1
  Pb  Pb41  1  0.49978582  0.83062920  0.50001792  1
  Pb  Pb42  1  0.16456985  0.16889685  0.83094070  1
  Pb  Pb43  1  0.50228087  0.83048037  0.83310749  1
  Pb  Pb44  1  0.83344032  0.83396218  0.16702119  1
  Pb  Pb45  1  0.16466597  0.83108325  0.83099449  1
  Pb  Pb46  1  0.16431402  0.16645631  0.16958388  1
  Pb  Pb47  1  0.49991987  0.16930113  0.50012610  1
  Pb  Pb48  1  0.16394317  0.50003356  0.16691415  1
  Pb  Pb49  1  0.50267749  0.16674682  0.16647641  1
  Pb  Pb50  1  0.50264102  0.49996474  0.16640207  1
  Pb  Pb51  1  0.83373428  0.50020614  0.83338180  1
  Pb  Pb52  1  0.16652095  0.83377591  0.16997117  1
  Pb  Pb53  1  0.49973099  0.83347867  0.16635844  1
  I  I54  1  0.16161540  0.00015123  0.16710001  1
  I  I55  1  0.15428419  0.00012851  0.49815410  1
  I  I56  1  0.16623174  0.00002323  0.83224358  1
  I  I57  1  0.16639600  0.33345999  0.16902289  1
  I  I58  1  0.16164890  0.33427569  0.50393155  1
  I  I59  1  0.16573235  0.33698430  0.82561558  1
  I  I60  1  0.16306138  0.66641660  0.16862756  1
  I  I61  1  0.16188490  0.66557665  0.50402335  1
  I  I62  1  0.16560985  0.66296562  0.82593792  1
  I  I63  1  0.50484959  0.00024376  0.16965920  1
  I  I64  1  0.50086424  0.00003349  0.49849919  1
  I  I65  1  0.50024431  -0.00002049  0.83397442  1
  I  I66  1  0.50017203  0.33374605  0.16768081  1
  I  I67  1  0.50287130  0.33756841  0.50391318  1
  I  I68  1  0.50101100  0.33753041  0.82691853  1
  I  I69  1  0.50428812  0.66592678  0.16789292  1
  I  I70  1  0.50253652  0.66233610  0.50391533  1
  I  I71  1  0.50087987  0.66240158  0.82679408  1
  I  I72  1  0.83335147  0.00323076  0.17016876  1
  I  I73  1  0.84023788  0.00043647  0.50011890  1
  I  I74  1  0.83374446  0.00043033  0.82949027  1
  I  I75  1  0.83315285  0.33361366  0.17014361  1
  I  I76  1  0.83514664  0.33365422  0.49982871  1
  I  I77  1  0.83297423  0.33142118  0.83083348  1
  I  I78  1  0.83265491  0.66403403  0.16982263  1
  I  I79  1  0.83540056  0.66584640  0.50053311  1
  I  I80  1  0.83306219  0.66848562  0.82933395  1
  I  I81  1  0.16393365  0.16988448  -0.00024807  1
  I  I82  1  0.15948658  0.17137464  0.33835794  1
  I  I83  1  0.15824343  0.16709908  0.66252481  1
  I  I84  1  0.16788459  0.50002906  -0.00289605  1
  I  I85  1  0.16824246  0.50012332  0.33750931  1
  I  I86  1  0.16365995  0.49994091  0.66435717  1
  I  I87  1  0.16361446  0.82960286  -0.00051046  1
  I  I88  1  0.15645247  0.82801291  0.33897866  1
  I  I89  1  0.16212549  0.83328996  0.66254044  1
  I  I90  1  0.50305305  0.17095993  -0.00018146  1
  I  I91  1  0.50186299  0.16938205  0.33366759  1
  I  I92  1  0.50457047  0.16637821  0.66647212  1
  I  I93  1  0.49954416  0.50010430  -0.00308353  1
  I  I94  1  0.49810986  0.50008239  0.33654111  1
  I  I95  1  0.50343129  0.49988178  0.66536349  1
  I  I96  1  0.50543254  0.82827342  -0.00051315  1
  I  I97  1  0.50326091  0.83062748  0.33393251  1
  I  I98  1  0.50075646  0.83411078  0.66640532  1
  I  I99  1  0.83132549  0.17010698  -0.00018874  1
  I  I100  1  0.83717991  0.16871483  0.33488050  1
  I  I101  1  0.83657527  0.16817641  0.66530923  1
  I  I102  1  0.83263489  0.49687827  0.00184904  1
  I  I103  1  0.83314771  0.49758837  0.33580140  1
  I  I104  1  0.83342829  0.49807780  0.66360477  1
  I  I105  1  0.83185937  0.83371202  -0.00283921  1
  I  I106  1  0.83693270  0.83386300  0.33705583  1
  I  I107  1  0.83640249  0.83433722  0.66498462  1
  I  I108  1  -0.00445189  0.17193987  0.16559671  1
  I  I109  1  -0.00189747  0.17149342  0.50009433  1
  I  I110  1  -0.00419765  0.16726455  0.83399099  1
  I  I111  1  -0.00417527  0.49640948  0.17105649  1
  I  I112  1  -0.00053871  0.49981114  0.50052030  1
  I  I113  1  0.00190537  0.49961592  0.82858658  1
  I  I114  1  -0.00063259  0.83117550  0.16473671  1
  I  I115  1  -0.00165166  0.82851901  0.50334825  1
  I  I116  1  -0.00376035  0.83344833  0.83069622  1
  I  I117  1  0.33300541  0.16743987  0.16934833  1
  I  I118  1  0.33002256  0.16741071  0.50046360  1
  I  I119  1  0.33301315  0.16608444  0.83093733  1
  I  I120  1  0.33322750  0.50056202  0.16943059  1
  I  I121  1  0.33242732  0.50041204  0.50578325  1
  I  I122  1  0.33287564  0.50039116  0.82144743  1
  I  I123  1  0.33301914  0.83046420  0.16961344  1
  I  I124  1  0.32995338  0.83231508  0.49911614  1
  I  I125  1  0.33308867  0.83348303  0.83161151  1
  I  I126  1  0.67185789  0.17206663  0.17075805  1
  I  I127  1  0.67069078  0.16714585  0.49942573  1
  I  I128  1  0.67144348  0.16661084  0.82964094  1
  I  I129  1  0.67085233  0.49644947  0.17039168  1
  I  I130  1  0.66811991  0.49965170  0.50069175  1
  I  I131  1  0.66535065  0.49964435  0.82941405  1
  I  I132  1  0.66762405  0.83164800  0.16918803  1
  I  I133  1  0.67032043  0.83339137  0.50232540  1
  I  I134  1  0.67100552  0.83462042  0.82657796  1
