# generated using pymatgen
data_Cs27Sn13Pb14I81
_symmetry_space_group_name_H-M   'P 1'
_cell_length_a   18.97247029
_cell_length_b   18.97669747
_cell_length_c   18.98080162
_cell_angle_alpha   89.99958987
_cell_angle_beta   90.00166287
_cell_angle_gamma   90.00094323
_symmetry_Int_Tables_number   1
_chemical_formula_structural   Cs27Sn13Pb14I81
_chemical_formula_sum   'Cs27 Sn13 Pb14 I81'
_cell_volume   6833.74966044
_cell_formula_units_Z   1
loop_
 _symmetry_equiv_pos_site_id
 _symmetry_equiv_pos_as_xyz
  1  'x, y, z'
loop_
 _atom_site_type_symbol
 _atom_site_label
 _atom_site_symmetry_multiplicity
 _atom_site_fract_x
 _atom_site_fract_y
 _atom_site_fract_z
 _atom_site_occupancy
  Cs  Cs0  1  -0.00112361  -0.00062279  0.00202969  1
  Cs  Cs1  1  0.00117233  0.00187647  0.33191626  1
  Cs  Cs2  1  -0.00076898  -0.00057227  0.66578825  1
  Cs  Cs3  1  -0.00084343  0.33770329  -0.00280379  1
  Cs  Cs4  1  0.00204884  0.33062464  0.33258357  1
  Cs  Cs5  1  0.00319415  0.33283610  0.66992967  1
  Cs  Cs6  1  -0.00021486  0.66230686  -0.00366219  1
  Cs  Cs7  1  -0.00032195  0.66623599  0.33398781  1
  Cs  Cs8  1  -0.00284320  0.66756049  0.66922496  1
  Cs  Cs9  1  0.33579135  -0.00138220  0.00403532  1
  Cs  Cs10  1  0.32963873  -0.00151304  0.32940345  1
  Cs  Cs11  1  0.33438275  -0.00135916  0.66641299  1
  Cs  Cs12  1  0.33683766  0.33071515  -0.00296101  1
  Cs  Cs13  1  0.33134718  0.33354167  0.33315547  1
  Cs  Cs14  1  0.33286532  0.33410812  0.66719841  1
  Cs  Cs15  1  0.33177275  0.66992317  -0.00107547  1
  Cs  Cs16  1  0.33455085  0.66778132  0.33240322  1
  Cs  Cs17  1  0.33262887  0.66736020  0.66696469  1
  Cs  Cs18  1  0.66589625  0.00220502  0.00001749  1
  Cs  Cs19  1  0.66892108  -0.00097073  0.33448942  1
  Cs  Cs20  1  0.66618511  -0.00083670  0.66698149  1
  Cs  Cs21  1  0.66447426  0.33024274  0.00407069  1
  Cs  Cs22  1  0.66625334  0.34239987  0.33402257  1
  Cs  Cs23  1  0.66308754  0.33108886  0.66353597  1
  Cs  Cs24  1  0.66859536  0.66478013  0.00227768  1
  Cs  Cs25  1  0.66599996  0.65611578  0.33441422  1
  Cs  Cs26  1  0.66978539  0.66869477  0.66397384  1
  Sn  Sn27  1  0.83403637  0.16626557  0.83325277  1
  Sn  Sn28  1  0.83310764  0.83341013  0.16691735  1
  Sn  Sn29  1  0.16715791  0.83260703  0.50065138  1
  Sn  Sn30  1  0.16701202  0.50018652  0.16736781  1
  Sn  Sn31  1  0.16624532  0.16522642  0.83336337  1
  Sn  Sn32  1  0.49956805  0.83236245  0.83263115  1
  Sn  Sn33  1  0.50035378  0.16564748  0.49972651  1
  Sn  Sn34  1  0.16668442  0.50115701  0.49938568  1
  Sn  Sn35  1  0.16711050  0.83455161  0.83259297  1
  Sn  Sn36  1  0.83249618  0.16645081  0.49993931  1
  Sn  Sn37  1  0.50030813  0.50137379  0.83309668  1
  Sn  Sn38  1  0.83337718  0.16597539  0.16684902  1
  Sn  Sn39  1  0.49941198  0.83421464  0.50045893  1
  Pb  Pb40  1  0.16808955  0.50050958  0.83294299  1
  Pb  Pb41  1  0.49707204  0.50019162  0.16389937  1
  Pb  Pb42  1  0.83333545  0.83495177  0.49813217  1
  Pb  Pb43  1  0.83306552  0.83516077  0.83499751  1
  Pb  Pb44  1  0.49777395  0.50058508  0.50163347  1
  Pb  Pb45  1  0.16684309  0.16597441  0.50153469  1
  Pb  Pb46  1  0.16466068  0.16862475  0.16351126  1
  Pb  Pb47  1  0.83535916  0.49970504  0.16667141  1
  Pb  Pb48  1  0.83642970  0.49699352  0.50046442  1
  Pb  Pb49  1  0.49997305  0.16568756  0.83179750  1
  Pb  Pb50  1  0.50247563  0.16652141  0.17041659  1
  Pb  Pb51  1  0.82993884  0.49703286  0.83304711  1
  Pb  Pb52  1  0.50253130  0.83330027  0.16717530  1
  Pb  Pb53  1  0.16472639  0.83181535  0.16648992  1
  I  I54  1  0.16623599  0.00001920  0.16859279  1
  I  I55  1  0.16738450  -0.00285816  0.50328699  1
  I  I56  1  0.16803716  -0.00094139  0.82732907  1
  I  I57  1  0.16451335  0.33630572  0.17227513  1
  I  I58  1  0.16592682  0.33491561  0.49846299  1
  I  I59  1  0.16415615  0.33128380  0.83296823  1
  I  I60  1  0.16328163  0.66412433  0.16581496  1
  I  I61  1  0.17233261  0.66808628  0.50183224  1
  I  I62  1  0.16937054  0.66968588  0.83275246  1
  I  I63  1  0.49752157  -0.00003895  0.16148921  1
  I  I64  1  0.49879498  -0.00090914  0.50702106  1
  I  I65  1  0.49896319  -0.00295353  0.83031904  1
  I  I66  1  0.50208204  0.33328249  0.16486784  1
  I  I67  1  0.50313170  0.33110340  0.50237268  1
  I  I68  1  0.49908193  0.33450670  0.83187041  1
  I  I69  1  0.50457141  0.66680680  0.17050681  1
  I  I70  1  0.49732284  0.66993820  0.50239445  1
  I  I71  1  0.49271164  0.66852195  0.82833191  1
  I  I72  1  0.83475806  0.00132910  0.16636321  1
  I  I73  1  0.83436915  0.00330287  0.50209226  1
  I  I74  1  0.83299465  0.00344650  0.83138514  1
  I  I75  1  0.83471467  0.32995411  0.16618678  1
  I  I76  1  0.82766510  0.32851494  0.49755173  1
  I  I77  1  0.83964142  0.32858314  0.83553075  1
  I  I78  1  0.83444495  0.66907645  0.16616020  1
  I  I79  1  0.83081536  0.66684062  0.49700482  1
  I  I80  1  0.83647659  0.66695517  0.83652197  1
  I  I81  1  0.16285694  0.16318356  -0.00452416  1
  I  I82  1  0.16566979  0.16572038  0.33338086  1
  I  I83  1  0.16128992  0.16809784  0.66940924  1
  I  I84  1  0.16691926  0.49918575  0.00145190  1
  I  I85  1  0.16627672  0.50443876  0.33450497  1
  I  I86  1  0.16864232  0.49988155  0.66439172  1
  I  I87  1  0.16985062  0.83552072  -0.00318435  1
  I  I88  1  0.16989151  0.83141130  0.33633196  1
  I  I89  1  0.16971717  0.83165288  0.66665370  1
  I  I90  1  0.50061825  0.16753225  -0.00010988  1
  I  I91  1  0.50290828  0.16115298  0.33849292  1
  I  I92  1  0.50548861  0.16569846  0.66403710  1
  I  I93  1  0.49761706  0.50442077  -0.00400881  1
  I  I94  1  0.50103833  0.49961661  0.33358309  1
  I  I95  1  0.49599958  0.49975390  0.66929087  1
  I  I96  1  0.49576940  0.83003863  -0.00327579  1
  I  I97  1  0.49548898  0.83876269  0.33707036  1
  I  I98  1  0.49610287  0.83398598  0.66664289  1
  I  I99  1  0.83859716  0.16301093  -0.00029422  1
  I  I100  1  0.82945843  0.16216242  0.33354373  1
  I  I101  1  0.83350203  0.16727897  0.66666199  1
  I  I102  1  0.83674624  0.49825255  -0.00014606  1
  I  I103  1  0.83110581  0.49813735  0.33354760  1
  I  I104  1  0.83701429  0.49920579  0.66673880  1
  I  I105  1  0.83404551  0.83973826  0.00263332  1
  I  I106  1  0.83495326  0.84077411  0.33061353  1
  I  I107  1  0.83377265  0.83540955  0.66661497  1
  I  I108  1  -0.00349619  0.16309596  0.17222931  1
  I  I109  1  -0.00246677  0.16713837  0.49894926  1
  I  I110  1  0.00010179  0.16229436  0.83066934  1
  I  I111  1  0.00310727  0.49951875  0.16888353  1
  I  I112  1  0.00444070  0.50485168  0.49794018  1
  I  I113  1  0.00018622  0.50081058  0.83393760  1
  I  I114  1  -0.00285609  0.83819044  0.16708432  1
  I  I115  1  0.00307797  0.83104573  0.50353890  1
  I  I116  1  0.00291912  0.83562034  0.82999025  1
  I  I117  1  0.33311673  0.16836362  0.16595432  1
  I  I118  1  0.33552325  0.16652469  0.50459718  1
  I  I119  1  0.33105151  0.16727997  0.83004844  1
  I  I120  1  0.32944327  0.50100457  0.17138505  1
  I  I121  1  0.32996248  0.49803158  0.49764452  1
  I  I122  1  0.33569619  0.49813901  0.83299839  1
  I  I123  1  0.33318637  0.83149380  0.16624863  1
  I  I124  1  0.33318285  0.83565576  0.50411750  1
  I  I125  1  0.33275570  0.83526038  0.82981101  1
  I  I126  1  0.67089043  0.16328984  0.15920097  1
  I  I127  1  0.66680118  0.16073867  0.50341242  1
  I  I128  1  0.66922526  0.16729000  0.83482526  1
  I  I129  1  0.66667688  0.49943815  0.16561173  1
  I  I130  1  0.66640841  0.50135635  0.50074873  1
  I  I131  1  0.66228310  0.50582384  0.83239538  1
  I  I132  1  0.67028634  0.83906974  0.16519871  1
  I  I133  1  0.66376970  0.83712552  0.50446175  1
  I  I134  1  0.66362843  0.83131472  0.82951859  1
