# generated using pymatgen
data_Cs27Sn14Pb13I81
_symmetry_space_group_name_H-M   'P 1'
_cell_length_a   18.97790253
_cell_length_b   18.97237899
_cell_length_c   18.97792941
_cell_angle_alpha   89.99957157
_cell_angle_beta   89.99904013
_cell_angle_gamma   90.00234380
_symmetry_Int_Tables_number   1
_chemical_formula_structural   Cs27Sn14Pb13I81
_chemical_formula_sum   'Cs27 Sn14 Pb13 I81'
_cell_volume   6833.11657089
_cell_formula_units_Z   1
loop_
 _symmetry_equiv_pos_site_id
 _symmetry_equiv_pos_as_xyz
  1  'x, y, z'
loop_
 _atom_site_type_symbol
 _atom_site_label
 _atom_site_symmetry_multiplicity
 _atom_site_fract_x
 _atom_site_fract_y
 _atom_site_fract_z
 _atom_site_occupancy
  Cs  Cs0  1  0.00198121  0.00062182  0.00400106  1
  Cs  Cs1  1  0.00211455  0.00208374  0.33004123  1
  Cs  Cs2  1  0.00162410  -0.00313069  0.66573644  1
  Cs  Cs3  1  -0.00665330  0.33468618  0.00254808  1
  Cs  Cs4  1  -0.00520835  0.33191687  0.33061632  1
  Cs  Cs5  1  -0.00326300  0.33582942  0.66742241  1
  Cs  Cs6  1  0.00097433  0.66725846  -0.00418748  1
  Cs  Cs7  1  0.00126469  0.66633442  0.33456584  1
  Cs  Cs8  1  0.00162208  0.66830228  0.66747586  1
  Cs  Cs9  1  0.33192827  0.00055725  0.00372381  1
  Cs  Cs10  1  0.33313101  0.00175866  0.33242445  1
  Cs  Cs11  1  0.33350223  0.00081936  0.66513009  1
  Cs  Cs12  1  0.33612373  0.33647746  -0.00471638  1
  Cs  Cs13  1  0.33263643  0.33138257  0.33521480  1
  Cs  Cs14  1  0.33293326  0.33180343  0.66632827  1
  Cs  Cs15  1  0.33564000  0.66252412  0.00390730  1
  Cs  Cs16  1  0.33347016  0.66597615  0.33324768  1
  Cs  Cs17  1  0.33128685  0.66644955  0.66470178  1
  Cs  Cs18  1  0.66637048  0.00014384  -0.00491267  1
  Cs  Cs19  1  0.66406736  -0.00002361  0.33473505  1
  Cs  Cs20  1  0.66586803  -0.00119584  0.66794019  1
  Cs  Cs21  1  0.67004825  0.33908474  -0.00582116  1
  Cs  Cs22  1  0.67304767  0.33451161  0.33216634  1
  Cs  Cs23  1  0.67304925  0.33027194  0.67308272  1
  Cs  Cs24  1  0.66406089  0.66248089  0.00611952  1
  Cs  Cs25  1  0.66524425  0.66472436  0.33093375  1
  Cs  Cs26  1  0.66821511  0.67199295  0.66443993  1
  Sn  Sn27  1  0.16744680  0.49971223  0.49885179  1
  Sn  Sn28  1  0.16686764  0.49980533  0.16759099  1
  Sn  Sn29  1  0.16709479  0.16670022  0.50072169  1
  Sn  Sn30  1  0.16688790  0.83356935  0.50023800  1
  Sn  Sn31  1  0.49909119  0.83321606  0.83286365  1
  Sn  Sn32  1  0.50021499  0.16696605  0.16704443  1
  Sn  Sn33  1  0.16664855  0.16585928  0.83259737  1
  Sn  Sn34  1  0.83348656  0.83361328  0.49931595  1
  Sn  Sn35  1  0.16750912  0.83437966  0.83279782  1
  Sn  Sn36  1  0.49967315  0.16726115  0.49920119  1
  Sn  Sn37  1  0.49963694  0.83328426  0.50042156  1
  Sn  Sn38  1  0.83343134  0.83353854  0.83382688  1
  Sn  Sn39  1  0.49964266  0.49940377  0.50033041  1
  Sn  Sn40  1  0.83335600  0.83369605  0.16685005  1
  Pb  Pb41  1  0.83666622  0.16405611  0.83319328  1
  Pb  Pb42  1  0.83322809  0.50303855  0.83307579  1
  Pb  Pb43  1  0.82999516  0.16442135  0.16663042  1
  Pb  Pb44  1  0.83585743  0.50247315  0.16693052  1
  Pb  Pb45  1  0.16526928  0.83182468  0.16663711  1
  Pb  Pb46  1  0.49827980  0.49695630  0.16933069  1
  Pb  Pb47  1  0.83342405  0.50240205  0.50013407  1
  Pb  Pb48  1  0.83344845  0.16411806  0.50002502  1
  Pb  Pb49  1  0.49984242  0.50284836  0.82990673  1
  Pb  Pb50  1  0.50180273  0.83476966  0.16699285  1
  Pb  Pb51  1  0.16818326  0.16909427  0.16651639  1
  Pb  Pb52  1  0.16667582  0.49996580  0.83253952  1
  Pb  Pb53  1  0.49806906  0.16472431  0.83261534  1
  I  I54  1  0.16569389  0.00013078  0.16841980  1
  I  I55  1  0.16863552  -0.00077068  0.50456434  1
  I  I56  1  0.16617931  -0.00167162  0.82543922  1
  I  I57  1  0.16833513  0.33653145  0.17206966  1
  I  I58  1  0.17505842  0.33291080  0.50060319  1
  I  I59  1  0.16916782  0.33042531  0.82943453  1
  I  I60  1  0.16639436  0.66413721  0.17183102  1
  I  I61  1  0.16838274  0.66788447  0.50012870  1
  I  I62  1  0.16475278  0.67028865  0.82966974  1
  I  I63  1  0.49857508  0.00230372  0.17385630  1
  I  I64  1  0.49788435  -0.00079858  0.49982355  1
  I  I65  1  0.50272452  -0.00378919  0.82727096  1
  I  I66  1  0.49718042  0.32940925  0.17257553  1
  I  I67  1  0.48934590  0.33280082  0.49388224  1
  I  I68  1  0.49732003  0.33317382  0.83354721  1
  I  I69  1  0.50091222  0.66649576  0.16625590  1
  I  I70  1  0.49738452  0.66793785  0.50484446  1
  I  I71  1  0.49729011  0.67166407  0.82891810  1
  I  I72  1  0.83646976  -0.00393001  0.16731992  1
  I  I73  1  0.83333305  -0.00473440  0.50146697  1
  I  I74  1  0.83043451  -0.00466090  0.83133415  1
  I  I75  1  0.83402635  0.33343032  0.16710277  1
  I  I76  1  0.83353062  0.33325589  0.49862372  1
  I  I77  1  0.83446553  0.33302322  0.83436041  1
  I  I78  1  0.83147751  0.67072998  0.16682383  1
  I  I79  1  0.83379266  0.67141660  0.50156047  1
  I  I80  1  0.83817299  0.67214719  0.83114496  1
  I  I81  1  0.16836584  0.16089262  -0.00263109  1
  I  I82  1  0.16901789  0.16253870  0.33675954  1
  I  I83  1  0.17282069  0.16606796  0.66488603  1
  I  I84  1  0.16543936  0.50189339  0.00207124  1
  I  I85  1  0.17046514  0.50226572  0.33591564  1
  I  I86  1  0.17056083  0.50160304  0.66289476  1
  I  I87  1  0.16561476  0.83623306  -0.00313481  1
  I  I88  1  0.16698800  0.83559458  0.33689271  1
  I  I89  1  0.16305733  0.83182804  0.66538277  1
  I  I90  1  0.49727211  0.16180992  0.00162199  1
  I  I91  1  0.49348738  0.16250310  0.33607602  1
  I  I92  1  0.49719859  0.16702567  0.66300494  1
  I  I93  1  0.49829222  0.50055690  0.00008190  1
  I  I94  1  0.49736422  0.50776029  0.33744878  1
  I  I95  1  0.49117712  0.49647890  0.66178819  1
  I  I96  1  0.49998311  0.83666979  -0.00273655  1
  I  I97  1  0.49961423  0.83189181  0.33713361  1
  I  I98  1  0.50374928  0.83492086  0.66500102  1
  I  I99  1  0.83415884  0.16214124  -0.00009731  1
  I  I100  1  0.83813294  0.16196040  0.33345837  1
  I  I101  1  0.82818946  0.16485942  0.66656334  1
  I  I102  1  0.83599111  0.50312545  0.00017046  1
  I  I103  1  0.83212187  0.50488606  0.33360797  1
  I  I104  1  0.83605354  0.50202665  0.66630382  1
  I  I105  1  0.83453385  0.83386858  -0.00104411  1
  I  I106  1  0.83346705  0.83302320  0.33461523  1
  I  I107  1  0.83336473  0.83290339  0.66630519  1
  I  I108  1  0.00012172  0.16721506  0.16666330  1
  I  I109  1  0.00370930  0.16632442  0.50393578  1
  I  I110  1  0.00480377  0.16114836  0.82693141  1
  I  I111  1  0.00371041  0.49902774  0.17440527  1
  I  I112  1  0.00364389  0.50081801  0.49727318  1
  I  I113  1  0.00040458  0.50251930  0.83116855  1
  I  I114  1  -0.00275761  0.83226783  0.16748594  1
  I  I115  1  0.00103394  0.83259222  0.50283629  1
  I  I116  1  0.00069617  0.83615746  0.82981291  1
  I  I117  1  0.33577468  0.16345552  0.17003130  1
  I  I118  1  0.33296777  0.16168228  0.49979011  1
  I  I119  1  0.33013598  0.15966320  0.83140131  1
  I  I120  1  0.33046658  0.50357681  0.16866668  1
  I  I121  1  0.33241204  0.50571682  0.49660159  1
  I  I122  1  0.33311786  0.50398189  0.83689575  1
  I  I123  1  0.33340374  0.83296326  0.16596807  1
  I  I124  1  0.33316024  0.83304445  0.50618500  1
  I  I125  1  0.33259228  0.83683954  0.82498632  1
  I  I126  1  0.66229110  0.16503311  0.17568676  1
  I  I127  1  0.66320744  0.16562469  0.49541252  1
  I  I128  1  0.66653043  0.16457098  0.83309327  1
  I  I129  1  0.66654195  0.50054452  0.16777958  1
  I  I130  1  0.66339101  0.50172574  0.50022379  1
  I  I131  1  0.66634467  0.50046240  0.83260660  1
  I  I132  1  0.66976226  0.83450283  0.16740122  1
  I  I133  1  0.66585694  0.83337214  0.50297349  1
  I  I134  1  0.66646631  0.83275909  0.82852797  1
