# generated using pymatgen
data_Cs27Sn13Pb14I81
_symmetry_space_group_name_H-M   'P 1'
_cell_length_a   18.97679513
_cell_length_b   18.97679514
_cell_length_c   18.97691123
_cell_angle_alpha   90.00292958
_cell_angle_beta   90.00292954
_cell_angle_gamma   89.99981501
_symmetry_Int_Tables_number   1
_chemical_formula_structural   Cs27Sn13Pb14I81
_chemical_formula_sum   'Cs27 Sn13 Pb14 I81'
_cell_volume   6833.94160246
_cell_formula_units_Z   1
loop_
 _symmetry_equiv_pos_site_id
 _symmetry_equiv_pos_as_xyz
  1  'x, y, z'
loop_
 _atom_site_type_symbol
 _atom_site_label
 _atom_site_symmetry_multiplicity
 _atom_site_fract_x
 _atom_site_fract_y
 _atom_site_fract_z
 _atom_site_occupancy
  Cs  Cs0  1  0.00089750  0.00089731  0.00398256  1
  Cs  Cs1  1  -0.00434411  -0.00434411  0.33375069  1
  Cs  Cs2  1  -0.00035686  -0.00035693  0.66405169  1
  Cs  Cs3  1  -0.00056256  0.33243118  -0.00323181  1
  Cs  Cs4  1  0.00511781  0.33604020  0.33617032  1
  Cs  Cs5  1  -0.00084886  0.33192321  0.66897498  1
  Cs  Cs6  1  0.00472581  0.66655629  0.00344078  1
  Cs  Cs7  1  0.00021691  0.66858991  0.32962915  1
  Cs  Cs8  1  -0.00482552  0.66859766  0.66700495  1
  Cs  Cs9  1  0.33243122  -0.00056255  -0.00323190  1
  Cs  Cs10  1  0.33604015  0.00511804  0.33617042  1
  Cs  Cs11  1  0.33192321  -0.00084885  0.66897506  1
  Cs  Cs12  1  0.33278047  0.33278048  0.00004802  1
  Cs  Cs13  1  0.33238367  0.33238364  0.34128665  1
  Cs  Cs14  1  0.33252056  0.33252055  0.66232882  1
  Cs  Cs15  1  0.33302396  0.66858923  -0.00030914  1
  Cs  Cs16  1  0.33278523  0.66315396  0.33215398  1
  Cs  Cs17  1  0.33520895  0.66851666  0.66798570  1
  Cs  Cs18  1  0.66655637  0.00472579  0.00344082  1
  Cs  Cs19  1  0.66859001  0.00021700  0.32962937  1
  Cs  Cs20  1  0.66859767  -0.00482551  0.66700501  1
  Cs  Cs21  1  0.66858916  0.33302369  -0.00030916  1
  Cs  Cs22  1  0.66315397  0.33278524  0.33215387  1
  Cs  Cs23  1  0.66851667  0.33520897  0.66798575  1
  Cs  Cs24  1  0.66287671  0.66287675  -0.00121688  1
  Cs  Cs25  1  0.66742209  0.66742211  0.33388720  1
  Cs  Cs26  1  0.66724512  0.66724505  0.66632210  1
  Sn  Sn27  1  0.83340211  0.83340207  0.83454523  1
  Sn  Sn28  1  0.83292524  0.16779421  0.49986512  1
  Sn  Sn29  1  0.83289718  0.49972927  0.16755471  1
  Sn  Sn30  1  0.83311861  0.49901386  0.49887359  1
  Sn  Sn31  1  0.49901389  0.83311864  0.49887356  1
  Sn  Sn32  1  0.16745940  0.16745944  0.83397548  1
  Sn  Sn33  1  0.16688128  0.16688128  0.16643547  1
  Sn  Sn34  1  0.16770021  0.49961092  0.83312952  1
  Sn  Sn35  1  0.50035115  0.50035116  0.16620310  1
  Sn  Sn36  1  0.16779420  0.83292522  0.49986510  1
  Sn  Sn37  1  0.49891370  0.49891369  0.83376219  1
  Sn  Sn38  1  0.49961097  0.16770021  0.83312953  1
  Sn  Sn39  1  0.49972925  0.83289719  0.16755473  1
  Pb  Pb40  1  0.50165260  0.50165263  0.50010494  1
  Pb  Pb41  1  0.16749600  0.49824671  0.16480098  1
  Pb  Pb42  1  0.83557831  0.16942319  0.16903117  1
  Pb  Pb43  1  0.16492890  0.16492893  0.50057024  1
  Pb  Pb44  1  0.83357872  0.16470409  0.83205454  1
  Pb  Pb45  1  0.50230494  0.16428064  0.50281191  1
  Pb  Pb46  1  0.50134684  0.83325768  0.83379595  1
  Pb  Pb47  1  0.16470411  0.83357870  0.83205455  1
  Pb  Pb48  1  0.16428064  0.50230493  0.50281186  1
  Pb  Pb49  1  0.83325771  0.50134681  0.83379591  1
  Pb  Pb50  1  0.83103053  0.83103045  0.16391008  1
  Pb  Pb51  1  0.49824672  0.16749597  0.16480097  1
  Pb  Pb52  1  0.83291693  0.83291694  0.50060389  1
  Pb  Pb53  1  0.16942319  0.83557830  0.16903124  1
  I  I54  1  0.16757482  0.00320905  0.15901043  1
  I  I55  1  0.16735560  -0.00276382  0.50275515  1
  I  I56  1  0.17021345  0.00298904  0.83492015  1
  I  I57  1  0.16753772  0.33050146  0.16475512  1
  I  I58  1  0.16607419  0.33343144  0.49892437  1
  I  I59  1  0.16913673  0.33296472  0.83635610  1
  I  I60  1  0.16439881  0.66651109  0.16575997  1
  I  I61  1  0.16816312  0.66988871  0.50197916  1
  I  I62  1  0.16946370  0.66413244  0.83156566  1
  I  I63  1  0.49834414  -0.00213962  0.16868173  1
  I  I64  1  0.49943984  -0.00366029  0.49635737  1
  I  I65  1  0.49719898  0.00217160  0.83247381  1
  I  I66  1  0.50387615  0.33657330  0.16274515  1
  I  I67  1  0.50004980  0.33332580  0.49800075  1
  I  I68  1  0.49773564  0.33437001  0.83868095  1
  I  I69  1  0.50369120  0.66569301  0.16409176  1
  I  I70  1  0.49983314  0.66965218  0.50217596  1
  I  I71  1  0.49795627  0.66390569  0.83432983  1
  I  I72  1  0.83260988  0.00009785  0.16759543  1
  I  I73  1  0.83421953  0.00145363  0.50447718  1
  I  I74  1  0.83198128  -0.00268028  0.82829563  1
  I  I75  1  0.82580642  0.33723047  0.16590036  1
  I  I76  1  0.83395385  0.33416367  0.49893705  1
  I  I77  1  0.83336909  0.33340668  0.83317732  1
  I  I78  1  0.83312130  0.66313438  0.17288402  1
  I  I79  1  0.83304614  0.66425603  0.49908772  1
  I  I80  1  0.83230513  0.66870992  0.82911584  1
  I  I81  1  0.16946165  0.16946179  -0.00170604  1
  I  I82  1  0.16510398  0.16510374  0.33141155  1
  I  I83  1  0.16877135  0.16877134  0.66979003  1
  I  I84  1  0.16489997  0.49949116  -0.00331662  1
  I  I85  1  0.16803270  0.49833090  0.33340344  1
  I  I86  1  0.17097666  0.49402405  0.67071966  1
  I  I87  1  0.16618909  0.83218947  0.00012886  1
  I  I88  1  0.16521982  0.83487120  0.33675232  1
  I  I89  1  0.17172961  0.83502955  0.66424731  1
  I  I90  1  0.49949133  0.16490020  -0.00331662  1
  I  I91  1  0.49833057  0.16803272  0.33340346  1
  I  I92  1  0.49402427  0.17097663  0.67071966  1
  I  I93  1  0.50278876  0.50278864  -0.00013110  1
  I  I94  1  0.50328158  0.50328172  0.33064587  1
  I  I95  1  0.49861215  0.49861215  0.66962310  1
  I  I96  1  0.50307294  0.83144391  0.00224931  1
  I  I97  1  0.49748177  0.82775272  0.33317420  1
  I  I98  1  0.49930173  0.83366242  0.66483839  1
  I  I99  1  0.83218943  0.16618902  0.00012886  1
  I  I100  1  0.83487141  0.16521998  0.33675232  1
  I  I101  1  0.83502928  0.17172968  0.66424732  1
  I  I102  1  0.83144392  0.50307292  0.00224937  1
  I  I103  1  0.82775295  0.49748173  0.33317422  1
  I  I104  1  0.83366230  0.49930187  0.66483840  1
  I  I105  1  0.83255416  0.83255454  -0.00333237  1
  I  I106  1  0.83466106  0.83466112  0.33292608  1
  I  I107  1  0.83087271  0.83087243  0.66828647  1
  I  I108  1  0.00320906  0.16757452  0.15901048  1
  I  I109  1  -0.00276380  0.16735543  0.50275526  1
  I  I110  1  0.00298905  0.17021378  0.83492009  1
  I  I111  1  -0.00213953  0.49834435  0.16868172  1
  I  I112  1  -0.00366031  0.49944010  0.49635756  1
  I  I113  1  0.00217161  0.49719872  0.83247372  1
  I  I114  1  0.00009785  0.83261011  0.16759530  1
  I  I115  1  0.00145363  0.83421952  0.50447717  1
  I  I116  1  -0.00268029  0.83198142  0.82829603  1
  I  I117  1  0.33050145  0.16753790  0.16475488  1
  I  I118  1  0.33343143  0.16607455  0.49892458  1
  I  I119  1  0.33296470  0.16913629  0.83635615  1
  I  I120  1  0.33657333  0.50387627  0.16274503  1
  I  I121  1  0.33332582  0.50004950  0.49800075  1
  I  I122  1  0.33436997  0.49773579  0.83868107  1
  I  I123  1  0.33723051  0.82580598  0.16590030  1
  I  I124  1  0.33416361  0.83395380  0.49893694  1
  I  I125  1  0.33340662  0.83336931  0.83317737  1
  I  I126  1  0.66651112  0.16439902  0.16576010  1
  I  I127  1  0.66988871  0.16816284  0.50197872  1
  I  I128  1  0.66413246  0.16946384  0.83156584  1
  I  I129  1  0.66569304  0.50369095  0.16409195  1
  I  I130  1  0.66965223  0.49983316  0.50217589  1
  I  I131  1  0.66390569  0.49795642  0.83432973  1
  I  I132  1  0.66313437  0.83312137  0.17288395  1
  I  I133  1  0.66425603  0.83304637  0.49908784  1
  I  I134  1  0.66870994  0.83230486  0.82911558  1
