# generated using pymatgen
data_Cs27Sn14Pb13I81
_symmetry_space_group_name_H-M   'P 1'
_cell_length_a   18.95836639
_cell_length_b   18.95676937
_cell_length_c   18.96572989
_cell_angle_alpha   89.99863313
_cell_angle_beta   89.99821222
_cell_angle_gamma   90.00091018
_symmetry_Int_Tables_number   1
_chemical_formula_structural   Cs27Sn14Pb13I81
_chemical_formula_sum   'Cs27 Sn14 Pb13 I81'
_cell_volume   6816.08188552
_cell_formula_units_Z   1
loop_
 _symmetry_equiv_pos_site_id
 _symmetry_equiv_pos_as_xyz
  1  'x, y, z'
loop_
 _atom_site_type_symbol
 _atom_site_label
 _atom_site_symmetry_multiplicity
 _atom_site_fract_x
 _atom_site_fract_y
 _atom_site_fract_z
 _atom_site_occupancy
  Cs  Cs0  1  0.00195743  0.00150522  -0.00323221  1
  Cs  Cs1  1  -0.00348646  -0.00252447  0.33601348  1
  Cs  Cs2  1  -0.00094526  -0.00108814  0.66682805  1
  Cs  Cs3  1  0.00062685  0.33435621  0.00223073  1
  Cs  Cs4  1  0.00134065  0.33457621  0.33372213  1
  Cs  Cs5  1  -0.00006108  0.33508738  0.66634736  1
  Cs  Cs6  1  -0.00225646  0.66423772  -0.00077795  1
  Cs  Cs7  1  -0.00080729  0.66829407  0.33234001  1
  Cs  Cs8  1  0.00168576  0.66686685  0.66675809  1
  Cs  Cs9  1  0.33382486  0.00109174  -0.00086914  1
  Cs  Cs10  1  0.33270719  0.00043063  0.33526766  1
  Cs  Cs11  1  0.33245559  -0.00065582  0.66694748  1
  Cs  Cs12  1  0.32867495  0.32873807  0.00650763  1
  Cs  Cs13  1  0.33365749  0.33494997  0.33341842  1
  Cs  Cs14  1  0.33315063  0.33319678  0.66456674  1
  Cs  Cs15  1  0.33912310  0.66928605  0.00102022  1
  Cs  Cs16  1  0.33301583  0.66483981  0.33503964  1
  Cs  Cs17  1  0.33200316  0.66829138  0.66531617  1
  Cs  Cs18  1  0.66470632  -0.00009680  0.00029917  1
  Cs  Cs19  1  0.67033662  0.00097304  0.33259493  1
  Cs  Cs20  1  0.66844817  0.00144465  0.66639284  1
  Cs  Cs21  1  0.66986357  0.33472400  -0.00228158  1
  Cs  Cs22  1  0.66322912  0.33026930  0.33443048  1
  Cs  Cs23  1  0.66697815  0.33452140  0.66748431  1
  Cs  Cs24  1  0.66314641  0.66185729  0.00408383  1
  Cs  Cs25  1  0.66686416  0.66729536  0.32455881  1
  Cs  Cs26  1  0.66345688  0.66066112  0.67079806  1
  Sn  Sn27  1  0.16599265  0.83233155  0.83356920  1
  Sn  Sn28  1  0.83364603  0.50036782  0.49980622  1
  Sn  Sn29  1  0.83298466  0.16638580  0.16579584  1
  Sn  Sn30  1  0.16707962  0.50081294  0.83290508  1
  Sn  Sn31  1  0.16713070  0.83339106  0.50001070  1
  Sn  Sn32  1  0.49912641  0.16548708  0.50029003  1
  Sn  Sn33  1  0.16547578  0.50028618  0.50083592  1
  Sn  Sn34  1  0.16705681  0.16647556  0.50022874  1
  Sn  Sn35  1  0.49997966  0.83405158  0.50028370  1
  Sn  Sn36  1  0.16654023  0.83345610  0.16652340  1
  Sn  Sn37  1  0.50066667  0.16659935  0.83313768  1
  Sn  Sn38  1  0.83273858  0.16593860  0.83408074  1
  Sn  Sn39  1  0.83335083  0.83347632  0.83312029  1
  Sn  Sn40  1  0.50085992  0.16623586  0.16675935  1
  Pb  Pb41  1  0.50000804  0.83501177  0.83146992  1
  Pb  Pb42  1  0.83349765  0.49732297  0.16939191  1
  Pb  Pb43  1  0.16626282  0.16461981  0.16956812  1
  Pb  Pb44  1  0.16668678  0.50286174  0.16671557  1
  Pb  Pb45  1  0.83303831  0.16804003  0.50042488  1
  Pb  Pb46  1  0.49804078  0.83563504  0.16924494  1
  Pb  Pb47  1  0.49973691  0.50027886  0.49994277  1
  Pb  Pb48  1  0.49638791  0.49676001  0.83343941  1
  Pb  Pb49  1  0.16641426  0.16662106  0.83142896  1
  Pb  Pb50  1  0.83267041  0.83084265  0.50208809  1
  Pb  Pb51  1  0.49986952  0.49713598  0.16650663  1
  Pb  Pb52  1  0.83527811  0.83540000  0.16370712  1
  Pb  Pb53  1  0.83513153  0.49991759  0.83196862  1
  I  I54  1  0.16701156  -0.00307674  0.16575383  1
  I  I55  1  0.17142334  -0.00062642  0.50058790  1
  I  I56  1  0.16578134  -0.00268301  0.83148507  1
  I  I57  1  0.16740173  0.33289512  0.16695259  1
  I  I58  1  0.16673451  0.33334936  0.50455558  1
  I  I59  1  0.16718929  0.33524983  0.82700063  1
  I  I60  1  0.16619700  0.67077274  0.17163018  1
  I  I61  1  0.16713262  0.66752127  0.50106342  1
  I  I62  1  0.16068322  0.66810155  0.82747204  1
  I  I63  1  0.50262518  0.00398889  0.16548791  1
  I  I64  1  0.49144940  0.00131037  0.50050197  1
  I  I65  1  0.49842706  0.00355317  0.83379978  1
  I  I66  1  0.50116200  0.32817400  0.17064422  1
  I  I67  1  0.49670359  0.32984044  0.49935730  1
  I  I68  1  0.50536994  0.32830956  0.82923436  1
  I  I69  1  0.49886870  0.66730071  0.16891193  1
  I  I70  1  0.49533319  0.66964876  0.50166796  1
  I  I71  1  0.50221999  0.66681148  0.83037594  1
  I  I72  1  0.82998921  0.00361719  0.16779003  1
  I  I73  1  0.83609802  -0.00004948  0.49906163  1
  I  I74  1  0.83664481  0.00080202  0.83486658  1
  I  I75  1  0.83086736  0.32898043  0.16028728  1
  I  I76  1  0.83879563  0.33565456  0.50162654  1
  I  I77  1  0.83089395  0.33028380  0.83495453  1
  I  I78  1  0.83477735  0.66692898  0.16655941  1
  I  I79  1  0.83907658  0.66351637  0.50315407  1
  I  I80  1  0.83783458  0.66920597  0.82912209  1
  I  I81  1  0.16929045  0.16666722  -0.00004778  1
  I  I82  1  0.17000801  0.16732328  0.33772666  1
  I  I83  1  0.16973889  0.16344141  0.66325183  1
  I  I84  1  0.16645954  0.50238304  -0.00309145  1
  I  I85  1  0.16414887  0.49961172  0.33695898  1
  I  I86  1  0.16326045  0.50349840  0.66526887  1
  I  I87  1  0.16182821  0.83034384  -0.00138860  1
  I  I88  1  0.17115062  0.83444750  0.33508943  1
  I  I89  1  0.16682490  0.83296464  0.66610033  1
  I  I90  1  0.50389532  0.16728772  -0.00024678  1
  I  I91  1  0.49995032  0.16363343  0.33420224  1
  I  I92  1  0.49965088  0.16338019  0.66590730  1
  I  I93  1  0.49862361  0.50029277  -0.00030428  1
  I  I94  1  0.49789009  0.49755637  0.33375919  1
  I  I95  1  0.50196864  0.49636298  0.66652597  1
  I  I96  1  0.49740604  0.83590271  -0.00005526  1
  I  I97  1  0.49439514  0.83852792  0.33747446  1
  I  I98  1  0.49351404  0.83987773  0.66338706  1
  I  I99  1  0.82655084  0.16327561  -0.00099570  1
  I  I100  1  0.83096697  0.16904055  0.33164331  1
  I  I101  1  0.83122273  0.16459710  0.66927421  1
  I  I102  1  0.83563623  0.50025939  -0.00014213  1
  I  I103  1  0.84069554  0.49902443  0.33738521  1
  I  I104  1  0.83641515  0.49680720  0.66401685  1
  I  I105  1  0.83944929  0.83553768  -0.00434888  1
  I  I106  1  0.83475799  0.83421643  0.33346506  1
  I  I107  1  0.84012525  0.84132841  0.66984172  1
  I  I108  1  -0.00241732  0.16549071  0.16274548  1
  I  I109  1  0.00256691  0.16449547  0.50036062  1
  I  I110  1  -0.00241039  0.16563346  0.83580509  1
  I  I111  1  0.00024712  0.49578558  0.16625007  1
  I  I112  1  0.00235172  0.49841295  0.50375083  1
  I  I113  1  0.00333675  0.49907322  0.82947665  1
  I  I114  1  0.00334804  0.83639601  0.17298852  1
  I  I115  1  0.00327401  0.83626297  0.49921394  1
  I  I116  1  0.00143656  0.83677108  0.83071547  1
  I  I117  1  0.33582726  0.16526068  0.16432387  1
  I  I118  1  0.33346198  0.16764989  0.50049496  1
  I  I119  1  0.33556931  0.16687489  0.83445720  1
  I  I120  1  0.33290002  0.49652019  0.16898854  1
  I  I121  1  0.32980342  0.49956415  0.50348308  1
  I  I122  1  0.32850669  0.50561563  0.82473061  1
  I  I123  1  0.32988393  0.83603608  0.16261002  1
  I  I124  1  0.33138669  0.83320448  0.50205357  1
  I  I125  1  0.33000938  0.83153835  0.83326408  1
  I  I126  1  0.66611397  0.16608588  0.16934193  1
  I  I127  1  0.66376146  0.16422285  0.49966560  1
  I  I128  1  0.66703630  0.16144624  0.83137473  1
  I  I129  1  0.66686239  0.50306358  0.16906879  1
  I  I130  1  0.66894573  0.49745294  0.50087625  1
  I  I131  1  0.66667624  0.50150106  0.83068655  1
  I  I132  1  0.66660661  0.83304345  0.16795971  1
  I  I133  1  0.66398587  0.83907353  0.50213541  1
  I  I134  1  0.66906628  0.83768177  0.82956664  1
