# generated using pymatgen
data_Cs27Sn13Pb14I81
_symmetry_space_group_name_H-M   'P 1'
_cell_length_a   18.97900533
_cell_length_b   18.97410199
_cell_length_c   18.97843733
_cell_angle_alpha   89.99949860
_cell_angle_beta   89.99828741
_cell_angle_gamma   89.99938446
_symmetry_Int_Tables_number   1
_chemical_formula_structural   Cs27Sn13Pb14I81
_chemical_formula_sum   'Cs27 Sn13 Pb14 I81'
_cell_volume   6834.31714529
_cell_formula_units_Z   1
loop_
 _symmetry_equiv_pos_site_id
 _symmetry_equiv_pos_as_xyz
  1  'x, y, z'
loop_
 _atom_site_type_symbol
 _atom_site_label
 _atom_site_symmetry_multiplicity
 _atom_site_fract_x
 _atom_site_fract_y
 _atom_site_fract_z
 _atom_site_occupancy
  Cs  Cs0  1  -0.00035662  -0.00001690  0.00134338  1
  Cs  Cs1  1  -0.00000168  -0.00024738  0.33618324  1
  Cs  Cs2  1  -0.00104208  -0.00228027  0.66145669  1
  Cs  Cs3  1  -0.00132535  0.33454680  -0.00992208  1
  Cs  Cs4  1  -0.00106540  0.33018816  0.33476985  1
  Cs  Cs5  1  0.00032052  0.33467728  0.67304355  1
  Cs  Cs6  1  0.00083948  0.66566958  -0.00033382  1
  Cs  Cs7  1  0.00140516  0.66956791  0.33360430  1
  Cs  Cs8  1  -0.00088330  0.66738086  0.66606122  1
  Cs  Cs9  1  0.33630391  0.00053627  -0.00163878  1
  Cs  Cs10  1  0.33196735  0.00107936  0.33325656  1
  Cs  Cs11  1  0.33596331  0.00134534  0.66913856  1
  Cs  Cs12  1  0.32842389  0.33394487  -0.00023649  1
  Cs  Cs13  1  0.33484017  0.33340300  0.33451743  1
  Cs  Cs14  1  0.33104525  0.33137126  0.66411037  1
  Cs  Cs15  1  0.33060840  0.66534507  0.00329550  1
  Cs  Cs16  1  0.33212911  0.66411987  0.33065412  1
  Cs  Cs17  1  0.33733737  0.66795054  0.66556673  1
  Cs  Cs18  1  0.66383511  -0.00179811  0.00109810  1
  Cs  Cs19  1  0.66806814  0.00107273  0.33224414  1
  Cs  Cs20  1  0.66422164  0.00004089  0.66647141  1
  Cs  Cs21  1  0.67219492  0.33262808  -0.00155024  1
  Cs  Cs22  1  0.66469739  0.33355184  0.33275365  1
  Cs  Cs23  1  0.66949170  0.33555313  0.66919443  1
  Cs  Cs24  1  0.66761159  0.66899576  0.00005573  1
  Cs  Cs25  1  0.66576156  0.66402287  0.33247542  1
  Cs  Cs26  1  0.66530448  0.66612910  0.66803963  1
  Sn  Sn27  1  0.83360300  0.50060788  0.16755962  1
  Sn  Sn28  1  0.49997146  0.83394050  0.49867951  1
  Sn  Sn29  1  0.83428494  0.83335174  0.83392495  1
  Sn  Sn30  1  0.49914061  0.16612991  0.16744338  1
  Sn  Sn31  1  0.49949022  0.16578757  0.49907927  1
  Sn  Sn32  1  0.83286807  0.83250436  0.16626422  1
  Sn  Sn33  1  0.16572639  0.49964051  0.49959169  1
  Sn  Sn34  1  0.83437190  0.50007975  0.49905573  1
  Sn  Sn35  1  0.50044143  0.83370618  0.16789733  1
  Sn  Sn36  1  0.16587051  0.83346155  0.83337491  1
  Sn  Sn37  1  0.16717754  0.16670053  0.16717132  1
  Sn  Sn38  1  0.49956635  0.49969126  0.83381725  1
  Sn  Sn39  1  0.16732366  0.16751015  0.49905981  1
  Pb  Pb40  1  0.16666346  0.16432573  0.83287275  1
  Pb  Pb41  1  0.16875641  0.50230344  0.83076251  1
  Pb  Pb42  1  0.49992319  0.16935387  0.83365300  1
  Pb  Pb43  1  0.50169802  0.49942871  0.16462930  1
  Pb  Pb44  1  0.16668065  0.83531207  0.16518035  1
  Pb  Pb45  1  0.50018491  0.83209398  0.83403113  1
  Pb  Pb46  1  0.49995803  0.49939860  0.50098057  1
  Pb  Pb47  1  0.83085272  0.83134203  0.49939334  1
  Pb  Pb48  1  0.16919567  0.83365597  0.50155300  1
  Pb  Pb49  1  0.16383974  0.49727453  0.16871214  1
  Pb  Pb50  1  0.83204307  0.50216043  0.83344255  1
  Pb  Pb51  1  0.83333088  0.16636357  0.16665912  1
  Pb  Pb52  1  0.83321860  0.16296360  0.83322255  1
  Pb  Pb53  1  0.83310369  0.16927491  0.50007984  1
  I  I54  1  0.16600700  0.00316099  0.17308678  1
  I  I55  1  0.16918467  0.00295981  0.49790635  1
  I  I56  1  0.16402334  -0.00340553  0.83140972  1
  I  I57  1  0.17340208  0.32946398  0.16826205  1
  I  I58  1  0.16978435  0.33256954  0.49651778  1
  I  I59  1  0.16808057  0.33338984  0.83486056  1
  I  I60  1  0.16922235  0.66663749  0.16679870  1
  I  I61  1  0.16464906  0.66442646  0.50316073  1
  I  I62  1  0.16386708  0.66990540  0.83276141  1
  I  I63  1  0.50261868  -0.00055066  0.16940410  1
  I  I64  1  0.49514785  0.00043313  0.49795957  1
  I  I65  1  0.50066569  -0.00001211  0.83246745  1
  I  I66  1  0.49791389  0.33020267  0.17094393  1
  I  I67  1  0.49882834  0.33039963  0.49671094  1
  I  I68  1  0.50112265  0.33672374  0.83167305  1
  I  I69  1  0.50301488  0.66951898  0.16925687  1
  I  I70  1  0.50046816  0.66877254  0.49858744  1
  I  I71  1  0.50073660  0.66472542  0.83081999  1
  I  I72  1  0.83120583  -0.00318210  0.16144607  1
  I  I73  1  0.83548782  -0.00022210  0.50056248  1
  I  I74  1  0.83496926  -0.00523502  0.83973928  1
  I  I75  1  0.83184463  0.33592192  0.17157857  1
  I  I76  1  0.83110881  0.33731428  0.49383392  1
  I  I77  1  0.83136532  0.33385008  0.83424237  1
  I  I78  1  0.82704895  0.66774549  0.16643890  1
  I  I79  1  0.83698111  0.66347261  0.49925409  1
  I  I80  1  0.83515768  0.66987926  0.83489412  1
  I  I81  1  0.17149499  0.16400148  0.00285957  1
  I  I82  1  0.17136670  0.16931258  0.33410482  1
  I  I83  1  0.17163388  0.16968549  0.66307346  1
  I  I84  1  0.16642630  0.49863578  0.00007080  1
  I  I85  1  0.16748622  0.50039407  0.33682384  1
  I  I86  1  0.16115316  0.49344398  0.66284160  1
  I  I87  1  0.16779191  0.83480290  -0.00261104  1
  I  I88  1  0.16469321  0.83202001  0.33341434  1
  I  I89  1  0.16238376  0.83402008  0.66932012  1
  I  I90  1  0.49660650  0.16200228  0.00360088  1
  I  I91  1  0.49601076  0.16301140  0.33341328  1
  I  I92  1  0.49562254  0.16268000  0.66327718  1
  I  I93  1  0.50269664  0.50237155  -0.00260481  1
  I  I94  1  0.49974825  0.50101664  0.33316776  1
  I  I95  1  0.50225432  0.50256537  0.66841445  1
  I  I96  1  0.50171357  0.83654457  0.00307796  1
  I  I97  1  0.50527017  0.83623637  0.33252650  1
  I  I98  1  0.49959149  0.83560156  0.66459469  1
  I  I99  1  0.83352605  0.17281182  0.00037996  1
  I  I100  1  0.83388296  0.16269466  0.33332325  1
  I  I101  1  0.83264584  0.16766261  0.66634371  1
  I  I102  1  0.82970758  0.50161547  0.00254673  1
  I  I103  1  0.83487655  0.50619368  0.33317389  1
  I  I104  1  0.83471889  0.50046488  0.66421289  1
  I  I105  1  0.83074696  0.82785128  0.00127442  1
  I  I106  1  0.83020489  0.83114913  0.33032892  1
  I  I107  1  0.83511515  0.83153974  0.66864902  1
  I  I108  1  0.00277880  0.16577949  0.17184751  1
  I  I109  1  0.00327002  0.16776724  0.49557556  1
  I  I110  1  0.00020024  0.17012057  0.83445111  1
  I  I111  1  -0.00401041  0.50612007  0.16752735  1
  I  I112  1  0.00012772  0.49557370  0.49696527  1
  I  I113  1  0.00002550  0.49956037  0.83421773  1
  I  I114  1  -0.00277670  0.83095554  0.16341682  1
  I  I115  1  -0.00002637  0.83520646  0.49944359  1
  I  I116  1  -0.00093918  0.83226005  0.83826653  1
  I  I117  1  0.33444572  0.16099431  0.17064059  1
  I  I118  1  0.33356063  0.16913381  0.49620012  1
  I  I119  1  0.33337002  0.16342986  0.83342284  1
  I  I120  1  0.33322520  0.50301545  0.16654204  1
  I  I121  1  0.33127781  0.49883116  0.50340552  1
  I  I122  1  0.33610274  0.50360966  0.83192447  1
  I  I123  1  0.33634432  0.83541440  0.16803826  1
  I  I124  1  0.33706806  0.83162370  0.49711127  1
  I  I125  1  0.33178603  0.83187024  0.83197851  1
  I  I126  1  0.66353565  0.16547570  0.17109603  1
  I  I127  1  0.66315499  0.16375697  0.49559900  1
  I  I128  1  0.66628007  0.16610267  0.83293601  1
  I  I129  1  0.66959898  0.50011076  0.17246730  1
  I  I130  1  0.66873534  0.50124915  0.49857030  1
  I  I131  1  0.66455610  0.50262433  0.82993172  1
  I  I132  1  0.66630547  0.83529772  0.16404180  1
  I  I133  1  0.66295973  0.83723986  0.50171862  1
  I  I134  1  0.66878655  0.83054035  0.83474499  1
