# generated using pymatgen
data_Cs27Sn14Pb13I81
_symmetry_space_group_name_H-M   'P 1'
_cell_length_a   18.97405722
_cell_length_b   18.96911339
_cell_length_c   18.98307174
_cell_angle_alpha   89.99804498
_cell_angle_beta   90.00052205
_cell_angle_gamma   90.00167218
_symmetry_Int_Tables_number   1
_chemical_formula_structural   Cs27Sn14Pb13I81
_chemical_formula_sum   'Cs27 Sn14 Pb13 I81'
_cell_volume   6832.40697177
_cell_formula_units_Z   1
loop_
 _symmetry_equiv_pos_site_id
 _symmetry_equiv_pos_as_xyz
  1  'x, y, z'
loop_
 _atom_site_type_symbol
 _atom_site_label
 _atom_site_symmetry_multiplicity
 _atom_site_fract_x
 _atom_site_fract_y
 _atom_site_fract_z
 _atom_site_occupancy
  Cs  Cs0  1  0.00227737  0.00121946  0.00290667  1
  Cs  Cs1  1  -0.00352390  -0.00223527  0.33383799  1
  Cs  Cs2  1  0.00055883  -0.00191041  0.66542440  1
  Cs  Cs3  1  0.00114242  0.33349222  0.00006896  1
  Cs  Cs4  1  -0.00146909  0.33475636  0.32847166  1
  Cs  Cs5  1  -0.00455882  0.33212342  0.67037005  1
  Cs  Cs6  1  0.00157442  0.66485037  -0.00251320  1
  Cs  Cs7  1  0.00532671  0.66720188  0.33809638  1
  Cs  Cs8  1  0.00015521  0.67027103  0.66670005  1
  Cs  Cs9  1  0.33158042  -0.00188395  -0.00052444  1
  Cs  Cs10  1  0.33752734  -0.00039394  0.33658730  1
  Cs  Cs11  1  0.33218436  0.00382990  0.66399369  1
  Cs  Cs12  1  0.32983503  0.33213234  0.00083780  1
  Cs  Cs13  1  0.33356002  0.33644082  0.33267595  1
  Cs  Cs14  1  0.33683659  0.33155912  0.66597694  1
  Cs  Cs15  1  0.33391214  0.67018831  -0.00058444  1
  Cs  Cs16  1  0.32821836  0.66430659  0.33499409  1
  Cs  Cs17  1  0.33392908  0.66271244  0.66603565  1
  Cs  Cs18  1  0.66603700  -0.00739911  0.00350185  1
  Cs  Cs19  1  0.66489738  -0.00006796  0.33144516  1
  Cs  Cs20  1  0.66647235  0.00184372  0.66584194  1
  Cs  Cs21  1  0.66850010  0.33438651  0.00046914  1
  Cs  Cs22  1  0.66712394  0.33216963  0.33391246  1
  Cs  Cs23  1  0.66685111  0.33371178  0.66623762  1
  Cs  Cs24  1  0.66401745  0.67218926  -0.00078431  1
  Cs  Cs25  1  0.66751337  0.66724952  0.32979516  1
  Cs  Cs26  1  0.66659882  0.66483765  0.67236929  1
  Sn  Sn27  1  0.83386985  0.49942250  0.83343144  1
  Sn  Sn28  1  0.16662503  0.83275344  0.83367307  1
  Sn  Sn29  1  0.83224635  0.16691476  0.83316299  1
  Sn  Sn30  1  0.50059576  0.49933073  0.16641644  1
  Sn  Sn31  1  0.16636861  0.50045872  0.83302426  1
  Sn  Sn32  1  0.50114329  0.16668023  0.83384853  1
  Sn  Sn33  1  0.16608657  0.16735674  0.49948732  1
  Sn  Sn34  1  0.50049718  0.83310035  0.50041032  1
  Sn  Sn35  1  0.50021593  0.16629328  0.49993763  1
  Sn  Sn36  1  0.16652451  0.83349706  0.16638329  1
  Sn  Sn37  1  0.83353993  0.16749532  0.50046827  1
  Sn  Sn38  1  0.83316680  0.49944811  0.50023608  1
  Sn  Sn39  1  0.50009232  0.16747275  0.16631406  1
  Sn  Sn40  1  0.83262208  0.50002585  0.16641224  1
  Pb  Pb41  1  0.16855962  0.83517069  0.50049770  1
  Pb  Pb42  1  0.83071301  0.83360349  0.50016831  1
  Pb  Pb43  1  0.16666548  0.50148207  0.16469344  1
  Pb  Pb44  1  0.83141084  0.16808267  0.16637641  1
  Pb  Pb45  1  0.49760717  0.83622630  0.83095225  1
  Pb  Pb46  1  0.50224912  0.49957703  0.49807081  1
  Pb  Pb47  1  0.83596862  0.82999468  0.16672500  1
  Pb  Pb48  1  0.83536545  0.83396232  0.83335964  1
  Pb  Pb49  1  0.16915260  0.16474386  0.16944708  1
  Pb  Pb50  1  0.16617650  0.16678952  0.83187534  1
  Pb  Pb51  1  0.49824510  0.83305252  0.16853202  1
  Pb  Pb52  1  0.50038819  0.49793803  0.83560215  1
  Pb  Pb53  1  0.16401039  0.49729000  0.50273194  1
  I  I54  1  0.16850724  -0.00288405  0.15885774  1
  I  I55  1  0.16331030  0.00326569  0.50280068  1
  I  I56  1  0.16796344  -0.00191545  0.83539071  1
  I  I57  1  0.16616502  0.33335628  0.16595626  1
  I  I58  1  0.17413575  0.32949166  0.50124170  1
  I  I59  1  0.16467979  0.33550381  0.83193351  1
  I  I60  1  0.16878375  0.66928384  0.16606969  1
  I  I61  1  0.16758636  0.66640315  0.49846298  1
  I  I62  1  0.16103642  0.66605318  0.83644466  1
  I  I63  1  0.49812580  0.00294352  0.16634649  1
  I  I64  1  0.50096972  0.00281550  0.49787263  1
  I  I65  1  0.50447647  0.00453762  0.83742151  1
  I  I66  1  0.50283126  0.33256383  0.16966312  1
  I  I67  1  0.49865112  0.32981829  0.50159830  1
  I  I68  1  0.49862363  0.32975541  0.82706076  1
  I  I69  1  0.50343254  0.66391699  0.16837363  1
  I  I70  1  0.50003316  0.66850013  0.49696518  1
  I  I71  1  0.50183521  0.66664055  0.83308949  1
  I  I72  1  0.83262817  0.00005138  0.16709694  1
  I  I73  1  0.83519534  0.00385693  0.50539073  1
  I  I74  1  0.83084324  0.00371429  0.82673813  1
  I  I75  1  0.83278226  0.33643536  0.16686382  1
  I  I76  1  0.83088718  0.33226558  0.50137172  1
  I  I77  1  0.83565999  0.33362498  0.83209073  1
  I  I78  1  0.82520255  0.66153248  0.16594365  1
  I  I79  1  0.83190970  0.66341073  0.50040572  1
  I  I80  1  0.83588872  0.66328111  0.83223815  1
  I  I81  1  0.16731772  0.16735646  0.00000817  1
  I  I82  1  0.16566860  0.16461633  0.33735657  1
  I  I83  1  0.17149486  0.16491126  0.66404760  1
  I  I84  1  0.16106965  0.49964196  -0.00313060  1
  I  I85  1  0.16579023  0.50191298  0.33347367  1
  I  I86  1  0.16273357  0.50655133  0.67050389  1
  I  I87  1  0.16799476  0.82996171  -0.00081326  1
  I  I88  1  0.16880796  0.83442345  0.33165299  1
  I  I89  1  0.16725054  0.83088606  0.66921426  1
  I  I90  1  0.50377275  0.17234163  -0.00016547  1
  I  I91  1  0.49968295  0.16585874  0.33421770  1
  I  I92  1  0.49990257  0.16204935  0.66599718  1
  I  I93  1  0.50469417  0.49474909  0.00333443  1
  I  I94  1  0.50459257  0.49480920  0.33023551  1
  I  I95  1  0.49972721  0.50004924  0.66677823  1
  I  I96  1  0.49988063  0.83473912  -0.00013353  1
  I  I97  1  0.49746253  0.84067330  0.33605946  1
  I  I98  1  0.49818890  0.83931578  0.66336324  1
  I  I99  1  0.83006182  0.17138916  -0.00298346  1
  I  I100  1  0.83281529  0.17062522  0.33632310  1
  I  I101  1  0.82889075  0.17452314  0.66625943  1
  I  I102  1  0.83451699  0.49511222  -0.00086784  1
  I  I103  1  0.82795039  0.49542137  0.33350156  1
  I  I104  1  0.83787992  0.49515071  0.66714937  1
  I  I105  1  0.83046690  0.83454865  0.00000589  1
  I  I106  1  0.83643167  0.83361618  0.33346983  1
  I  I107  1  0.83611238  0.82893603  0.66668765  1
  I  I108  1  -0.00003337  0.16709767  0.16686869  1
  I  I109  1  -0.00146880  0.17046270  0.50633661  1
  I  I110  1  -0.00291003  0.16803738  0.82763085  1
  I  I111  1  -0.00296143  0.50144416  0.16821694  1
  I  I112  1  -0.00409328  0.49529213  0.49419021  1
  I  I113  1  -0.00144024  0.49729131  0.83550861  1
  I  I114  1  0.00371150  0.83341805  0.16360762  1
  I  I115  1  0.00006668  0.83476619  0.49929477  1
  I  I116  1  0.00337608  0.83404033  0.83571320  1
  I  I117  1  0.33749976  0.17298282  0.16595040  1
  I  I118  1  0.33478413  0.16099754  0.50074445  1
  I  I119  1  0.33568909  0.16652351  0.83139166  1
  I  I120  1  0.33584313  0.49686326  0.16598119  1
  I  I121  1  0.33337118  0.49931954  0.49921024  1
  I  I122  1  0.33118141  0.50202451  0.83573213  1
  I  I123  1  0.33071058  0.83188229  0.16294185  1
  I  I124  1  0.33627227  0.84091724  0.49983191  1
  I  I125  1  0.32987207  0.82832997  0.83695392  1
  I  I126  1  0.66317280  0.16785227  0.17153508  1
  I  I127  1  0.66654365  0.16691458  0.50102241  1
  I  I128  1  0.66715655  0.17318019  0.82735135  1
  I  I129  1  0.66708835  0.49537242  0.16567208  1
  I  I130  1  0.67027955  0.49436862  0.50511225  1
  I  I131  1  0.66985285  0.49663243  0.83078862  1
  I  I132  1  0.66642397  0.83440326  0.16833428  1
  I  I133  1  0.66313638  0.84078992  0.49825830  1
  I  I134  1  0.66638839  0.83065841  0.83220434  1
