# generated using pymatgen
data_Cs27Sn13Pb14I81
_symmetry_space_group_name_H-M   'P 1'
_cell_length_a   18.97874490
_cell_length_b   18.97386556
_cell_length_c   18.97784654
_cell_angle_alpha   89.99828686
_cell_angle_beta   89.99906514
_cell_angle_gamma   89.99812009
_symmetry_Int_Tables_number   1
_chemical_formula_structural   Cs27Sn13Pb14I81
_chemical_formula_sum   'Cs27 Sn13 Pb14 I81'
_cell_volume   6833.92545824
_cell_formula_units_Z   1
loop_
 _symmetry_equiv_pos_site_id
 _symmetry_equiv_pos_as_xyz
  1  'x, y, z'
loop_
 _atom_site_type_symbol
 _atom_site_label
 _atom_site_symmetry_multiplicity
 _atom_site_fract_x
 _atom_site_fract_y
 _atom_site_fract_z
 _atom_site_occupancy
  Cs  Cs0  1  0.00120692  0.00222048  0.00132161  1
  Cs  Cs1  1  -0.00185066  -0.00213696  0.33447524  1
  Cs  Cs2  1  0.00326318  -0.00343325  0.66390344  1
  Cs  Cs3  1  0.00101285  0.33256968  0.00012617  1
  Cs  Cs4  1  -0.00022010  0.33541496  0.33271826  1
  Cs  Cs5  1  -0.00228087  0.33100609  0.66884080  1
  Cs  Cs6  1  -0.00103200  0.66648004  -0.00006138  1
  Cs  Cs7  1  0.00068266  0.66617203  0.33420337  1
  Cs  Cs8  1  -0.00030492  0.67767723  0.66808343  1
  Cs  Cs9  1  0.33344128  0.00040253  0.00010941  1
  Cs  Cs10  1  0.33736960  0.00121880  0.33339669  1
  Cs  Cs11  1  0.32899531  -0.00210921  0.66615757  1
  Cs  Cs12  1  0.32851786  0.33146443  0.00167262  1
  Cs  Cs13  1  0.33491154  0.33616899  0.34039691  1
  Cs  Cs14  1  0.33423836  0.33479971  0.65971662  1
  Cs  Cs15  1  0.33375530  0.66781720  0.00091577  1
  Cs  Cs16  1  0.33336765  0.66327765  0.33208763  1
  Cs  Cs17  1  0.33635421  0.66849780  0.66635404  1
  Cs  Cs18  1  0.66600368  0.00132035  0.00238386  1
  Cs  Cs19  1  0.66548426  -0.00167638  0.33152556  1
  Cs  Cs20  1  0.66745257  -0.00104788  0.66747776  1
  Cs  Cs21  1  0.66751113  0.33245863  0.00029456  1
  Cs  Cs22  1  0.66626494  0.33248590  0.33353942  1
  Cs  Cs23  1  0.66783175  0.33692553  0.66623840  1
  Cs  Cs24  1  0.66717131  0.66673086  -0.00418534  1
  Cs  Cs25  1  0.66685872  0.66917373  0.33176701  1
  Cs  Cs26  1  0.66421544  0.66402853  0.67575107  1
  Sn  Sn27  1  0.49919904  0.83239286  0.16724941  1
  Sn  Sn28  1  0.49953385  0.16712684  0.83318037  1
  Sn  Sn29  1  0.83338412  0.16727740  0.49961992  1
  Sn  Sn30  1  0.83361839  0.49982796  0.49958219  1
  Sn  Sn31  1  0.16737091  0.83428590  0.16667897  1
  Sn  Sn32  1  0.83420563  0.16755155  0.16702786  1
  Sn  Sn33  1  0.83240765  0.49915940  0.16737053  1
  Sn  Sn34  1  0.50072027  0.50026971  0.16637159  1
  Sn  Sn35  1  0.83336701  0.16687099  0.83332491  1
  Sn  Sn36  1  0.16695643  0.16798603  0.83383418  1
  Sn  Sn37  1  0.16662710  0.49932318  0.83294955  1
  Sn  Sn38  1  0.50033220  0.83318922  0.49949730  1
  Sn  Sn39  1  0.16614939  0.16605625  0.16679204  1
  Pb  Pb40  1  0.16361354  0.50009774  0.50336904  1
  Pb  Pb41  1  0.83523921  0.49819105  0.83357612  1
  Pb  Pb42  1  0.16926866  0.83329183  0.49670841  1
  Pb  Pb43  1  0.83099314  0.83274457  0.49989105  1
  Pb  Pb44  1  0.16441498  0.16681764  0.49963106  1
  Pb  Pb45  1  0.83321304  0.83308880  0.16658928  1
  Pb  Pb46  1  0.50263145  0.16496923  0.50279866  1
  Pb  Pb47  1  0.16678207  0.83381360  0.83579050  1
  Pb  Pb48  1  0.49758835  0.49738119  0.83586639  1
  Pb  Pb49  1  0.50251540  0.50203405  0.49789055  1
  Pb  Pb50  1  0.83342140  0.83658832  0.83353436  1
  Pb  Pb51  1  0.49988344  0.83552702  0.83410505  1
  Pb  Pb52  1  0.49973960  0.16695509  0.16564752  1
  Pb  Pb53  1  0.16633365  0.49953875  0.16569170  1
  I  I54  1  0.16640729  0.00137063  0.16052456  1
  I  I55  1  0.16360113  0.00012873  0.50452682  1
  I  I56  1  0.16580472  0.00383003  0.83574313  1
  I  I57  1  0.16478754  0.33036594  0.16243541  1
  I  I58  1  0.17040298  0.33332078  0.49491007  1
  I  I59  1  0.16544688  0.33092026  0.84124812  1
  I  I60  1  0.16788333  0.66863018  0.16453404  1
  I  I61  1  0.16299575  0.66670566  0.50037044  1
  I  I62  1  0.16576838  0.66418979  0.83557451  1
  I  I63  1  0.49940324  -0.00214590  0.16810968  1
  I  I64  1  0.50244979  -0.00265904  0.49208262  1
  I  I65  1  0.49901534  0.00369431  0.83637224  1
  I  I66  1  0.50180631  0.33556012  0.16331090  1
  I  I67  1  0.49912770  0.33342275  0.49921601  1
  I  I68  1  0.50349351  0.32946284  0.83589792  1
  I  I69  1  0.49942246  0.66704736  0.17020610  1
  I  I70  1  0.50183390  0.66986510  0.49782446  1
  I  I71  1  0.49843681  0.66639102  0.83184322  1
  I  I72  1  0.83379529  0.00343128  0.16585522  1
  I  I73  1  0.83236257  0.00318001  0.50019373  1
  I  I74  1  0.83593202  0.00568498  0.83439491  1
  I  I75  1  0.83321371  0.33227503  0.16648174  1
  I  I76  1  0.83263311  0.33227967  0.49904081  1
  I  I77  1  0.83204446  0.32956402  0.83420274  1
  I  I78  1  0.83337665  0.66345260  0.17198849  1
  I  I79  1  0.83331553  0.66341387  0.49266509  1
  I  I80  1  0.83525715  0.66616842  0.83299804  1
  I  I81  1  0.16187614  0.16625545  0.00016290  1
  I  I82  1  0.16223697  0.16250536  0.32976116  1
  I  I83  1  0.16581156  0.17027313  0.67001976  1
  I  I84  1  0.16452535  0.49707807  -0.00206716  1
  I  I85  1  0.16821889  0.49990477  0.33320172  1
  I  I86  1  0.16627733  0.49097122  0.67110820  1
  I  I87  1  0.17315580  0.83571261  0.00371241  1
  I  I88  1  0.16704563  0.83911808  0.32864410  1
  I  I89  1  0.16743565  0.83395512  0.66669909  1
  I  I90  1  0.50433069  0.16484677  -0.00229581  1
  I  I91  1  0.50011738  0.16749702  0.33334556  1
  I  I92  1  0.49900147  0.16452855  0.67077282  1
  I  I93  1  0.50716336  0.50651248  0.00381976  1
  I  I94  1  0.49982239  0.49960968  0.32957524  1
  I  I95  1  0.50092515  0.50172234  0.66681264  1
  I  I96  1  0.49631884  0.83106366  0.00355057  1
  I  I97  1  0.49678976  0.83144920  0.33150185  1
  I  I98  1  0.50260883  0.83628426  0.66439396  1
  I  I99  1  0.83421179  0.16990526  0.00057181  1
  I  I100  1  0.83766617  0.17027238  0.33211793  1
  I  I101  1  0.83228637  0.17038620  0.66701024  1
  I  I102  1  0.83117843  0.49621952  0.00308722  1
  I  I103  1  0.83025569  0.49116992  0.33200230  1
  I  I104  1  0.83484291  0.49474359  0.66439074  1
  I  I105  1  0.83060757  0.83234051  0.00046911  1
  I  I106  1  0.83478319  0.83894714  0.33306189  1
  I  I107  1  0.83102674  0.83284727  0.66651532  1
  I  I108  1  -0.00066275  0.16642795  0.16169187  1
  I  I109  1  -0.00405203  0.16923084  0.50363599  1
  I  I110  1  0.00002363  0.17093676  0.83546868  1
  I  I111  1  -0.00283989  0.49858741  0.16851820  1
  I  I112  1  -0.00434658  0.49495633  0.49099460  1
  I  I113  1  0.00278226  0.49299639  0.83683888  1
  I  I114  1  0.00255452  0.83518736  0.16423393  1
  I  I115  1  -0.00020717  0.83374515  0.50017573  1
  I  I116  1  0.00030586  0.83394755  0.83457441  1
  I  I117  1  0.33077590  0.16505464  0.15984782  1
  I  I118  1  0.33353708  0.16500746  0.50023066  1
  I  I119  1  0.33206281  0.16884363  0.84080079  1
  I  I120  1  0.33536415  0.50144160  0.16323444  1
  I  I121  1  0.33358790  0.50094301  0.49893783  1
  I  I122  1  0.33004793  0.49347119  0.83697098  1
  I  I123  1  0.33373547  0.83394328  0.16940701  1
  I  I124  1  0.33703992  0.83447341  0.49872737  1
  I  I125  1  0.33334592  0.83665538  0.83196984  1
  I  I126  1  0.66950361  0.16699773  0.16497689  1
  I  I127  1  0.67084868  0.16949473  0.49835134  1
  I  I128  1  0.66779264  0.16466063  0.83460349  1
  I  I129  1  0.66759620  0.49927353  0.16946803  1
  I  I130  1  0.67036498  0.49456978  0.49897522  1
  I  I131  1  0.66678917  0.49871804  0.83207291  1
  I  I132  1  0.66377935  0.83381804  0.17042603  1
  I  I133  1  0.66358735  0.83565134  0.49106722  1
  I  I134  1  0.66641363  0.83503321  0.83552446  1
