# generated using pymatgen
data_Cs27Sn13Pb14I81
_symmetry_space_group_name_H-M   'P 1'
_cell_length_a   18.97765804
_cell_length_b   18.96640954
_cell_length_c   18.99038727
_cell_angle_alpha   89.99953726
_cell_angle_beta   89.99895764
_cell_angle_gamma   89.99744369
_symmetry_Int_Tables_number   1
_chemical_formula_structural   Cs27Sn13Pb14I81
_chemical_formula_sum   'Cs27 Sn13 Pb14 I81'
_cell_volume   6835.36265856
_cell_formula_units_Z   1
loop_
 _symmetry_equiv_pos_site_id
 _symmetry_equiv_pos_as_xyz
  1  'x, y, z'
loop_
 _atom_site_type_symbol
 _atom_site_label
 _atom_site_symmetry_multiplicity
 _atom_site_fract_x
 _atom_site_fract_y
 _atom_site_fract_z
 _atom_site_occupancy
  Cs  Cs0  1  0.00104460  -0.00183072  0.00251332  1
  Cs  Cs1  1  -0.00104552  -0.00155873  0.32551264  1
  Cs  Cs2  1  -0.00083278  0.00105420  0.67385349  1
  Cs  Cs3  1  0.00294295  0.33256607  -0.00065445  1
  Cs  Cs4  1  -0.00032213  0.33294739  0.33535541  1
  Cs  Cs5  1  -0.00007217  0.33423884  0.66563459  1
  Cs  Cs6  1  -0.00241318  0.66702815  0.00203814  1
  Cs  Cs7  1  0.00012943  0.66729011  0.33436271  1
  Cs  Cs8  1  0.00039689  0.66407257  0.66397851  1
  Cs  Cs9  1  0.32906749  0.00058549  0.00031146  1
  Cs  Cs10  1  0.33206187  -0.00135859  0.33330843  1
  Cs  Cs11  1  0.33318992  -0.00741656  0.66658258  1
  Cs  Cs12  1  0.33395111  0.33296826  -0.00003846  1
  Cs  Cs13  1  0.33558273  0.33405702  0.33406177  1
  Cs  Cs14  1  0.33244010  0.33341464  0.66638090  1
  Cs  Cs15  1  0.33410577  0.66605345  -0.00100637  1
  Cs  Cs16  1  0.33556109  0.66812583  0.33623164  1
  Cs  Cs17  1  0.33396630  0.67384817  0.66410189  1
  Cs  Cs18  1  0.67001787  -0.00466756  0.00089532  1
  Cs  Cs19  1  0.66915659  0.00379070  0.33022623  1
  Cs  Cs20  1  0.66788204  0.00015263  0.66923177  1
  Cs  Cs21  1  0.66313449  0.33460297  -0.00093621  1
  Cs  Cs22  1  0.66465020  0.33295975  0.33386418  1
  Cs  Cs23  1  0.66708374  0.33248148  0.66607800  1
  Cs  Cs24  1  0.66766817  0.66799687  -0.00012400  1
  Cs  Cs25  1  0.66503453  0.66494193  0.33433535  1
  Cs  Cs26  1  0.66609334  0.66870862  0.66570825  1
  Sn  Sn27  1  0.83400144  0.49957569  0.16690590  1
  Sn  Sn28  1  0.49984396  0.49963131  0.83281683  1
  Sn  Sn29  1  0.49978967  0.83423563  0.16681922  1
  Sn  Sn30  1  0.49988180  0.16557362  0.16635318  1
  Sn  Sn31  1  0.49990528  0.16715031  0.83312354  1
  Sn  Sn32  1  0.16728709  0.16710509  0.50001209  1
  Sn  Sn33  1  0.83351970  0.83306753  0.50005012  1
  Sn  Sn34  1  0.49901148  0.16688474  0.50040857  1
  Sn  Sn35  1  0.83378070  0.50071874  0.49985890  1
  Sn  Sn36  1  0.16633901  0.49935237  0.49989052  1
  Sn  Sn37  1  0.16608521  0.49974192  0.16708578  1
  Sn  Sn38  1  0.83330675  0.49967635  0.83318957  1
  Sn  Sn39  1  0.16687425  0.49977177  0.83297429  1
  Pb  Pb40  1  0.49993442  0.49865698  0.50245522  1
  Pb  Pb41  1  0.16414660  0.83384541  0.49991885  1
  Pb  Pb42  1  0.83159393  0.83083863  0.16855529  1
  Pb  Pb43  1  0.16882339  0.83063129  0.16676835  1
  Pb  Pb44  1  0.16867720  0.16894073  0.16871842  1
  Pb  Pb45  1  0.16879609  0.16849041  0.83119228  1
  Pb  Pb46  1  0.16641639  0.83080131  0.83343837  1
  Pb  Pb47  1  0.49997960  0.83377677  0.83546197  1
  Pb  Pb48  1  0.49982168  0.49967550  0.16486850  1
  Pb  Pb49  1  0.83145284  0.16877060  0.83363293  1
  Pb  Pb50  1  0.83344443  0.83098641  0.83128201  1
  Pb  Pb51  1  0.50237271  0.83671897  0.49802640  1
  Pb  Pb52  1  0.83405856  0.16674424  0.49999205  1
  Pb  Pb53  1  0.83148547  0.16921834  0.16637266  1
  I  I54  1  0.16653525  0.00029092  0.16911760  1
  I  I55  1  0.17173945  0.00324846  0.49988123  1
  I  I56  1  0.16947537  0.00055175  0.83066644  1
  I  I57  1  0.16571019  0.33758711  0.16471578  1
  I  I58  1  0.16511762  0.33532043  0.50007854  1
  I  I59  1  0.16477308  0.33769874  0.83488738  1
  I  I60  1  0.16558680  0.66172915  0.16900243  1
  I  I61  1  0.16443306  0.66300896  0.50061623  1
  I  I62  1  0.17035900  0.66087363  0.82980971  1
  I  I63  1  0.50077391  0.00127810  0.16638130  1
  I  I64  1  0.49523810  0.00476408  0.50535734  1
  I  I65  1  0.50004936  0.00352167  0.83036218  1
  I  I66  1  0.50035182  0.33100541  0.16797225  1
  I  I67  1  0.50134476  0.33060924  0.49494739  1
  I  I68  1  0.50083081  0.33411889  0.83607080  1
  I  I69  1  0.50052087  0.66801706  0.16469282  1
  I  I70  1  0.49791541  0.66671445  0.49925553  1
  I  I71  1  0.50008208  0.66335441  0.83588537  1
  I  I72  1  0.83265805  -0.00021239  0.17006174  1
  I  I73  1  0.83037737  -0.00239042  0.49896773  1
  I  I74  1  0.83008652  -0.00007701  0.82999784  1
  I  I75  1  0.83400915  0.33807952  0.17034819  1
  I  I76  1  0.83407244  0.33693415  0.50058418  1
  I  I77  1  0.83481371  0.33817860  0.82919613  1
  I  I78  1  0.83364511  0.66218700  0.16432594  1
  I  I79  1  0.83800291  0.66368762  0.50031212  1
  I  I80  1  0.83002642  0.66150247  0.83575286  1
  I  I81  1  0.16970716  0.17013852  0.00000417  1
  I  I82  1  0.17258474  0.17421812  0.33669307  1
  I  I83  1  0.17181567  0.17437982  0.66311123  1
  I  I84  1  0.16488540  0.50113941  -0.00026887  1
  I  I85  1  0.16013190  0.49646785  0.33403409  1
  I  I86  1  0.16342055  0.49556088  0.66617471  1
  I  I87  1  0.16751997  0.83129689  0.00024229  1
  I  I88  1  0.16773278  0.82970584  0.33345700  1
  I  I89  1  0.16832886  0.83067240  0.66632288  1
  I  I90  1  0.50191173  0.16952900  -0.00022003  1
  I  I91  1  0.49705148  0.16357475  0.33354775  1
  I  I92  1  0.49753303  0.17431184  0.66662583  1
  I  I93  1  0.49996114  0.49535084  -0.00302902  1
  I  I94  1  0.50058132  0.49875076  0.33339908  1
  I  I95  1  0.50088873  0.49445359  0.67040253  1
  I  I96  1  0.50143212  0.83639621  0.00312951  1
  I  I97  1  0.50060731  0.83555127  0.33041728  1
  I  I98  1  0.50082588  0.83293699  0.66650024  1
  I  I99  1  0.83056129  0.16954924  0.00002964  1
  I  I100  1  0.82887366  0.17047853  0.33349429  1
  I  I101  1  0.82955339  0.16904054  0.66647947  1
  I  I102  1  0.83475534  0.49808613  -0.00019911  1
  I  I103  1  0.83911558  0.50325876  0.33394857  1
  I  I104  1  0.83548876  0.50310900  0.66628322  1
  I  I105  1  0.83054033  0.83072307  0.00026007  1
  I  I106  1  0.83218086  0.82607238  0.33628351  1
  I  I107  1  0.83176549  0.82704981  0.66325834  1
  I  I108  1  0.00038012  0.16641462  0.16961600  1
  I  I109  1  0.00301334  0.17092769  0.50016828  1
  I  I110  1  0.00041329  0.16873280  0.82968881  1
  I  I111  1  -0.00006217  0.50042852  0.16312377  1
  I  I112  1  0.00013942  0.49805262  0.50358529  1
  I  I113  1  0.00006401  0.50162604  0.83259072  1
  I  I114  1  -0.00016335  0.83348075  0.16795927  1
  I  I115  1  -0.00340263  0.82996390  0.49898401  1
  I  I116  1  -0.00022314  0.83248727  0.83318744  1
  I  I117  1  0.33718886  0.16714542  0.16488136  1
  I  I118  1  0.33380308  0.17470915  0.49915234  1
  I  I119  1  0.33723472  0.17481297  0.83580981  1
  I  I120  1  0.33087013  0.49946279  0.16694889  1
  I  I121  1  0.33050162  0.49695038  0.49873994  1
  I  I122  1  0.33330899  0.49508507  0.83514431  1
  I  I123  1  0.33685135  0.83479258  0.16754081  1
  I  I124  1  0.33340557  0.83018586  0.49911868  1
  I  I125  1  0.33361279  0.82871142  0.83216747  1
  I  I126  1  0.66251799  0.16678192  0.17047908  1
  I  I127  1  0.66380034  0.16792613  0.49979156  1
  I  I128  1  0.66246330  0.17384957  0.82976561  1
  I  I129  1  0.66897485  0.49969190  0.16708399  1
  I  I130  1  0.66938956  0.50159178  0.49941950  1
  I  I131  1  0.66668601  0.49576123  0.83403347  1
  I  I132  1  0.66363919  0.83510835  0.16724252  1
  I  I133  1  0.66966103  0.82470682  0.49943313  1
  I  I134  1  0.66654357  0.82959442  0.83273625  1
