# generated using pymatgen
data_Cs27Sn14Pb13I81
_symmetry_space_group_name_H-M   'P 1'
_cell_length_a   18.97731042
_cell_length_b   18.97831622
_cell_length_c   18.97157823
_cell_angle_alpha   89.99963221
_cell_angle_beta   90.00016948
_cell_angle_gamma   90.00061349
_symmetry_Int_Tables_number   1
_chemical_formula_structural   Cs27Sn14Pb13I81
_chemical_formula_sum   'Cs27 Sn14 Pb13 I81'
_cell_volume   6832.75425099
_cell_formula_units_Z   1
loop_
 _symmetry_equiv_pos_site_id
 _symmetry_equiv_pos_as_xyz
  1  'x, y, z'
loop_
 _atom_site_type_symbol
 _atom_site_label
 _atom_site_symmetry_multiplicity
 _atom_site_fract_x
 _atom_site_fract_y
 _atom_site_fract_z
 _atom_site_occupancy
  Cs  Cs0  1  0.00182602  0.00288478  -0.00021839  1
  Cs  Cs1  1  -0.00142985  -0.00247036  0.33192536  1
  Cs  Cs2  1  0.00038044  -0.00155670  0.66752126  1
  Cs  Cs3  1  -0.00212453  0.32957436  -0.00111123  1
  Cs  Cs4  1  -0.00064098  0.34460644  0.33600255  1
  Cs  Cs5  1  -0.00009597  0.33450508  0.66738681  1
  Cs  Cs6  1  0.00405224  0.66584839  -0.00463287  1
  Cs  Cs7  1  -0.00743112  0.66040586  0.33588353  1
  Cs  Cs8  1  -0.00171655  0.66733783  0.66701351  1
  Cs  Cs9  1  0.33232200  -0.00085294  -0.00031168  1
  Cs  Cs10  1  0.33202860  0.00403133  0.33597633  1
  Cs  Cs11  1  0.33411346  -0.00008439  0.66504573  1
  Cs  Cs12  1  0.33344245  0.33311940  -0.00023724  1
  Cs  Cs13  1  0.33208346  0.33212744  0.33529346  1
  Cs  Cs14  1  0.33550830  0.33219250  0.66498638  1
  Cs  Cs15  1  0.33507841  0.66764152  0.00088231  1
  Cs  Cs16  1  0.33340057  0.66446055  0.32983898  1
  Cs  Cs17  1  0.33474046  0.66854980  0.66889214  1
  Cs  Cs18  1  0.66718595  0.00104638  0.00370623  1
  Cs  Cs19  1  0.67196822  -0.00160031  0.33364531  1
  Cs  Cs20  1  0.66605142  0.00103863  0.66545331  1
  Cs  Cs21  1  0.66894093  0.33047374  0.00009737  1
  Cs  Cs22  1  0.66729980  0.33391406  0.33067488  1
  Cs  Cs23  1  0.66375786  0.33240166  0.66805233  1
  Cs  Cs24  1  0.66064101  0.66877406  0.00458971  1
  Cs  Cs25  1  0.67323866  0.66731995  0.32817765  1
  Cs  Cs26  1  0.66606553  0.66640911  0.66669958  1
  Sn  Sn27  1  0.16736959  0.16615196  0.16623217  1
  Sn  Sn28  1  0.49946118  0.83205546  0.49980528  1
  Sn  Sn29  1  0.16735212  0.83302884  0.49961279  1
  Sn  Sn30  1  0.83389374  0.16681512  0.50025054  1
  Sn  Sn31  1  0.49902369  0.16646705  0.16581337  1
  Sn  Sn32  1  0.16778582  0.16660896  0.83355743  1
  Sn  Sn33  1  0.49983918  0.50144498  0.50044418  1
  Sn  Sn34  1  0.16613115  0.83347419  0.83327866  1
  Sn  Sn35  1  0.83352531  0.83288080  0.83343616  1
  Sn  Sn36  1  0.16703569  0.49978347  0.83312571  1
  Sn  Sn37  1  0.16666856  0.83369223  0.16693466  1
  Sn  Sn38  1  0.83266726  0.50113168  0.83315932  1
  Sn  Sn39  1  0.49916579  0.16706062  0.83411676  1
  Sn  Sn40  1  0.50007319  0.49928197  0.83277017  1
  Pb  Pb41  1  0.49984878  0.83371154  0.83232714  1
  Pb  Pb42  1  0.83330009  0.50010945  0.16306314  1
  Pb  Pb43  1  0.83045952  0.49804142  0.50257943  1
  Pb  Pb44  1  0.83334874  0.16648445  0.83219301  1
  Pb  Pb45  1  0.16456683  0.16496029  0.49985173  1
  Pb  Pb46  1  0.83655788  0.83336302  0.16327057  1
  Pb  Pb47  1  0.16671074  0.49969890  0.16426315  1
  Pb  Pb48  1  0.83451294  0.16675219  0.16945477  1
  Pb  Pb49  1  0.50126067  0.16666560  0.49985394  1
  Pb  Pb50  1  0.16890153  0.50287605  0.50257375  1
  Pb  Pb51  1  0.49980142  0.49758143  0.16638567  1
  Pb  Pb52  1  0.83347433  0.83435170  0.50203438  1
  Pb  Pb53  1  0.49756994  0.83590077  0.16993275  1
  I  I54  1  0.17055965  0.00022171  0.16068140  1
  I  I55  1  0.17287381  -0.00312856  0.50619230  1
  I  I56  1  0.16609202  -0.00026969  0.83360333  1
  I  I57  1  0.17039962  0.32976325  0.16157153  1
  I  I58  1  0.16673013  0.33353468  0.49998849  1
  I  I59  1  0.16662247  0.33281647  0.83800528  1
  I  I60  1  0.16633979  0.66972205  0.16452308  1
  I  I61  1  0.16708716  0.67109066  0.50051284  1
  I  I62  1  0.16551072  0.66724295  0.83284607  1
  I  I63  1  0.49817914  0.00366889  0.15995357  1
  I  I64  1  0.49719141  -0.00211550  0.50146299  1
  I  I65  1  0.49708467  0.00276122  0.83428892  1
  I  I66  1  0.49299208  0.32956359  0.16747669  1
  I  I67  1  0.50286108  0.33536215  0.50289087  1
  I  I68  1  0.49750172  0.33338853  0.83045485  1
  I  I69  1  0.49877886  0.66688974  0.16406656  1
  I  I70  1  0.49558613  0.66661646  0.50889580  1
  I  I71  1  0.49809616  0.66417130  0.82981649  1
  I  I72  1  0.83033750  0.00010000  0.16431132  1
  I  I73  1  0.82998165  0.00190836  0.50418454  1
  I  I74  1  0.83757946  -0.00221435  0.83072990  1
  I  I75  1  0.83518003  0.33305630  0.16537778  1
  I  I76  1  0.83244348  0.33061695  0.50271495  1
  I  I77  1  0.83553558  0.33568438  0.83090547  1
  I  I78  1  0.83404898  0.66697109  0.17107988  1
  I  I79  1  0.83489027  0.66644530  0.49990087  1
  I  I80  1  0.83836329  0.66648289  0.83124301  1
  I  I81  1  0.16975092  0.16211146  -0.00163941  1
  I  I82  1  0.17109299  0.16021437  0.33040481  1
  I  I83  1  0.16997959  0.16580733  0.67009095  1
  I  I84  1  0.16953905  0.50485570  -0.00469615  1
  I  I85  1  0.16828444  0.49901571  0.33362387  1
  I  I86  1  0.16460773  0.49838065  0.67121511  1
  I  I87  1  0.16131173  0.83437545  -0.00138576  1
  I  I88  1  0.17364872  0.84132362  0.33334506  1
  I  I89  1  0.16655616  0.83369508  0.66801457  1
  I  I90  1  0.49710421  0.17207649  -0.00167467  1
  I  I91  1  0.49627619  0.16595558  0.33097318  1
  I  I92  1  0.49685832  0.16793281  0.66942406  1
  I  I93  1  0.49990197  0.49821749  -0.00388680  1
  I  I94  1  0.49944784  0.50193147  0.33622655  1
  I  I95  1  0.49944145  0.49705564  0.66850255  1
  I  I96  1  0.50048961  0.83100731  0.00016176  1
  I  I97  1  0.49486734  0.82946338  0.33786395  1
  I  I98  1  0.49438487  0.83535722  0.66450588  1
  I  I99  1  0.83264958  0.16719744  -0.00010283  1
  I  I100  1  0.83071515  0.16415715  0.33678294  1
  I  I101  1  0.83211035  0.16593412  0.66495123  1
  I  I102  1  0.83138912  0.50153350  -0.00555576  1
  I  I103  1  0.83235827  0.49788044  0.33377552  1
  I  I104  1  0.83645064  0.50320044  0.67069755  1
  I  I105  1  0.83733059  0.83097147  -0.00491950  1
  I  I106  1  0.83360947  0.83610562  0.33334843  1
  I  I107  1  0.84003082  0.83083324  0.66994805  1
  I  I108  1  0.00393995  0.16126056  0.16012702  1
  I  I109  1  -0.00256126  0.16337557  0.50310210  1
  I  I110  1  0.00309504  0.16820533  0.83598447  1
  I  I111  1  0.00028929  0.49715589  0.16654396  1
  I  I112  1  -0.00004441  0.49963360  0.50064565  1
  I  I113  1  0.00075607  0.50061778  0.83493734  1
  I  I114  1  0.00478730  0.84167528  0.17078037  1
  I  I115  1  0.00303094  0.83744234  0.50002551  1
  I  I116  1  0.00208756  0.83092395  0.83108089  1
  I  I117  1  0.33251562  0.16281149  0.16230527  1
  I  I118  1  0.33318681  0.16757893  0.50039269  1
  I  I119  1  0.33280209  0.16896158  0.83562310  1
  I  I120  1  0.33324587  0.50216142  0.16394735  1
  I  I121  1  0.33664215  0.49883200  0.50708413  1
  I  I122  1  0.33340650  0.49931046  0.82979342  1
  I  I123  1  0.32959010  0.83455713  0.15911926  1
  I  I124  1  0.33257187  0.83193306  0.50459829  1
  I  I125  1  0.33007700  0.83174594  0.83448182  1
  I  I126  1  0.66401356  0.16845905  0.16233362  1
  I  I127  1  0.66850366  0.16454529  0.50274677  1
  I  I128  1  0.66394020  0.16969175  0.83480739  1
  I  I129  1  0.66630151  0.49732702  0.16490408  1
  I  I130  1  0.66275144  0.50508804  0.50749803  1
  I  I131  1  0.66578029  0.49880629  0.82819281  1
  I  I132  1  0.66653502  0.83496567  0.16688160  1
  I  I133  1  0.66409511  0.83246352  0.50404170  1
  I  I134  1  0.66863423  0.83105771  0.82879350  1
