# generated using pymatgen
data_Cs27Sn13Pb14I81
_symmetry_space_group_name_H-M   'P 1'
_cell_length_a   18.99051675
_cell_length_b   18.99530992
_cell_length_c   18.99002594
_cell_angle_alpha   89.99956184
_cell_angle_beta   90.00186152
_cell_angle_gamma   89.99899264
_symmetry_Int_Tables_number   1
_chemical_formula_structural   Cs27Sn13Pb14I81
_chemical_formula_sum   'Cs27 Sn13 Pb14 I81'
_cell_volume   6850.28631980
_cell_formula_units_Z   1
loop_
 _symmetry_equiv_pos_site_id
 _symmetry_equiv_pos_as_xyz
  1  'x, y, z'
loop_
 _atom_site_type_symbol
 _atom_site_label
 _atom_site_symmetry_multiplicity
 _atom_site_fract_x
 _atom_site_fract_y
 _atom_site_fract_z
 _atom_site_occupancy
  Cs  Cs0  1  0.00141457  0.00935655  -0.00343349  1
  Cs  Cs1  1  -0.00416494  0.00294134  0.33206851  1
  Cs  Cs2  1  -0.00454171  -0.00872207  0.67214878  1
  Cs  Cs3  1  -0.00065654  0.32787201  -0.00106746  1
  Cs  Cs4  1  0.00224688  0.33376510  0.33349394  1
  Cs  Cs5  1  0.00012085  0.33558757  0.66670746  1
  Cs  Cs6  1  -0.00172040  0.66608087  0.00164908  1
  Cs  Cs7  1  0.00154862  0.66510760  0.33194309  1
  Cs  Cs8  1  -0.00105099  0.66985984  0.66762636  1
  Cs  Cs9  1  0.33516307  0.00167805  -0.00107324  1
  Cs  Cs10  1  0.33356099  -0.00199043  0.33367916  1
  Cs  Cs11  1  0.33183668  -0.00395131  0.66685618  1
  Cs  Cs12  1  0.33458657  0.33189873  -0.00042822  1
  Cs  Cs13  1  0.33221431  0.33667452  0.33632464  1
  Cs  Cs14  1  0.33325351  0.33453129  0.66528600  1
  Cs  Cs15  1  0.33468704  0.66660066  0.00171965  1
  Cs  Cs16  1  0.33313166  0.66482199  0.33278611  1
  Cs  Cs17  1  0.33205034  0.66783844  0.66484155  1
  Cs  Cs18  1  0.66173409  -0.00073372  0.00133773  1
  Cs  Cs19  1  0.66912069  0.00240781  0.33909179  1
  Cs  Cs20  1  0.67195429  0.00065819  0.65583961  1
  Cs  Cs21  1  0.66511965  0.33262276  -0.00244479  1
  Cs  Cs22  1  0.66555725  0.33336834  0.33739346  1
  Cs  Cs23  1  0.66861994  0.33046902  0.66645653  1
  Cs  Cs24  1  0.66656114  0.66701183  0.00152224  1
  Cs  Cs25  1  0.66546882  0.66510888  0.33069231  1
  Cs  Cs26  1  0.67045658  0.66910907  0.66773358  1
  Sn  Sn27  1  0.49985545  0.16627960  0.83340664  1
  Sn  Sn28  1  0.83412381  0.50015700  0.49892824  1
  Sn  Sn29  1  0.16637688  0.83317636  0.16635665  1
  Sn  Sn30  1  0.16650024  0.16650090  0.50032195  1
  Sn  Sn31  1  0.16593863  0.50042118  0.16608763  1
  Sn  Sn32  1  0.50015816  0.83337079  0.83379391  1
  Sn  Sn33  1  0.83414565  0.50026449  0.16732773  1
  Sn  Sn34  1  0.16742937  0.50014056  0.83382486  1
  Sn  Sn35  1  0.49929122  0.50027963  0.83339146  1
  Sn  Sn36  1  0.49999851  0.83428880  0.16628521  1
  Sn  Sn37  1  0.16577552  0.49942749  0.50002266  1
  Sn  Sn38  1  0.83355580  0.83299497  0.16614214  1
  Sn  Sn39  1  0.49973296  0.16606129  0.16675182  1
  Pb  Pb40  1  0.16854720  0.83103022  0.83621651  1
  Pb  Pb41  1  0.16891544  0.16700340  0.16813299  1
  Pb  Pb42  1  0.83363194  0.83037411  0.49699176  1
  Pb  Pb43  1  0.83061214  0.16725910  0.16660044  1
  Pb  Pb44  1  0.83070137  0.83334397  0.83652988  1
  Pb  Pb45  1  0.83676701  0.16928290  0.49993540  1
  Pb  Pb46  1  0.49768249  0.16673363  0.50013630  1
  Pb  Pb47  1  0.50011851  0.49995117  0.16510734  1
  Pb  Pb48  1  0.16874641  0.16870521  0.83076633  1
  Pb  Pb49  1  0.83369981  0.49996913  0.83390824  1
  Pb  Pb50  1  0.16650350  0.83289595  0.49755593  1
  Pb  Pb51  1  0.49999779  0.83314444  0.49959513  1
  Pb  Pb52  1  0.83052999  0.16649646  0.83331249  1
  Pb  Pb53  1  0.50017789  0.50022782  0.50315325  1
  I  I54  1  0.16566376  -0.00274591  0.16969733  1
  I  I55  1  0.17171965  0.00238378  0.49688623  1
  I  I56  1  0.16829498  -0.00012681  0.83242589  1
  I  I57  1  0.16395945  0.33688769  0.16540261  1
  I  I58  1  0.16447943  0.33581248  0.49706568  1
  I  I59  1  0.17269619  0.33728335  0.83867059  1
  I  I60  1  0.16936302  0.66547303  0.16859058  1
  I  I61  1  0.16340378  0.66280638  0.50166441  1
  I  I62  1  0.17299284  0.66269228  0.82844144  1
  I  I63  1  0.49869316  -0.00122239  0.15828439  1
  I  I64  1  0.49724271  0.00004969  0.50349581  1
  I  I65  1  0.50000866  -0.00027965  0.84100803  1
  I  I66  1  0.49942098  0.33146535  0.16169781  1
  I  I67  1  0.50174935  0.33363538  0.49849035  1
  I  I68  1  0.49592877  0.33350619  0.83825013  1
  I  I69  1  0.50009246  0.66920747  0.16237935  1
  I  I70  1  0.49695071  0.66638833  0.49902180  1
  I  I71  1  0.49611669  0.66670233  0.83840688  1
  I  I72  1  0.83549805  -0.00311598  0.16512273  1
  I  I73  1  0.83290676  -0.00008231  0.49928427  1
  I  I74  1  0.83401318  -0.00026393  0.83490343  1
  I  I75  1  0.83745121  0.33694251  0.17022355  1
  I  I76  1  0.83362542  0.33735023  0.49236895  1
  I  I77  1  0.82951772  0.33381664  0.83608102  1
  I  I78  1  0.83115239  0.66605301  0.17048695  1
  I  I79  1  0.84066008  0.66256078  0.49956318  1
  I  I80  1  0.82926998  0.66642879  0.83079206  1
  I  I81  1  0.16629243  0.16766780  -0.00008966  1
  I  I82  1  0.17030705  0.17417615  0.33559781  1
  I  I83  1  0.17034569  0.17508830  0.66324804  1
  I  I84  1  0.16776965  0.50552118  0.00082684  1
  I  I85  1  0.16258388  0.50004020  0.33275352  1
  I  I86  1  0.16802444  0.49396805  0.66648228  1
  I  I87  1  0.16584142  0.82723947  0.00440702  1
  I  I88  1  0.17096392  0.82662943  0.32909390  1
  I  I89  1  0.17041742  0.83236508  0.66691532  1
  I  I90  1  0.49869140  0.16608097  -0.00002678  1
  I  I91  1  0.49943828  0.16117997  0.33044383  1
  I  I92  1  0.49836610  0.16796735  0.66994388  1
  I  I93  1  0.49617907  0.49987741  -0.00282854  1
  I  I94  1  0.49766399  0.49986869  0.33324135  1
  I  I95  1  0.49570506  0.49936858  0.67136574  1
  I  I96  1  0.49998691  0.83355187  0.00112111  1
  I  I97  1  0.49990118  0.83780154  0.32901112  1
  I  I98  1  0.49822376  0.83294421  0.67015788  1
  I  I99  1  0.83714447  0.17060687  0.00038928  1
  I  I100  1  0.82876215  0.16428095  0.33317684  1
  I  I101  1  0.82930725  0.16997715  0.66635422  1
  I  I102  1  0.83551386  0.50484193  0.00338690  1
  I  I103  1  0.84107866  0.50397748  0.33227504  1
  I  I104  1  0.83578136  0.49769769  0.66413037  1
  I  I105  1  0.83425397  0.82341101  0.00461007  1
  I  I106  1  0.82963384  0.83168313  0.32881439  1
  I  I107  1  0.83069210  0.83261144  0.66669619  1
  I  I108  1  0.00015174  0.16372012  0.16869140  1
  I  I109  1  0.00423889  0.17085104  0.49635618  1
  I  I110  1  0.00056581  0.16928546  0.83312641  1
  I  I111  1  0.00103548  0.50808597  0.16609217  1
  I  I112  1  0.00128707  0.49533415  0.50019267  1
  I  I113  1  0.00330750  0.49997742  0.83305453  1
  I  I114  1  0.00020710  0.82525810  0.16974095  1
  I  I115  1  0.00011188  0.83624699  0.49976358  1
  I  I116  1  0.00007474  0.83091908  0.83310189  1
  I  I117  1  0.33665364  0.16307349  0.16267050  1
  I  I118  1  0.33043572  0.17652477  0.49887110  1
  I  I119  1  0.33692607  0.16538640  0.83815033  1
  I  I120  1  0.33054956  0.50273039  0.16926695  1
  I  I121  1  0.32995769  0.49667596  0.49670981  1
  I  I122  1  0.33316833  0.49986253  0.83429443  1
  I  I123  1  0.33365663  0.83214799  0.16332705  1
  I  I124  1  0.33308313  0.83018685  0.49638153  1
  I  I125  1  0.33684730  0.83491875  0.84027216  1
  I  I126  1  0.66254907  0.16364360  0.16213806  1
  I  I127  1  0.66677292  0.16782885  0.50063177  1
  I  I128  1  0.66141323  0.17190317  0.83831273  1
  I  I129  1  0.66906881  0.50295975  0.16982726  1
  I  I130  1  0.66963524  0.50151420  0.49453062  1
  I  I131  1  0.66363407  0.49972859  0.83446503  1
  I  I132  1  0.66620858  0.83131089  0.16182309  1
  I  I133  1  0.66688794  0.83148719  0.49861779  1
  I  I134  1  0.66204453  0.82865223  0.84005316  1
