# generated using pymatgen
data_Cs27Sn14Pb13I81
_symmetry_space_group_name_H-M   'P 1'
_cell_length_a   18.95848306
_cell_length_b   18.96229431
_cell_length_c   18.96216845
_cell_angle_alpha   90.00030727
_cell_angle_beta   90.00076939
_cell_angle_gamma   90.00044620
_symmetry_Int_Tables_number   1
_chemical_formula_structural   Cs27Sn14Pb13I81
_chemical_formula_sum   'Cs27 Sn14 Pb13 I81'
_cell_volume   6816.83006896
_cell_formula_units_Z   1
loop_
 _symmetry_equiv_pos_site_id
 _symmetry_equiv_pos_as_xyz
  1  'x, y, z'
loop_
 _atom_site_type_symbol
 _atom_site_label
 _atom_site_symmetry_multiplicity
 _atom_site_fract_x
 _atom_site_fract_y
 _atom_site_fract_z
 _atom_site_occupancy
  Cs  Cs0  1  0.00096598  0.00012186  -0.00088339  1
  Cs  Cs1  1  0.00008347  -0.00219041  0.33553100  1
  Cs  Cs2  1  -0.00019574  0.00328333  0.66568747  1
  Cs  Cs3  1  -0.00176592  0.33079894  0.00111947  1
  Cs  Cs4  1  -0.00027761  0.33486034  0.33236787  1
  Cs  Cs5  1  0.00124851  0.33072957  0.66620213  1
  Cs  Cs6  1  0.00248622  0.66857156  0.00010172  1
  Cs  Cs7  1  -0.00023443  0.66659299  0.33431099  1
  Cs  Cs8  1  -0.00142517  0.66620503  0.66547911  1
  Cs  Cs9  1  0.33135331  -0.00369577  -0.00068889  1
  Cs  Cs10  1  0.33516084  0.00346709  0.33656043  1
  Cs  Cs11  1  0.33265463  0.00488378  0.66434818  1
  Cs  Cs12  1  0.33501122  0.33544440  0.00165994  1
  Cs  Cs13  1  0.33651940  0.32915279  0.33198792  1
  Cs  Cs14  1  0.33136027  0.33079625  0.66587938  1
  Cs  Cs15  1  0.33195267  0.66756528  -0.00066758  1
  Cs  Cs16  1  0.33268124  0.66690993  0.33410826  1
  Cs  Cs17  1  0.33481941  0.66611385  0.66822187  1
  Cs  Cs18  1  0.66772770  0.00039213  0.00021646  1
  Cs  Cs19  1  0.66537994  -0.00033601  0.33309480  1
  Cs  Cs20  1  0.66779308  -0.00273870  0.66696726  1
  Cs  Cs21  1  0.66691565  0.32963796  0.00475052  1
  Cs  Cs22  1  0.66250544  0.33878616  0.32521379  1
  Cs  Cs23  1  0.66747655  0.33686766  0.66838718  1
  Cs  Cs24  1  0.66584838  0.66776753  -0.00229953  1
  Cs  Cs25  1  0.66664616  0.66314642  0.33540244  1
  Cs  Cs26  1  0.66698030  0.66767232  0.66702054  1
  Sn  Sn27  1  0.50012578  0.16634568  0.83319686  1
  Sn  Sn28  1  0.83358776  0.50050598  0.83356850  1
  Sn  Sn29  1  0.50082083  0.83307877  0.16615638  1
  Sn  Sn30  1  0.50019659  0.49974466  0.83342793  1
  Sn  Sn31  1  0.50057229  0.83366554  0.83397180  1
  Sn  Sn32  1  0.83254590  0.16676445  0.49954978  1
  Sn  Sn33  1  0.83257426  0.83310544  0.16659564  1
  Sn  Sn34  1  0.16632437  0.50029036  0.83327331  1
  Sn  Sn35  1  0.83307460  0.83278499  0.83352426  1
  Sn  Sn36  1  0.16669712  0.50073875  0.50013009  1
  Sn  Sn37  1  0.83409636  0.83410203  0.50007026  1
  Sn  Sn38  1  0.16620475  0.83271901  0.50043793  1
  Sn  Sn39  1  0.16652157  0.49911851  0.16667376  1
  Sn  Sn40  1  0.16635564  0.16708675  0.16643457  1
  Pb  Pb41  1  0.83492672  0.16427790  0.16907462  1
  Pb  Pb42  1  0.50342314  0.16689089  0.50192691  1
  Pb  Pb43  1  0.16507430  0.16702790  0.49812116  1
  Pb  Pb44  1  0.49814578  0.16405286  0.16450906  1
  Pb  Pb45  1  0.50042601  0.83326207  0.50032122  1
  Pb  Pb46  1  0.83535184  0.50237791  0.16406799  1
  Pb  Pb47  1  0.16667442  0.83189224  0.83086926  1
  Pb  Pb48  1  0.16686315  0.83302329  0.16874178  1
  Pb  Pb49  1  0.83153913  0.16646018  0.83196338  1
  Pb  Pb50  1  0.83488342  0.50018959  0.50171263  1
  Pb  Pb51  1  0.49789110  0.50245215  0.16444733  1
  Pb  Pb52  1  0.49727713  0.49983145  0.50220413  1
  Pb  Pb53  1  0.16865375  0.16938545  0.83535252  1
  I  I54  1  0.16690094  0.00149115  0.16886724  1
  I  I55  1  0.16449532  -0.00247702  0.49785114  1
  I  I56  1  0.16715827  0.00002665  0.83377567  1
  I  I57  1  0.16664840  0.33470499  0.16745447  1
  I  I58  1  0.16495492  0.33636385  0.50319176  1
  I  I59  1  0.16575180  0.33796253  0.82790467  1
  I  I60  1  0.16677519  0.66416836  0.16453199  1
  I  I61  1  0.16099364  0.66653816  0.49837713  1
  I  I62  1  0.17025018  0.66343830  0.83774422  1
  I  I63  1  0.50077439  -0.00387541  0.16063934  1
  I  I64  1  0.49411740  -0.00026187  0.50294536  1
  I  I65  1  0.50521824  -0.00156809  0.83684941  1
  I  I66  1  0.49963115  0.33348149  0.16488278  1
  I  I67  1  0.49971403  0.33336456  0.50290887  1
  I  I68  1  0.49849207  0.33445073  0.83084210  1
  I  I69  1  0.50117110  0.67038145  0.16083328  1
  I  I70  1  0.50263359  0.66681109  0.50214150  1
  I  I71  1  0.50014317  0.66700709  0.83671437  1
  I  I72  1  0.83313155  -0.00417385  0.16124716  1
  I  I73  1  0.83970938  -0.00262498  0.50269994  1
  I  I74  1  0.82877576  -0.00345504  0.83427597  1
  I  I75  1  0.83377719  0.33354245  0.16686112  1
  I  I76  1  0.83639769  0.33143532  0.50455448  1
  I  I77  1  0.83358428  0.33614999  0.83003319  1
  I  I78  1  0.83253716  0.67073741  0.17113053  1
  I  I79  1  0.83614199  0.66987530  0.49950156  1
  I  I80  1  0.82969325  0.66764798  0.83113339  1
  I  I81  1  0.16618429  0.16982805  0.00308276  1
  I  I82  1  0.16636666  0.17100776  0.33048986  1
  I  I83  1  0.16733692  0.16711120  0.66665997  1
  I  I84  1  0.16749765  0.49655964  -0.00070525  1
  I  I85  1  0.16489506  0.50141505  0.33350679  1
  I  I86  1  0.16714230  0.50566280  0.66723865  1
  I  I87  1  0.16466192  0.83254050  -0.00005866  1
  I  I88  1  0.16254050  0.82817112  0.33641914  1
  I  I89  1  0.16306366  0.82839623  0.66307724  1
  I  I90  1  0.50069270  0.16932447  -0.00360581  1
  I  I91  1  0.49851598  0.16418369  0.33291989  1
  I  I92  1  0.49789982  0.16364875  0.67046689  1
  I  I93  1  0.49750366  0.49933887  -0.00417783  1
  I  I94  1  0.49845656  0.50164369  0.33289188  1
  I  I95  1  0.49847477  0.50433000  0.67130266  1
  I  I96  1  0.50621042  0.83285163  -0.00149460  1
  I  I97  1  0.50160881  0.83380151  0.33072159  1
  I  I98  1  0.50275989  0.83177168  0.67030530  1
  I  I99  1  0.83379579  0.16613391  0.00008690  1
  I  I100  1  0.83593887  0.16030184  0.33685160  1
  I  I101  1  0.83458682  0.16044586  0.66419372  1
  I  I102  1  0.83511442  0.50477853  -0.00435986  1
  I  I103  1  0.83650582  0.50127224  0.33318226  1
  I  I104  1  0.83456117  0.50537778  0.67025068  1
  I  I105  1  0.82925852  0.82862207  -0.00087694  1
  I  I106  1  0.83463092  0.83821293  0.33376327  1
  I  I107  1  0.83299595  0.83272083  0.66725993  1
  I  I108  1  0.00291912  0.16899586  0.16576015  1
  I  I109  1  -0.00263907  0.16338934  0.50181780  1
  I  I110  1  -0.00006738  0.16678013  0.83317490  1
  I  I111  1  0.00369429  0.49969878  0.16404670  1
  I  I112  1  0.00331828  0.50217775  0.50303228  1
  I  I113  1  0.00012671  0.50581208  0.83305762  1
  I  I114  1  -0.00250793  0.83281454  0.16431659  1
  I  I115  1  -0.00099373  0.83283361  0.49965836  1
  I  I116  1  -0.00300333  0.82856933  0.83565864  1
  I  I117  1  0.33021851  0.16908168  0.16739249  1
  I  I118  1  0.33323726  0.16581357  0.50013213  1
  I  I119  1  0.33672825  0.16429645  0.83327590  1
  I  I120  1  0.32957492  0.49982799  0.16436186  1
  I  I121  1  0.32861499  0.50646073  0.50217877  1
  I  I122  1  0.33329791  0.50104010  0.83337822  1
  I  I123  1  0.33549166  0.83246754  0.16165860  1
  I  I124  1  0.33068901  0.82871903  0.49950639  1
  I  I125  1  0.33614193  0.83163052  0.83726044  1
  I  I126  1  0.66662289  0.16708352  0.16696001  1
  I  I127  1  0.67105259  0.15704980  0.50134059  1
  I  I128  1  0.66355094  0.17025139  0.83257673  1
  I  I129  1  0.66671139  0.49904080  0.16584313  1
  I  I130  1  0.66688382  0.50115210  0.50271872  1
  I  I131  1  0.66663590  0.50219583  0.83169201  1
  I  I132  1  0.66726350  0.83421457  0.16667931  1
  I  I133  1  0.67012001  0.83731455  0.50099574  1
  I  I134  1  0.66704651  0.82871208  0.83183887  1
