# generated using pymatgen
data_Cs27Sn14Pb13I81
_symmetry_space_group_name_H-M   'P 1'
_cell_length_a   18.99571602
_cell_length_b   18.98724039
_cell_length_c   18.98662965
_cell_angle_alpha   90.00099586
_cell_angle_beta   89.99904724
_cell_angle_gamma   89.99913850
_symmetry_Int_Tables_number   1
_chemical_formula_structural   Cs27Sn14Pb13I81
_chemical_formula_sum   'Cs27 Sn14 Pb13 I81'
_cell_volume   6848.02593212
_cell_formula_units_Z   1
loop_
 _symmetry_equiv_pos_site_id
 _symmetry_equiv_pos_as_xyz
  1  'x, y, z'
loop_
 _atom_site_type_symbol
 _atom_site_label
 _atom_site_symmetry_multiplicity
 _atom_site_fract_x
 _atom_site_fract_y
 _atom_site_fract_z
 _atom_site_occupancy
  Cs  Cs0  1  0.00109023  -0.00028143  0.00274532  1
  Cs  Cs1  1  0.00220368  -0.00344136  0.33038830  1
  Cs  Cs2  1  -0.00162592  0.00158479  0.66823064  1
  Cs  Cs3  1  0.00145794  0.33267908  -0.00244491  1
  Cs  Cs4  1  -0.00106106  0.33483812  0.33632712  1
  Cs  Cs5  1  -0.00993936  0.33337549  0.66534504  1
  Cs  Cs6  1  0.00255700  0.66749393  -0.00224483  1
  Cs  Cs7  1  0.00137520  0.66970846  0.33342112  1
  Cs  Cs8  1  0.00142002  0.66524854  0.66635315  1
  Cs  Cs9  1  0.33199417  0.00271812  0.00250896  1
  Cs  Cs10  1  0.33328325  0.00068924  0.33300357  1
  Cs  Cs11  1  0.33655881  0.00108378  0.66405381  1
  Cs  Cs12  1  0.33446216  0.33160674  -0.00121378  1
  Cs  Cs13  1  0.33284560  0.33341693  0.33448047  1
  Cs  Cs14  1  0.33215332  0.33371465  0.66591411  1
  Cs  Cs15  1  0.33240729  0.66280389  -0.00218973  1
  Cs  Cs16  1  0.33244326  0.66673260  0.33437740  1
  Cs  Cs17  1  0.33490444  0.66560312  0.66682563  1
  Cs  Cs18  1  0.66702388  0.00073840  -0.00046321  1
  Cs  Cs19  1  0.66313415  -0.00168462  0.33160291  1
  Cs  Cs20  1  0.66426650  -0.00111962  0.67056097  1
  Cs  Cs21  1  0.66345303  0.33777377  0.00126582  1
  Cs  Cs22  1  0.67015189  0.33974130  0.33444251  1
  Cs  Cs23  1  0.68294024  0.33065674  0.66260436  1
  Cs  Cs24  1  0.66356572  0.65904638  -0.00688973  1
  Cs  Cs25  1  0.66910788  0.66320519  0.33257136  1
  Cs  Cs26  1  0.66363097  0.67042692  0.67581536  1
  Sn  Sn27  1  0.16767775  0.50063798  0.49920014  1
  Sn  Sn28  1  0.16765850  0.16574212  0.83374172  1
  Sn  Sn29  1  0.50013292  0.83324586  0.16654475  1
  Sn  Sn30  1  0.16708288  0.83309252  0.16668182  1
  Sn  Sn31  1  0.49933288  0.49991517  0.50027117  1
  Sn  Sn32  1  0.83370031  0.83345827  0.49931488  1
  Sn  Sn33  1  0.16621549  0.83287284  0.50024240  1
  Sn  Sn34  1  0.50005399  0.16615522  0.16632795  1
  Sn  Sn35  1  0.83281939  0.83382147  0.16708776  1
  Sn  Sn36  1  0.16665332  0.16710332  0.16634186  1
  Sn  Sn37  1  0.83332734  0.16603095  0.16684055  1
  Sn  Sn38  1  0.16712248  0.83453725  0.83306958  1
  Sn  Sn39  1  0.49910795  0.16702537  0.83371198  1
  Sn  Sn40  1  0.16678640  0.49982417  0.16748854  1
  Pb  Pb41  1  0.83396252  0.50360081  0.49974223  1
  Pb  Pb42  1  0.50008452  0.16906476  0.49968791  1
  Pb  Pb43  1  0.49964787  0.49611354  0.82994959  1
  Pb  Pb44  1  0.49755394  0.49976534  0.16801630  1
  Pb  Pb45  1  0.83580561  0.83353239  0.83425123  1
  Pb  Pb46  1  0.49706878  0.83548072  0.83638716  1
  Pb  Pb47  1  0.83354864  0.16623688  0.83650937  1
  Pb  Pb48  1  0.83644655  0.50076855  0.16650931  1
  Pb  Pb49  1  0.50004479  0.83176381  0.49781800  1
  Pb  Pb50  1  0.16657419  0.16645089  0.50022942  1
  Pb  Pb51  1  0.83345491  0.50018998  0.83366252  1
  Pb  Pb52  1  0.16667332  0.49927965  0.83272258  1
  Pb  Pb53  1  0.83339034  0.16284324  0.49663725  1
  I  I54  1  0.16625097  -0.00054132  0.16643121  1
  I  I55  1  0.16264518  -0.00337427  0.49661916  1
  I  I56  1  0.16931568  0.00003330  0.83773670  1
  I  I57  1  0.16717419  0.33235805  0.16636674  1
  I  I58  1  0.17178700  0.33602908  0.49540921  1
  I  I59  1  0.17087066  0.32987532  0.83880462  1
  I  I60  1  0.16644873  0.66827013  0.16707053  1
  I  I61  1  0.16636408  0.66774269  0.49554805  1
  I  I62  1  0.16460286  0.66946844  0.83722213  1
  I  I63  1  0.49545759  0.00024577  0.16490084  1
  I  I64  1  0.49961871  -0.00006297  0.50119874  1
  I  I65  1  0.49810474  0.00329261  0.83393916  1
  I  I66  1  0.49963157  0.33007048  0.16361823  1
  I  I67  1  0.49028135  0.33672090  0.49725385  1
  I  I68  1  0.48991153  0.32868071  0.84447704  1
  I  I69  1  0.49924910  0.66936764  0.17023271  1
  I  I70  1  0.49654946  0.66407410  0.49586246  1
  I  I71  1  0.50023703  0.66652080  0.83444484  1
  I  I72  1  0.83859860  -0.00063779  0.17048016  1
  I  I73  1  0.84187885  -0.00461516  0.49822364  1
  I  I74  1  0.83155868  -0.00006852  0.82852506  1
  I  I75  1  0.83278268  0.33036803  0.16447455  1
  I  I76  1  0.83353066  0.33349269  0.50065185  1
  I  I77  1  0.83693328  0.33261629  0.83330732  1
  I  I78  1  0.83410740  0.67050452  0.17211776  1
  I  I79  1  0.83672056  0.67082644  0.48990227  1
  I  I80  1  0.83504887  0.66737912  0.83589736  1
  I  I81  1  0.16659982  0.16349153  0.00185224  1
  I  I82  1  0.16782426  0.16407981  0.32972751  1
  I  I83  1  0.17314703  0.16285096  0.66983217  1
  I  I84  1  0.16566355  0.50325532  0.00286365  1
  I  I85  1  0.17013035  0.50311951  0.33294120  1
  I  I86  1  0.17046195  0.50481982  0.66338273  1
  I  I87  1  0.16604196  0.83354537  0.00179637  1
  I  I88  1  0.16571711  0.83293122  0.33187002  1
  I  I89  1  0.16121866  0.83244823  0.66609370  1
  I  I90  1  0.49815103  0.16227733  0.00189606  1
  I  I91  1  0.49746401  0.16282108  0.32944685  1
  I  I92  1  0.49177983  0.16799724  0.66972201  1
  I  I93  1  0.49946178  0.50246110  -0.00011611  1
  I  I94  1  0.49645932  0.49812245  0.33565274  1
  I  I95  1  0.49006775  0.50212903  0.66260976  1
  I  I96  1  0.50104142  0.83400732  0.00461486  1
  I  I97  1  0.49445849  0.84040674  0.32967732  1
  I  I98  1  0.50072322  0.83375817  0.66687869  1
  I  I99  1  0.83529596  0.15782735  0.00435106  1
  I  I100  1  0.83483028  0.16615192  0.32856583  1
  I  I101  1  0.83327080  0.16809455  0.66675246  1
  I  I102  1  0.83494235  0.50272544  0.00072175  1
  I  I103  1  0.83095808  0.49548855  0.33315311  1
  I  I104  1  0.83633704  0.49958098  0.66601679  1
  I  I105  1  0.83552807  0.83884647  0.00397419  1
  I  I106  1  0.83989423  0.83718548  0.33183965  1
  I  I107  1  0.83903041  0.83009085  0.66393371  1
  I  I108  1  0.00133848  0.16355532  0.16347537  1
  I  I109  1  0.00017039  0.17319813  0.50180707  1
  I  I110  1  0.00341107  0.16316763  0.83758621  1
  I  I111  1  0.00477935  0.49983913  0.17342274  1
  I  I112  1  0.00342450  0.50165599  0.49571441  1
  I  I113  1  0.00087340  0.49737480  0.83168570  1
  I  I114  1  0.00152641  0.83593893  0.16756528  1
  I  I115  1  0.00197919  0.82797145  0.49419051  1
  I  I116  1  0.00426697  0.83945926  0.83830374  1
  I  I117  1  0.33254249  0.16355368  0.16279807  1
  I  I118  1  0.33310590  0.16216314  0.49503089  1
  I  I119  1  0.33208932  0.16264562  0.84331851  1
  I  I120  1  0.32945373  0.50106831  0.16884908  1
  I  I121  1  0.33123069  0.50605291  0.49528262  1
  I  I122  1  0.33307676  0.50274035  0.83528620  1
  I  I123  1  0.33178139  0.83636654  0.16739934  1
  I  I124  1  0.32999956  0.83135388  0.49831208  1
  I  I125  1  0.32904978  0.83435865  0.83237837  1
  I  I126  1  0.66607695  0.15800702  0.16350812  1
  I  I127  1  0.66677011  0.16869014  0.50122574  1
  I  I128  1  0.66377114  0.16832115  0.83744282  1
  I  I129  1  0.66651612  0.49967244  0.16872746  1
  I  I130  1  0.66449131  0.49832932  0.49891617  1
  I  I131  1  0.66595211  0.49934132  0.83214730  1
  I  I132  1  0.66694195  0.84266354  0.17403442  1
  I  I133  1  0.66918757  0.83244307  0.49292787  1
  I  I134  1  0.66630270  0.83400527  0.83151779  1
