# generated using pymatgen
data_Cs27Sn14Pb13I81
_symmetry_space_group_name_H-M   'P 1'
_cell_length_a   18.97158865
_cell_length_b   18.98451391
_cell_length_c   18.97070175
_cell_angle_alpha   89.99905950
_cell_angle_beta   90.00367962
_cell_angle_gamma   89.99989987
_symmetry_Int_Tables_number   1
_chemical_formula_structural   Cs27Sn14Pb13I81
_chemical_formula_sum   'Cs27 Sn14 Pb13 I81'
_cell_volume   6832.60912540
_cell_formula_units_Z   1
loop_
 _symmetry_equiv_pos_site_id
 _symmetry_equiv_pos_as_xyz
  1  'x, y, z'
loop_
 _atom_site_type_symbol
 _atom_site_label
 _atom_site_symmetry_multiplicity
 _atom_site_fract_x
 _atom_site_fract_y
 _atom_site_fract_z
 _atom_site_occupancy
  Cs  Cs0  1  0.00032011  0.00172562  -0.00226492  1
  Cs  Cs1  1  0.00710405  -0.00089174  0.33562584  1
  Cs  Cs2  1  -0.00251368  -0.00392928  0.66828895  1
  Cs  Cs3  1  0.00107214  0.33485681  -0.00162026  1
  Cs  Cs4  1  -0.00183771  0.33318748  0.33388100  1
  Cs  Cs5  1  -0.00183305  0.33604948  0.66807603  1
  Cs  Cs6  1  0.00508698  0.66196169  0.00137568  1
  Cs  Cs7  1  -0.00031617  0.66838408  0.33446130  1
  Cs  Cs8  1  -0.00056058  0.66460632  0.66458950  1
  Cs  Cs9  1  0.33423317  0.00083011  -0.00070942  1
  Cs  Cs10  1  0.32266670  0.00311150  0.34046811  1
  Cs  Cs11  1  0.33353559  -0.00081512  0.66274608  1
  Cs  Cs12  1  0.33306319  0.33369643  -0.00103194  1
  Cs  Cs13  1  0.33398307  0.32809527  0.33773817  1
  Cs  Cs14  1  0.33475076  0.33249003  0.66609945  1
  Cs  Cs15  1  0.33165551  0.66540030  -0.00091200  1
  Cs  Cs16  1  0.33232867  0.66953760  0.33462423  1
  Cs  Cs17  1  0.33772546  0.66816573  0.66740474  1
  Cs  Cs18  1  0.66605181  0.00083125  -0.00039664  1
  Cs  Cs19  1  0.66723823  0.00172245  0.32879556  1
  Cs  Cs20  1  0.66786246  -0.01071595  0.66949130  1
  Cs  Cs21  1  0.66630735  0.33210501  0.00129154  1
  Cs  Cs22  1  0.66696158  0.33464224  0.33243020  1
  Cs  Cs23  1  0.66724072  0.33362109  0.66576187  1
  Cs  Cs24  1  0.66496796  0.66726210  0.00299331  1
  Cs  Cs25  1  0.66768903  0.66406233  0.33040473  1
  Cs  Cs26  1  0.66451106  0.67251597  0.66585967  1
  Sn  Sn27  1  0.50036279  0.49971574  0.16593333  1
  Sn  Sn28  1  0.83197328  0.50006432  0.83354083  1
  Sn  Sn29  1  0.50006232  0.83379979  0.16674687  1
  Sn  Sn30  1  0.83265179  0.16700729  0.49955326  1
  Sn  Sn31  1  0.49963605  0.16726309  0.83368510  1
  Sn  Sn32  1  0.83389113  0.49924972  0.49983005  1
  Sn  Sn33  1  0.83324771  0.83351438  0.16641733  1
  Sn  Sn34  1  0.16748178  0.16583920  0.83351003  1
  Sn  Sn35  1  0.83303416  0.16665461  0.16743563  1
  Sn  Sn36  1  0.83288304  0.49983080  0.16646388  1
  Sn  Sn37  1  0.16669990  0.83425804  0.83366292  1
  Sn  Sn38  1  0.50034813  0.16658312  0.16613119  1
  Sn  Sn39  1  0.50132283  0.49905754  0.83413184  1
  Sn  Sn40  1  0.16635896  0.49963362  0.49986674  1
  Pb  Pb41  1  0.49851290  0.83337338  0.83547210  1
  Pb  Pb42  1  0.83524177  0.82985567  0.83636274  1
  Pb  Pb43  1  0.83245543  0.16818345  0.83339153  1
  Pb  Pb44  1  0.50023838  0.83370622  0.49601410  1
  Pb  Pb45  1  0.16682807  0.83338156  0.16493337  1
  Pb  Pb46  1  0.16664499  0.16695350  0.16472583  1
  Pb  Pb47  1  0.16367922  0.16866357  0.50318489  1
  Pb  Pb48  1  0.16747812  0.49958016  0.83166284  1
  Pb  Pb49  1  0.16644352  0.83072674  0.50291434  1
  Pb  Pb50  1  0.50093269  0.49997819  0.49979166  1
  Pb  Pb51  1  0.16735133  0.49969649  0.16914178  1
  Pb  Pb52  1  0.83311426  0.83324533  0.49716191  1
  Pb  Pb53  1  0.50299005  0.16651307  0.50030989  1
  I  I54  1  0.16573096  0.00017843  0.16792514  1
  I  I55  1  0.16568667  0.00026906  0.49875635  1
  I  I56  1  0.17161976  0.00107225  0.83533035  1
  I  I57  1  0.16573545  0.33338834  0.16309320  1
  I  I58  1  0.16428476  0.33626506  0.50194644  1
  I  I59  1  0.16766720  0.33122921  0.83234179  1
  I  I60  1  0.16640251  0.66646085  0.16351737  1
  I  I61  1  0.15909435  0.66298225  0.50130450  1
  I  I62  1  0.16559843  0.66797826  0.83248211  1
  I  I63  1  0.50855198  0.00106296  0.16128496  1
  I  I64  1  0.50169496  0.00033311  0.50198043  1
  I  I65  1  0.49781854  0.00283992  0.83785694  1
  I  I66  1  0.50681783  0.33343652  0.16186168  1
  I  I67  1  0.49721337  0.33339200  0.49642970  1
  I  I68  1  0.49758672  0.33365331  0.84121706  1
  I  I69  1  0.50674002  0.66561985  0.16282393  1
  I  I70  1  0.50064620  0.66640072  0.50183133  1
  I  I71  1  0.50160597  0.66366501  0.83667237  1
  I  I72  1  0.82672851  0.00092650  0.17058741  1
  I  I73  1  0.83219823  0.00303445  0.49599489  1
  I  I74  1  0.83239966  -0.00013111  0.83249051  1
  I  I75  1  0.82812022  0.33387033  0.16767808  1
  I  I76  1  0.83686352  0.33468280  0.49504630  1
  I  I77  1  0.83553524  0.33640799  0.83716789  1
  I  I78  1  0.82773085  0.66534232  0.16620866  1
  I  I79  1  0.83735260  0.66315019  0.49951549  1
  I  I80  1  0.82952634  0.66169128  0.83194650  1
  I  I81  1  0.16522519  0.16536144  -0.00332311  1
  I  I82  1  0.16951209  0.16736608  0.33373047  1
  I  I83  1  0.17243922  0.16399317  0.67083121  1
  I  I84  1  0.16338817  0.50055963  -0.00024699  1
  I  I85  1  0.16143628  0.50020478  0.33674366  1
  I  I86  1  0.16020978  0.49971889  0.66415324  1
  I  I87  1  0.16604424  0.83464290  -0.00286585  1
  I  I88  1  0.16740646  0.83213028  0.33345000  1
  I  I89  1  0.16687882  0.83760228  0.67061192  1
  I  I90  1  0.50224223  0.16785480  0.00083525  1
  I  I91  1  0.50312743  0.16885953  0.32969247  1
  I  I92  1  0.49645776  0.17356874  0.67014346  1
  I  I93  1  0.50701199  0.49943986  0.00049180  1
  I  I94  1  0.50333150  0.49974555  0.32965548  1
  I  I95  1  0.50187107  0.49508582  0.66984385  1
  I  I96  1  0.50439768  0.83271176  0.00352229  1
  I  I97  1  0.50485740  0.83025822  0.32756182  1
  I  I98  1  0.49793503  0.83248793  0.66708663  1
  I  I99  1  0.83267808  0.16762907  0.00305536  1
  I  I100  1  0.82772312  0.17219689  0.33158922  1
  I  I101  1  0.83510181  0.17420456  0.66466933  1
  I  I102  1  0.82963374  0.49957443  0.00087760  1
  I  I103  1  0.83326538  0.49969813  0.33213662  1
  I  I104  1  0.83480140  0.49387573  0.66657363  1
  I  I105  1  0.82883638  0.83532292  0.00423555  1
  I  I106  1  0.82914517  0.82790602  0.32898965  1
  I  I107  1  0.83547133  0.83365226  0.66701660  1
  I  I108  1  -0.00361808  0.16740003  0.16886343  1
  I  I109  1  -0.00400479  0.16964462  0.49363140  1
  I  I110  1  0.00152549  0.16530975  0.83332774  1
  I  I111  1  -0.00356625  0.50021906  0.16331880  1
  I  I112  1  -0.00231918  0.49650685  0.50115040  1
  I  I113  1  -0.00251572  0.49976699  0.83602632  1
  I  I114  1  -0.00319961  0.83184681  0.16555023  1
  I  I115  1  -0.00022480  0.83437650  0.49718671  1
  I  I116  1  0.00281007  0.83904774  0.83568309  1
  I  I117  1  0.33690672  0.16748733  0.16378013  1
  I  I118  1  0.33321846  0.16805958  0.49697708  1
  I  I119  1  0.33474996  0.16987101  0.83991502  1
  I  I120  1  0.33722495  0.50082799  0.16175525  1
  I  I121  1  0.33139835  0.50136381  0.50131341  1
  I  I122  1  0.33642601  0.49964478  0.83704202  1
  I  I123  1  0.33668425  0.83124879  0.16413754  1
  I  I124  1  0.33306689  0.83055112  0.49721449  1
  I  I125  1  0.33086229  0.83093585  0.83667756  1
  I  I126  1  0.66683910  0.16726297  0.16450525  1
  I  I127  1  0.67073094  0.17632052  0.49919002  1
  I  I128  1  0.66376264  0.17048412  0.83554362  1
  I  I129  1  0.66748322  0.50022230  0.16786493  1
  I  I130  1  0.67024398  0.49574236  0.49894026  1
  I  I131  1  0.66639459  0.49379672  0.83308091  1
  I  I132  1  0.66687285  0.83221904  0.16571421  1
  I  I133  1  0.66700598  0.83057811  0.50645179  1
  I  I134  1  0.66670310  0.83557435  0.83135775  1
