# generated using pymatgen
data_Cs27Sn14Pb13I81
_symmetry_space_group_name_H-M   'P 1'
_cell_length_a   18.97042954
_cell_length_b   18.98102117
_cell_length_c   18.97623124
_cell_angle_alpha   90.00035762
_cell_angle_beta   89.99986910
_cell_angle_gamma   89.99966552
_symmetry_Int_Tables_number   1
_chemical_formula_structural   Cs27Sn14Pb13I81
_chemical_formula_sum   'Cs27 Sn14 Pb13 I81'
_cell_volume   6832.92576069
_cell_formula_units_Z   1
loop_
 _symmetry_equiv_pos_site_id
 _symmetry_equiv_pos_as_xyz
  1  'x, y, z'
loop_
 _atom_site_type_symbol
 _atom_site_label
 _atom_site_symmetry_multiplicity
 _atom_site_fract_x
 _atom_site_fract_y
 _atom_site_fract_z
 _atom_site_occupancy
  Cs  Cs0  1  0.00209007  0.00420350  0.00323390  1
  Cs  Cs1  1  -0.00179861  -0.00119097  0.33174923  1
  Cs  Cs2  1  -0.00092277  -0.00215042  0.66486323  1
  Cs  Cs3  1  -0.00069988  0.33206598  0.00037164  1
  Cs  Cs4  1  -0.00066110  0.33470169  0.33425948  1
  Cs  Cs5  1  0.00241179  0.33551801  0.66526237  1
  Cs  Cs6  1  0.00273625  0.66546888  0.00395107  1
  Cs  Cs7  1  -0.00096447  0.66661371  0.33291639  1
  Cs  Cs8  1  -0.00150506  0.66562199  0.66496864  1
  Cs  Cs9  1  0.32993630  -0.00380007  -0.00211494  1
  Cs  Cs10  1  0.33443353  -0.00176293  0.33552473  1
  Cs  Cs11  1  0.33417494  0.00288292  0.66495060  1
  Cs  Cs12  1  0.33627837  0.33549191  0.00172325  1
  Cs  Cs13  1  0.33636569  0.33244182  0.33559942  1
  Cs  Cs14  1  0.33047891  0.32911245  0.66260475  1
  Cs  Cs15  1  0.33363229  0.66725846  0.00109876  1
  Cs  Cs16  1  0.33428912  0.66727154  0.33255624  1
  Cs  Cs17  1  0.33260879  0.66669208  0.66510599  1
  Cs  Cs18  1  0.66726192  0.00792682  -0.00600025  1
  Cs  Cs19  1  0.66826686  0.00023406  0.33209140  1
  Cs  Cs20  1  0.66717222  -0.00403244  0.67546976  1
  Cs  Cs21  1  0.66087187  0.32622826  -0.00430304  1
  Cs  Cs22  1  0.66702662  0.33218713  0.33041991  1
  Cs  Cs23  1  0.66695423  0.33260392  0.67234894  1
  Cs  Cs24  1  0.66215084  0.66496560  -0.00610837  1
  Cs  Cs25  1  0.66699799  0.66682542  0.33486962  1
  Cs  Cs26  1  0.66868181  0.66987685  0.67024821  1
  Sn  Sn27  1  0.50031737  0.50073347  0.49982869  1
  Sn  Sn28  1  0.16616397  0.49887742  0.16707839  1
  Sn  Sn29  1  0.16679479  0.50095638  0.49961670  1
  Sn  Sn30  1  0.50201759  0.83324950  0.16718585  1
  Sn  Sn31  1  0.16632443  0.16691470  0.83424238  1
  Sn  Sn32  1  0.83293992  0.49895490  0.49917956  1
  Sn  Sn33  1  0.83321400  0.50068854  0.16683005  1
  Sn  Sn34  1  0.49953774  0.83245726  0.49908803  1
  Sn  Sn35  1  0.83139653  0.83233460  0.16642778  1
  Sn  Sn36  1  0.16629893  0.83306878  0.83196756  1
  Sn  Sn37  1  0.16726796  0.83247832  0.50058391  1
  Sn  Sn38  1  0.16692603  0.16810928  0.16661671  1
  Sn  Sn39  1  0.83311919  0.16754414  0.50006884  1
  Sn  Sn40  1  0.16643949  0.50000163  0.83343512  1
  Pb  Pb41  1  0.83497839  0.16750077  0.16800769  1
  Pb  Pb42  1  0.50046670  0.50159165  0.16840901  1
  Pb  Pb43  1  0.16668251  0.83285002  0.16721079  1
  Pb  Pb44  1  0.49701622  0.50005215  0.83000353  1
  Pb  Pb45  1  0.49701840  0.16353687  0.16698250  1
  Pb  Pb46  1  0.83615841  0.16684411  0.83046160  1
  Pb  Pb47  1  0.50334785  0.16618911  0.49996714  1
  Pb  Pb48  1  0.49682535  0.16679971  0.83316408  1
  Pb  Pb49  1  0.83526627  0.50009133  0.83395003  1
  Pb  Pb50  1  0.49762388  0.83320239  0.83298542  1
  Pb  Pb51  1  0.83305957  0.83269456  0.49881425  1
  Pb  Pb52  1  0.16525881  0.16644247  0.49970052  1
  Pb  Pb53  1  0.83645637  0.83303071  0.83731417  1
  I  I54  1  0.16642008  0.00147166  0.16354030  1
  I  I55  1  0.16900856  -0.00281615  0.50210069  1
  I  I56  1  0.16704589  -0.00027313  0.83448638  1
  I  I57  1  0.16061056  0.33510506  0.16438034  1
  I  I58  1  0.16835644  0.33649131  0.50207973  1
  I  I59  1  0.16599193  0.33412209  0.83259210  1
  I  I60  1  0.16564930  0.66387556  0.16526394  1
  I  I61  1  0.16508768  0.66567360  0.50217537  1
  I  I62  1  0.16666659  0.66623328  0.83270937  1
  I  I63  1  0.50320119  -0.00462321  0.17467411  1
  I  I64  1  0.49393481  -0.00363798  0.49621963  1
  I  I65  1  0.49665319  -0.00030874  0.83080811  1
  I  I66  1  0.50108869  0.33346225  0.16822275  1
  I  I67  1  0.49447545  0.33656854  0.50033282  1
  I  I68  1  0.49794857  0.33364142  0.83219948  1
  I  I69  1  0.49668972  0.66962230  0.16980958  1
  I  I70  1  0.49847005  0.66682636  0.49565167  1
  I  I71  1  0.49664542  0.66669262  0.83552613  1
  I  I72  1  0.83347773  -0.00220942  0.17006730  1
  I  I73  1  0.83666087  0.00128754  0.49732839  1
  I  I74  1  0.83691553  -0.00012116  0.83161776  1
  I  I75  1  0.83877524  0.33680218  0.17080233  1
  I  I76  1  0.83628356  0.33583104  0.49425976  1
  I  I77  1  0.83667443  0.33346937  0.83626866  1
  I  I78  1  0.83891891  0.66552462  0.17417139  1
  I  I79  1  0.83556054  0.66353320  0.49750067  1
  I  I80  1  0.83671933  0.66662837  0.82764838  1
  I  I81  1  0.16530713  0.16767383  0.00002079  1
  I  I82  1  0.16439956  0.16899227  0.33101558  1
  I  I83  1  0.16482369  0.16872123  0.66880662  1
  I  I84  1  0.16139105  0.50030841  0.00071686  1
  I  I85  1  0.16549864  0.50077005  0.33396207  1
  I  I86  1  0.16686518  0.50036031  0.66553885  1
  I  I87  1  0.16618601  0.83161886  -0.00177626  1
  I  I88  1  0.16727365  0.83050515  0.33601794  1
  I  I89  1  0.17157469  0.83105946  0.66538121  1
  I  I90  1  0.50284730  0.16547505  0.00023561  1
  I  I91  1  0.49499546  0.16751692  0.33357026  1
  I  I92  1  0.49727757  0.16497130  0.66623862  1
  I  I93  1  0.49877113  0.50204629  0.00006081  1
  I  I94  1  0.49382614  0.50258530  0.33670389  1
  I  I95  1  0.50120710  0.50721209  0.66153181  1
  I  I96  1  0.50066027  0.83327555  0.00276687  1
  I  I97  1  0.49529161  0.82949903  0.33442366  1
  I  I98  1  0.49721930  0.82956983  0.66315701  1
  I  I99  1  0.83381908  0.16559394  -0.00002034  1
  I  I100  1  0.83831024  0.16822292  0.33581466  1
  I  I101  1  0.83612709  0.17266409  0.66256118  1
  I  I102  1  0.84094439  0.50562681  0.00374728  1
  I  I103  1  0.84020855  0.50051894  0.33398569  1
  I  I104  1  0.83521338  0.49633031  0.66320450  1
  I  I105  1  0.83003845  0.82690748  0.00527280  1
  I  I106  1  0.83698156  0.83206188  0.33090362  1
  I  I107  1  0.83170038  0.83408688  0.66673237  1
  I  I108  1  0.00328107  0.16469112  0.16357449  1
  I  I109  1  -0.00223802  0.17069662  0.49978191  1
  I  I110  1  0.00445523  0.16685057  0.83763826  1
  I  I111  1  0.00122203  0.50297146  0.17146820  1
  I  I112  1  0.00117613  0.50009899  0.49993930  1
  I  I113  1  0.00434156  0.50028906  0.82818443  1
  I  I114  1  -0.00160099  0.83239906  0.16721262  1
  I  I115  1  0.00272894  0.83069296  0.50210892  1
  I  I116  1  0.00477632  0.83266904  0.82664812  1
  I  I117  1  0.32862065  0.17200247  0.16401070  1
  I  I118  1  0.33317622  0.16836056  0.50092044  1
  I  I119  1  0.32813335  0.16626279  0.83479758  1
  I  I120  1  0.33000843  0.49847795  0.16700239  1
  I  I121  1  0.33180246  0.50489606  0.50043552  1
  I  I122  1  0.32809895  0.50093918  0.83542170  1
  I  I123  1  0.33490222  0.83385759  0.16796740  1
  I  I124  1  0.33233320  0.82651834  0.49755368  1
  I  I125  1  0.32901931  0.83294081  0.83503898  1
  I  I126  1  0.66675424  0.16837603  0.16863986  1
  I  I127  1  0.67096966  0.17125676  0.49653558  1
  I  I128  1  0.66695035  0.16583339  0.83252481  1
  I  I129  1  0.66976906  0.50358483  0.17406856  1
  I  I130  1  0.66732301  0.50009857  0.49312834  1
  I  I131  1  0.66651102  0.50008291  0.83333525  1
  I  I132  1  0.66685452  0.82735279  0.17606355  1
  I  I133  1  0.66405326  0.83026501  0.49604608  1
  I  I134  1  0.66670378  0.83403745  0.83016101  1
