# generated using pymatgen
data_Cs27Sn13Pb14I81
_symmetry_space_group_name_H-M   'P 1'
_cell_length_a   19.03171465
_cell_length_b   19.02546411
_cell_length_c   19.05136138
_cell_angle_alpha   89.99972742
_cell_angle_beta   89.99925471
_cell_angle_gamma   89.99819839
_symmetry_Int_Tables_number   1
_chemical_formula_structural   Cs27Sn13Pb14I81
_chemical_formula_sum   'Cs27 Sn13 Pb14 I81'
_cell_volume   6898.25417070
_cell_formula_units_Z   1
loop_
 _symmetry_equiv_pos_site_id
 _symmetry_equiv_pos_as_xyz
  1  'x, y, z'
loop_
 _atom_site_type_symbol
 _atom_site_label
 _atom_site_symmetry_multiplicity
 _atom_site_fract_x
 _atom_site_fract_y
 _atom_site_fract_z
 _atom_site_occupancy
  Cs  Cs0  1  0.00239488  0.00035765  0.00085514  1
  Cs  Cs1  1  0.00221863  0.00237295  0.33422472  1
  Cs  Cs2  1  0.00223338  0.00255229  0.66502205  1
  Cs  Cs3  1  0.00054471  0.33415628  -0.00304737  1
  Cs  Cs4  1  -0.00174400  0.33258057  0.33587000  1
  Cs  Cs5  1  -0.00146823  0.33525813  0.66613119  1
  Cs  Cs6  1  -0.01105323  0.66124182  -0.00262444  1
  Cs  Cs7  1  -0.00183448  0.65872881  0.33387587  1
  Cs  Cs8  1  -0.00215391  0.65678332  0.66867878  1
  Cs  Cs9  1  0.33258668  0.00167030  -0.00269472  1
  Cs  Cs10  1  0.32823834  -0.00196757  0.33606876  1
  Cs  Cs11  1  0.33143354  -0.00188806  0.66612885  1
  Cs  Cs12  1  0.33942144  0.33625306  0.00256676  1
  Cs  Cs13  1  0.33541245  0.33623285  0.33211902  1
  Cs  Cs14  1  0.33712986  0.33576999  0.66701065  1
  Cs  Cs15  1  0.33121366  0.65911872  0.00548837  1
  Cs  Cs16  1  0.33529804  0.66665180  0.33007183  1
  Cs  Cs17  1  0.33541427  0.66483802  0.66636445  1
  Cs  Cs18  1  0.66020473  -0.00785151  -0.00196863  1
  Cs  Cs19  1  0.66841565  -0.00243767  0.33573379  1
  Cs  Cs20  1  0.66561145  -0.00251765  0.66662075  1
  Cs  Cs21  1  0.65697265  0.33097896  0.00422057  1
  Cs  Cs22  1  0.66602824  0.33456495  0.33378399  1
  Cs  Cs23  1  0.66345689  0.33365730  0.66561388  1
  Cs  Cs24  1  0.67984230  0.67752908  0.00872746  1
  Cs  Cs25  1  0.66629739  0.66951999  0.32093257  1
  Cs  Cs26  1  0.66410788  0.66746488  0.67182677  1
  Sn  Sn27  1  0.16680410  0.16670746  0.50033029  1
  Sn  Sn28  1  0.16604594  0.16619399  0.83299777  1
  Sn  Sn29  1  0.50065739  0.50077855  0.83279939  1
  Sn  Sn30  1  0.16560342  0.16609752  0.16663522  1
  Sn  Sn31  1  0.83507379  0.83385782  0.50054563  1
  Sn  Sn32  1  0.50040880  0.49983460  0.50072373  1
  Sn  Sn33  1  0.16485828  0.83356501  0.50034831  1
  Sn  Sn34  1  0.16598977  0.83418663  0.16642644  1
  Sn  Sn35  1  0.83359852  0.16655659  0.83359040  1
  Sn  Sn36  1  0.83417107  0.16620601  0.16609724  1
  Sn  Sn37  1  0.49972663  0.16702804  0.50012636  1
  Sn  Sn38  1  0.16660707  0.83359336  0.83324201  1
  Sn  Sn39  1  0.83352615  0.16599478  0.50036693  1
  Pb  Pb40  1  0.49676831  0.83407651  0.16654221  1
  Pb  Pb41  1  0.83041276  0.50042783  0.50012337  1
  Pb  Pb42  1  0.83633937  0.83627181  0.83059551  1
  Pb  Pb43  1  0.49710125  0.83052370  0.83338885  1
  Pb  Pb44  1  0.49998475  0.83327500  0.50003542  1
  Pb  Pb45  1  0.16619602  0.49941011  0.16658887  1
  Pb  Pb46  1  0.16818924  0.49951141  0.83337391  1
  Pb  Pb47  1  0.83358311  0.49623029  0.16661527  1
  Pb  Pb48  1  0.49955289  0.16611073  0.16959030  1
  Pb  Pb49  1  0.16864546  0.50020383  0.49996836  1
  Pb  Pb50  1  0.83023090  0.49665295  0.83336269  1
  Pb  Pb51  1  0.49964774  0.16734716  0.83105084  1
  Pb  Pb52  1  0.83688538  0.83672296  0.16934143  1
  Pb  Pb53  1  0.50035058  0.50016720  0.16681852  1
  I  I54  1  0.16290656  0.00153447  0.16806000  1
  I  I55  1  0.16970946  0.00161750  0.49966726  1
  I  I56  1  0.16380249  0.00149400  0.83258876  1
  I  I57  1  0.16320624  0.32902677  0.16730236  1
  I  I58  1  0.16287605  0.32940434  0.49982501  1
  I  I59  1  0.16271128  0.32942326  0.83269315  1
  I  I60  1  0.17148121  0.66996512  0.16866843  1
  I  I61  1  0.16272979  0.67029044  0.49955057  1
  I  I62  1  0.17116220  0.66976871  0.83171502  1
  I  I63  1  0.50387443  0.00039957  0.16782480  1
  I  I64  1  0.49972749  0.00293457  0.49886506  1
  I  I65  1  0.50256978  -0.00014949  0.83288463  1
  I  I66  1  0.49684988  0.33293217  0.16458289  1
  I  I67  1  0.49920478  0.33175214  0.50415110  1
  I  I68  1  0.49719141  0.33508643  0.82992565  1
  I  I69  1  0.49653445  0.66669895  0.17159526  1
  I  I70  1  0.49763335  0.66402765  0.50550646  1
  I  I71  1  0.49615525  0.66287920  0.82007273  1
  I  I72  1  0.83525171  0.00417792  0.16536832  1
  I  I73  1  0.83094840  0.00240359  0.49941870  1
  I  I74  1  0.83287977  0.00417837  0.83525461  1
  I  I75  1  0.84176745  0.32787353  0.17198425  1
  I  I76  1  0.83747197  0.32946206  0.49909632  1
  I  I77  1  0.84386451  0.32850591  0.82888838  1
  I  I78  1  0.83273475  0.66731061  0.16862891  1
  I  I79  1  0.84055590  0.66984874  0.50040909  1
  I  I80  1  0.83456362  0.66684867  0.83133129  1
  I  I81  1  0.15865408  0.16007914  -0.00016561  1
  I  I82  1  0.16514682  0.16085218  0.33415929  1
  I  I83  1  0.16483248  0.16061851  0.66604560  1
  I  I84  1  0.17382282  0.49895259  -0.00016318  1
  I  I85  1  0.17163202  0.49969360  0.33351386  1
  I  I86  1  0.16591919  0.49994495  0.66655367  1
  I  I87  1  0.17174465  0.84325707  -0.00006653  1
  I  I88  1  0.16440818  0.84201267  0.33424008  1
  I  I89  1  0.16458768  0.84225428  0.66589048  1
  I  I90  1  0.49996721  0.17118633  0.00002660  1
  I  I91  1  0.49939049  0.17476755  0.33773041  1
  I  I92  1  0.49940810  0.16875472  0.66322209  1
  I  I93  1  0.49527690  0.49635141  -0.00287501  1
  I  I94  1  0.49888639  0.49392891  0.33653258  1
  I  I95  1  0.49795720  0.49327694  0.66545583  1
  I  I96  1  0.50041014  0.83087757  -0.00023534  1
  I  I97  1  0.49809125  0.82945458  0.33383617  1
  I  I98  1  0.49670028  0.83573586  0.66633950  1
  I  I99  1  0.84432477  0.17057044  -0.00013981  1
  I  I100  1  0.83623329  0.16325259  0.33450143  1
  I  I101  1  0.83668531  0.16330402  0.66567106  1
  I  I102  1  0.82997305  0.50140721  -0.00021832  1
  I  I103  1  0.83006412  0.49829336  0.33371891  1
  I  I104  1  0.83660899  0.49692055  0.66652510  1
  I  I105  1  0.83181301  0.83174283  0.00008120  1
  I  I106  1  0.83706392  0.84009386  0.33683928  1
  I  I107  1  0.83847230  0.84130630  0.66321375  1
  I  I108  1  0.00121150  0.16246954  0.17249969  1
  I  I109  1  0.00029314  0.16135468  0.49941739  1
  I  I110  1  0.00110047  0.16302529  0.82823988  1
  I  I111  1  -0.00009761  0.50344598  0.16651130  1
  I  I112  1  -0.00033015  0.49755133  0.49874965  1
  I  I113  1  -0.00036434  0.50273099  0.83528995  1
  I  I114  1  0.00421594  0.83696445  0.16360078  1
  I  I115  1  0.00138319  0.84572361  0.49937223  1
  I  I116  1  0.00409447  0.83468804  0.83688042  1
  I  I117  1  0.32959339  0.16293304  0.16564820  1
  I  I118  1  0.33193760  0.16634499  0.50013439  1
  I  I119  1  0.32979585  0.16355342  0.83373824  1
  I  I120  1  0.33344019  0.49786545  0.16677140  1
  I  I121  1  0.33618227  0.49381185  0.50402777  1
  I  I122  1  0.33577399  0.49681909  0.82718720  1
  I  I123  1  0.32812513  0.84137577  0.17221831  1
  I  I124  1  0.32987357  0.83762126  0.49923736  1
  I  I125  1  0.32873532  0.84376593  0.82865536  1
  I  I126  1  0.66963648  0.17074893  0.16679594  1
  I  I127  1  0.66756342  0.16702977  0.49997021  1
  I  I128  1  0.66943507  0.17136761  0.83251879  1
  I  I129  1  0.66669600  0.49793870  0.16810484  1
  I  I130  1  0.66317602  0.49185877  0.50538095  1
  I  I131  1  0.66295809  0.49619903  0.82351187  1
  I  I132  1  0.66748127  0.83184965  0.16868107  1
  I  I133  1  0.66941876  0.83933526  0.50054348  1
  I  I134  1  0.66705022  0.83389122  0.83099491  1
