# generated using pymatgen
data_Cs27Sn13Pb14I81
_symmetry_space_group_name_H-M   'P 1'
_cell_length_a   18.97243777
_cell_length_b   18.97810349
_cell_length_c   18.98086787
_cell_angle_alpha   89.99926395
_cell_angle_beta   89.99835767
_cell_angle_gamma   90.00136078
_symmetry_Int_Tables_number   1
_chemical_formula_structural   Cs27Sn13Pb14I81
_chemical_formula_sum   'Cs27 Sn13 Pb14 I81'
_cell_volume   6834.26812203
_cell_formula_units_Z   1
loop_
 _symmetry_equiv_pos_site_id
 _symmetry_equiv_pos_as_xyz
  1  'x, y, z'
loop_
 _atom_site_type_symbol
 _atom_site_label
 _atom_site_symmetry_multiplicity
 _atom_site_fract_x
 _atom_site_fract_y
 _atom_site_fract_z
 _atom_site_occupancy
  Cs  Cs0  1  -0.00016431  -0.00186405  0.00095291  1
  Cs  Cs1  1  0.00400511  0.00977339  0.33453475  1
  Cs  Cs2  1  0.00284551  -0.00063643  0.66592558  1
  Cs  Cs3  1  0.00015172  0.33316105  0.00042890  1
  Cs  Cs4  1  0.00113577  0.32167738  0.33433746  1
  Cs  Cs5  1  -0.00020420  0.33626393  0.66546174  1
  Cs  Cs6  1  -0.00122730  0.66861320  -0.00047141  1
  Cs  Cs7  1  0.00019697  0.66860652  0.32741262  1
  Cs  Cs8  1  -0.00057438  0.66394010  0.66889803  1
  Cs  Cs9  1  0.33686509  -0.00103564  -0.00229536  1
  Cs  Cs10  1  0.32938001  -0.00013982  0.33828783  1
  Cs  Cs11  1  0.33276986  -0.00081333  0.66487355  1
  Cs  Cs12  1  0.33439343  0.33542961  -0.00141863  1
  Cs  Cs13  1  0.33263972  0.33741453  0.33057131  1
  Cs  Cs14  1  0.33193927  0.33261121  0.67032597  1
  Cs  Cs15  1  0.33080953  0.66510693  0.00174046  1
  Cs  Cs16  1  0.33488372  0.66296845  0.33433012  1
  Cs  Cs17  1  0.33193389  0.66770076  0.66418999  1
  Cs  Cs18  1  0.66620072  -0.00011412  0.00002172  1
  Cs  Cs19  1  0.66768244  -0.00066721  0.33148493  1
  Cs  Cs20  1  0.66424953  -0.00113162  0.66888109  1
  Cs  Cs21  1  0.66509639  0.33183863  -0.00174686  1
  Cs  Cs22  1  0.66712907  0.33397699  0.33615185  1
  Cs  Cs23  1  0.66884114  0.33536878  0.66677653  1
  Cs  Cs24  1  0.66893051  0.66856428  0.00045353  1
  Cs  Cs25  1  0.66372441  0.66694681  0.33347523  1
  Cs  Cs26  1  0.66844712  0.66576603  0.66400080  1
  Sn  Sn27  1  0.49957436  0.50162035  0.83324474  1
  Sn  Sn28  1  0.50038357  0.83408973  0.16610342  1
  Sn  Sn29  1  0.83331971  0.49992116  0.16682114  1
  Sn  Sn30  1  0.16629290  0.50027658  0.50029406  1
  Sn  Sn31  1  0.83360425  0.83342218  0.49972554  1
  Sn  Sn32  1  0.50029911  0.16675124  0.49881323  1
  Sn  Sn33  1  0.16546306  0.16715471  0.83358296  1
  Sn  Sn34  1  0.50005655  0.16584081  0.16810455  1
  Sn  Sn35  1  0.83441614  0.16581647  0.83323222  1
  Sn  Sn36  1  0.83251080  0.83422873  0.83300100  1
  Sn  Sn37  1  0.16735854  0.49946540  0.83273481  1
  Sn  Sn38  1  0.83265498  0.83287271  0.16706785  1
  Sn  Sn39  1  0.50070496  0.83188980  0.83387178  1
  Pb  Pb40  1  0.16893121  0.16871001  0.50247900  1
  Pb  Pb41  1  0.83351817  0.50033784  0.83456118  1
  Pb  Pb42  1  0.50003244  0.16624616  0.83350998  1
  Pb  Pb43  1  0.50153521  0.83467861  0.49985699  1
  Pb  Pb44  1  0.16387674  0.49986041  0.16625083  1
  Pb  Pb45  1  0.16377841  0.83094466  0.49993172  1
  Pb  Pb46  1  0.16687024  0.83298623  0.83342941  1
  Pb  Pb47  1  0.83146522  0.16450944  0.50275713  1
  Pb  Pb48  1  0.49851575  0.49791977  0.50262608  1
  Pb  Pb49  1  0.83147887  0.16604094  0.16469830  1
  Pb  Pb50  1  0.17004355  0.16652233  0.16376119  1
  Pb  Pb51  1  0.50186854  0.50048330  0.16467909  1
  Pb  Pb52  1  0.83565167  0.50196657  0.49695329  1
  Pb  Pb53  1  0.16710344  0.83356560  0.16678922  1
  I  I54  1  0.16168137  0.00021864  0.16507312  1
  I  I55  1  0.16692860  0.00032605  0.50129560  1
  I  I56  1  0.16623076  0.00243200  0.83413086  1
  I  I57  1  0.16582004  0.33326149  0.16729533  1
  I  I58  1  0.16605317  0.33639198  0.50350742  1
  I  I59  1  0.16780769  0.33392150  0.83001802  1
  I  I60  1  0.16955753  0.66647059  0.16420852  1
  I  I61  1  0.16797070  0.66319994  0.50858791  1
  I  I62  1  0.16760379  0.66369357  0.82998505  1
  I  I63  1  0.50654146  -0.00122592  0.16234240  1
  I  I64  1  0.50050670  0.00257064  0.50265907  1
  I  I65  1  0.50156586  -0.00254623  0.83462404  1
  I  I66  1  0.50170899  0.33117606  0.16718821  1
  I  I67  1  0.50047108  0.33005039  0.49605550  1
  I  I68  1  0.49931068  0.33497110  0.83369132  1
  I  I69  1  0.50307309  0.66980239  0.16327316  1
  I  I70  1  0.49948740  0.66660605  0.49864062  1
  I  I71  1  0.50063685  0.66775276  0.83853453  1
  I  I72  1  0.83006179  -0.00337857  0.16632111  1
  I  I73  1  0.83255771  -0.00347941  0.49564136  1
  I  I74  1  0.83202782  -0.00138117  0.83561810  1
  I  I75  1  0.83205185  0.33503872  0.16262622  1
  I  I76  1  0.83296857  0.33318657  0.50017976  1
  I  I77  1  0.83254633  0.33138337  0.83619833  1
  I  I78  1  0.82876186  0.66871168  0.16355934  1
  I  I79  1  0.83218257  0.67003019  0.50641300  1
  I  I80  1  0.83225672  0.66976070  0.83299540  1
  I  I81  1  0.16464405  0.17346599  -0.00426374  1
  I  I82  1  0.16540275  0.16843423  0.33349156  1
  I  I83  1  0.16613715  0.16822316  0.67042784  1
  I  I84  1  0.17016566  0.49620116  -0.00344094  1
  I  I85  1  0.16568778  0.50190685  0.33578178  1
  I  I86  1  0.16980848  0.49618610  0.66860770  1
  I  I87  1  0.16264279  0.83106382  -0.00028437  1
  I  I88  1  0.16729392  0.83024426  0.33343585  1
  I  I89  1  0.16723128  0.83552136  0.66697654  1
  I  I90  1  0.50043826  0.16519156  0.00175992  1
  I  I91  1  0.50161533  0.16095318  0.33237297  1
  I  I92  1  0.49983864  0.16672211  0.66545696  1
  I  I93  1  0.49452566  0.49823042  -0.00344542  1
  I  I94  1  0.49841882  0.50168420  0.33326361  1
  I  I95  1  0.50008171  0.50321922  0.67092233  1
  I  I96  1  0.50781656  0.83620328  -0.00051670  1
  I  I97  1  0.50521079  0.83579801  0.33028433  1
  I  I98  1  0.50439854  0.83238279  0.66976139  1
  I  I99  1  0.83362346  0.16198774  -0.00336078  1
  I  I100  1  0.83383926  0.16641581  0.33330546  1
  I  I101  1  0.83319797  0.16264861  0.67083271  1
  I  I102  1  0.83415455  0.50587001  0.00209677  1
  I  I103  1  0.83286263  0.50613315  0.32940033  1
  I  I104  1  0.83174196  0.50071175  0.66674517  1
  I  I105  1  0.82908189  0.83309118  -0.00038264  1
  I  I106  1  0.82828998  0.82640315  0.33205466  1
  I  I107  1  0.82915371  0.83787605  0.66827508  1
  I  I108  1  -0.00013958  0.16668784  0.16688236  1
  I  I109  1  0.00000711  0.16630572  0.49950602  1
  I  I110  1  -0.00045116  0.16682233  0.83340065  1
  I  I111  1  -0.00384138  0.50811509  0.16283805  1
  I  I112  1  0.00310268  0.50078829  0.50960536  1
  I  I113  1  0.00241489  0.49871963  0.83119541  1
  I  I114  1  -0.00394189  0.82774573  0.16364432  1
  I  I115  1  -0.00456645  0.83344120  0.50175649  1
  I  I116  1  -0.00337237  0.83403975  0.83472527  1
  I  I117  1  0.33808916  0.16133044  0.16753716  1
  I  I118  1  0.33668147  0.16475252  0.49914231  1
  I  I119  1  0.33153922  0.16856167  0.83348975  1
  I  I120  1  0.33342784  0.50031263  0.16714855  1
  I  I121  1  0.33050282  0.50003272  0.50195383  1
  I  I122  1  0.33325214  0.49820639  0.83129193  1
  I  I123  1  0.33746518  0.83712322  0.15985453  1
  I  I124  1  0.33350900  0.83438402  0.50078035  1
  I  I125  1  0.33668886  0.83362209  0.83832161  1
  I  I126  1  0.66358673  0.16494314  0.16556077  1
  I  I127  1  0.66370622  0.16716328  0.49960094  1
  I  I128  1  0.66862199  0.16549756  0.83392163  1
  I  I129  1  0.66953100  0.50251034  0.16343423  1
  I  I130  1  0.66681313  0.49926609  0.50148077  1
  I  I131  1  0.66448590  0.49965232  0.83606377  1
  I  I132  1  0.66708750  0.83333396  0.16424956  1
  I  I133  1  0.66965957  0.83323748  0.50132664  1
  I  I134  1  0.66707670  0.83424217  0.83460069  1
