# generated using pymatgen
data_Cs27Sn13Pb14I81
_symmetry_space_group_name_H-M   'P 1'
_cell_length_a   19.00215424
_cell_length_b   18.98870139
_cell_length_c   18.98370061
_cell_angle_alpha   90.00717759
_cell_angle_beta   90.00146105
_cell_angle_gamma   89.99954333
_symmetry_Int_Tables_number   1
_chemical_formula_structural   Cs27Sn13Pb14I81
_chemical_formula_sum   'Cs27 Sn13 Pb14 I81'
_cell_volume   6849.81711610
_cell_formula_units_Z   1
loop_
 _symmetry_equiv_pos_site_id
 _symmetry_equiv_pos_as_xyz
  1  'x, y, z'
loop_
 _atom_site_type_symbol
 _atom_site_label
 _atom_site_symmetry_multiplicity
 _atom_site_fract_x
 _atom_site_fract_y
 _atom_site_fract_z
 _atom_site_occupancy
  Cs  Cs0  1  0.00003889  0.00024634  0.00154666  1
  Cs  Cs1  1  0.00114168  0.00012839  0.33311887  1
  Cs  Cs2  1  0.00095828  -0.00115319  0.66699366  1
  Cs  Cs3  1  -0.00073814  0.33349918  0.00127411  1
  Cs  Cs4  1  -0.00461607  0.33092629  0.33166526  1
  Cs  Cs5  1  -0.00033778  0.33455358  0.66666318  1
  Cs  Cs6  1  -0.00100763  0.66567157  -0.00018845  1
  Cs  Cs7  1  -0.00006116  0.66926831  0.33047385  1
  Cs  Cs8  1  0.00381496  0.66557256  0.66973030  1
  Cs  Cs9  1  0.34411978  0.00355143  -0.00135389  1
  Cs  Cs10  1  0.32991408  -0.00190234  0.33722393  1
  Cs  Cs11  1  0.33433111  0.00167768  0.66398013  1
  Cs  Cs12  1  0.33708140  0.32911271  0.00123462  1
  Cs  Cs13  1  0.33570095  0.33587843  0.33183444  1
  Cs  Cs14  1  0.33103526  0.33339439  0.66696873  1
  Cs  Cs15  1  0.33273389  0.66799070  0.00084074  1
  Cs  Cs16  1  0.33543002  0.66650079  0.33293672  1
  Cs  Cs17  1  0.32532311  0.66320228  0.66639613  1
  Cs  Cs18  1  0.65575707  0.00087695  -0.00409308  1
  Cs  Cs19  1  0.66934448  -0.00060784  0.33537336  1
  Cs  Cs20  1  0.66388292  -0.00061395  0.66745689  1
  Cs  Cs21  1  0.66544376  0.33361508  -0.00210779  1
  Cs  Cs22  1  0.67053588  0.33613937  0.33423215  1
  Cs  Cs23  1  0.66915267  0.33469334  0.66744526  1
  Cs  Cs24  1  0.66792414  0.66638755  0.00105013  1
  Cs  Cs25  1  0.66498524  0.66537000  0.33195428  1
  Cs  Cs26  1  0.66901958  0.66538363  0.66710167  1
  Sn  Sn27  1  0.16584749  0.50054458  0.16676009  1
  Sn  Sn28  1  0.16607521  0.83289781  0.16693975  1
  Sn  Sn29  1  0.50049472  0.50045409  0.83310610  1
  Sn  Sn30  1  0.83434555  0.50070546  0.16585452  1
  Sn  Sn31  1  0.16703494  0.16636351  0.50063867  1
  Sn  Sn32  1  0.16564169  0.16627794  0.83291934  1
  Sn  Sn33  1  0.83428551  0.16685954  0.83339578  1
  Sn  Sn34  1  0.83388571  0.83308065  0.16705096  1
  Sn  Sn35  1  0.83377954  0.83300027  0.49952919  1
  Sn  Sn36  1  0.16640125  0.83385588  0.49937388  1
  Sn  Sn37  1  0.49954593  0.16663232  0.49976936  1
  Sn  Sn38  1  0.49976799  0.83348214  0.50014233  1
  Sn  Sn39  1  0.83290354  0.49927441  0.83408281  1
  Pb  Pb40  1  0.50000394  0.16852182  0.83084040  1
  Pb  Pb41  1  0.49977196  0.83037867  0.83012091  1
  Pb  Pb42  1  0.16612616  0.49765244  0.83601894  1
  Pb  Pb43  1  0.50017704  0.16665365  0.17062962  1
  Pb  Pb44  1  0.16636527  0.49962923  0.49711856  1
  Pb  Pb45  1  0.50043457  0.50017938  0.16453557  1
  Pb  Pb46  1  0.83365266  0.50274275  0.49987260  1
  Pb  Pb47  1  0.83374144  0.16433935  0.50211381  1
  Pb  Pb48  1  0.16672827  0.16599701  0.16711746  1
  Pb  Pb49  1  0.50002040  0.83341424  0.16904694  1
  Pb  Pb50  1  0.83344904  0.83326192  0.83415726  1
  Pb  Pb51  1  0.83311289  0.16587281  0.16394468  1
  Pb  Pb52  1  0.49995152  0.49992612  0.50222388  1
  Pb  Pb53  1  0.16674158  0.83605746  0.83420883  1
  I  I54  1  0.16068821  -0.00341632  0.16930129  1
  I  I55  1  0.16743849  -0.00090820  0.49807463  1
  I  I56  1  0.16011455  0.00393101  0.83277319  1
  I  I57  1  0.16202246  0.33581017  0.16584814  1
  I  I58  1  0.17273443  0.32996072  0.50326465  1
  I  I59  1  0.16545506  0.33002276  0.82738883  1
  I  I60  1  0.16271083  0.66764084  0.17204090  1
  I  I61  1  0.16795779  0.67006825  0.49876555  1
  I  I62  1  0.16639219  0.66656841  0.82961462  1
  I  I63  1  0.50036661  -0.00023193  0.16047893  1
  I  I64  1  0.49881078  -0.00063755  0.50093703  1
  I  I65  1  0.50091691  0.00023938  0.83555814  1
  I  I66  1  0.49858039  0.33368657  0.16922246  1
  I  I67  1  0.49365651  0.33029963  0.50181507  1
  I  I68  1  0.50209127  0.33602267  0.83117581  1
  I  I69  1  0.49926757  0.66676632  0.16915276  1
  I  I70  1  0.49923588  0.67002348  0.50061906  1
  I  I71  1  0.50799380  0.66281435  0.83258118  1
  I  I72  1  0.83939253  -0.00372731  0.17143773  1
  I  I73  1  0.83351463  -0.00369348  0.49508810  1
  I  I74  1  0.83800554  0.00254734  0.83162406  1
  I  I75  1  0.83797224  0.33639862  0.16458057  1
  I  I76  1  0.83215118  0.33324514  0.49748019  1
  I  I77  1  0.83295468  0.33415772  0.83814875  1
  I  I78  1  0.83760857  0.66662581  0.16474147  1
  I  I79  1  0.83312388  0.67103672  0.50131918  1
  I  I80  1  0.82872071  0.66379409  0.83403162  1
  I  I81  1  0.16140678  0.16819573  -0.00251611  1
  I  I82  1  0.17168655  0.16465328  0.33659413  1
  I  I83  1  0.16696258  0.16139524  0.66564744  1
  I  I84  1  0.16493726  0.50604927  0.00354210  1
  I  I85  1  0.16043236  0.49937949  0.32937000  1
  I  I86  1  0.16676187  0.50271089  0.66682614  1
  I  I87  1  0.15911181  0.82927777  0.00366556  1
  I  I88  1  0.16601395  0.83552302  0.33434153  1
  I  I89  1  0.16623844  0.83536735  0.66339784  1
  I  I90  1  0.49900250  0.16746880  -0.00057091  1
  I  I91  1  0.49243617  0.16283050  0.33870285  1
  I  I92  1  0.49817254  0.16148092  0.66337687  1
  I  I93  1  0.50181432  0.49791555  -0.00326567  1
  I  I94  1  0.50059053  0.49909505  0.33338915  1
  I  I95  1  0.50753585  0.50015433  0.66991720  1
  I  I96  1  0.50036315  0.83331312  -0.00001769  1
  I  I97  1  0.49983607  0.83667345  0.33720529  1
  I  I98  1  0.50079772  0.83860640  0.66195875  1
  I  I99  1  0.84059537  0.16691581  -0.00401204  1
  I  I100  1  0.83291275  0.17009058  0.33344882  1
  I  I101  1  0.83455638  0.17217411  0.66987704  1
  I  I102  1  0.83341062  0.50244781  0.00021339  1
  I  I103  1  0.83730313  0.50159593  0.33001681  1
  I  I104  1  0.82849975  0.49723957  0.66969952  1
  I  I105  1  0.84046457  0.83137182  0.00340879  1
  I  I106  1  0.83371115  0.82817926  0.33328583  1
  I  I107  1  0.83355889  0.83411680  0.66388481  1
  I  I108  1  -0.00003976  0.16742871  0.17078827  1
  I  I109  1  0.00289375  0.16219751  0.50207125  1
  I  I110  1  0.00003803  0.17228270  0.82703833  1
  I  I111  1  -0.00101109  0.50457648  0.16072188  1
  I  I112  1  -0.00001413  0.49868208  0.50615117  1
  I  I113  1  -0.00290209  0.49782554  0.83554726  1
  I  I114  1  -0.00002891  0.82858285  0.17603839  1
  I  I115  1  0.00073417  0.83755923  0.49558859  1
  I  I116  1  0.00001886  0.82995683  0.82689573  1
  I  I117  1  0.33299335  0.16792850  0.15945450  1
  I  I118  1  0.33220158  0.15749958  0.50636063  1
  I  I119  1  0.33096767  0.16796607  0.83167645  1
  I  I120  1  0.33042480  0.50425882  0.16662906  1
  I  I121  1  0.33311406  0.50431813  0.50071544  1
  I  I122  1  0.33492515  0.49897677  0.83288052  1
  I  I123  1  0.32998313  0.82873381  0.17071245  1
  I  I124  1  0.33232416  0.83817555  0.49637815  1
  I  I125  1  0.33321308  0.83238097  0.83489383  1
  I  I126  1  0.66693789  0.16692663  0.16586408  1
  I  I127  1  0.66455638  0.16155613  0.50166154  1
  I  I128  1  0.66904872  0.16881626  0.83275449  1
  I  I129  1  0.67027612  0.50476668  0.16491030  1
  I  I130  1  0.66685299  0.49989142  0.49622630  1
  I  I131  1  0.66860899  0.49408486  0.83798388  1
  I  I132  1  0.67001312  0.82823824  0.17082007  1
  I  I133  1  0.66689146  0.83716933  0.49678069  1
  I  I134  1  0.66679364  0.83853457  0.83274130  1
