# generated using pymatgen
data_Cs27Sn14Pb13I81
_symmetry_space_group_name_H-M   'P 1'
_cell_length_a   18.96344612
_cell_length_b   18.95695184
_cell_length_c   18.96291725
_cell_angle_alpha   89.99878643
_cell_angle_beta   89.99754429
_cell_angle_gamma   90.00108151
_symmetry_Int_Tables_number   1
_chemical_formula_structural   Cs27Sn14Pb13I81
_chemical_formula_sum   'Cs27 Sn14 Pb13 I81'
_cell_volume   6816.96270586
_cell_formula_units_Z   1
loop_
 _symmetry_equiv_pos_site_id
 _symmetry_equiv_pos_as_xyz
  1  'x, y, z'
loop_
 _atom_site_type_symbol
 _atom_site_label
 _atom_site_symmetry_multiplicity
 _atom_site_fract_x
 _atom_site_fract_y
 _atom_site_fract_z
 _atom_site_occupancy
  Cs  Cs0  1  -0.00053405  -0.00184636  -0.00017022  1
  Cs  Cs1  1  0.00055901  0.00037428  0.33391745  1
  Cs  Cs2  1  0.00018364  0.00029831  0.66594806  1
  Cs  Cs3  1  0.00065982  0.34189498  -0.00064422  1
  Cs  Cs4  1  -0.00031415  0.33349760  0.33401730  1
  Cs  Cs5  1  -0.00139048  0.33299725  0.66620069  1
  Cs  Cs6  1  0.00083446  0.66291973  -0.00046859  1
  Cs  Cs7  1  -0.00125825  0.66693416  0.33196550  1
  Cs  Cs8  1  -0.00057903  0.66612424  0.66831826  1
  Cs  Cs9  1  0.33356945  -0.00077608  -0.00142897  1
  Cs  Cs10  1  0.32948191  -0.00192560  0.33581506  1
  Cs  Cs11  1  0.33276626  -0.00006128  0.66667784  1
  Cs  Cs12  1  0.33620202  0.33539871  0.00244875  1
  Cs  Cs13  1  0.33294731  0.33523325  0.33158883  1
  Cs  Cs14  1  0.33153213  0.32797734  0.66752513  1
  Cs  Cs15  1  0.33131571  0.66752752  -0.00108458  1
  Cs  Cs16  1  0.33602571  0.66641032  0.33412981  1
  Cs  Cs17  1  0.33498408  0.66833592  0.66682006  1
  Cs  Cs18  1  0.66723302  0.00212935  0.00092768  1
  Cs  Cs19  1  0.67002099  -0.00021916  0.33250557  1
  Cs  Cs20  1  0.66735337  -0.00030776  0.66777777  1
  Cs  Cs21  1  0.66244064  0.32967472  0.00805506  1
  Cs  Cs22  1  0.66504644  0.33937485  0.32754034  1
  Cs  Cs23  1  0.66909773  0.33293400  0.66657663  1
  Cs  Cs24  1  0.66899715  0.66842463  -0.00092295  1
  Cs  Cs25  1  0.66469518  0.65922944  0.33609788  1
  Cs  Cs26  1  0.66564356  0.66511449  0.66421143  1
  Sn  Sn27  1  0.16743949  0.83416174  0.16638490  1
  Sn  Sn28  1  0.83353233  0.83416519  0.83235088  1
  Sn  Sn29  1  0.83195886  0.16575131  0.50053620  1
  Sn  Sn30  1  0.16579971  0.83214141  0.50022788  1
  Sn  Sn31  1  0.50145499  0.16638836  0.49975223  1
  Sn  Sn32  1  0.50011945  0.83250546  0.83406333  1
  Sn  Sn33  1  0.83400802  0.83408063  0.50076580  1
  Sn  Sn34  1  0.16631838  0.16580486  0.16503358  1
  Sn  Sn35  1  0.83429748  0.16596895  0.83289235  1
  Sn  Sn36  1  0.49956243  0.83379461  0.16619745  1
  Sn  Sn37  1  0.16639592  0.83397887  0.83345547  1
  Sn  Sn38  1  0.50009121  0.50047846  0.83303261  1
  Sn  Sn39  1  0.16567086  0.16598549  0.83466642  1
  Sn  Sn40  1  0.16660419  0.50137474  0.50049341  1
  Pb  Pb41  1  0.83604043  0.16656694  0.16633860  1
  Pb  Pb42  1  0.50018386  0.16601133  0.83234531  1
  Pb  Pb43  1  0.16590669  0.16602080  0.50022925  1
  Pb  Pb44  1  0.16834151  0.49989769  0.83155823  1
  Pb  Pb45  1  0.16670911  0.50064009  0.16905859  1
  Pb  Pb46  1  0.83332288  0.50003579  0.16650998  1
  Pb  Pb47  1  0.83070421  0.49958673  0.83333669  1
  Pb  Pb48  1  0.83532626  0.50003124  0.50024197  1
  Pb  Pb49  1  0.49744080  0.16398701  0.16954579  1
  Pb  Pb50  1  0.83349128  0.83317268  0.16672989  1
  Pb  Pb51  1  0.50044605  0.83462795  0.50006855  1
  Pb  Pb52  1  0.49961364  0.50323124  0.16400077  1
  Pb  Pb53  1  0.49773095  0.49703529  0.50219115  1
  I  I54  1  0.17022380  -0.00149858  0.16840238  1
  I  I55  1  0.16632746  -0.00303543  0.49999659  1
  I  I56  1  0.16856571  -0.00126327  0.83125133  1
  I  I57  1  0.16538957  0.33035902  0.16454264  1
  I  I58  1  0.16798915  0.33453296  0.50065593  1
  I  I59  1  0.16447905  0.33008243  0.83428350  1
  I  I60  1  0.16969993  0.67074056  0.16408932  1
  I  I61  1  0.16259184  0.66958620  0.50044430  1
  I  I62  1  0.16452525  0.67026883  0.83536815  1
  I  I63  1  0.49762522  -0.00378811  0.15888321  1
  I  I64  1  0.49761964  0.00228526  0.50307070  1
  I  I65  1  0.49902290  -0.00335022  0.83517216  1
  I  I66  1  0.49881990  0.33312323  0.16615016  1
  I  I67  1  0.50250655  0.32931867  0.50314579  1
  I  I68  1  0.49839416  0.33473722  0.82858467  1
  I  I69  1  0.49288074  0.67129634  0.16728060  1
  I  I70  1  0.50155879  0.66687254  0.49812639  1
  I  I71  1  0.49854380  0.66940336  0.83579796  1
  I  I72  1  0.83143320  -0.00025202  0.16765319  1
  I  I73  1  0.83608770  -0.00056656  0.50430587  1
  I  I74  1  0.83281076  -0.00100592  0.82874134  1
  I  I75  1  0.83546881  0.33265389  0.16696064  1
  I  I76  1  0.83274573  0.32987131  0.50494336  1
  I  I77  1  0.83785366  0.32958558  0.82804849  1
  I  I78  1  0.83578167  0.66754810  0.16669027  1
  I  I79  1  0.83576135  0.67027242  0.50416768  1
  I  I80  1  0.83610327  0.67048490  0.82986847  1
  I  I81  1  0.16297695  0.15849152  -0.00141871  1
  I  I82  1  0.16792892  0.16320247  0.33166916  1
  I  I83  1  0.16700070  0.16371093  0.66922945  1
  I  I84  1  0.16766687  0.50119700  -0.00019097  1
  I  I85  1  0.16697112  0.50231538  0.33702727  1
  I  I86  1  0.16774975  0.50362676  0.66383653  1
  I  I87  1  0.16778725  0.83819270  -0.00100418  1
  I  I88  1  0.16736050  0.83461508  0.33359770  1
  I  I89  1  0.16715504  0.83410604  0.66731998  1
  I  I90  1  0.50196617  0.16904194  0.00012644  1
  I  I91  1  0.50302066  0.16453971  0.33719066  1
  I  I92  1  0.49737389  0.16387943  0.66450760  1
  I  I93  1  0.49811205  0.49949101  -0.00387535  1
  I  I94  1  0.49944612  0.50022941  0.33340201  1
  I  I95  1  0.49899951  0.50869320  0.66964545  1
  I  I96  1  0.49621983  0.83030056  -0.00144535  1
  I  I97  1  0.49525038  0.83740793  0.33128868  1
  I  I98  1  0.49700496  0.83185318  0.66963117  1
  I  I99  1  0.83446190  0.16093284  -0.00365088  1
  I  I100  1  0.83251198  0.16165284  0.33657814  1
  I  I101  1  0.83594241  0.16227958  0.66699576  1
  I  I102  1  0.83503325  0.50124118  -0.00073743  1
  I  I103  1  0.83359053  0.50054797  0.33396865  1
  I  I104  1  0.83358097  0.49995307  0.66678002  1
  I  I105  1  0.83451764  0.83729423  -0.00366590  1
  I  I106  1  0.83742154  0.83797306  0.33669218  1
  I  I107  1  0.83651284  0.83726148  0.66722239  1
  I  I108  1  0.00412037  0.15847775  0.16893715  1
  I  I109  1  -0.00248192  0.16534582  0.50114648  1
  I  I110  1  0.00042202  0.15898919  0.83012925  1
  I  I111  1  0.00070745  0.50189826  0.16623979  1
  I  I112  1  0.00336630  0.49955773  0.50123515  1
  I  I113  1  0.00007794  0.50159719  0.83241106  1
  I  I114  1  0.00353897  0.83722876  0.16575942  1
  I  I115  1  0.00070810  0.83568834  0.50257108  1
  I  I116  1  0.00065004  0.83809949  0.83223504  1
  I  I117  1  0.32941385  0.16418758  0.16246556  1
  I  I118  1  0.33433977  0.16609988  0.50117921  1
  I  I119  1  0.33065206  0.16333335  0.83323243  1
  I  I120  1  0.33313664  0.49739732  0.16772734  1
  I  I121  1  0.32997945  0.50523340  0.50061437  1
  I  I122  1  0.33600165  0.50458238  0.83149902  1
  I  I123  1  0.33191645  0.83686562  0.16397834  1
  I  I124  1  0.33054917  0.83285659  0.50213275  1
  I  I125  1  0.33235134  0.83367980  0.83318591  1
  I  I126  1  0.66654976  0.16608751  0.16484443  1
  I  I127  1  0.66819694  0.16006322  0.50715174  1
  I  I128  1  0.66938200  0.16314878  0.82896855  1
  I  I129  1  0.66597868  0.50098714  0.16757258  1
  I  I130  1  0.66654476  0.50220000  0.50038197  1
  I  I131  1  0.66307519  0.50556788  0.83157689  1
  I  I132  1  0.66399182  0.83290357  0.16268874  1
  I  I133  1  0.66947399  0.83705549  0.50343180  1
  I  I134  1  0.66695930  0.83348106  0.83300556  1
