# generated using pymatgen
data_Cs27Sn13Pb14I81
_symmetry_space_group_name_H-M   'P 1'
_cell_length_a   18.97094146
_cell_length_b   18.97584902
_cell_length_c   18.98143435
_cell_angle_alpha   90.00037077
_cell_angle_beta   90.00095798
_cell_angle_gamma   90.00043924
_symmetry_Int_Tables_number   1
_chemical_formula_structural   Cs27Sn13Pb14I81
_chemical_formula_sum   'Cs27 Sn13 Pb14 I81'
_cell_volume   6833.12125640
_cell_formula_units_Z   1
loop_
 _symmetry_equiv_pos_site_id
 _symmetry_equiv_pos_as_xyz
  1  'x, y, z'
loop_
 _atom_site_type_symbol
 _atom_site_label
 _atom_site_symmetry_multiplicity
 _atom_site_fract_x
 _atom_site_fract_y
 _atom_site_fract_z
 _atom_site_occupancy
  Cs  Cs0  1  0.00424946  -0.00345546  -0.00715553  1
  Cs  Cs1  1  -0.00212350  -0.00021659  0.33466587  1
  Cs  Cs2  1  0.00177850  -0.00068911  0.67042521  1
  Cs  Cs3  1  0.00082235  0.33804535  0.00255022  1
  Cs  Cs4  1  -0.00414543  0.33388655  0.33283145  1
  Cs  Cs5  1  0.00128361  0.33195457  0.66485119  1
  Cs  Cs6  1  -0.00234283  0.66659290  0.00264520  1
  Cs  Cs7  1  0.00357041  0.66827682  0.32641518  1
  Cs  Cs8  1  -0.00336357  0.66881916  0.67131303  1
  Cs  Cs9  1  0.33435996  0.00239327  -0.00093029  1
  Cs  Cs10  1  0.33232376  0.00008795  0.33532112  1
  Cs  Cs11  1  0.33107992  0.00120500  0.66577288  1
  Cs  Cs12  1  0.33449519  0.33329538  -0.00178677  1
  Cs  Cs13  1  0.33261354  0.33202453  0.33410235  1
  Cs  Cs14  1  0.33270556  0.33307414  0.66708933  1
  Cs  Cs15  1  0.33503800  0.66357405  0.00285588  1
  Cs  Cs16  1  0.33216154  0.66824917  0.33520857  1
  Cs  Cs17  1  0.33581732  0.66401125  0.66147331  1
  Cs  Cs18  1  0.66497541  -0.00046472  0.00209996  1
  Cs  Cs19  1  0.66961836  0.00096441  0.33065913  1
  Cs  Cs20  1  0.66647276  0.00047291  0.66716083  1
  Cs  Cs21  1  0.66523333  0.33178015  0.00184899  1
  Cs  Cs22  1  0.67537465  0.33027999  0.33443541  1
  Cs  Cs23  1  0.66836201  0.33421851  0.66469238  1
  Cs  Cs24  1  0.66633763  0.66875050  -0.00216606  1
  Cs  Cs25  1  0.66519637  0.66865077  0.33712952  1
  Cs  Cs26  1  0.66655364  0.66439212  0.66600516  1
  Sn  Sn27  1  0.49977810  0.16672018  0.50043726  1
  Sn  Sn28  1  0.50044058  0.83252987  0.16616301  1
  Sn  Sn29  1  0.83261548  0.83351262  0.16724244  1
  Sn  Sn30  1  0.49936318  0.49997298  0.83386318  1
  Sn  Sn31  1  0.16655357  0.49948239  0.50065197  1
  Sn  Sn32  1  0.16730861  0.16748957  0.49896744  1
  Sn  Sn33  1  0.50093164  0.16676158  0.83231522  1
  Sn  Sn34  1  0.83243534  0.16714320  0.83348712  1
  Sn  Sn35  1  0.83329500  0.83323391  0.49952048  1
  Sn  Sn36  1  0.49967648  0.83322403  0.83360669  1
  Sn  Sn37  1  0.16736713  0.50017379  0.83255631  1
  Sn  Sn38  1  0.16677823  0.16652496  0.16748362  1
  Sn  Sn39  1  0.50017946  0.50035722  0.16670587  1
  Pb  Pb40  1  0.16879179  0.49814042  0.16682291  1
  Pb  Pb41  1  0.17014509  0.82967894  0.83331475  1
  Pb  Pb42  1  0.50140816  0.83571974  0.49975520  1
  Pb  Pb43  1  0.49898749  0.16658610  0.16675634  1
  Pb  Pb44  1  0.16747734  0.83566645  0.16651459  1
  Pb  Pb45  1  0.83678735  0.50274876  0.49993531  1
  Pb  Pb46  1  0.83003465  0.50254606  0.16661585  1
  Pb  Pb47  1  0.83098178  0.83503138  0.83369883  1
  Pb  Pb48  1  0.49881573  0.49757165  0.49965564  1
  Pb  Pb49  1  0.83384601  0.16509092  0.50173509  1
  Pb  Pb50  1  0.16424310  0.83335005  0.50018437  1
  Pb  Pb51  1  0.16715126  0.16843889  0.83295463  1
  Pb  Pb52  1  0.83269005  0.49766070  0.83337187  1
  Pb  Pb53  1  0.83623582  0.16424189  0.16390651  1
  I  I54  1  0.16925719  0.00354097  0.17225037  1
  I  I55  1  0.16984025  0.00330942  0.49646250  1
  I  I56  1  0.16669555  0.00013504  0.83301071  1
  I  I57  1  0.16980330  0.33038969  0.16714651  1
  I  I58  1  0.17141452  0.33233477  0.50091474  1
  I  I59  1  0.17292907  0.33605463  0.83263406  1
  I  I60  1  0.16508843  0.66652298  0.16682230  1
  I  I61  1  0.16653795  0.66360028  0.50438294  1
  I  I62  1  0.17039184  0.66171618  0.82782427  1
  I  I63  1  0.50224392  -0.00261783  0.16323457  1
  I  I64  1  0.49405223  0.00364644  0.50440279  1
  I  I65  1  0.50503197  0.00051464  0.83412644  1
  I  I66  1  0.49538509  0.33542486  0.16208994  1
  I  I67  1  0.49792943  0.32960452  0.50419091  1
  I  I68  1  0.49897658  0.33335838  0.83426612  1
  I  I69  1  0.50263028  0.66712730  0.15830736  1
  I  I70  1  0.49934825  0.66662692  0.50218634  1
  I  I71  1  0.49558913  0.66635455  0.83848697  1
  I  I72  1  0.82504715  -0.00336731  0.17035285  1
  I  I73  1  0.83386494  -0.00256487  0.49667030  1
  I  I74  1  0.82895243  0.00291453  0.83311952  1
  I  I75  1  0.83265339  0.33302160  0.16584114  1
  I  I76  1  0.83154900  0.33310711  0.50150200  1
  I  I77  1  0.82767429  0.32975485  0.83178478  1
  I  I78  1  0.83399947  0.67074183  0.16879248  1
  I  I79  1  0.83190669  0.67054438  0.49771488  1
  I  I80  1  0.83369715  0.66686285  0.83316207  1
  I  I81  1  0.16737957  0.16708905  0.00142884  1
  I  I82  1  0.17303349  0.17119671  0.33489085  1
  I  I83  1  0.16798526  0.16880763  0.66414403  1
  I  I84  1  0.16985097  0.49725018  -0.00243136  1
  I  I85  1  0.16826792  0.49739671  0.33587959  1
  I  I86  1  0.17324387  0.49370272  0.66693814  1
  I  I87  1  0.16124142  0.83572672  -0.00012411  1
  I  I88  1  0.17083517  0.82970080  0.33333935  1
  I  I89  1  0.16490498  0.83858323  0.66680971  1
  I  I90  1  0.50110872  0.16650602  -0.00282743  1
  I  I91  1  0.49604252  0.16613377  0.33564373  1
  I  I92  1  0.49781740  0.16607448  0.66784125  1
  I  I93  1  0.49411019  0.49880288  -0.00149861  1
  I  I94  1  0.49727691  0.50462850  0.33080821  1
  I  I95  1  0.49750887  0.50217388  0.66965679  1
  I  I96  1  0.50551751  0.83468646  -0.00009324  1
  I  I97  1  0.50186003  0.83014997  0.33046189  1
  I  I98  1  0.50167653  0.83145985  0.66940367  1
  I  I99  1  0.82686208  0.16485833  -0.00352141  1
  I  I100  1  0.83109365  0.16634245  0.33321784  1
  I  I101  1  0.83271482  0.16322588  0.66949754  1
  I  I102  1  0.83948398  0.50139861  -0.00008898  1
  I  I103  1  0.83283683  0.49660399  0.33326793  1
  I  I104  1  0.82918696  0.50338837  0.66671010  1
  I  I105  1  0.83051410  0.83526949  0.00253884  1
  I  I106  1  0.82709698  0.83480036  0.33244063  1
  I  I107  1  0.83324968  0.83553820  0.66495036  1
  I  I108  1  0.00375317  0.16674109  0.17175246  1
  I  I109  1  0.00312074  0.16922914  0.49819881  1
  I  I110  1  -0.00156444  0.16668018  0.83344526  1
  I  I111  1  0.00023519  0.50061696  0.16563298  1
  I  I112  1  0.00479737  0.49184723  0.50625709  1
  I  I113  1  0.00284476  0.49649195  0.82884173  1
  I  I114  1  -0.00257787  0.83593116  0.17131955  1
  I  I115  1  -0.00354433  0.83525081  0.49401012  1
  I  I116  1  -0.00012473  0.83498210  0.83354502  1
  I  I117  1  0.33114276  0.16508235  0.16618502  1
  I  I118  1  0.33316107  0.16850030  0.50242781  1
  I  I119  1  0.33645560  0.16522143  0.83273558  1
  I  I120  1  0.33674331  0.50603227  0.16401389  1
  I  I121  1  0.33067941  0.49837472  0.50196435  1
  I  I122  1  0.33482846  0.49746083  0.83362884  1
  I  I123  1  0.33702643  0.83063123  0.16187349  1
  I  I124  1  0.33341645  0.83311198  0.49991051  1
  I  I125  1  0.33830582  0.84046472  0.83897564  1
  I  I126  1  0.66664819  0.16824989  0.16865828  1
  I  I127  1  0.66423068  0.16503773  0.50294249  1
  I  I128  1  0.66411805  0.16790728  0.82828947  1
  I  I129  1  0.66185497  0.49910852  0.15923993  1
  I  I130  1  0.66662446  0.49875935  0.50060463  1
  I  I131  1  0.66266220  0.50177352  0.83735314  1
  I  I132  1  0.66539431  0.83079053  0.16614968  1
  I  I133  1  0.66907436  0.83612999  0.49884033  1
  I  I134  1  0.66273735  0.82966698  0.83450391  1
