# generated using pymatgen
data_Cs27Sn14Pb13I81
_symmetry_space_group_name_H-M   'P 1'
_cell_length_a   18.97430977
_cell_length_b   18.97341773
_cell_length_c   18.98034575
_cell_angle_alpha   90.00051470
_cell_angle_beta   90.00056420
_cell_angle_gamma   89.99769658
_symmetry_Int_Tables_number   1
_chemical_formula_structural   Cs27Sn14Pb13I81
_chemical_formula_sum   'Cs27 Sn14 Pb13 I81'
_cell_volume   6833.06691915
_cell_formula_units_Z   1
loop_
 _symmetry_equiv_pos_site_id
 _symmetry_equiv_pos_as_xyz
  1  'x, y, z'
loop_
 _atom_site_type_symbol
 _atom_site_label
 _atom_site_symmetry_multiplicity
 _atom_site_fract_x
 _atom_site_fract_y
 _atom_site_fract_z
 _atom_site_occupancy
  Cs  Cs0  1  -0.00251536  0.00199893  0.00273704  1
  Cs  Cs1  1  0.00213345  0.00052828  0.33216372  1
  Cs  Cs2  1  -0.00134115  0.00000756  0.66563340  1
  Cs  Cs3  1  0.00043356  0.33309120  0.00107321  1
  Cs  Cs4  1  0.00106663  0.33251247  0.33257325  1
  Cs  Cs5  1  -0.00151617  0.33332993  0.66602156  1
  Cs  Cs6  1  -0.00107580  0.66496300  -0.00138507  1
  Cs  Cs7  1  0.00271906  0.66835375  0.33060272  1
  Cs  Cs8  1  0.00152426  0.66806882  0.66939763  1
  Cs  Cs9  1  0.33786102  -0.00157088  -0.00246740  1
  Cs  Cs10  1  0.33118446  0.00150901  0.33622102  1
  Cs  Cs11  1  0.33552982  -0.00130924  0.66443167  1
  Cs  Cs12  1  0.33219854  0.33297360  -0.00032066  1
  Cs  Cs13  1  0.33089480  0.33177948  0.33242242  1
  Cs  Cs14  1  0.33345682  0.33401616  0.66922900  1
  Cs  Cs15  1  0.34193701  0.67223506  -0.00846590  1
  Cs  Cs16  1  0.33523630  0.66693334  0.33207609  1
  Cs  Cs17  1  0.33035255  0.66634322  0.67503237  1
  Cs  Cs18  1  0.66732437  -0.00092931  -0.00136724  1
  Cs  Cs19  1  0.66662164  -0.00008061  0.33499741  1
  Cs  Cs20  1  0.66723424  0.00050686  0.66616962  1
  Cs  Cs21  1  0.66759291  0.33167503  -0.00004704  1
  Cs  Cs22  1  0.66672436  0.33554976  0.33605580  1
  Cs  Cs23  1  0.66726060  0.33616084  0.66353823  1
  Cs  Cs24  1  0.66479911  0.66893799  0.00454309  1
  Cs  Cs25  1  0.66201362  0.66541489  0.33316287  1
  Cs  Cs26  1  0.66777058  0.66517962  0.66265222  1
  Sn  Sn27  1  0.83298152  0.16755696  0.16621583  1
  Sn  Sn28  1  0.83412752  0.49895472  0.16620791  1
  Sn  Sn29  1  0.83295956  0.83350934  0.50015430  1
  Sn  Sn30  1  0.16585185  0.16644284  0.83334015  1
  Sn  Sn31  1  0.16690018  0.16701956  0.16634406  1
  Sn  Sn32  1  0.50014529  0.16683999  0.16759016  1
  Sn  Sn33  1  0.83410771  0.16704186  0.83377525  1
  Sn  Sn34  1  0.83345716  0.49963412  0.83415270  1
  Sn  Sn35  1  0.16639299  0.49965724  0.16683824  1
  Sn  Sn36  1  0.50066053  0.83387179  0.50001189  1
  Sn  Sn37  1  0.49937168  0.16639557  0.49922038  1
  Sn  Sn38  1  0.16653773  0.49930450  0.49936323  1
  Sn  Sn39  1  0.16737578  0.16752780  0.50034517  1
  Sn  Sn40  1  0.83351487  0.83343825  0.83248379  1
  Pb  Pb41  1  0.50347493  0.49972587  0.83349442  1
  Pb  Pb42  1  0.83570684  0.50256997  0.49910256  1
  Pb  Pb43  1  0.16408208  0.83647838  0.83362115  1
  Pb  Pb44  1  0.49667527  0.49974720  0.49992953  1
  Pb  Pb45  1  0.83347279  0.83303423  0.16679884  1
  Pb  Pb46  1  0.16689832  0.83310140  0.49994562  1
  Pb  Pb47  1  0.16686109  0.83281078  0.16631242  1
  Pb  Pb48  1  0.16486993  0.49789344  0.83420106  1
  Pb  Pb49  1  0.50043605  0.16684222  0.83291312  1
  Pb  Pb50  1  0.49990379  0.83626242  0.16924793  1
  Pb  Pb51  1  0.49952135  0.49751491  0.16663378  1
  Pb  Pb52  1  0.50306755  0.83356075  0.83041866  1
  Pb  Pb53  1  0.83353467  0.16547826  0.49967293  1
  I  I54  1  0.16432537  0.00440884  0.16880707  1
  I  I55  1  0.16715048  0.00342817  0.49891889  1
  I  I56  1  0.16104453  0.00506079  0.83282151  1
  I  I57  1  0.16498055  0.33170565  0.16832204  1
  I  I58  1  0.17099351  0.33138554  0.49883716  1
  I  I59  1  0.16056941  0.32956548  0.83258166  1
  I  I60  1  0.15837870  0.66255907  0.17440957  1
  I  I61  1  0.16439975  0.66366893  0.49435999  1
  I  I62  1  0.16508497  0.66638380  0.83162967  1
  I  I63  1  0.50043563  0.00489300  0.16742846  1
  I  I64  1  0.49816085  0.00146150  0.49600448  1
  I  I65  1  0.50181056  0.00039828  0.83598062  1
  I  I66  1  0.50077632  0.32905625  0.17400137  1
  I  I67  1  0.49867443  0.32986003  0.49610691  1
  I  I68  1  0.50266570  0.33271230  0.82969011  1
  I  I69  1  0.50102696  0.66658176  0.16791348  1
  I  I70  1  0.50503731  0.66938665  0.50103320  1
  I  I71  1  0.49911377  0.66691137  0.83131611  1
  I  I72  1  0.83441463  0.00347288  0.16391501  1
  I  I73  1  0.83410132  -0.00233672  0.50390951  1
  I  I74  1  0.83716730  0.00114795  0.83342487  1
  I  I75  1  0.83424213  0.33210498  0.15927825  1
  I  I76  1  0.83033430  0.33338121  0.50331462  1
  I  I77  1  0.83750067  0.33237245  0.83827167  1
  I  I78  1  0.83905835  0.66332843  0.16381630  1
  I  I79  1  0.82901256  0.67027172  0.50414709  1
  I  I80  1  0.83269039  0.66642517  0.83279696  1
  I  I81  1  0.16523250  0.17026493  0.00093764  1
  I  I82  1  0.16674455  0.16970277  0.33312631  1
  I  I83  1  0.16591590  0.16988163  0.66605544  1
  I  I84  1  0.16265288  0.49362281  0.00323661  1
  I  I85  1  0.16007004  0.49124220  0.33261172  1
  I  I86  1  0.16577572  0.49562516  0.66464406  1
  I  I87  1  0.16399435  0.83349355  -0.00016849  1
  I  I88  1  0.16269085  0.83801310  0.33354400  1
  I  I89  1  0.16762558  0.83309070  0.66659023  1
  I  I90  1  0.49794863  0.16864023  0.00290838  1
  I  I91  1  0.49730703  0.16255116  0.33352863  1
  I  I92  1  0.49682634  0.16226007  0.66338493  1
  I  I93  1  0.49484279  0.49800422  0.00025402  1
  I  I94  1  0.50659139  0.50245602  0.33337316  1
  I  I95  1  0.49996489  0.49687193  0.66635101  1
  I  I96  1  0.50040193  0.83374324  -0.00018205  1
  I  I97  1  0.50804193  0.83503521  0.33715495  1
  I  I98  1  0.50127597  0.84247624  0.66270857  1
  I  I99  1  0.83610451  0.16476098  0.00013153  1
  I  I100  1  0.83541942  0.16913773  0.33039685  1
  I  I101  1  0.83635683  0.16798281  0.66923052  1
  I  I102  1  0.83956564  0.50044877  0.00052532  1
  I  I103  1  0.83524757  0.49501918  0.33021927  1
  I  I104  1  0.83468634  0.49709683  0.66900548  1
  I  I105  1  0.83538257  0.83461063  -0.00281957  1
  I  I106  1  0.82973883  0.83483747  0.33603803  1
  I  I107  1  0.82979395  0.83483415  0.66712814  1
  I  I108  1  0.00000505  0.16966403  0.16624704  1
  I  I109  1  0.00273510  0.16829475  0.49815933  1
  I  I110  1  -0.00097425  0.16622857  0.83553307  1
  I  I111  1  -0.00039519  0.49163344  0.16717261  1
  I  I112  1  0.00320803  0.49296960  0.49893979  1
  I  I113  1  -0.00345078  0.50171835  0.83393931  1
  I  I114  1  -0.00028888  0.83919335  0.17044992  1
  I  I115  1  -0.00255295  0.83427873  0.50456357  1
  I  I116  1  -0.00425033  0.83168736  0.82543762  1
  I  I117  1  0.33221569  0.17002547  0.16787670  1
  I  I118  1  0.33266636  0.16394956  0.49678070  1
  I  I119  1  0.33033158  0.16767413  0.83558879  1
  I  I120  1  0.32966100  0.49426943  0.17362362  1
  I  I121  1  0.32878969  0.49941556  0.49268954  1
  I  I122  1  0.33282164  0.49876242  0.83273729  1
  I  I123  1  0.33348479  0.83319498  0.16969808  1
  I  I124  1  0.33595427  0.83694745  0.49724987  1
  I  I125  1  0.33349420  0.83385789  0.83240378  1
  I  I126  1  0.66773108  0.16951202  0.16628231  1
  I  I127  1  0.66456392  0.16318459  0.49726800  1
  I  I128  1  0.67044843  0.16592811  0.83671549  1
  I  I129  1  0.66991307  0.49619048  0.16181438  1
  I  I130  1  0.66683902  0.49824881  0.50101368  1
  I  I131  1  0.67231942  0.49570990  0.83828708  1
  I  I132  1  0.66694611  0.83380996  0.16496927  1
  I  I133  1  0.66688544  0.84007453  0.50416165  1
  I  I134  1  0.67123885  0.83788424  0.83243007  1
