# generated using pymatgen
data_Cs27Sn14Pb13I81
_symmetry_space_group_name_H-M   'P 1'
_cell_length_a   18.97179186
_cell_length_b   18.97476328
_cell_length_c   18.97957499
_cell_angle_alpha   89.99869937
_cell_angle_beta   90.00035925
_cell_angle_gamma   89.99986306
_symmetry_Int_Tables_number   1
_chemical_formula_structural   Cs27Sn14Pb13I81
_chemical_formula_sum   'Cs27 Sn14 Pb13 I81'
_cell_volume   6832.36722597
_cell_formula_units_Z   1
loop_
 _symmetry_equiv_pos_site_id
 _symmetry_equiv_pos_as_xyz
  1  'x, y, z'
loop_
 _atom_site_type_symbol
 _atom_site_label
 _atom_site_symmetry_multiplicity
 _atom_site_fract_x
 _atom_site_fract_y
 _atom_site_fract_z
 _atom_site_occupancy
  Cs  Cs0  1  -0.00040050  0.00526405  -0.00117288  1
  Cs  Cs1  1  0.00900761  0.00547807  0.34073723  1
  Cs  Cs2  1  -0.01041929  -0.00110464  0.66211496  1
  Cs  Cs3  1  -0.00253546  0.33390211  0.00127253  1
  Cs  Cs4  1  -0.00238913  0.33123605  0.33026351  1
  Cs  Cs5  1  0.00102930  0.33653024  0.66832261  1
  Cs  Cs6  1  0.00098758  0.66422853  -0.00113756  1
  Cs  Cs7  1  0.00102685  0.66571223  0.33592120  1
  Cs  Cs8  1  -0.00078586  0.66612871  0.66575127  1
  Cs  Cs9  1  0.33420898  -0.00057527  0.00028302  1
  Cs  Cs10  1  0.32803700  0.00055180  0.33376486  1
  Cs  Cs11  1  0.33297103  0.00129457  0.66902535  1
  Cs  Cs12  1  0.33338027  0.33303926  -0.00288194  1
  Cs  Cs13  1  0.33430803  0.33148448  0.33678392  1
  Cs  Cs14  1  0.33511906  0.33448848  0.66694993  1
  Cs  Cs15  1  0.33397994  0.66745279  -0.00096522  1
  Cs  Cs16  1  0.33274418  0.66821495  0.33130755  1
  Cs  Cs17  1  0.33428152  0.66412273  0.66939493  1
  Cs  Cs18  1  0.66481558  -0.00218326  -0.00130829  1
  Cs  Cs19  1  0.66520271  -0.00156698  0.33572178  1
  Cs  Cs20  1  0.67467201  -0.00056998  0.66568634  1
  Cs  Cs21  1  0.66842636  0.33244125  0.00237952  1
  Cs  Cs22  1  0.66801301  0.33060850  0.33329376  1
  Cs  Cs23  1  0.66372553  0.33405129  0.66199928  1
  Cs  Cs24  1  0.66478408  0.66796474  0.00296893  1
  Cs  Cs25  1  0.66568350  0.66701245  0.32856960  1
  Cs  Cs26  1  0.66657231  0.66615430  0.66599789  1
  Sn  Sn27  1  0.49950290  0.16570984  0.83405214  1
  Sn  Sn28  1  0.16602925  0.50002911  0.83340590  1
  Sn  Sn29  1  0.83358198  0.50033075  0.83276271  1
  Sn  Sn30  1  0.16771278  0.50013363  0.16651429  1
  Sn  Sn31  1  0.83370840  0.50035343  0.50065487  1
  Sn  Sn32  1  0.49905032  0.49957558  0.16653017  1
  Sn  Sn33  1  0.16621262  0.50018917  0.50004951  1
  Sn  Sn34  1  0.49982449  0.16629892  0.16589507  1
  Sn  Sn35  1  0.16673805  0.83377474  0.83334036  1
  Sn  Sn36  1  0.49941667  0.83421745  0.83287687  1
  Sn  Sn37  1  0.50049481  0.83385449  0.16689428  1
  Sn  Sn38  1  0.49958923  0.83318375  0.50034652  1
  Sn  Sn39  1  0.83408783  0.83388669  0.16676345  1
  Sn  Sn40  1  0.16704857  0.16640787  0.83314266  1
  Pb  Pb41  1  0.83356609  0.50132187  0.16674392  1
  Pb  Pb42  1  0.83095898  0.16288963  0.16658713  1
  Pb  Pb43  1  0.16895257  0.16931748  0.16449628  1
  Pb  Pb44  1  0.16682107  0.16931148  0.50333274  1
  Pb  Pb45  1  0.50012503  0.49989223  0.83508222  1
  Pb  Pb46  1  0.83321153  0.83121783  0.83505786  1
  Pb  Pb47  1  0.83268573  0.16940657  0.83338248  1
  Pb  Pb48  1  0.49992251  0.50179697  0.49709868  1
  Pb  Pb49  1  0.16874434  0.83127695  0.50300607  1
  Pb  Pb50  1  0.83146201  0.83110007  0.49713081  1
  Pb  Pb51  1  0.49985676  0.16370510  0.50050660  1
  Pb  Pb52  1  0.16665279  0.83191190  0.16473603  1
  Pb  Pb53  1  0.83336573  0.16963062  0.49986859  1
  I  I54  1  0.16655887  0.00016560  0.16487820  1
  I  I55  1  0.16834298  -0.00015869  0.49957876  1
  I  I56  1  0.17448519  -0.00032662  0.83580151  1
  I  I57  1  0.17091163  0.33777998  0.16434892  1
  I  I58  1  0.16469001  0.33793687  0.50145428  1
  I  I59  1  0.16770018  0.33437528  0.83332000  1
  I  I60  1  0.17258913  0.66339303  0.16315475  1
  I  I61  1  0.16393793  0.66290938  0.50230231  1
  I  I62  1  0.16796385  0.66579279  0.83375199  1
  I  I63  1  0.50607020  -0.00087022  0.16469378  1
  I  I64  1  0.49997177  -0.00416593  0.49520580  1
  I  I65  1  0.49155916  -0.00090788  0.83887647  1
  I  I66  1  0.49504551  0.33355998  0.16112942  1
  I  I67  1  0.50069181  0.33357904  0.49990603  1
  I  I68  1  0.49709178  0.33107627  0.83860301  1
  I  I69  1  0.50052066  0.66732597  0.16593153  1
  I  I70  1  0.49963262  0.66953397  0.50141274  1
  I  I71  1  0.49722557  0.66931961  0.83499215  1
  I  I72  1  0.82601849  -0.00474826  0.16336526  1
  I  I73  1  0.83146800  -0.00053662  0.49956532  1
  I  I74  1  0.83611871  -0.00016532  0.83510876  1
  I  I75  1  0.83178647  0.33339918  0.16703813  1
  I  I76  1  0.83544465  0.33819672  0.50324175  1
  I  I77  1  0.83744694  0.33757929  0.83138919  1
  I  I78  1  0.82484215  0.66869375  0.16557018  1
  I  I79  1  0.83748586  0.66324161  0.50412786  1
  I  I80  1  0.83742466  0.66325649  0.83106803  1
  I  I81  1  0.16911686  0.16930594  -0.00373773  1
  I  I82  1  0.16793753  0.16824427  0.33331425  1
  I  I83  1  0.17537208  0.16974995  0.67155583  1
  I  I84  1  0.16673904  0.50058330  -0.00112338  1
  I  I85  1  0.16716987  0.50209781  0.33303189  1
  I  I86  1  0.16181276  0.50014147  0.66793014  1
  I  I87  1  0.17300191  0.82914500  -0.00351424  1
  I  I88  1  0.16807249  0.82965772  0.33338250  1
  I  I89  1  0.17272758  0.82987513  0.67123391  1
  I  I90  1  0.49605929  0.16257930  -0.00035218  1
  I  I91  1  0.50170566  0.16756530  0.33018333  1
  I  I92  1  0.49569464  0.16430000  0.67038027  1
  I  I93  1  0.49698640  0.50484844  0.00305233  1
  I  I94  1  0.49701127  0.50085403  0.32906941  1
  I  I95  1  0.49868643  0.50051390  0.66669774  1
  I  I96  1  0.50001479  0.83312214  0.00003884  1
  I  I97  1  0.50576314  0.83084289  0.33189744  1
  I  I98  1  0.49457763  0.83595083  0.66818739  1
  I  I99  1  0.83529304  0.17131037  -0.00006538  1
  I  I100  1  0.83036922  0.17047023  0.33297993  1
  I  I101  1  0.83029856  0.16370030  0.66701477  1
  I  I102  1  0.83694752  0.50127944  -0.00209943  1
  I  I103  1  0.83604830  0.50259008  0.33541860  1
  I  I104  1  0.84120381  0.50111862  0.66724559  1
  I  I105  1  0.82532302  0.82841283  0.00249188  1
  I  I106  1  0.82485876  0.82835468  0.32965092  1
  I  I107  1  0.83182993  0.83314330  0.66663468  1
  I  I108  1  0.00033362  0.16790819  0.16486648  1
  I  I109  1  0.00033499  0.16273567  0.50112856  1
  I  I110  1  0.00312523  0.16541174  0.83299307  1
  I  I111  1  0.00277569  0.50312591  0.16543225  1
  I  I112  1  0.00086521  0.50139160  0.49975803  1
  I  I113  1  0.00203672  0.50043673  0.83529098  1
  I  I114  1  -0.00194403  0.82643446  0.16298258  1
  I  I115  1  0.00014663  0.83346847  0.49951947  1
  I  I116  1  0.00278977  0.83339427  0.83641958  1
  I  I117  1  0.33727681  0.16122953  0.16440835  1
  I  I118  1  0.33344539  0.17062269  0.49833919  1
  I  I119  1  0.33373301  0.16869468  0.83723746  1
  I  I120  1  0.33358999  0.50316822  0.16537252  1
  I  I121  1  0.33058528  0.50129725  0.50374829  1
  I  I122  1  0.33051361  0.50031232  0.83138229  1
  I  I123  1  0.33685205  0.83356512  0.16739423  1
  I  I124  1  0.33667866  0.83022884  0.49403762  1
  I  I125  1  0.33433010  0.83026170  0.83574989  1
  I  I126  1  0.66207898  0.17373098  0.15941998  1
  I  I127  1  0.66620910  0.17026754  0.50229686  1
  I  I128  1  0.66300460  0.16265694  0.83773970  1
  I  I129  1  0.66391144  0.49981308  0.16584558  1
  I  I130  1  0.66889610  0.50207594  0.50450764  1
  I  I131  1  0.66878694  0.50088585  0.83075226  1
  I  I132  1  0.66375064  0.82939169  0.16416477  1
  I  I133  1  0.66330064  0.83043152  0.50468080  1
  I  I134  1  0.66317726  0.83598100  0.83291389  1
