# generated using pymatgen
data_Cs27Sn13Pb14I81
_symmetry_space_group_name_H-M   'P 1'
_cell_length_a   18.97651040
_cell_length_b   18.97204669
_cell_length_c   18.98086275
_cell_angle_alpha   90.00039145
_cell_angle_beta   89.99895850
_cell_angle_gamma   90.00136825
_symmetry_Int_Tables_number   1
_chemical_formula_structural   Cs27Sn13Pb14I81
_chemical_formula_sum   'Cs27 Sn13 Pb14 I81'
_cell_volume   6833.55172559
_cell_formula_units_Z   1
loop_
 _symmetry_equiv_pos_site_id
 _symmetry_equiv_pos_as_xyz
  1  'x, y, z'
loop_
 _atom_site_type_symbol
 _atom_site_label
 _atom_site_symmetry_multiplicity
 _atom_site_fract_x
 _atom_site_fract_y
 _atom_site_fract_z
 _atom_site_occupancy
  Cs  Cs0  1  0.00091734  -0.00048934  -0.00008629  1
  Cs  Cs1  1  -0.00040189  -0.00074087  0.33531140  1
  Cs  Cs2  1  -0.00083150  -0.00103272  0.66610280  1
  Cs  Cs3  1  0.00013672  0.33218303  0.00140478  1
  Cs  Cs4  1  0.00133076  0.33329788  0.33361798  1
  Cs  Cs5  1  0.00039297  0.33390906  0.66556253  1
  Cs  Cs6  1  -0.00162944  0.66803243  -0.00121651  1
  Cs  Cs7  1  -0.00015306  0.66865652  0.33855588  1
  Cs  Cs8  1  -0.00107352  0.66645892  0.66577688  1
  Cs  Cs9  1  0.33130945  -0.00359428  0.00208908  1
  Cs  Cs10  1  0.34294055  -0.00539362  0.33157456  1
  Cs  Cs11  1  0.33683796  0.00045974  0.66652967  1
  Cs  Cs12  1  0.33121978  0.33347381  -0.00037080  1
  Cs  Cs13  1  0.33050900  0.33296095  0.33375753  1
  Cs  Cs14  1  0.33330593  0.33471327  0.66632044  1
  Cs  Cs15  1  0.33424047  0.66864001  -0.00073771  1
  Cs  Cs16  1  0.33338737  0.67333574  0.33247869  1
  Cs  Cs17  1  0.33153109  0.66327189  0.66863366  1
  Cs  Cs18  1  0.66899251  0.00721922  -0.00098125  1
  Cs  Cs19  1  0.65740577  -0.00247398  0.33621337  1
  Cs  Cs20  1  0.66439679  0.00150247  0.66520302  1
  Cs  Cs21  1  0.66853675  0.32889318  0.00587713  1
  Cs  Cs22  1  0.66675370  0.33399915  0.32633968  1
  Cs  Cs23  1  0.66634246  0.33385368  0.66809984  1
  Cs  Cs24  1  0.66782435  0.66442992  -0.00070515  1
  Cs  Cs25  1  0.66580318  0.66764796  0.33055693  1
  Cs  Cs26  1  0.66810458  0.66500829  0.66901310  1
  Sn  Sn27  1  0.50102613  0.49970756  0.50033556  1
  Sn  Sn28  1  0.83224228  0.83284555  0.83425100  1
  Sn  Sn29  1  0.16642503  0.16737947  0.83311994  1
  Sn  Sn30  1  0.83346721  0.83338590  0.16592304  1
  Sn  Sn31  1  0.16617633  0.16666879  0.49991391  1
  Sn  Sn32  1  0.50051222  0.50022902  0.83301164  1
  Sn  Sn33  1  0.16633040  0.49920333  0.83429369  1
  Sn  Sn34  1  0.83221576  0.49886500  0.50060109  1
  Sn  Sn35  1  0.16638478  0.16707845  0.16696109  1
  Sn  Sn36  1  0.16639883  0.50003083  0.16595284  1
  Sn  Sn37  1  0.83315514  0.50005422  0.83306236  1
  Sn  Sn38  1  0.50132663  0.83264155  0.83336589  1
  Sn  Sn39  1  0.83364274  0.16762924  0.50001027  1
  Pb  Pb40  1  0.16466613  0.83316047  0.16659059  1
  Pb  Pb41  1  0.50312594  0.83298449  0.16327215  1
  Pb  Pb42  1  0.49726951  0.50003786  0.16622792  1
  Pb  Pb43  1  0.49703983  0.16684487  0.16656483  1
  Pb  Pb44  1  0.16692801  0.83700938  0.50011897  1
  Pb  Pb45  1  0.49739081  0.16727710  0.83349508  1
  Pb  Pb46  1  0.83316914  0.83310091  0.50070546  1
  Pb  Pb47  1  0.83537459  0.16688226  0.83166376  1
  Pb  Pb48  1  0.50025091  0.16953091  0.50010041  1
  Pb  Pb49  1  0.16639650  0.83291475  0.83307475  1
  Pb  Pb50  1  0.83538536  0.16414256  0.16980820  1
  Pb  Pb51  1  0.50024387  0.82985518  0.50307036  1
  Pb  Pb52  1  0.16657406  0.49887672  0.50006674  1
  Pb  Pb53  1  0.83563946  0.50130343  0.16682935  1
  I  I54  1  0.16448288  0.00324837  0.16530315  1
  I  I55  1  0.15856985  0.00569006  0.50151428  1
  I  I56  1  0.16619270  0.00295876  0.83351783  1
  I  I57  1  0.16555135  0.33319901  0.16500803  1
  I  I58  1  0.16518319  0.33071648  0.50055837  1
  I  I59  1  0.16665816  0.33452804  0.83383517  1
  I  I60  1  0.16610927  0.66359927  0.16056182  1
  I  I61  1  0.16569692  0.66623323  0.49977520  1
  I  I62  1  0.16694831  0.66299990  0.83776771  1
  I  I63  1  0.49732709  -0.00032898  0.16605392  1
  I  I64  1  0.49901623  -0.00005903  0.50052223  1
  I  I65  1  0.50323455  -0.00277236  0.83433215  1
  I  I66  1  0.50328503  0.33374895  0.16415653  1
  I  I67  1  0.50023025  0.33722457  0.50892346  1
  I  I68  1  0.50103497  0.33723545  0.82860363  1
  I  I69  1  0.49561202  0.66650735  0.17002737  1
  I  I70  1  0.50578891  0.66199411  0.50168568  1
  I  I71  1  0.49815923  0.66511904  0.82925350  1
  I  I72  1  0.83681318  -0.00328102  0.15954464  1
  I  I73  1  0.84067008  0.00269568  0.50034091  1
  I  I74  1  0.83119544  -0.00259739  0.83527957  1
  I  I75  1  0.83313204  0.33319713  0.16470282  1
  I  I76  1  0.83480328  0.33456849  0.50621110  1
  I  I77  1  0.83191098  0.33668135  0.83039725  1
  I  I78  1  0.83675247  0.66906380  0.16609572  1
  I  I79  1  0.83045723  0.66326647  0.50149377  1
  I  I80  1  0.83560413  0.66523957  0.83130907  1
  I  I81  1  0.16751821  0.17136368  -0.00037073  1
  I  I82  1  0.16120060  0.17261788  0.33337374  1
  I  I83  1  0.16314714  0.17119505  0.66690730  1
  I  I84  1  0.16641958  0.49232589  -0.00175983  1
  I  I85  1  0.16576407  0.49525485  0.33132120  1
  I  I86  1  0.16702958  0.49650029  0.66971560  1
  I  I87  1  0.16796910  0.83799733  -0.00036104  1
  I  I88  1  0.16308643  0.83030844  0.33316714  1
  I  I89  1  0.16363254  0.83249043  0.66708311  1
  I  I90  1  0.49940623  0.16872230  -0.00031485  1
  I  I91  1  0.49808089  0.16779119  0.33360285  1
  I  I92  1  0.49598185  0.16381239  0.66681416  1
  I  I93  1  0.50125887  0.50428166  -0.00390936  1
  I  I94  1  0.50367713  0.49737284  0.33623115  1
  I  I95  1  0.49798697  0.50344969  0.66811866  1
  I  I96  1  0.49916625  0.82519752  -0.00437934  1
  I  I97  1  0.50002210  0.83330461  0.33325934  1
  I  I98  1  0.50663785  0.83272269  0.67081296  1
  I  I99  1  0.83501659  0.16815920  0.00004625  1
  I  I100  1  0.84033415  0.17235690  0.33744186  1
  I  I101  1  0.84036858  0.16655248  0.66385143  1
  I  I102  1  0.83192648  0.50284835  -0.00325291  1
  I  I103  1  0.83131244  0.49812334  0.33634674  1
  I  I104  1  0.83569250  0.50224836  0.66783490  1
  I  I105  1  0.83132692  0.82709487  -0.00199575  1
  I  I106  1  0.83766331  0.83314436  0.33134708  1
  I  I107  1  0.83055415  0.83163006  0.67011545  1
  I  I108  1  0.00358000  0.17065260  0.16409672  1
  I  I109  1  0.00038490  0.17314050  0.50066920  1
  I  I110  1  0.00358813  0.17054051  0.83462470  1
  I  I111  1  0.00346574  0.49630942  0.16234768  1
  I  I112  1  -0.00263286  0.49843499  0.50324798  1
  I  I113  1  -0.00027667  0.50054155  0.83257055  1
  I  I114  1  -0.00289355  0.83302176  0.15883140  1
  I  I115  1  -0.00035428  0.82834388  0.50255587  1
  I  I116  1  -0.00314821  0.83023330  0.83621755  1
  I  I117  1  0.32814415  0.17057188  0.16853487  1
  I  I118  1  0.33015569  0.16869252  0.50051698  1
  I  I119  1  0.32890175  0.17061390  0.83073886  1
  I  I120  1  0.32910906  0.49544332  0.16304570  1
  I  I121  1  0.33527071  0.49845256  0.50441073  1
  I  I122  1  0.33316019  0.50027367  0.83222344  1
  I  I123  1  0.33349320  0.83451397  0.16630752  1
  I  I124  1  0.33374064  0.83260543  0.50111988  1
  I  I125  1  0.33582506  0.83013210  0.83155832  1
  I  I126  1  0.66717685  0.16559203  0.16783203  1
  I  I127  1  0.66974273  0.16753094  0.50177501  1
  I  I128  1  0.66688901  0.16796587  0.83088996  1
  I  I129  1  0.66696079  0.50184496  0.16517191  1
  I  I130  1  0.66784586  0.49517660  0.50888381  1
  I  I131  1  0.66721530  0.50639987  0.82691479  1
  I  I132  1  0.67074565  0.83149917  0.16637282  1
  I  I133  1  0.66687714  0.83971405  0.49693572  1
  I  I134  1  0.66754503  0.82435363  0.83647192  1
