# generated using pymatgen
data_Cs27Sn13Pb14I81
_symmetry_space_group_name_H-M   'P 1'
_cell_length_a   19.27146802
_cell_length_b   19.24190791
_cell_length_c   19.26900695
_cell_angle_alpha   89.98893207
_cell_angle_beta   90.01094440
_cell_angle_gamma   90.02704832
_symmetry_Int_Tables_number   1
_chemical_formula_structural   Cs27Sn13Pb14I81
_chemical_formula_sum   'Cs27 Sn13 Pb14 I81'
_cell_volume   7145.32849103
_cell_formula_units_Z   1
loop_
 _symmetry_equiv_pos_site_id
 _symmetry_equiv_pos_as_xyz
  1  'x, y, z'
loop_
 _atom_site_type_symbol
 _atom_site_label
 _atom_site_symmetry_multiplicity
 _atom_site_fract_x
 _atom_site_fract_y
 _atom_site_fract_z
 _atom_site_occupancy
  Cs  Cs0  1  -0.01903402  -0.00981809  -0.01129015  1
  Cs  Cs1  1  0.01758598  -0.01783190  0.31726589  1
  Cs  Cs2  1  -0.00445727  -0.04064470  0.67424577  1
  Cs  Cs3  1  0.02095921  0.33636725  -0.01390990  1
  Cs  Cs4  1  0.02748613  0.33917466  0.33595121  1
  Cs  Cs5  1  0.00958021  0.30736478  0.66856638  1
  Cs  Cs6  1  -0.01774587  0.67148319  -0.02016463  1
  Cs  Cs7  1  0.00123943  0.68534730  0.33604454  1
  Cs  Cs8  1  -0.01638807  0.67950675  0.67556996  1
  Cs  Cs9  1  0.37004974  -0.01007078  -0.01021119  1
  Cs  Cs10  1  0.29836320  0.00940230  0.33279118  1
  Cs  Cs11  1  0.36433085  -0.00263464  0.67330659  1
  Cs  Cs12  1  0.30571352  0.34971626  0.00227149  1
  Cs  Cs13  1  0.31327396  0.33983535  0.32885111  1
  Cs  Cs14  1  0.31129716  0.32677588  0.67529373  1
  Cs  Cs15  1  0.36040584  0.65504114  -0.00348168  1
  Cs  Cs16  1  0.33397492  0.66553860  0.35072380  1
  Cs  Cs17  1  0.34569089  0.66421236  0.64758451  1
  Cs  Cs18  1  0.65439218  0.01475663  0.02210465  1
  Cs  Cs19  1  0.66999508  0.02544197  0.30786948  1
  Cs  Cs20  1  0.65369550  0.02260134  0.66198156  1
  Cs  Cs21  1  0.67055302  0.36176228  0.00718402  1
  Cs  Cs22  1  0.66706736  0.32170632  0.35502647  1
  Cs  Cs23  1  0.67593930  0.31605292  0.65104190  1
  Cs  Cs24  1  0.66669867  0.65834914  -0.00559284  1
  Cs  Cs25  1  0.66961758  0.65752013  0.35688737  1
  Cs  Cs26  1  0.68023323  0.66745197  0.67047238  1
  Sn  Sn27  1  0.83440774  0.50130042  0.16818691  1
  Sn  Sn28  1  0.16880296  0.83284304  0.83764015  1
  Sn  Sn29  1  0.50241315  0.49794450  0.83007078  1
  Sn  Sn30  1  0.50374000  0.83194527  0.49713194  1
  Sn  Sn31  1  0.83125185  0.49505528  0.83317223  1
  Sn  Sn32  1  0.16577734  0.16667517  0.49979206  1
  Sn  Sn33  1  0.83001793  0.83447152  0.83391063  1
  Sn  Sn34  1  0.16374856  0.50510376  0.16886770  1
  Sn  Sn35  1  0.82760829  0.83526284  0.49742845  1
  Sn  Sn36  1  0.50227484  0.50024419  0.16959455  1
  Sn  Sn37  1  0.16496259  0.50145213  0.50188846  1
  Sn  Sn38  1  0.16483591  0.16820973  0.16497303  1
  Sn  Sn39  1  0.49923932  0.49903297  0.50040658  1
  Pb  Pb40  1  0.49643198  0.16632175  0.49783105  1
  Pb  Pb41  1  0.50153089  0.82898372  0.17109473  1
  Pb  Pb42  1  0.83756730  0.17316859  0.16480775  1
  Pb  Pb43  1  0.16492315  0.16054208  0.83508359  1
  Pb  Pb44  1  0.83591287  0.49961387  0.49914957  1
  Pb  Pb45  1  0.16786163  0.82949024  0.15976626  1
  Pb  Pb46  1  0.83851886  0.16119107  0.49998816  1
  Pb  Pb47  1  0.49616196  0.17442483  0.16763159  1
  Pb  Pb48  1  0.83215886  0.16664546  0.83527331  1
  Pb  Pb49  1  0.16568013  0.50473443  0.83117544  1
  Pb  Pb50  1  0.83097180  0.83079240  0.16706118  1
  Pb  Pb51  1  0.50198758  0.17349419  0.83441665  1
  Pb  Pb52  1  0.50307682  0.82909190  0.83077753  1
  Pb  Pb53  1  0.16730365  0.83309932  0.50228252  1
  I  I54  1  0.16582968  0.00321849  0.18138795  1
  I  I55  1  0.15845712  0.00369967  0.48017563  1
  I  I56  1  0.13335016  -0.00190386  0.82927853  1
  I  I57  1  0.17013662  0.33425954  0.17417667  1
  I  I58  1  0.18871869  0.33436444  0.49472810  1
  I  I59  1  0.17472836  0.33501196  0.83202184  1
  I  I60  1  0.16844398  0.66353101  0.19011923  1
  I  I61  1  0.16888577  0.66485101  0.48199870  1
  I  I62  1  0.16034485  0.67008661  0.82967080  1
  I  I63  1  0.50246323  0.00012712  0.16670016  1
  I  I64  1  0.50791282  -0.00403001  0.52271940  1
  I  I65  1  0.49688984  -0.00183117  0.82153668  1
  I  I66  1  0.52756574  0.33808591  0.17591796  1
  I  I67  1  0.50812966  0.33549429  0.49808331  1
  I  I68  1  0.52185975  0.33826181  0.82300567  1
  I  I69  1  0.48509370  0.66381200  0.14965525  1
  I  I70  1  0.48436081  0.66501467  0.49761613  1
  I  I71  1  0.49620919  0.66461765  0.85343745  1
  I  I72  1  0.83888290  -0.00031746  0.17374165  1
  I  I73  1  0.81742801  -0.00151296  0.53493276  1
  I  I74  1  0.86021089  -0.00170771  0.81798463  1
  I  I75  1  0.81256768  0.33722668  0.14795573  1
  I  I76  1  0.81411954  0.33391007  0.49653031  1
  I  I77  1  0.81213431  0.33596918  0.85199998  1
  I  I78  1  0.85271612  0.66423145  0.16534542  1
  I  I79  1  0.84846241  0.66666249  0.49665471  1
  I  I80  1  0.83845710  0.66665352  0.83367013  1
  I  I81  1  0.16603672  0.18996941  0.00152772  1
  I  I82  1  0.16850946  0.17731358  0.33511703  1
  I  I83  1  0.16994246  0.18461732  0.66478501  1
  I  I84  1  0.16508328  0.48992429  0.00235057  1
  I  I85  1  0.17492153  0.48838761  0.33262011  1
  I  I86  1  0.18287323  0.48808627  0.66370178  1
  I  I87  1  0.12998768  0.83393851  -0.00232347  1
  I  I88  1  0.17010916  0.83712268  0.33356072  1
  I  I89  1  0.15924679  0.83109063  0.66800673  1
  I  I90  1  0.49542008  0.14972276  -0.00045959  1
  I  I91  1  0.52520706  0.16303213  0.33335672  1
  I  I92  1  0.49172034  0.16754512  0.66642327  1
  I  I93  1  0.49620188  0.49146380  0.00096875  1
  I  I94  1  0.49661594  0.51956849  0.33166134  1
  I  I95  1  0.49338470  0.52055462  0.66744475  1
  I  I96  1  0.49741439  0.83856585  -0.00187405  1
  I  I97  1  0.51174959  0.81208975  0.33723375  1
  I  I98  1  0.48680085  0.81773765  0.66572410  1
  I  I99  1  0.83898037  0.13942704  -0.00016322  1
  I  I100  1  0.80933161  0.16818520  0.33515297  1
  I  I101  1  0.83767076  0.19383151  0.66741958  1
  I  I102  1  0.82474473  0.51742190  -0.00047393  1
  I  I103  1  0.82158054  0.50286925  0.32896742  1
  I  I104  1  0.82414790  0.50742187  0.66945715  1
  I  I105  1  0.86060066  0.83226387  -0.00155811  1
  I  I106  1  0.82689850  0.82701822  0.33784322  1
  I  I107  1  0.83688522  0.81553980  0.66655074  1
  I  I108  1  0.00325870  0.18036948  0.18460340  1
  I  I109  1  0.00116064  0.20045977  0.49352171  1
  I  I110  1  -0.00022731  0.19510293  0.83584099  1
  I  I111  1  0.00101483  0.47999353  0.16779091  1
  I  I112  1  0.00374870  0.48602009  0.48516484  1
  I  I113  1  -0.00253117  0.49939165  0.84763611  1
  I  I114  1  0.00035961  0.83035346  0.18941612  1
  I  I115  1  -0.00239059  0.83623109  0.50415676  1
  I  I116  1  -0.00297119  0.81817518  0.82077446  1
  I  I117  1  0.33085543  0.17613340  0.18508384  1
  I  I118  1  0.33149487  0.15400709  0.48503998  1
  I  I119  1  0.33209184  0.15297516  0.82813931  1
  I  I120  1  0.33360163  0.48099862  0.16135387  1
  I  I121  1  0.33372347  0.50737565  0.49127086  1
  I  I122  1  0.33412175  0.49942763  0.84711241  1
  I  I123  1  0.33305635  0.84256060  0.15594393  1
  I  I124  1  0.33470094  0.83287125  0.50258058  1
  I  I125  1  0.32965700  0.84749093  0.83683173  1
  I  I126  1  0.66724988  0.16016140  0.15594277  1
  I  I127  1  0.66614305  0.16773515  0.51111957  1
  I  I128  1  0.66694994  0.13892110  0.82883814  1
  I  I129  1  0.66535980  0.51917788  0.15587537  1
  I  I130  1  0.66318852  0.50699444  0.49192638  1
  I  I131  1  0.66563997  0.51965140  0.84500752  1
  I  I132  1  0.66767640  0.83844548  0.13868008  1
  I  I133  1  0.66634644  0.80238057  0.51414895  1
  I  I134  1  0.67061044  0.81855642  0.82634715  1
