# generated using pymatgen
data_Cs27Sn14Pb13I81
_symmetry_space_group_name_H-M   'P 1'
_cell_length_a   18.98008578
_cell_length_b   18.97580433
_cell_length_c   18.97032835
_cell_angle_alpha   90.00086280
_cell_angle_beta   89.99978018
_cell_angle_gamma   90.00013136
_symmetry_Int_Tables_number   1
_chemical_formula_structural   Cs27Sn14Pb13I81
_chemical_formula_sum   'Cs27 Sn14 Pb13 I81'
_cell_volume   6832.39887106
_cell_formula_units_Z   1
loop_
 _symmetry_equiv_pos_site_id
 _symmetry_equiv_pos_as_xyz
  1  'x, y, z'
loop_
 _atom_site_type_symbol
 _atom_site_label
 _atom_site_symmetry_multiplicity
 _atom_site_fract_x
 _atom_site_fract_y
 _atom_site_fract_z
 _atom_site_occupancy
  Cs  Cs0  1  0.00836515  -0.00046702  -0.00011880  1
  Cs  Cs1  1  -0.00186851  0.00102186  0.33220225  1
  Cs  Cs2  1  -0.00112513  -0.00169508  0.66740590  1
  Cs  Cs3  1  0.00518878  0.32885278  0.00603482  1
  Cs  Cs4  1  -0.00142122  0.33696164  0.33093801  1
  Cs  Cs5  1  0.00212962  0.34085346  0.66639826  1
  Cs  Cs6  1  -0.00118623  0.66981303  -0.00632855  1
  Cs  Cs7  1  -0.00171669  0.66251094  0.33426037  1
  Cs  Cs8  1  -0.00164316  0.66076273  0.67329421  1
  Cs  Cs9  1  0.32570457  -0.00222957  0.00057087  1
  Cs  Cs10  1  0.33386294  -0.00232095  0.33578166  1
  Cs  Cs11  1  0.33718345  0.00184169  0.66338682  1
  Cs  Cs12  1  0.33322735  0.33565612  -0.00451427  1
  Cs  Cs13  1  0.33482921  0.33404812  0.33560540  1
  Cs  Cs14  1  0.33235639  0.33324993  0.66770484  1
  Cs  Cs15  1  0.33424535  0.66553298  0.00501449  1
  Cs  Cs16  1  0.33382752  0.66862744  0.33051356  1
  Cs  Cs17  1  0.33242501  0.66437085  0.66611314  1
  Cs  Cs18  1  0.66795288  0.00182141  -0.00340562  1
  Cs  Cs19  1  0.66754326  0.00014711  0.33462735  1
  Cs  Cs20  1  0.66555604  0.00033913  0.66541408  1
  Cs  Cs21  1  0.66435731  0.33297476  -0.00012112  1
  Cs  Cs22  1  0.66790196  0.33129300  0.33341326  1
  Cs  Cs23  1  0.66629314  0.33113095  0.66668738  1
  Cs  Cs24  1  0.66576362  0.66309912  -0.00016872  1
  Cs  Cs25  1  0.66739052  0.66792522  0.33161816  1
  Cs  Cs26  1  0.66987207  0.66814691  0.66913523  1
  Sn  Sn27  1  0.49996165  0.83416531  0.83281536  1
  Sn  Sn28  1  0.50013879  0.16669675  0.50003707  1
  Sn  Sn29  1  0.16602166  0.83370910  0.49998087  1
  Sn  Sn30  1  0.50022208  0.83301909  0.50072651  1
  Sn  Sn31  1  0.50067671  0.16536578  0.83327768  1
  Sn  Sn32  1  0.83383047  0.83380081  0.49950111  1
  Sn  Sn33  1  0.83383947  0.16620528  0.50096274  1
  Sn  Sn34  1  0.83390691  0.50095689  0.16672085  1
  Sn  Sn35  1  0.49963659  0.16611629  0.16642183  1
  Sn  Sn36  1  0.16604991  0.50030474  0.16693490  1
  Sn  Sn37  1  0.50056280  0.50041170  0.49997997  1
  Sn  Sn38  1  0.83300536  0.83288971  0.16697649  1
  Sn  Sn39  1  0.83316334  0.16672999  0.83236415  1
  Sn  Sn40  1  0.16609131  0.16613185  0.49987920  1
  Pb  Pb41  1  0.16996213  0.83346877  0.83024397  1
  Pb  Pb42  1  0.16675751  0.50008371  0.83659702  1
  Pb  Pb43  1  0.83323049  0.49636255  0.83664789  1
  Pb  Pb44  1  0.16389038  0.83149913  0.16925779  1
  Pb  Pb45  1  0.50193060  0.83558058  0.16654640  1
  Pb  Pb46  1  0.83145935  0.83543541  0.83304516  1
  Pb  Pb47  1  0.16875736  0.50039105  0.49872782  1
  Pb  Pb48  1  0.83199521  0.16613742  0.16657088  1
  Pb  Pb49  1  0.83125201  0.50003775  0.49876857  1
  Pb  Pb50  1  0.50039748  0.49793941  0.16864380  1
  Pb  Pb51  1  0.50020931  0.50002009  0.83059830  1
  Pb  Pb52  1  0.16964233  0.16814478  0.16953560  1
  Pb  Pb53  1  0.16683908  0.16655940  0.83035657  1
  I  I54  1  0.16602689  -0.00010446  0.16533101  1
  I  I55  1  0.17196723  0.00025090  0.49899687  1
  I  I56  1  0.16436739  0.00007755  0.83877991  1
  I  I57  1  0.15928833  0.33582861  0.17008921  1
  I  I58  1  0.16819629  0.33055800  0.49864730  1
  I  I59  1  0.16935659  0.33296572  0.83002567  1
  I  I60  1  0.16810525  0.66376361  0.17097007  1
  I  I61  1  0.16859311  0.66970828  0.49758758  1
  I  I62  1  0.16798400  0.66699073  0.82929253  1
  I  I63  1  0.50310283  0.00341364  0.17283114  1
  I  I64  1  0.49989154  0.00057193  0.50042672  1
  I  I65  1  0.50431891  0.00122722  0.82706244  1
  I  I66  1  0.50280361  0.32994995  0.16840929  1
  I  I67  1  0.49974332  0.33126309  0.49893025  1
  I  I68  1  0.50334356  0.32966052  0.83256031  1
  I  I69  1  0.49872842  0.66683126  0.16737765  1
  I  I70  1  0.49947340  0.66819613  0.50339663  1
  I  I71  1  0.49996447  0.66986026  0.82779582  1
  I  I72  1  0.82920465  -0.00234733  0.17019599  1
  I  I73  1  0.82887529  0.00018041  0.49720936  1
  I  I74  1  0.82920823  0.00340497  0.83312717  1
  I  I75  1  0.83514152  0.33502033  0.16726578  1
  I  I76  1  0.83178857  0.33010975  0.50137263  1
  I  I77  1  0.82478979  0.32851606  0.82652330  1
  I  I78  1  0.83506577  0.66727867  0.17464006  1
  I  I79  1  0.83203901  0.66976410  0.49664022  1
  I  I80  1  0.83181937  0.66677798  0.83126813  1
  I  I81  1  0.16685557  0.16947649  0.00014875  1
  I  I82  1  0.16680450  0.16328443  0.33765852  1
  I  I83  1  0.17241349  0.16341613  0.66211198  1
  I  I84  1  0.16404868  0.49833539  0.00463133  1
  I  I85  1  0.16311864  0.49882850  0.33111527  1
  I  I86  1  0.16878460  0.49936511  0.66626858  1
  I  I87  1  0.16691616  0.83136013  0.00015787  1
  I  I88  1  0.17364922  0.83743317  0.33740408  1
  I  I89  1  0.16215925  0.83740692  0.66176914  1
  I  I90  1  0.50718402  0.16385334  -0.00104085  1
  I  I91  1  0.50077252  0.16727585  0.33552828  1
  I  I92  1  0.50055120  0.16604792  0.66507142  1
  I  I93  1  0.49916814  0.49897489  0.00012796  1
  I  I94  1  0.50004558  0.49929076  0.33660973  1
  I  I95  1  0.49927892  0.49526462  0.66248494  1
  I  I96  1  0.50320440  0.83858322  -0.00254669  1
  I  I97  1  0.49851766  0.83483640  0.33695751  1
  I  I98  1  0.50171803  0.83834890  0.66434811  1
  I  I99  1  0.82553844  0.16825947  -0.00220668  1
  I  I100  1  0.83103122  0.16593376  0.33647193  1
  I  I101  1  0.82722263  0.16076998  0.66463252  1
  I  I102  1  0.83529509  0.50605509  0.00456573  1
  I  I103  1  0.83530618  0.49827126  0.33085239  1
  I  I104  1  0.83171880  0.50214075  0.66669225  1
  I  I105  1  0.82973761  0.83037873  0.00236404  1
  I  I106  1  0.83029506  0.83579423  0.33533532  1
  I  I107  1  0.83374080  0.83635553  0.66310992  1
  I  I108  1  0.00008743  0.16631184  0.16642085  1
  I  I109  1  -0.00102858  0.15950201  0.50346167  1
  I  I110  1  -0.00299325  0.16717265  0.82972733  1
  I  I111  1  -0.00090789  0.50161103  0.17052223  1
  I  I112  1  -0.00014636  0.49880264  0.49936827  1
  I  I113  1  -0.00032939  0.49934729  0.82815408  1
  I  I114  1  -0.00411206  0.83427691  0.17230660  1
  I  I115  1  -0.00091335  0.84192804  0.49346748  1
  I  I116  1  -0.00014778  0.83461230  0.83340989  1
  I  I117  1  0.33762549  0.16845499  0.16727309  1
  I  I118  1  0.33498318  0.16466921  0.49900312  1
  I  I119  1  0.33697342  0.16395022  0.83241272  1
  I  I120  1  0.33163877  0.49714083  0.16969360  1
  I  I121  1  0.33670098  0.49849980  0.49684050  1
  I  I122  1  0.33384178  0.49736896  0.83515625  1
  I  I123  1  0.33342134  0.83199686  0.16715636  1
  I  I124  1  0.33451210  0.83667341  0.50398876  1
  I  I125  1  0.33810872  0.84092869  0.82857555  1
  I  I126  1  0.66412888  0.16889176  0.17214832  1
  I  I127  1  0.66588789  0.16485007  0.49989816  1
  I  I128  1  0.66532694  0.16345974  0.82824141  1
  I  I129  1  0.66915700  0.50233055  0.16863034  1
  I  I130  1  0.66339847  0.49823395  0.49661857  1
  I  I131  1  0.66663735  0.50121672  0.83659094  1
  I  I132  1  0.66960884  0.82756214  0.17415576  1
  I  I133  1  0.66634016  0.83638899  0.49928064  1
  I  I134  1  0.66349065  0.83632763  0.82653967  1
