# generated using pymatgen
data_Cs27Sn13Pb14I81
_symmetry_space_group_name_H-M   'P 1'
_cell_length_a   18.97529477
_cell_length_b   18.98222191
_cell_length_c   18.97225565
_cell_angle_alpha   89.99918285
_cell_angle_beta   90.00157968
_cell_angle_gamma   89.99909047
_symmetry_Int_Tables_number   1
_chemical_formula_structural   Cs27Sn13Pb14I81
_chemical_formula_sum   'Cs27 Sn13 Pb14 I81'
_cell_volume   6833.67853327
_cell_formula_units_Z   1
loop_
 _symmetry_equiv_pos_site_id
 _symmetry_equiv_pos_as_xyz
  1  'x, y, z'
loop_
 _atom_site_type_symbol
 _atom_site_label
 _atom_site_symmetry_multiplicity
 _atom_site_fract_x
 _atom_site_fract_y
 _atom_site_fract_z
 _atom_site_occupancy
  Cs  Cs0  1  0.00143792  0.00122751  -0.00029817  1
  Cs  Cs1  1  -0.00817746  0.00169645  0.33910365  1
  Cs  Cs2  1  0.00001172  -0.00057179  0.66334981  1
  Cs  Cs3  1  0.00159025  0.33276394  -0.00170709  1
  Cs  Cs4  1  -0.00032625  0.33512341  0.33676514  1
  Cs  Cs5  1  0.00047956  0.33352212  0.66996621  1
  Cs  Cs6  1  0.00105743  0.66708464  -0.00072987  1
  Cs  Cs7  1  0.00226478  0.66381101  0.33677136  1
  Cs  Cs8  1  0.00016855  0.66720044  0.66724447  1
  Cs  Cs9  1  0.33001430  0.00135649  0.00164938  1
  Cs  Cs10  1  0.33400833  -0.00071553  0.33377340  1
  Cs  Cs11  1  0.33957809  0.00074097  0.65839177  1
  Cs  Cs12  1  0.33278596  0.33161379  -0.00003119  1
  Cs  Cs13  1  0.33133985  0.33443241  0.33209862  1
  Cs  Cs14  1  0.33582222  0.32942311  0.66831234  1
  Cs  Cs15  1  0.33231908  0.66763264  0.00174573  1
  Cs  Cs16  1  0.33157311  0.66614563  0.33163825  1
  Cs  Cs17  1  0.33519022  0.66969924  0.66578034  1
  Cs  Cs18  1  0.66907288  -0.00413229  0.00142570  1
  Cs  Cs19  1  0.67428185  0.00104100  0.33625308  1
  Cs  Cs20  1  0.65846061  -0.00762243  0.65991143  1
  Cs  Cs21  1  0.66624159  0.33413783  0.00014444  1
  Cs  Cs22  1  0.66836405  0.33508876  0.33274973  1
  Cs  Cs23  1  0.66487025  0.33473401  0.66708389  1
  Cs  Cs24  1  0.66659917  0.66734709  -0.00088690  1
  Cs  Cs25  1  0.66671700  0.66378122  0.33187969  1
  Cs  Cs26  1  0.66546864  0.66897011  0.66813954  1
  Sn  Sn27  1  0.16691639  0.83472406  0.16629360  1
  Sn  Sn28  1  0.83255663  0.49974820  0.50050037  1
  Sn  Sn29  1  0.16689379  0.16558569  0.16652509  1
  Sn  Sn30  1  0.16609341  0.16607420  0.83387086  1
  Sn  Sn31  1  0.83403875  0.49922030  0.83345385  1
  Sn  Sn32  1  0.50066597  0.49987096  0.16711802  1
  Sn  Sn33  1  0.49979933  0.16642991  0.16621627  1
  Sn  Sn34  1  0.50032244  0.49972568  0.49920439  1
  Sn  Sn35  1  0.16684781  0.83398814  0.83383382  1
  Sn  Sn36  1  0.49957965  0.83363893  0.16640503  1
  Sn  Sn37  1  0.83318036  0.16681087  0.83325113  1
  Sn  Sn38  1  0.83297682  0.49992887  0.16625781  1
  Sn  Sn39  1  0.16640018  0.49999559  0.83365245  1
  Pb  Pb40  1  0.50021646  0.50003941  0.83365297  1
  Pb  Pb41  1  0.16722550  0.49983128  0.50340960  1
  Pb  Pb42  1  0.16680205  0.49976054  0.16499689  1
  Pb  Pb43  1  0.16670866  0.83343762  0.49928956  1
  Pb  Pb44  1  0.83384818  0.16884270  0.16486196  1
  Pb  Pb45  1  0.49989527  0.83059471  0.49641325  1
  Pb  Pb46  1  0.16664569  0.16673895  0.49985559  1
  Pb  Pb47  1  0.83541067  0.83375505  0.83338279  1
  Pb  Pb48  1  0.50010551  0.16928087  0.49655572  1
  Pb  Pb49  1  0.49718020  0.83362544  0.83583201  1
  Pb  Pb50  1  0.50034811  0.16639721  0.83538543  1
  Pb  Pb51  1  0.83330937  0.83038089  0.50014353  1
  Pb  Pb52  1  0.83426244  0.83081905  0.16659156  1
  Pb  Pb53  1  0.83314809  0.16912038  0.50385903  1
  I  I54  1  0.17617799  0.00026052  0.15699407  1
  I  I55  1  0.16714184  0.00003375  0.50426189  1
  I  I56  1  0.16181520  0.00076454  0.84025726  1
  I  I57  1  0.17001927  0.33096805  0.16168845  1
  I  I58  1  0.16699586  0.33363762  0.49832489  1
  I  I59  1  0.16214455  0.33306803  0.83756079  1
  I  I60  1  0.16966082  0.66862335  0.16169368  1
  I  I61  1  0.16590287  0.66634065  0.49965534  1
  I  I62  1  0.16311218  0.66647412  0.83758950  1
  I  I63  1  0.49317793  0.00008755  0.16282073  1
  I  I64  1  0.49903577  -0.00010957  0.50092352  1
  I  I65  1  0.50218714  0.00004916  0.83485215  1
  I  I66  1  0.49931662  0.33395438  0.16973290  1
  I  I67  1  0.50379372  0.33741072  0.49503611  1
  I  I68  1  0.49485904  0.33348162  0.83618269  1
  I  I69  1  0.49920044  0.66596127  0.17016805  1
  I  I70  1  0.50413891  0.66256515  0.49542627  1
  I  I71  1  0.49922960  0.66649703  0.83569982  1
  I  I72  1  0.83023573  0.00023591  0.16421198  1
  I  I73  1  0.83420925  0.00030502  0.50040672  1
  I  I74  1  0.83854580  0.00326031  0.83715792  1
  I  I75  1  0.82948199  0.33718376  0.16770664  1
  I  I76  1  0.82981767  0.33761518  0.49683693  1
  I  I77  1  0.84184845  0.33493242  0.83403360  1
  I  I78  1  0.82963858  0.66216950  0.16411709  1
  I  I79  1  0.82999045  0.66152121  0.50210465  1
  I  I80  1  0.83725379  0.66309677  0.83312231  1
  I  I81  1  0.16704063  0.16686259  -0.00012438  1
  I  I82  1  0.17175513  0.16322799  0.32933510  1
  I  I83  1  0.16180113  0.16792521  0.67067612  1
  I  I84  1  0.16295493  0.49986301  -0.00304917  1
  I  I85  1  0.16363593  0.50053128  0.33318027  1
  I  I86  1  0.16253961  0.49975547  0.67166629  1
  I  I87  1  0.17050322  0.83300529  0.00029446  1
  I  I88  1  0.17166401  0.83566161  0.32911060  1
  I  I89  1  0.16395624  0.83198532  0.67014977  1
  I  I90  1  0.49769215  0.17180439  0.00399778  1
  I  I91  1  0.49336809  0.16537053  0.32812417  1
  I  I92  1  0.49866843  0.16924290  0.66652149  1
  I  I93  1  0.50285952  0.50016036  0.00353876  1
  I  I94  1  0.50766527  0.50000250  0.33160055  1
  I  I95  1  0.50258910  0.49983891  0.66425168  1
  I  I96  1  0.49904072  0.82838382  0.00428653  1
  I  I97  1  0.49188491  0.83412783  0.32836557  1
  I  I98  1  0.49888225  0.83140505  0.66631737  1
  I  I99  1  0.83553471  0.17468291  -0.00294429  1
  I  I100  1  0.83388288  0.16824132  0.33331235  1
  I  I101  1  0.84246829  0.17391236  0.67179325  1
  I  I102  1  0.83297709  0.49704439  -0.00041111  1
  I  I103  1  0.82824813  0.50122724  0.33286122  1
  I  I104  1  0.83391816  0.49597671  0.66746566  1
  I  I105  1  0.83025419  0.82830589  0.00007941  1
  I  I106  1  0.83600863  0.83234979  0.33302163  1
  I  I107  1  0.83605019  0.83094347  0.66698980  1
  I  I108  1  0.00314147  0.16376989  0.16326876  1
  I  I109  1  -0.00022193  0.16990293  0.49439110  1
  I  I110  1  0.00132873  0.16944559  0.83991597  1
  I  I111  1  -0.00244773  0.50013145  0.16825863  1
  I  I112  1  -0.00307787  0.50005746  0.49645637  1
  I  I113  1  -0.00047789  0.49948104  0.83424929  1
  I  I114  1  0.00371451  0.83594632  0.16118641  1
  I  I115  1  0.00011941  0.82998409  0.49717780  1
  I  I116  1  0.00388843  0.83144884  0.84139634  1
  I  I117  1  0.33289162  0.16924081  0.16094861  1
  I  I118  1  0.33348556  0.17044807  0.50506534  1
  I  I119  1  0.32977067  0.16939940  0.83639775  1
  I  I120  1  0.33603394  0.50021773  0.16947380  1
  I  I121  1  0.33637991  0.50074561  0.49416062  1
  I  I122  1  0.33034506  0.49904152  0.83463479  1
  I  I123  1  0.33316080  0.83050743  0.16227738  1
  I  I124  1  0.33343710  0.82914377  0.50308868  1
  I  I125  1  0.32864284  0.83105325  0.83586576  1
  I  I126  1  0.66412912  0.16607789  0.16493590  1
  I  I127  1  0.66667974  0.16619262  0.50008516  1
  I  I128  1  0.66977349  0.17653338  0.83575093  1
  I  I129  1  0.66609050  0.49990783  0.16548024  1
  I  I130  1  0.66716947  0.49940928  0.49994159  1
  I  I131  1  0.66995621  0.49476873  0.83385303  1
  I  I132  1  0.66375510  0.83448660  0.16762461  1
  I  I133  1  0.66637025  0.83474645  0.49940475  1
  I  I134  1  0.66659508  0.83178860  0.83439623  1
