# generated using pymatgen
data_Cs27Sn14Pb13I81
_symmetry_space_group_name_H-M   'P 1'
_cell_length_a   18.95766802
_cell_length_b   18.95766806
_cell_length_c   18.96632515
_cell_angle_alpha   90.00001402
_cell_angle_beta   89.99998598
_cell_angle_gamma   89.99866038
_symmetry_Int_Tables_number   1
_chemical_formula_structural   Cs27Sn14Pb13I81
_chemical_formula_sum   'Cs27 Sn14 Pb13 I81'
_cell_volume   6816.36786010
_cell_formula_units_Z   1
loop_
 _symmetry_equiv_pos_site_id
 _symmetry_equiv_pos_as_xyz
  1  'x, y, z'
loop_
 _atom_site_type_symbol
 _atom_site_label
 _atom_site_symmetry_multiplicity
 _atom_site_fract_x
 _atom_site_fract_y
 _atom_site_fract_z
 _atom_site_occupancy
  Cs  Cs0  1  0.00047958  -0.00140294  0.00120943  1
  Cs  Cs1  1  -0.00140300  0.00047953  0.33212385  1
  Cs  Cs2  1  0.00029162  0.00029164  0.66666654  1
  Cs  Cs3  1  0.00042327  0.33614734  0.00048491  1
  Cs  Cs4  1  0.00156857  0.33400963  0.33467752  1
  Cs  Cs5  1  -0.00074130  0.33144406  0.66497214  1
  Cs  Cs6  1  -0.00080737  0.66742357  0.00291827  1
  Cs  Cs7  1  -0.00069492  0.66569066  0.33235681  1
  Cs  Cs8  1  0.00260271  0.66936535  0.66426797  1
  Cs  Cs9  1  0.33400960  0.00156856  -0.00134427  1
  Cs  Cs10  1  0.33614732  0.00042325  0.33284845  1
  Cs  Cs11  1  0.33144400  -0.00074120  0.66836111  1
  Cs  Cs12  1  0.33221982  0.33159810  0.00075095  1
  Cs  Cs13  1  0.33159809  0.33221978  0.33258230  1
  Cs  Cs14  1  0.33247338  0.33247343  0.66666662  1
  Cs  Cs15  1  0.33325809  0.66306514  0.00022407  1
  Cs  Cs16  1  0.34239659  0.66650698  0.33592531  1
  Cs  Cs17  1  0.33382766  0.66812541  0.66416865  1
  Cs  Cs18  1  0.66569068  -0.00069487  0.00097651  1
  Cs  Cs19  1  0.66742370  -0.00080761  0.33041497  1
  Cs  Cs20  1  0.66936527  0.00260278  0.66906539  1
  Cs  Cs21  1  0.66650725  0.34239656  -0.00259176  1
  Cs  Cs22  1  0.66306513  0.33325808  0.33310906  1
  Cs  Cs23  1  0.66812542  0.33382772  0.66916465  1
  Cs  Cs24  1  0.66731216  0.66187971  -0.00161354  1
  Cs  Cs25  1  0.66187975  0.66731224  0.33494676  1
  Cs  Cs26  1  0.66413227  0.66413234  0.66666671  1
  Sn  Sn27  1  0.83406263  0.50078148  0.49996501  1
  Sn  Sn28  1  0.50078149  0.83406263  0.83336836  1
  Sn  Sn29  1  0.16690274  0.16728424  0.83324017  1
  Sn  Sn30  1  0.83396394  0.16657064  0.16626694  1
  Sn  Sn31  1  0.16657068  0.83396389  0.16706639  1
  Sn  Sn32  1  0.83408443  0.83408444  0.16666665  1
  Sn  Sn33  1  0.16631504  0.49928118  0.83235341  1
  Sn  Sn34  1  0.49951400  0.16593440  0.83247174  1
  Sn  Sn35  1  0.16728423  0.16690278  0.50009315  1
  Sn  Sn36  1  0.83366331  0.83253262  0.49994928  1
  Sn  Sn37  1  0.16593439  0.49951397  0.50086159  1
  Sn  Sn38  1  0.49928119  0.16631505  0.50097989  1
  Sn  Sn39  1  0.83253262  0.83366330  0.83338409  1
  Sn  Sn40  1  0.16556134  0.16556141  0.16666666  1
  Pb  Pb41  1  0.50001973  0.16676544  0.16591258  1
  Pb  Pb42  1  0.50030657  0.83337129  0.16400819  1
  Pb  Pb43  1  0.16676547  0.50001974  0.16742075  1
  Pb  Pb44  1  0.16527066  0.83351759  0.49740068  1
  Pb  Pb45  1  0.83351762  0.16527068  0.83593267  1
  Pb  Pb46  1  0.16663901  0.83340175  0.83515591  1
  Pb  Pb47  1  0.49999381  0.49999384  0.16666669  1
  Pb  Pb48  1  0.83340173  0.16663898  0.49817738  1
  Pb  Pb49  1  0.49720226  0.49961057  0.83307465  1
  Pb  Pb50  1  0.49961064  0.49720226  0.50025867  1
  Pb  Pb51  1  0.83337129  0.50030654  0.16932511  1
  Pb  Pb52  1  0.83612262  0.50285693  0.83083279  1
  Pb  Pb53  1  0.50285695  0.83612264  0.50250051  1
  I  I54  1  0.16207161  0.00140194  0.16609207  1
  I  I55  1  0.16825874  0.00322581  0.50277755  1
  I  I56  1  0.16763950  0.00293189  0.83119496  1
  I  I57  1  0.16316798  0.32973093  0.16652771  1
  I  I58  1  0.16438598  0.33228688  0.49898611  1
  I  I59  1  0.17179637  0.33151282  0.83499993  1
  I  I60  1  0.16111592  0.66955312  0.16455934  1
  I  I61  1  0.16310289  0.66417473  0.50380962  1
  I  I62  1  0.16585588  0.66457332  0.83040549  1
  I  I63  1  0.49998744  0.00018566  0.16877590  1
  I  I64  1  0.49415729  0.00394120  0.50124011  1
  I  I65  1  0.49748835  0.00105785  0.82999687  1
  I  I66  1  0.50065626  0.33251753  0.16506222  1
  I  I67  1  0.50114545  0.32921323  0.50570810  1
  I  I68  1  0.49772490  0.32978275  0.83024165  1
  I  I69  1  0.49856440  0.66731354  0.16540026  1
  I  I70  1  0.49768991  0.66691099  0.50036750  1
  I  I71  1  0.50337740  0.66938315  0.83541074  1
  I  I72  1  0.83784644  -0.00091262  0.16932000  1
  I  I73  1  0.83335756  -0.00252873  0.50061509  1
  I  I74  1  0.83475684  -0.00313699  0.82876198  1
  I  I75  1  0.83800636  0.33043240  0.16844836  1
  I  I76  1  0.83497923  0.33527069  0.49792548  1
  I  I77  1  0.83075440  0.33341655  0.83369611  1
  I  I78  1  0.83841749  0.67034162  0.16444941  1
  I  I79  1  0.83980725  0.66720486  0.49882790  1
  I  I80  1  0.82912533  0.67107800  0.83882240  1
  I  I81  1  0.16730057  0.16648521  -0.00032411  1
  I  I82  1  0.16648521  0.16730036  0.33365746  1
  I  I83  1  0.17094179  0.17094203  0.66666666  1
  I  I84  1  0.16842507  0.49710229  -0.00243291  1
  I  I85  1  0.16201746  0.49584822  0.33675063  1
  I  I86  1  0.16294761  0.49267209  0.66600273  1
  I  I87  1  0.16138590  0.83746399  0.00293885  1
  I  I88  1  0.16021070  0.83752750  0.32959298  1
  I  I89  1  0.16488540  0.83519471  0.66663168  1
  I  I90  1  0.49584814  0.16201737  -0.00341730  1
  I  I91  1  0.49710204  0.16842560  0.33576627  1
  I  I92  1  0.49267220  0.16294726  0.66733062  1
  I  I93  1  0.49846583  0.49794294  -0.00071120  1
  I  I94  1  0.49794269  0.49846525  0.33404456  1
  I  I95  1  0.50218001  0.50218035  0.66666666  1
  I  I96  1  0.50398028  0.84098697  -0.00383938  1
  I  I97  1  0.50035219  0.83389507  0.33356335  1
  I  I98  1  0.50338553  0.83539204  0.67036981  1
  I  I99  1  0.83752704  0.16021067  0.00374032  1
  I  I100  1  0.83746418  0.16138583  0.33039446  1
  I  I101  1  0.83519483  0.16488554  0.66670165  1
  I  I102  1  0.83389510  0.50035234  -0.00023002  1
  I  I103  1  0.84098701  0.50398018  0.33717267  1
  I  I104  1  0.83539204  0.50338538  0.66296358  1
  I  I105  1  0.83389035  0.83920085  0.00046490  1
  I  I106  1  0.83920093  0.83389058  0.33286846  1
  I  I107  1  0.82969385  0.82969375  0.66666666  1
  I  I108  1  0.00140190  0.16207186  0.16724095  1
  I  I109  1  0.00293189  0.16763932  0.50213837  1
  I  I110  1  0.00322580  0.16825864  0.83055608  1
  I  I111  1  0.00018565  0.49998715  0.16455757  1
  I  I112  1  0.00105792  0.49748853  0.50333659  1
  I  I113  1  0.00394119  0.49415712  0.83209299  1
  I  I114  1  -0.00091261  0.83784646  0.16401330  1
  I  I115  1  -0.00313702  0.83475682  0.50457133  1
  I  I116  1  -0.00252870  0.83335759  0.83271840  1
  I  I117  1  0.32973089  0.16316791  0.16680576  1
  I  I118  1  0.33151275  0.17179615  0.49833366  1
  I  I119  1  0.33228685  0.16438597  0.83434710  1
  I  I120  1  0.33251750  0.50065574  0.16827061  1
  I  I121  1  0.32978274  0.49772511  0.50309156  1
  I  I122  1  0.32921322  0.50114584  0.82762579  1
  I  I123  1  0.33043237  0.83800689  0.16488486  1
  I  I124  1  0.33341657  0.83075429  0.49963741  1
  I  I125  1  0.33527069  0.83497880  0.83540781  1
  I  I126  1  0.66955309  0.16111589  0.16877427  1
  I  I127  1  0.66457328  0.16585626  0.50292781  1
  I  I128  1  0.66417476  0.16310286  0.82952358  1
  I  I129  1  0.66731359  0.49856509  0.16793335  1
  I  I130  1  0.66938318  0.50337701  0.49792263  1
  I  I131  1  0.66691103  0.49768970  0.83296558  1
  I  I132  1  0.67034167  0.83841722  0.16888421  1
  I  I133  1  0.67107799  0.82912542  0.49451085  1
  I  I134  1  0.66720489  0.83980737  0.83450536  1
