# generated using pymatgen
data_Cs27Sn13Pb14I81
_symmetry_space_group_name_H-M   'P 1'
_cell_length_a   18.97448414
_cell_length_b   18.98796914
_cell_length_c   18.97383076
_cell_angle_alpha   89.99939614
_cell_angle_beta   90.00039545
_cell_angle_gamma   90.00120446
_symmetry_Int_Tables_number   1
_chemical_formula_structural   Cs27Sn13Pb14I81
_chemical_formula_sum   'Cs27 Sn13 Pb14 I81'
_cell_volume   6836.02303090
_cell_formula_units_Z   1
loop_
 _symmetry_equiv_pos_site_id
 _symmetry_equiv_pos_as_xyz
  1  'x, y, z'
loop_
 _atom_site_type_symbol
 _atom_site_label
 _atom_site_symmetry_multiplicity
 _atom_site_fract_x
 _atom_site_fract_y
 _atom_site_fract_z
 _atom_site_occupancy
  Cs  Cs0  1  -0.00178649  -0.00097913  -0.00053038  1
  Cs  Cs1  1  0.00029842  -0.00001505  0.33343319  1
  Cs  Cs2  1  0.00172723  0.00208135  0.66746288  1
  Cs  Cs3  1  -0.00022065  0.33278372  0.00131981  1
  Cs  Cs4  1  0.00261644  0.33115122  0.33432508  1
  Cs  Cs5  1  0.00016053  0.32942803  0.66375028  1
  Cs  Cs6  1  -0.00198409  0.66811856  -0.00086050  1
  Cs  Cs7  1  0.00076852  0.66769882  0.33508852  1
  Cs  Cs8  1  0.00129446  0.66738540  0.66476421  1
  Cs  Cs9  1  0.33746190  -0.00093620  -0.00013638  1
  Cs  Cs10  1  0.33446181  0.00035529  0.33383128  1
  Cs  Cs11  1  0.33327404  0.00255784  0.66745583  1
  Cs  Cs12  1  0.32941612  0.34126476  0.00124277  1
  Cs  Cs13  1  0.33039523  0.33428395  0.33198597  1
  Cs  Cs14  1  0.33332245  0.33364294  0.66670435  1
  Cs  Cs15  1  0.33367883  0.66193987  -0.00136990  1
  Cs  Cs16  1  0.33225008  0.66594096  0.33325889  1
  Cs  Cs17  1  0.33141966  0.66366491  0.66796161  1
  Cs  Cs18  1  0.66692790  0.00042089  0.00038202  1
  Cs  Cs19  1  0.66506112  -0.00118495  0.33299417  1
  Cs  Cs20  1  0.66520878  -0.00008001  0.66653510  1
  Cs  Cs21  1  0.66808418  0.33027882  -0.00094570  1
  Cs  Cs22  1  0.66560665  0.33420908  0.33822511  1
  Cs  Cs23  1  0.66553953  0.33406968  0.66348051  1
  Cs  Cs24  1  0.66803832  0.66779728  0.00047819  1
  Cs  Cs25  1  0.66547506  0.66695117  0.33806565  1
  Cs  Cs26  1  0.66568682  0.66588562  0.66152615  1
  Sn  Sn27  1  0.83320599  0.50011534  0.83380149  1
  Sn  Sn28  1  0.16683802  0.83345439  0.16700142  1
  Sn  Sn29  1  0.83237447  0.16655029  0.16616220  1
  Sn  Sn30  1  0.83305906  0.50006241  0.16631782  1
  Sn  Sn31  1  0.16647393  0.50069325  0.49990837  1
  Sn  Sn32  1  0.50106806  0.83371982  0.83427486  1
  Sn  Sn33  1  0.83240577  0.16647166  0.83420914  1
  Sn  Sn34  1  0.50086951  0.16612027  0.83485140  1
  Sn  Sn35  1  0.50081726  0.16626500  0.16549397  1
  Sn  Sn36  1  0.83298876  0.83324761  0.16622538  1
  Sn  Sn37  1  0.83228329  0.83324509  0.83387877  1
  Sn  Sn38  1  0.16668636  0.83287277  0.49942375  1
  Sn  Sn39  1  0.50021798  0.83366962  0.16573859  1
  Pb  Pb40  1  0.16387024  0.50266813  0.16794833  1
  Pb  Pb41  1  0.50017261  0.16641378  0.49980027  1
  Pb  Pb42  1  0.83491142  0.50009041  0.49989984  1
  Pb  Pb43  1  0.50260560  0.49995940  0.16660207  1
  Pb  Pb44  1  0.49716165  0.50003551  0.49989784  1
  Pb  Pb45  1  0.16704414  0.83345609  0.83383761  1
  Pb  Pb46  1  0.49750149  0.83337181  0.50034083  1
  Pb  Pb47  1  0.16695203  0.16422775  0.16628392  1
  Pb  Pb48  1  0.16716091  0.16662097  0.83391412  1
  Pb  Pb49  1  0.16352101  0.49997973  0.83133535  1
  Pb  Pb50  1  0.83305068  0.16635404  0.49981531  1
  Pb  Pb51  1  0.16681280  0.16613399  0.49981403  1
  Pb  Pb52  1  0.50260842  0.49996394  0.83354589  1
  Pb  Pb53  1  0.83512282  0.83357302  0.50025654  1
  I  I54  1  0.16156847  -0.00411673  0.17299621  1
  I  I55  1  0.16628669  -0.00346176  0.49589457  1
  I  I56  1  0.16104087  -0.00034620  0.82933760  1
  I  I57  1  0.16663634  0.33352116  0.16974540  1
  I  I58  1  0.16487311  0.33619909  0.50129126  1
  I  I59  1  0.16701859  0.33340014  0.82972694  1
  I  I60  1  0.16709105  0.67087818  0.16819460  1
  I  I61  1  0.16507506  0.66778727  0.49542393  1
  I  I62  1  0.16667867  0.66697763  0.83467910  1
  I  I63  1  0.50386246  -0.00100398  0.16369457  1
  I  I64  1  0.49607418  -0.00028657  0.50007340  1
  I  I65  1  0.50739981  -0.00058337  0.83675989  1
  I  I66  1  0.50440251  0.32977981  0.16279721  1
  I  I67  1  0.49742720  0.33311176  0.50026964  1
  I  I68  1  0.50378879  0.32979416  0.83679706  1
  I  I69  1  0.49988081  0.67037477  0.16299382  1
  I  I70  1  0.50229506  0.66710370  0.49993277  1
  I  I71  1  0.50297702  0.67009208  0.83738018  1
  I  I72  1  0.83408583  -0.00064531  0.16188365  1
  I  I73  1  0.83819428  -0.00015719  0.49989636  1
  I  I74  1  0.83080512  -0.00033174  0.83884480  1
  I  I75  1  0.82972911  0.33258520  0.16079151  1
  I  I76  1  0.83792286  0.33332192  0.49982074  1
  I  I77  1  0.83103837  0.33258929  0.83916000  1
  I  I78  1  0.83474144  0.66791021  0.16081877  1
  I  I79  1  0.83300660  0.66686517  0.50023252  1
  I  I80  1  0.83124806  0.66774979  0.83961294  1
  I  I81  1  0.16500547  0.16511929  0.00031268  1
  I  I82  1  0.16570410  0.16800342  0.33290661  1
  I  I83  1  0.16542484  0.16435656  0.66676159  1
  I  I84  1  0.16812948  0.50066737  0.00017566  1
  I  I85  1  0.16368466  0.50258399  0.33588688  1
  I  I86  1  0.16499656  0.50857706  0.66339638  1
  I  I87  1  0.16486882  0.83495621  0.00320585  1
  I  I88  1  0.16551272  0.82973008  0.33193520  1
  I  I89  1  0.16559218  0.82905365  0.66430656  1
  I  I90  1  0.50573443  0.16011140  0.00023017  1
  I  I91  1  0.50442387  0.16159680  0.32927516  1
  I  I92  1  0.50433892  0.16196448  0.67061248  1
  I  I93  1  0.49449538  0.50116871  0.00007752  1
  I  I94  1  0.50399231  0.50003281  0.33290860  1
  I  I95  1  0.50289500  0.50028734  0.66703214  1
  I  I96  1  0.49915667  0.83760691  0.00074882  1
  I  I97  1  0.50303892  0.83732579  0.32967011  1
  I  I98  1  0.50410071  0.83750805  0.67035254  1
  I  I99  1  0.83016762  0.16631180  0.00028395  1
  I  I100  1  0.83022305  0.16634681  0.32910693  1
  I  I101  1  0.83025656  0.16678519  0.67070206  1
  I  I102  1  0.83413589  0.50080018  0.00020000  1
  I  I103  1  0.83450702  0.50074096  0.32992573  1
  I  I104  1  0.83463464  0.50013153  0.67004328  1
  I  I105  1  0.83577744  0.83310009  0.00077242  1
  I  I106  1  0.83121596  0.83304453  0.32950352  1
  I  I107  1  0.83052510  0.83325513  0.67053548  1
  I  I108  1  -0.00366560  0.16628239  0.16295057  1
  I  I109  1  -0.00005819  0.16665148  0.50069147  1
  I  I110  1  -0.00409831  0.16549613  0.83674233  1
  I  I111  1  -0.00434825  0.49907407  0.16294058  1
  I  I112  1  0.00262928  0.50600681  0.50009558  1
  I  I113  1  -0.00495094  0.50126607  0.83783192  1
  I  I114  1  -0.00148044  0.83301284  0.16688090  1
  I  I115  1  0.00310157  0.82947499  0.49582098  1
  I  I116  1  -0.00342256  0.83379233  0.83620707  1
  I  I117  1  0.33705986  0.16126693  0.16348648  1
  I  I118  1  0.33345457  0.16714504  0.50067042  1
  I  I119  1  0.33753014  0.15956682  0.83600695  1
  I  I120  1  0.33318159  0.49932305  0.16951889  1
  I  I121  1  0.32908352  0.50576339  0.49949149  1
  I  I122  1  0.33345232  0.50001373  0.83047981  1
  I  I123  1  0.33430651  0.83897376  0.16732513  1
  I  I124  1  0.32963196  0.82890095  0.49539749  1
  I  I125  1  0.33680539  0.83905454  0.83570377  1
  I  I126  1  0.66757345  0.16155681  0.16263264  1
  I  I127  1  0.66666271  0.16742377  0.49964264  1
  I  I128  1  0.66769973  0.16543411  0.83782368  1
  I  I129  1  0.67094334  0.50486837  0.16269018  1
  I  I130  1  0.66701547  0.49900383  0.50019114  1
  I  I131  1  0.67088629  0.50055171  0.83744289  1
  I  I132  1  0.66728747  0.83412030  0.16183942  1
  I  I133  1  0.66647480  0.83358140  0.49767111  1
  I  I134  1  0.66759055  0.83406885  0.84089891  1
