# generated using pymatgen
data_Cs27Sn13Pb14I81
_symmetry_space_group_name_H-M   'P 1'
_cell_length_a   18.97654190
_cell_length_b   18.97209747
_cell_length_c   18.98286230
_cell_angle_alpha   89.99958774
_cell_angle_beta   90.00075846
_cell_angle_gamma   90.00033500
_symmetry_Int_Tables_number   1
_chemical_formula_structural   Cs27Sn13Pb14I81
_chemical_formula_sum   'Cs27 Sn13 Pb14 I81'
_cell_volume   6834.30125288
_cell_formula_units_Z   1
loop_
 _symmetry_equiv_pos_site_id
 _symmetry_equiv_pos_as_xyz
  1  'x, y, z'
loop_
 _atom_site_type_symbol
 _atom_site_label
 _atom_site_symmetry_multiplicity
 _atom_site_fract_x
 _atom_site_fract_y
 _atom_site_fract_z
 _atom_site_occupancy
  Cs  Cs0  1  -0.00008460  -0.00145954  -0.00188920  1
  Cs  Cs1  1  -0.00087364  0.00557965  0.33156466  1
  Cs  Cs2  1  -0.00080654  -0.00295236  0.67006046  1
  Cs  Cs3  1  -0.00040297  0.33201325  -0.00129823  1
  Cs  Cs4  1  0.00173768  0.32770568  0.33504486  1
  Cs  Cs5  1  0.00099859  0.33290621  0.66599951  1
  Cs  Cs6  1  -0.00006836  0.66797056  -0.00013723  1
  Cs  Cs7  1  -0.00075086  0.66738628  0.33409288  1
  Cs  Cs8  1  0.00002883  0.66807695  0.66637605  1
  Cs  Cs9  1  0.33609912  0.00232424  0.00037827  1
  Cs  Cs10  1  0.33814300  0.00692366  0.33445633  1
  Cs  Cs11  1  0.34127106  -0.00183291  0.66622127  1
  Cs  Cs12  1  0.33611982  0.33363801  -0.00175152  1
  Cs  Cs13  1  0.32958398  0.32960031  0.33389187  1
  Cs  Cs14  1  0.33160933  0.33500832  0.66776039  1
  Cs  Cs15  1  0.33237694  0.66534423  -0.00104351  1
  Cs  Cs16  1  0.33316624  0.66651846  0.33350407  1
  Cs  Cs17  1  0.33246491  0.66580607  0.66787794  1
  Cs  Cs18  1  0.66060527  -0.00041909  0.00670234  1
  Cs  Cs19  1  0.66040903  0.00672080  0.32778274  1
  Cs  Cs20  1  0.66121638  0.00082389  0.66486367  1
  Cs  Cs21  1  0.66480438  0.33535142  -0.00148663  1
  Cs  Cs22  1  0.66861232  0.33485753  0.33457327  1
  Cs  Cs23  1  0.66766901  0.33182651  0.66642220  1
  Cs  Cs24  1  0.66699035  0.66637970  0.00237561  1
  Cs  Cs25  1  0.66621809  0.66564272  0.33296864  1
  Cs  Cs26  1  0.66859747  0.66703772  0.66444151  1
  Sn  Sn27  1  0.16629994  0.50060845  0.16668940  1
  Sn  Sn28  1  0.50035884  0.50048203  0.49940725  1
  Sn  Sn29  1  0.83311090  0.50076325  0.49994495  1
  Sn  Sn30  1  0.83340339  0.83374923  0.83285997  1
  Sn  Sn31  1  0.16610868  0.83422423  0.83324506  1
  Sn  Sn32  1  0.16594620  0.16552501  0.83312815  1
  Sn  Sn33  1  0.83389766  0.83319562  0.49997285  1
  Sn  Sn34  1  0.49976151  0.50050599  0.16779391  1
  Sn  Sn35  1  0.16584022  0.83333196  0.49982472  1
  Sn  Sn36  1  0.83382485  0.16586441  0.83331888  1
  Sn  Sn37  1  0.16640606  0.83300393  0.16701030  1
  Sn  Sn38  1  0.83398903  0.50024507  0.16702799  1
  Sn  Sn39  1  0.83379282  0.50019736  0.83304657  1
  Pb  Pb40  1  0.50067450  0.83121386  0.49982900  1
  Pb  Pb41  1  0.16447005  0.50043997  0.83522075  1
  Pb  Pb42  1  0.83347516  0.16943003  0.16388243  1
  Pb  Pb43  1  0.16647331  0.16629486  0.16422827  1
  Pb  Pb44  1  0.49680635  0.83091275  0.16684324  1
  Pb  Pb45  1  0.50017969  0.16668788  0.83326739  1
  Pb  Pb46  1  0.49990408  0.17012718  0.16660937  1
  Pb  Pb47  1  0.50052035  0.83303941  0.83339223  1
  Pb  Pb48  1  0.83490152  0.83191648  0.16715939  1
  Pb  Pb49  1  0.16611450  0.50161834  0.49787134  1
  Pb  Pb50  1  0.50008523  0.17030378  0.50022155  1
  Pb  Pb51  1  0.50283783  0.50031985  0.83294727  1
  Pb  Pb52  1  0.83344902  0.16587573  0.50229913  1
  Pb  Pb53  1  0.16637152  0.16291240  0.50315075  1
  I  I54  1  0.16462674  -0.00348386  0.16756771  1
  I  I55  1  0.15937459  -0.00535047  0.49414885  1
  I  I56  1  0.15759569  -0.00150477  0.83540434  1
  I  I57  1  0.16705776  0.33665615  0.16510908  1
  I  I58  1  0.16760986  0.33335130  0.49971389  1
  I  I59  1  0.16231536  0.33149630  0.83608768  1
  I  I60  1  0.16648035  0.66642755  0.16344977  1
  I  I61  1  0.16528599  0.66977262  0.50565664  1
  I  I62  1  0.16280080  0.66991395  0.83241478  1
  I  I63  1  0.49939870  -0.00003582  0.16579010  1
  I  I64  1  0.50002613  -0.00015892  0.50106285  1
  I  I65  1  0.50367299  -0.00009879  0.83323758  1
  I  I66  1  0.49797253  0.33864697  0.16953432  1
  I  I67  1  0.50673915  0.33861552  0.49595257  1
  I  I68  1  0.49908742  0.33368885  0.83391307  1
  I  I69  1  0.50315007  0.66250582  0.16971797  1
  I  I70  1  0.50255493  0.66308391  0.49588706  1
  I  I71  1  0.49806924  0.66638552  0.83401158  1
  I  I72  1  0.83565367  -0.00011957  0.16675096  1
  I  I73  1  0.83943839  -0.00394977  0.50566781  1
  I  I74  1  0.83985436  -0.00129449  0.82749096  1
  I  I75  1  0.83549089  0.33863001  0.16750261  1
  I  I76  1  0.82857090  0.33670605  0.50035277  1
  I  I77  1  0.83678010  0.33410318  0.83463870  1
  I  I78  1  0.83194756  0.66299955  0.16187484  1
  I  I79  1  0.83356178  0.66575619  0.50507265  1
  I  I80  1  0.83710961  0.66674081  0.83279076  1
  I  I81  1  0.16143662  0.16212173  -0.00361213  1
  I  I82  1  0.16809451  0.16677162  0.33339733  1
  I  I83  1  0.16101052  0.16505358  0.67112277  1
  I  I84  1  0.16692307  0.50486432  0.00333669  1
  I  I85  1  0.16302283  0.50575147  0.32975904  1
  I  I86  1  0.16787758  0.50002705  0.66666418  1
  I  I87  1  0.16234604  0.83221848  -0.00072228  1
  I  I88  1  0.16248537  0.82464097  0.33344758  1
  I  I89  1  0.16202401  0.83671390  0.66721834  1
  I  I90  1  0.50013647  0.16975509  -0.00013668  1
  I  I91  1  0.49953166  0.16411903  0.33333754  1
  I  I92  1  0.49966587  0.16930314  0.66688142  1
  I  I93  1  0.50053519  0.49967924  0.00305163  1
  I  I94  1  0.50602915  0.50164352  0.33289794  1
  I  I95  1  0.50456529  0.50042332  0.66355736  1
  I  I96  1  0.50089478  0.83011558  0.00015314  1
  I  I97  1  0.50047455  0.83306807  0.33336389  1
  I  I98  1  0.49525766  0.82982137  0.66654027  1
  I  I99  1  0.83836255  0.16622772  -0.00453285  1
  I  I100  1  0.83247559  0.16724213  0.33336574  1
  I  I101  1  0.83800701  0.17270372  0.67054764  1
  I  I102  1  0.83372453  0.49985773  -0.00008797  1
  I  I103  1  0.83165101  0.50575392  0.33366530  1
  I  I104  1  0.82865078  0.50064894  0.66654928  1
  I  I105  1  0.83814461  0.83139176  -0.00299822  1
  I  I106  1  0.83866412  0.82522272  0.33635562  1
  I  I107  1  0.84151283  0.82690133  0.66727946  1
  I  I108  1  0.00003724  0.17129375  0.16814389  1
  I  I109  1  -0.00004478  0.17382957  0.49784950  1
  I  I110  1  -0.00070657  0.16637107  0.83409160  1
  I  I111  1  -0.00042581  0.50436461  0.16498006  1
  I  I112  1  -0.00338119  0.50229120  0.50037881  1
  I  I113  1  -0.00394536  0.50038400  0.83281822  1
  I  I114  1  0.00317996  0.82585321  0.16519437  1
  I  I115  1  -0.00057604  0.82570680  0.50244508  1
  I  I116  1  -0.00021791  0.83295867  0.83290860  1
  I  I117  1  0.33302763  0.16864177  0.16313266  1
  I  I118  1  0.33309057  0.16709215  0.50279640  1
  I  I119  1  0.32993992  0.16172584  0.83424115  1
  I  I120  1  0.33299292  0.50463637  0.17054039  1
  I  I121  1  0.33540114  0.50161597  0.49513622  1
  I  I122  1  0.33306212  0.49926362  0.83390272  1
  I  I123  1  0.32830914  0.82687658  0.16494874  1
  I  I124  1  0.33021103  0.83134037  0.50172435  1
  I  I125  1  0.32945383  0.83768025  0.83278132  1
  I  I126  1  0.66677468  0.16650374  0.16349086  1
  I  I127  1  0.66694873  0.16274940  0.50351091  1
  I  I128  1  0.67039515  0.16847296  0.83271469  1
  I  I129  1  0.66755045  0.49888542  0.16624624  1
  I  I130  1  0.66855848  0.50506183  0.49623948  1
  I  I131  1  0.67151719  0.49997408  0.83786746  1
  I  I132  1  0.66677410  0.83152836  0.16520520  1
  I  I133  1  0.67054151  0.82935263  0.50756035  1
  I  I134  1  0.67106407  0.83245324  0.82800248  1
