# generated using pymatgen
data_Cs27Sn14Pb13I81
_symmetry_space_group_name_H-M   'P 1'
_cell_length_a   18.97494133
_cell_length_b   18.97662335
_cell_length_c   18.97878413
_cell_angle_alpha   89.99921479
_cell_angle_beta   90.00122554
_cell_angle_gamma   90.00023216
_symmetry_Int_Tables_number   1
_chemical_formula_structural   Cs27Sn14Pb13I81
_chemical_formula_sum   'Cs27 Sn14 Pb13 I81'
_cell_volume   6833.88656176
_cell_formula_units_Z   1
loop_
 _symmetry_equiv_pos_site_id
 _symmetry_equiv_pos_as_xyz
  1  'x, y, z'
loop_
 _atom_site_type_symbol
 _atom_site_label
 _atom_site_symmetry_multiplicity
 _atom_site_fract_x
 _atom_site_fract_y
 _atom_site_fract_z
 _atom_site_occupancy
  Cs  Cs0  1  -0.00168585  0.00062805  -0.00011534  1
  Cs  Cs1  1  -0.00061676  0.00032465  0.33378999  1
  Cs  Cs2  1  -0.00068347  -0.00129940  0.66679338  1
  Cs  Cs3  1  0.00318741  0.33255961  0.00137747  1
  Cs  Cs4  1  0.00073230  0.33254733  0.33244374  1
  Cs  Cs5  1  0.00080151  0.33163942  0.66658817  1
  Cs  Cs6  1  -0.00330386  0.66747014  -0.00504998  1
  Cs  Cs7  1  0.00234749  0.66712401  0.33263603  1
  Cs  Cs8  1  -0.00127894  0.67165760  0.67645570  1
  Cs  Cs9  1  0.33733756  0.00166120  0.00073830  1
  Cs  Cs10  1  0.33433229  -0.00090187  0.33346599  1
  Cs  Cs11  1  0.33480365  -0.00054283  0.66534609  1
  Cs  Cs12  1  0.33187780  0.33451585  -0.00242979  1
  Cs  Cs13  1  0.33020421  0.33238674  0.33306078  1
  Cs  Cs14  1  0.33414443  0.33347443  0.66872610  1
  Cs  Cs15  1  0.33667230  0.66229969  0.00077034  1
  Cs  Cs16  1  0.33045077  0.66788391  0.33256983  1
  Cs  Cs17  1  0.33360125  0.66829046  0.66828145  1
  Cs  Cs18  1  0.66563893  -0.00023459  -0.00077134  1
  Cs  Cs19  1  0.66752749  0.00070191  0.33457215  1
  Cs  Cs20  1  0.66626040  0.00073653  0.66631449  1
  Cs  Cs21  1  0.66515974  0.33741896  0.00176789  1
  Cs  Cs22  1  0.66741065  0.33821604  0.33501470  1
  Cs  Cs23  1  0.66512254  0.33417516  0.66371562  1
  Cs  Cs24  1  0.66734761  0.65927555  -0.00141999  1
  Cs  Cs25  1  0.66653201  0.66052962  0.33327951  1
  Cs  Cs26  1  0.66680272  0.66134123  0.66776369  1
  Sn  Sn27  1  0.50123341  0.83401593  0.50048599  1
  Sn  Sn28  1  0.16584650  0.83384613  0.16658017  1
  Sn  Sn29  1  0.83378625  0.83416171  0.16763879  1
  Sn  Sn30  1  0.83323569  0.16600019  0.49974262  1
  Sn  Sn31  1  0.83244013  0.83382976  0.49914866  1
  Sn  Sn32  1  0.83233034  0.16636027  0.83339401  1
  Sn  Sn33  1  0.50030345  0.83431609  0.83255359  1
  Sn  Sn34  1  0.16604576  0.16600255  0.16754587  1
  Sn  Sn35  1  0.16660109  0.16720490  0.49929468  1
  Sn  Sn36  1  0.83379941  0.16572111  0.16677521  1
  Sn  Sn37  1  0.50011306  0.16586964  0.50040407  1
  Sn  Sn38  1  0.16614245  0.49993841  0.16760542  1
  Sn  Sn39  1  0.50113615  0.16567423  0.83251193  1
  Sn  Sn40  1  0.16610345  0.49957310  0.49993234  1
  Pb  Pb41  1  0.49739551  0.50014861  0.49991192  1
  Pb  Pb42  1  0.50002898  0.49938760  0.83288508  1
  Pb  Pb43  1  0.50053116  0.16669280  0.16714234  1
  Pb  Pb44  1  0.16651903  0.49998269  0.83290607  1
  Pb  Pb45  1  0.50122809  0.83346800  0.16713624  1
  Pb  Pb46  1  0.83343302  0.49612710  0.83308809  1
  Pb  Pb47  1  0.83104181  0.83533088  0.83345922  1
  Pb  Pb48  1  0.16635580  0.83372358  0.49877666  1
  Pb  Pb49  1  0.16968376  0.83376835  0.83692931  1
  Pb  Pb50  1  0.83576980  0.50005394  0.16689210  1
  Pb  Pb51  1  0.83634249  0.50054698  0.50010903  1
  Pb  Pb52  1  0.16690051  0.16635018  0.83312980  1
  Pb  Pb53  1  0.49704385  0.49985386  0.16712481  1
  I  I54  1  0.16292397  0.00101394  0.17094905  1
  I  I55  1  0.16716736  0.00324920  0.49586500  1
  I  I56  1  0.16550662  0.00020741  0.83293779  1
  I  I57  1  0.16338591  0.33200195  0.17067928  1
  I  I58  1  0.16677730  0.33105231  0.49213024  1
  I  I59  1  0.16854515  0.33285262  0.83819239  1
  I  I60  1  0.16474065  0.66690761  0.17188122  1
  I  I61  1  0.16807270  0.66489187  0.49382397  1
  I  I62  1  0.16875472  0.66698099  0.83202379  1
  I  I63  1  0.49235187  0.00012789  0.16569944  1
  I  I64  1  0.49783585  0.00110844  0.50404146  1
  I  I65  1  0.50281694  0.00118255  0.82910694  1
  I  I66  1  0.50077545  0.33280007  0.16566798  1
  I  I67  1  0.50249268  0.32960991  0.50373841  1
  I  I68  1  0.50321287  0.32939789  0.82912935  1
  I  I69  1  0.49940399  0.66705920  0.16582233  1
  I  I70  1  0.50317902  0.67024705  0.50365263  1
  I  I71  1  0.49807710  0.66977172  0.82956630  1
  I  I72  1  0.84232105  0.00099614  0.16774195  1
  I  I73  1  0.83499526  0.00138864  0.49902002  1
  I  I74  1  0.83205839  0.00357949  0.83369159  1
  I  I75  1  0.83650257  0.32958063  0.16697702  1
  I  I76  1  0.83039674  0.32952904  0.49923667  1
  I  I77  1  0.82733914  0.32750852  0.83328529  1
  I  I78  1  0.83654358  0.67017317  0.17153342  1
  I  I79  1  0.82919778  0.67038891  0.49432604  1
  I  I80  1  0.83228454  0.66709691  0.83378928  1
  I  I81  1  0.16397409  0.16771953  0.00339686  1
  I  I82  1  0.16463830  0.16761255  0.33339661  1
  I  I83  1  0.16456933  0.17175953  0.66314969  1
  I  I84  1  0.16705774  0.49803126  0.00358869  1
  I  I85  1  0.16725715  0.49782190  0.33278599  1
  I  I86  1  0.16769922  0.49269424  0.66315083  1
  I  I87  1  0.16072770  0.83418994  0.00527576  1
  I  I88  1  0.16835073  0.83374637  0.33051236  1
  I  I89  1  0.16415891  0.83240417  0.66664024  1
  I  I90  1  0.50196703  0.16226831  -0.00276525  1
  I  I91  1  0.50040492  0.16165039  0.33691556  1
  I  I92  1  0.50205764  0.16322849  0.66553848  1
  I  I93  1  0.49721301  0.50037142  -0.00017329  1
  I  I94  1  0.50221144  0.49998262  0.33380230  1
  I  I95  1  0.49547415  0.49980724  0.66634538  1
  I  I96  1  0.49755316  0.83875907  -0.00253596  1
  I  I97  1  0.49949166  0.83923812  0.33658739  1
  I  I98  1  0.50404905  0.83826274  0.66527499  1
  I  I99  1  0.83452254  0.16261232  0.00097318  1
  I  I100  1  0.83479432  0.16270099  0.33375833  1
  I  I101  1  0.83396103  0.16333720  0.66532184  1
  I  I102  1  0.83611102  0.50125674  0.00018662  1
  I  I103  1  0.83084885  0.49571083  0.33345358  1
  I  I104  1  0.83736349  0.50117725  0.66637244  1
  I  I105  1  0.83745482  0.83783031  0.00290094  1
  I  I106  1  0.83223249  0.84195284  0.33366704  1
  I  I107  1  0.83273533  0.83754060  0.66370294  1
  I  I108  1  0.00019596  0.16680490  0.16918756  1
  I  I109  1  -0.00045806  0.16691691  0.49953839  1
  I  I110  1  -0.00288586  0.16721901  0.83139998  1
  I  I111  1  0.00378117  0.49837936  0.17222265  1
  I  I112  1  0.00410073  0.49416578  0.49372227  1
  I  I113  1  0.00006965  0.49996973  0.83315032  1
  I  I114  1  -0.00038995  0.83462969  0.17326776  1
  I  I115  1  -0.00279708  0.83690869  0.49689218  1
  I  I116  1  -0.00036222  0.83354110  0.83066626  1
  I  I117  1  0.33011135  0.16677709  0.16955917  1
  I  I118  1  0.33330843  0.16652905  0.49990606  1
  I  I119  1  0.33644697  0.16377636  0.83058556  1
  I  I120  1  0.32834317  0.49973205  0.17047206  1
  I  I121  1  0.32953529  0.49550307  0.49440767  1
  I  I122  1  0.33332465  0.49745606  0.83558002  1
  I  I123  1  0.33064685  0.83339061  0.16688437  1
  I  I124  1  0.33561991  0.83645693  0.50205835  1
  I  I125  1  0.33749511  0.84043886  0.82682195  1
  I  I126  1  0.67026776  0.15973780  0.16821468  1
  I  I127  1  0.66706436  0.16169124  0.50052219  1
  I  I128  1  0.66659681  0.16198911  0.83066323  1
  I  I129  1  0.66715984  0.50027633  0.16451512  1
  I  I130  1  0.66680952  0.49739485  0.50119178  1
  I  I131  1  0.66659134  0.50240978  0.83448974  1
  I  I132  1  0.67030486  0.84165172  0.16764073  1
  I  I133  1  0.66712611  0.84261482  0.49762378  1
  I  I134  1  0.66333789  0.83744000  0.83429480  1
