# generated using pymatgen
data_Cs27Sn13Pb14I81
_symmetry_space_group_name_H-M   'P 1'
_cell_length_a   18.97533260
_cell_length_b   18.97622992
_cell_length_c   18.97911039
_cell_angle_alpha   89.99951295
_cell_angle_beta   89.99946768
_cell_angle_gamma   90.00240582
_symmetry_Int_Tables_number   1
_chemical_formula_structural   Cs27Sn13Pb14I81
_chemical_formula_sum   'Cs27 Sn13 Pb14 I81'
_cell_volume   6834.00326644
_cell_formula_units_Z   1
loop_
 _symmetry_equiv_pos_site_id
 _symmetry_equiv_pos_as_xyz
  1  'x, y, z'
loop_
 _atom_site_type_symbol
 _atom_site_label
 _atom_site_symmetry_multiplicity
 _atom_site_fract_x
 _atom_site_fract_y
 _atom_site_fract_z
 _atom_site_occupancy
  Cs  Cs0  1  0.00172202  -0.00364906  0.00294828  1
  Cs  Cs1  1  -0.00095332  -0.00090654  0.33115506  1
  Cs  Cs2  1  0.00078762  0.00018959  0.66625835  1
  Cs  Cs3  1  -0.00044507  0.33528920  -0.00423087  1
  Cs  Cs4  1  0.00037607  0.33443165  0.33504507  1
  Cs  Cs5  1  -0.00019522  0.33519916  0.66873079  1
  Cs  Cs6  1  -0.00117446  0.66950569  0.00115056  1
  Cs  Cs7  1  -0.00087213  0.66643351  0.33200742  1
  Cs  Cs8  1  0.00009449  0.66509649  0.66657756  1
  Cs  Cs9  1  0.33087612  0.00075817  -0.00135555  1
  Cs  Cs10  1  0.33163765  -0.00100509  0.33527669  1
  Cs  Cs11  1  0.33410115  -0.00159609  0.66569203  1
  Cs  Cs12  1  0.33969408  0.33413455  0.00212452  1
  Cs  Cs13  1  0.33339966  0.33408832  0.33362231  1
  Cs  Cs14  1  0.32854903  0.33465655  0.66388779  1
  Cs  Cs15  1  0.33809962  0.66430782  0.00118552  1
  Cs  Cs16  1  0.33482072  0.66665755  0.33386548  1
  Cs  Cs17  1  0.33380301  0.66749983  0.66712791  1
  Cs  Cs18  1  0.66530666  0.00882138  0.00163706  1
  Cs  Cs19  1  0.67018207  0.00186506  0.33252381  1
  Cs  Cs20  1  0.66487137  -0.00181451  0.66753181  1
  Cs  Cs21  1  0.65900761  0.32845725  -0.00575545  1
  Cs  Cs22  1  0.66567169  0.33361588  0.33256762  1
  Cs  Cs23  1  0.67212899  0.33070132  0.67023979  1
  Cs  Cs24  1  0.66304104  0.66316634  -0.00095158  1
  Cs  Cs25  1  0.66704542  0.66588423  0.33482015  1
  Cs  Cs26  1  0.66622891  0.67011222  0.66568571  1
  Sn  Sn27  1  0.16710446  0.16587051  0.49997499  1
  Sn  Sn28  1  0.83442527  0.83264595  0.50054515  1
  Sn  Sn29  1  0.83252400  0.50069481  0.49919727  1
  Sn  Sn30  1  0.16587476  0.83374141  0.83233772  1
  Sn  Sn31  1  0.50022629  0.83373843  0.16687017  1
  Sn  Sn32  1  0.16578007  0.83385128  0.50053835  1
  Sn  Sn33  1  0.50116722  0.49895261  0.50003138  1
  Sn  Sn34  1  0.83390522  0.83330085  0.83288884  1
  Sn  Sn35  1  0.16582904  0.49927339  0.16684517  1
  Sn  Sn36  1  0.49951023  0.16766148  0.49986130  1
  Sn  Sn37  1  0.83368646  0.49960525  0.16687848  1
  Sn  Sn38  1  0.16660912  0.16605633  0.83312238  1
  Sn  Sn39  1  0.16632687  0.16789596  0.16680896  1
  Pb  Pb40  1  0.49704963  0.16655689  0.83011888  1
  Pb  Pb41  1  0.49756844  0.16462318  0.16911806  1
  Pb  Pb42  1  0.83096942  0.83152020  0.16648741  1
  Pb  Pb43  1  0.83597099  0.16362891  0.83337370  1
  Pb  Pb44  1  0.50043605  0.50101606  0.16851884  1
  Pb  Pb45  1  0.16783923  0.83314792  0.16668441  1
  Pb  Pb46  1  0.83336259  0.50226183  0.83324811  1
  Pb  Pb47  1  0.49991537  0.83357030  0.83596979  1
  Pb  Pb48  1  0.50004685  0.49992914  0.82947300  1
  Pb  Pb49  1  0.83381020  0.16664530  0.49992823  1
  Pb  Pb50  1  0.50021843  0.83360488  0.49879858  1
  Pb  Pb51  1  0.16674051  0.50052301  0.83643436  1
  Pb  Pb52  1  0.83568191  0.16999771  0.16656219  1
  Pb  Pb53  1  0.16618268  0.50030624  0.49853174  1
  I  I54  1  0.16997751  0.00232998  0.16734041  1
  I  I55  1  0.16767390  0.00007099  0.49824870  1
  I  I56  1  0.16290044  -0.00034358  0.83442897  1
  I  I57  1  0.16342109  0.33282587  0.16872345  1
  I  I58  1  0.16797466  0.33075053  0.50143410  1
  I  I59  1  0.16767875  0.33024295  0.82932794  1
  I  I60  1  0.16484997  0.66444058  0.16818406  1
  I  I61  1  0.16654811  0.66948171  0.50245391  1
  I  I62  1  0.16298560  0.67026780  0.82884036  1
  I  I63  1  0.49845564  -0.00282362  0.16952001  1
  I  I64  1  0.49699685  0.00222514  0.49814318  1
  I  I65  1  0.50205003  -0.00003384  0.83125864  1
  I  I66  1  0.50044482  0.33315557  0.16690338  1
  I  I67  1  0.49773464  0.33327027  0.49775955  1
  I  I68  1  0.49839935  0.33307441  0.83765299  1
  I  I69  1  0.49608989  0.66865451  0.16974791  1
  I  I70  1  0.50045322  0.66468982  0.49700037  1
  I  I71  1  0.49644506  0.66705208  0.83248695  1
  I  I72  1  0.83335120  -0.00018767  0.16760197  1
  I  I73  1  0.83415799  -0.00319448  0.50376130  1
  I  I74  1  0.83488867  -0.00447641  0.82602973  1
  I  I75  1  0.83494003  0.33802770  0.17577268  1
  I  I76  1  0.83268404  0.33633285  0.49486412  1
  I  I77  1  0.83486287  0.33329778  0.83244311  1
  I  I78  1  0.84067847  0.66375694  0.16942504  1
  I  I79  1  0.83345562  0.66704767  0.49963192  1
  I  I80  1  0.84149492  0.67028549  0.83156335  1
  I  I81  1  0.16415344  0.16480546  -0.00005866  1
  I  I82  1  0.17067708  0.16605683  0.33426630  1
  I  I83  1  0.17111124  0.16115997  0.66573079  1
  I  I84  1  0.16100850  0.49774621  0.00450913  1
  I  I85  1  0.16592122  0.49713042  0.33072962  1
  I  I86  1  0.16690163  0.49780647  0.66651478  1
  I  I87  1  0.16366578  0.83649400  -0.00251762  1
  I  I88  1  0.16428889  0.83631661  0.33612784  1
  I  I89  1  0.16408936  0.84033166  0.66569551  1
  I  I90  1  0.49910492  0.16521233  0.00007580  1
  I  I91  1  0.49314081  0.16931554  0.33690622  1
  I  I92  1  0.49443450  0.16866650  0.66214787  1
  I  I93  1  0.49972906  0.50259573  0.00032030  1
  I  I94  1  0.50048373  0.49780692  0.33651470  1
  I  I95  1  0.50424893  0.49875069  0.66113939  1
  I  I96  1  0.49798488  0.83108445  0.00340620  1
  I  I97  1  0.49780900  0.83259357  0.33152462  1
  I  I98  1  0.49958298  0.83281533  0.66650973  1
  I  I99  1  0.83496027  0.16562880  0.00001191  1
  I  I100  1  0.83641844  0.16099769  0.33349858  1
  I  I101  1  0.83524807  0.17181276  0.66637542  1
  I  I102  1  0.84004015  0.50269201  0.00290173  1
  I  I103  1  0.83425441  0.50654128  0.33457776  1
  I  I104  1  0.82949018  0.50202973  0.66316977  1
  I  I105  1  0.83892560  0.83217189  -0.00257602  1
  I  I106  1  0.83697901  0.83121184  0.33641450  1
  I  I107  1  0.83722641  0.82742074  0.66513702  1
  I  I108  1  0.00451312  0.16502110  0.17105722  1
  I  I109  1  0.00372515  0.16558763  0.49993821  1
  I  I110  1  0.00447368  0.16598764  0.82914770  1
  I  I111  1  0.00018419  0.49789479  0.17378250  1
  I  I112  1  -0.00253988  0.50166779  0.49730641  1
  I  I113  1  0.00019684  0.49750303  0.82883052  1
  I  I114  1  0.00000992  0.83430751  0.16702654  1
  I  I115  1  0.00055617  0.83315202  0.50236196  1
  I  I116  1  0.00111354  0.83697854  0.82970319  1
  I  I117  1  0.32913044  0.17251164  0.16512807  1
  I  I118  1  0.33161270  0.16654909  0.49969626  1
  I  I119  1  0.32876933  0.15885047  0.83567182  1
  I  I120  1  0.33087480  0.49794001  0.16802961  1
  I  I121  1  0.33494240  0.49950765  0.49750934  1
  I  I122  1  0.33301361  0.50349347  0.83403563  1
  I  I123  1  0.33513385  0.83118815  0.16876450  1
  I  I124  1  0.33053699  0.83408314  0.50217834  1
  I  I125  1  0.32969537  0.83745880  0.82920725  1
  I  I126  1  0.66635402  0.16557448  0.16866132  1
  I  I127  1  0.66418817  0.16684765  0.49841753  1
  I  I128  1  0.66653966  0.16585697  0.83275016  1
  I  I129  1  0.66936645  0.50568322  0.17078993  1
  I  I130  1  0.66768818  0.50157774  0.49345978  1
  I  I131  1  0.66687937  0.50262202  0.83866823  1
  I  I132  1  0.66385499  0.83011107  0.16934746  1
  I  I133  1  0.66943267  0.83191700  0.50235704  1
  I  I134  1  0.66971632  0.83019065  0.82805686  1
