# generated using pymatgen
data_Cs27Sn14Pb13I81
_symmetry_space_group_name_H-M   'P 1'
_cell_length_a   19.05739667
_cell_length_b   19.07080357
_cell_length_c   19.05161197
_cell_angle_alpha   89.99964799
_cell_angle_beta   89.99905264
_cell_angle_gamma   90.00012161
_symmetry_Int_Tables_number   1
_chemical_formula_structural   Cs27Sn14Pb13I81
_chemical_formula_sum   'Cs27 Sn14 Pb13 I81'
_cell_volume   6924.11534889
_cell_formula_units_Z   1
loop_
 _symmetry_equiv_pos_site_id
 _symmetry_equiv_pos_as_xyz
  1  'x, y, z'
loop_
 _atom_site_type_symbol
 _atom_site_label
 _atom_site_symmetry_multiplicity
 _atom_site_fract_x
 _atom_site_fract_y
 _atom_site_fract_z
 _atom_site_occupancy
  Cs  Cs0  1  -0.01416965  0.00290624  -0.00192423  1
  Cs  Cs1  1  0.00393416  -0.00044245  0.33069291  1
  Cs  Cs2  1  0.00021496  -0.00489738  0.66968273  1
  Cs  Cs3  1  -0.01277532  0.34313271  0.01318141  1
  Cs  Cs4  1  0.00454395  0.33179555  0.32992924  1
  Cs  Cs5  1  -0.00194146  0.33458466  0.66354002  1
  Cs  Cs6  1  -0.00388253  0.65271815  -0.02140578  1
  Cs  Cs7  1  -0.00128539  0.67343508  0.33638880  1
  Cs  Cs8  1  0.00043230  0.67069892  0.67694920  1
  Cs  Cs9  1  0.33457960  0.00018572  -0.00422347  1
  Cs  Cs10  1  0.33102288  -0.00056845  0.33234035  1
  Cs  Cs11  1  0.33459534  0.00200464  0.66747577  1
  Cs  Cs12  1  0.33006020  0.33204616  0.00372020  1
  Cs  Cs13  1  0.33066039  0.33140236  0.33393941  1
  Cs  Cs14  1  0.33780543  0.32935664  0.66457177  1
  Cs  Cs15  1  0.32967240  0.66532597  0.00221340  1
  Cs  Cs16  1  0.33286827  0.67091525  0.33153564  1
  Cs  Cs17  1  0.33311707  0.66750058  0.66791929  1
  Cs  Cs18  1  0.67515992  0.00013611  0.00426172  1
  Cs  Cs19  1  0.66691595  -0.00683907  0.33278031  1
  Cs  Cs20  1  0.66336108  0.00239604  0.66638295  1
  Cs  Cs21  1  0.67831800  0.33396506  -0.00063497  1
  Cs  Cs22  1  0.66481723  0.33594504  0.34020762  1
  Cs  Cs23  1  0.66278811  0.33218231  0.66473314  1
  Cs  Cs24  1  0.67052703  0.66494489  0.02267653  1
  Cs  Cs25  1  0.66837037  0.67184473  0.32351055  1
  Cs  Cs26  1  0.66276367  0.66583670  0.66398281  1
  Sn  Sn27  1  0.83396413  0.16702713  0.50033269  1
  Sn  Sn28  1  0.49990250  0.16617333  0.49944258  1
  Sn  Sn29  1  0.16658824  0.83380901  0.16534673  1
  Sn  Sn30  1  0.16687218  0.16707579  0.83324636  1
  Sn  Sn31  1  0.49953052  0.16682846  0.16629101  1
  Sn  Sn32  1  0.16699768  0.50033338  0.50027956  1
  Sn  Sn33  1  0.49975946  0.50037221  0.83274157  1
  Sn  Sn34  1  0.49946885  0.50077988  0.50051856  1
  Sn  Sn35  1  0.49914857  0.16702035  0.83405989  1
  Sn  Sn36  1  0.16653841  0.16646817  0.50129500  1
  Sn  Sn37  1  0.50016771  0.83251583  0.83286304  1
  Sn  Sn38  1  0.83362300  0.49950439  0.50040478  1
  Sn  Sn39  1  0.49857169  0.83319840  0.50126537  1
  Sn  Sn40  1  0.16811484  0.83340922  0.49950826  1
  Pb  Pb41  1  0.83358945  0.16699580  0.83010045  1
  Pb  Pb42  1  0.49789948  0.83578308  0.16639786  1
  Pb  Pb43  1  0.16878558  0.83599328  0.83327347  1
  Pb  Pb44  1  0.16689333  0.50292003  0.16943742  1
  Pb  Pb45  1  0.16971865  0.49625412  0.83021496  1
  Pb  Pb46  1  0.83335408  0.83329133  0.50033543  1
  Pb  Pb47  1  0.83374522  0.50004992  0.17100944  1
  Pb  Pb48  1  0.49938056  0.49706628  0.16698072  1
  Pb  Pb49  1  0.83819997  0.83335798  0.16673439  1
  Pb  Pb50  1  0.16827832  0.16480416  0.16569553  1
  Pb  Pb51  1  0.83044643  0.16658623  0.17076554  1
  Pb  Pb52  1  0.82879423  0.83299831  0.83278135  1
  Pb  Pb53  1  0.82934140  0.49986106  0.82946110  1
  I  I54  1  0.17046983  -0.00211925  0.17996769  1
  I  I55  1  0.17063479  0.00046081  0.49893571  1
  I  I56  1  0.17666456  0.00328439  0.82317134  1
  I  I57  1  0.16683869  0.33330125  0.16670217  1
  I  I58  1  0.17046921  0.33261503  0.50651431  1
  I  I59  1  0.17693351  0.32912152  0.82448289  1
  I  I60  1  0.17210794  0.67054991  0.17663187  1
  I  I61  1  0.17121020  0.66677743  0.49118553  1
  I  I62  1  0.16604684  0.66635642  0.83512900  1
  I  I63  1  0.49854110  0.00311050  0.17027502  1
  I  I64  1  0.49818970  0.00059798  0.50217003  1
  I  I65  1  0.49439432  0.00100334  0.82764169  1
  I  I66  1  0.49744511  0.32966614  0.17057646  1
  I  I67  1  0.49884049  0.33273596  0.50139714  1
  I  I68  1  0.49568945  0.33232406  0.82673988  1
  I  I69  1  0.50166416  0.66665309  0.16609814  1
  I  I70  1  0.49720455  0.66665457  0.50974552  1
  I  I71  1  0.50018252  0.66668670  0.81815345  1
  I  I72  1  0.83102769  0.00004501  0.16882591  1
  I  I73  1  0.83078795  0.00272174  0.49977117  1
  I  I74  1  0.83183912  0.00041853  0.83149050  1
  I  I75  1  0.83500399  0.33316054  0.16065418  1
  I  I76  1  0.83036620  0.33283968  0.50084535  1
  I  I77  1  0.83068057  0.33323375  0.83753071  1
  I  I78  1  0.82669076  0.66682414  0.17168751  1
  I  I79  1  0.83202007  0.66394978  0.49957890  1
  I  I80  1  0.83850815  0.66627953  0.82883424  1
  I  I81  1  0.17934517  0.16150149  -0.00328810  1
  I  I82  1  0.16709161  0.17055273  0.33709725  1
  I  I83  1  0.17403366  0.16400843  0.66413085  1
  I  I84  1  0.16896376  0.50141289  -0.00056009  1
  I  I85  1  0.17116499  0.48938186  0.33848522  1
  I  I86  1  0.16226866  0.50938472  0.66219982  1
  I  I87  1  0.17327996  0.83896453  0.00212619  1
  I  I88  1  0.17511537  0.83566444  0.33691363  1
  I  I89  1  0.16709115  0.83007204  0.66321939  1
  I  I90  1  0.48941947  0.16539624  -0.00145397  1
  I  I91  1  0.50052059  0.16702771  0.33618872  1
  I  I92  1  0.50070198  0.16671893  0.66536831  1
  I  I93  1  0.49850358  0.50138019  -0.00294900  1
  I  I94  1  0.50163998  0.49989570  0.33740076  1
  I  I95  1  0.50035834  0.49424018  0.66422213  1
  I  I96  1  0.49725941  0.83441223  -0.00297281  1
  I  I97  1  0.50042588  0.83284622  0.33656908  1
  I  I98  1  0.49297926  0.83881252  0.66469396  1
  I  I99  1  0.83405598  0.16463442  0.00009521  1
  I  I100  1  0.83537899  0.17293730  0.33813624  1
  I  I101  1  0.82529647  0.17197183  0.66278306  1
  I  I102  1  0.83259454  0.50188707  -0.00014525  1
  I  I103  1  0.82681400  0.49380307  0.33849703  1
  I  I104  1  0.83716680  0.49346981  0.66239142  1
  I  I105  1  0.83185614  0.83567913  -0.00000147  1
  I  I106  1  0.82292141  0.83196476  0.33391229  1
  I  I107  1  0.84338683  0.83360376  0.66614350  1
  I  I108  1  -0.00019162  0.16429529  0.16539780  1
  I  I109  1  0.00122288  0.17037526  0.50653437  1
  I  I110  1  0.00318244  0.16136822  0.82433246  1
  I  I111  1  0.00023488  0.49737438  0.16677969  1
  I  I112  1  0.00056331  0.49382714  0.49553631  1
  I  I113  1  -0.00017290  0.50018577  0.83446892  1
  I  I114  1  0.00501181  0.83824386  0.18429436  1
  I  I115  1  0.00312043  0.83440341  0.49203888  1
  I  I116  1  0.00004846  0.83593847  0.83448860  1
  I  I117  1  0.33593344  0.16680276  0.17515802  1
  I  I118  1  0.33417153  0.16901810  0.49981344  1
  I  I119  1  0.33550150  0.16591857  0.82483104  1
  I  I120  1  0.33338836  0.49998489  0.17043650  1
  I  I121  1  0.33403770  0.49639436  0.50429739  1
  I  I122  1  0.33706562  0.50328339  0.82416332  1
  I  I123  1  0.33117644  0.83405290  0.17326768  1
  I  I124  1  0.33424954  0.83397338  0.49956356  1
  I  I125  1  0.33667354  0.83128679  0.82989929  1
  I  I126  1  0.66266931  0.16453426  0.16266524  1
  I  I127  1  0.66457095  0.17054696  0.49974248  1
  I  I128  1  0.66297922  0.16638628  0.83285030  1
  I  I129  1  0.66637163  0.50192122  0.16757080  1
  I  I130  1  0.66499914  0.49351659  0.50589696  1
  I  I131  1  0.66180345  0.49390440  0.82417410  1
  I  I132  1  0.66692920  0.83344920  0.16546457  1
  I  I133  1  0.66338188  0.83504122  0.50625482  1
  I  I134  1  0.66084391  0.84010689  0.82092909  1
