# generated using pymatgen
data_Cs27Sn13Pb14I81
_symmetry_space_group_name_H-M   'P 1'
_cell_length_a   18.97648668
_cell_length_b   18.97547333
_cell_length_c   18.97969274
_cell_angle_alpha   89.99811606
_cell_angle_beta   90.00001368
_cell_angle_gamma   90.00004030
_symmetry_Int_Tables_number   1
_chemical_formula_structural   Cs27Sn13Pb14I81
_chemical_formula_sum   'Cs27 Sn13 Pb14 I81'
_cell_volume   6834.35612263
_cell_formula_units_Z   1
loop_
 _symmetry_equiv_pos_site_id
 _symmetry_equiv_pos_as_xyz
  1  'x, y, z'
loop_
 _atom_site_type_symbol
 _atom_site_label
 _atom_site_symmetry_multiplicity
 _atom_site_fract_x
 _atom_site_fract_y
 _atom_site_fract_z
 _atom_site_occupancy
  Cs  Cs0  1  -0.00345598  -0.00137141  0.00266207  1
  Cs  Cs1  1  -0.00028483  0.00174000  0.33477248  1
  Cs  Cs2  1  0.00127927  0.00068500  0.66527749  1
  Cs  Cs3  1  0.00483037  0.33238856  -0.00253970  1
  Cs  Cs4  1  0.00007942  0.33311825  0.33568655  1
  Cs  Cs5  1  0.00058232  0.33519084  0.66602181  1
  Cs  Cs6  1  -0.00220580  0.66851409  0.00138768  1
  Cs  Cs7  1  0.00572132  0.66508601  0.33483828  1
  Cs  Cs8  1  -0.00481703  0.66418289  0.66495793  1
  Cs  Cs9  1  0.33205422  -0.00107746  -0.00200517  1
  Cs  Cs10  1  0.33752565  -0.00125978  0.33437080  1
  Cs  Cs11  1  0.33230839  -0.00058369  0.66603503  1
  Cs  Cs12  1  0.33133147  0.33392453  -0.00384894  1
  Cs  Cs13  1  0.33322588  0.33335642  0.33352209  1
  Cs  Cs14  1  0.33265184  0.33223692  0.66993825  1
  Cs  Cs15  1  0.33251648  0.66690568  0.00318886  1
  Cs  Cs16  1  0.33154136  0.66807081  0.32964573  1
  Cs  Cs17  1  0.33531609  0.67003181  0.66576532  1
  Cs  Cs18  1  0.67130619  0.00058960  0.00510325  1
  Cs  Cs19  1  0.66237495  0.00169001  0.32944379  1
  Cs  Cs20  1  0.66714036  0.00003853  0.66535748  1
  Cs  Cs21  1  0.66547272  0.33305198  0.00342998  1
  Cs  Cs22  1  0.66624931  0.33239993  0.32991790  1
  Cs  Cs23  1  0.66655098  0.33356921  0.66603815  1
  Cs  Cs24  1  0.66920607  0.66635544  -0.00206989  1
  Cs  Cs25  1  0.66356021  0.66428585  0.33314703  1
  Cs  Cs26  1  0.66873469  0.66607100  0.66834978  1
  Sn  Sn27  1  0.83344876  0.50004223  0.16676745  1
  Sn  Sn28  1  0.16622703  0.16597103  0.49923604  1
  Sn  Sn29  1  0.50123148  0.16627908  0.83310756  1
  Sn  Sn30  1  0.49970397  0.49982993  0.50020321  1
  Sn  Sn31  1  0.83356094  0.16585704  0.50063635  1
  Sn  Sn32  1  0.83258592  0.16676975  0.83260574  1
  Sn  Sn33  1  0.50006597  0.50017441  0.83320811  1
  Sn  Sn34  1  0.16679082  0.16632156  0.16779092  1
  Sn  Sn35  1  0.83362898  0.83404306  0.49981630  1
  Sn  Sn36  1  0.50060629  0.49988964  0.16634350  1
  Sn  Sn37  1  0.49972275  0.83349495  0.83323139  1
  Sn  Sn38  1  0.16585871  0.83424253  0.50111108  1
  Sn  Sn39  1  0.16672343  0.83317479  0.83251643  1
  Pb  Pb40  1  0.83507435  0.16836684  0.16709140  1
  Pb  Pb41  1  0.83326835  0.83542084  0.83153245  1
  Pb  Pb42  1  0.83346568  0.83085422  0.17028634  1
  Pb  Pb43  1  0.16641340  0.16479436  0.83257440  1
  Pb  Pb44  1  0.49998118  0.16835102  0.50177283  1
  Pb  Pb45  1  0.83132206  0.49958136  0.49836160  1
  Pb  Pb46  1  0.16866432  0.50353139  0.83312015  1
  Pb  Pb47  1  0.49766901  0.16854631  0.16385559  1
  Pb  Pb48  1  0.83135642  0.49740659  0.83519955  1
  Pb  Pb49  1  0.50002347  0.83152438  0.50167203  1
  Pb  Pb50  1  0.16667351  0.49784225  0.16663628  1
  Pb  Pb51  1  0.50018532  0.83100630  0.16357197  1
  Pb  Pb52  1  0.16901880  0.50016559  0.50031086  1
  Pb  Pb53  1  0.16658777  0.83579664  0.16714747  1
  I  I54  1  0.16540740  0.00357682  0.16716449  1
  I  I55  1  0.16331028  0.00024203  0.50053341  1
  I  I56  1  0.17382040  -0.00277666  0.83167587  1
  I  I57  1  0.16706235  0.32999207  0.17191405  1
  I  I58  1  0.16327793  0.33007886  0.49628990  1
  I  I59  1  0.16806764  0.33301101  0.83361942  1
  I  I60  1  0.16767968  0.66671851  0.16690601  1
  I  I61  1  0.16329090  0.67009325  0.50446183  1
  I  I62  1  0.17159797  0.67157136  0.82769819  1
  I  I63  1  0.49906533  0.00024309  0.16574122  1
  I  I64  1  0.49982085  0.00002171  0.50260852  1
  I  I65  1  0.49835648  0.00006832  0.83104248  1
  I  I66  1  0.50321099  0.33671526  0.16480319  1
  I  I67  1  0.50034055  0.33636743  0.50263857  1
  I  I68  1  0.50437776  0.33344027  0.83340513  1
  I  I69  1  0.50224432  0.66250236  0.16575145  1
  I  I70  1  0.50034325  0.66350174  0.50222606  1
  I  I71  1  0.49433075  0.66643506  0.83325424  1
  I  I72  1  0.83513390  0.00029412  0.16429547  1
  I  I73  1  0.83747848  0.00093699  0.50461953  1
  I  I74  1  0.82763950  0.00337620  0.83256284  1
  I  I75  1  0.82799688  0.33599308  0.16837941  1
  I  I76  1  0.83687143  0.33013481  0.50283775  1
  I  I77  1  0.82947434  0.32936628  0.82717007  1
  I  I78  1  0.82819835  0.66297294  0.16620700  1
  I  I79  1  0.83684647  0.66912465  0.49890422  1
  I  I80  1  0.83266091  0.66676771  0.83258872  1
  I  I81  1  0.16768356  0.16724053  0.00125017  1
  I  I82  1  0.16117611  0.16291669  0.33525108  1
  I  I83  1  0.16618919  0.16426601  0.66384175  1
  I  I84  1  0.16897197  0.49775788  -0.00009915  1
  I  I85  1  0.17094574  0.50371033  0.33352176  1
  I  I86  1  0.16877393  0.49418459  0.66664628  1
  I  I87  1  0.17267336  0.83435949  -0.00282853  1
  I  I88  1  0.16246355  0.83420721  0.33700244  1
  I  I89  1  0.16855094  0.83991821  0.66580551  1
  I  I90  1  0.50366290  0.16849389  -0.00435960  1
  I  I91  1  0.50168792  0.16964727  0.33336781  1
  I  I92  1  0.49866202  0.16989405  0.66999692  1
  I  I93  1  0.50369848  0.49962413  -0.00061315  1
  I  I94  1  0.50406558  0.49951940  0.33304372  1
  I  I95  1  0.49866060  0.49990753  0.66776077  1
  I  I96  1  0.49350099  0.83215197  -0.00494396  1
  I  I97  1  0.49894803  0.83041217  0.33353049  1
  I  I98  1  0.49832962  0.83054998  0.66988278  1
  I  I99  1  0.83050077  0.16853829  -0.00243501  1
  I  I100  1  0.83644150  0.16494124  0.33657225  1
  I  I101  1  0.83486517  0.16423036  0.66586786  1
  I  I102  1  0.82739411  0.49838072  0.00295229  1
  I  I103  1  0.82547803  0.49811816  0.33077549  1
  I  I104  1  0.83106502  0.50105512  0.66654953  1
  I  I105  1  0.83349455  0.83403948  -0.00014903  1
  I  I106  1  0.83945839  0.83984788  0.33826515  1
  I  I107  1  0.83429994  0.83386821  0.66358974  1
  I  I108  1  0.00278351  0.16978990  0.16530014  1
  I  I109  1  -0.00012363  0.16375036  0.50198091  1
  I  I110  1  -0.00232847  0.16471677  0.83298861  1
  I  I111  1  -0.00254884  0.49847561  0.16836066  1
  I  I112  1  -0.00014451  0.50023859  0.49684568  1
  I  I113  1  -0.00031845  0.49905229  0.83586172  1
  I  I114  1  0.00008000  0.82950523  0.15994777  1
  I  I115  1  0.00083437  0.83663553  0.50592987  1
  I  I116  1  0.00246460  0.83687274  0.83139662  1
  I  I117  1  0.33007950  0.16850090  0.17197759  1
  I  I118  1  0.33054558  0.16378600  0.49799151  1
  I  I119  1  0.33585072  0.16946138  0.83379160  1
  I  I120  1  0.33662674  0.49902399  0.16548393  1
  I  I121  1  0.33722464  0.49970290  0.49863503  1
  I  I122  1  0.33775411  0.49343842  0.83587161  1
  I  I123  1  0.33337725  0.83090582  0.17038566  1
  I  I124  1  0.33051768  0.83662609  0.50283459  1
  I  I125  1  0.33388739  0.83496482  0.82732479  1
  I  I126  1  0.66654923  0.16695349  0.16816992  1
  I  I127  1  0.66943856  0.16403100  0.50323509  1
  I  I128  1  0.66619027  0.16609246  0.82768025  1
  I  I129  1  0.66529434  0.49833529  0.16644178  1
  I  I130  1  0.66335296  0.50041896  0.50279098  1
  I  I131  1  0.66266710  0.50504608  0.83112031  1
  I  I132  1  0.66674516  0.83618687  0.16700642  1
  I  I133  1  0.66917599  0.83611464  0.50182824  1
  I  I134  1  0.66382255  0.83035471  0.83137330  1
