# generated using pymatgen
data_Cs27Sn14Pb13I81
_symmetry_space_group_name_H-M   'P 1'
_cell_length_a   18.97385046
_cell_length_b   18.97821090
_cell_length_c   18.97397529
_cell_angle_alpha   90.00097931
_cell_angle_beta   89.99939135
_cell_angle_gamma   89.99811597
_symmetry_Int_Tables_number   1
_chemical_formula_structural   Cs27Sn14Pb13I81
_chemical_formula_sum   'Cs27 Sn14 Pb13 I81'
_cell_volume   6832.33374021
_cell_formula_units_Z   1
loop_
 _symmetry_equiv_pos_site_id
 _symmetry_equiv_pos_as_xyz
  1  'x, y, z'
loop_
 _atom_site_type_symbol
 _atom_site_label
 _atom_site_symmetry_multiplicity
 _atom_site_fract_x
 _atom_site_fract_y
 _atom_site_fract_z
 _atom_site_occupancy
  Cs  Cs0  1  -0.00027953  -0.00140565  0.00071392  1
  Cs  Cs1  1  0.00150170  -0.00336172  0.32875012  1
  Cs  Cs2  1  0.00041553  0.00393620  0.66990525  1
  Cs  Cs3  1  -0.00039413  0.33143087  -0.00367416  1
  Cs  Cs4  1  -0.00088628  0.33408570  0.33356647  1
  Cs  Cs5  1  -0.00056871  0.33315564  0.66796581  1
  Cs  Cs6  1  -0.00358822  0.67253870  -0.00090630  1
  Cs  Cs7  1  0.00433343  0.66908726  0.33482831  1
  Cs  Cs8  1  0.00023948  0.66498040  0.66566933  1
  Cs  Cs9  1  0.33252771  0.00418115  0.00111042  1
  Cs  Cs10  1  0.33471640  -0.00400836  0.33378869  1
  Cs  Cs11  1  0.33444299  -0.00108670  0.66471762  1
  Cs  Cs12  1  0.33512611  0.33264188  0.00180884  1
  Cs  Cs13  1  0.33004385  0.33781900  0.32853829  1
  Cs  Cs14  1  0.33023591  0.33171851  0.66953828  1
  Cs  Cs15  1  0.34053196  0.66094106  -0.00006711  1
  Cs  Cs16  1  0.32458619  0.66488076  0.33525326  1
  Cs  Cs17  1  0.33457805  0.67114224  0.66447178  1
  Cs  Cs18  1  0.66692606  -0.00213850  0.00126333  1
  Cs  Cs19  1  0.66441051  0.00187373  0.33468701  1
  Cs  Cs20  1  0.66288366  -0.00107009  0.66222565  1
  Cs  Cs21  1  0.66616322  0.33413062  0.00104471  1
  Cs  Cs22  1  0.66815475  0.33267016  0.33512844  1
  Cs  Cs23  1  0.66910011  0.33270515  0.66322726  1
  Cs  Cs24  1  0.66473990  0.66903455  -0.00047476  1
  Cs  Cs25  1  0.66922509  0.66410538  0.33318869  1
  Cs  Cs26  1  0.66529795  0.66762810  0.66693555  1
  Sn  Sn27  1  0.83247069  0.16747101  0.16574846  1
  Sn  Sn28  1  0.16608239  0.50032855  0.83334820  1
  Sn  Sn29  1  0.83275887  0.50105515  0.50016871  1
  Sn  Sn30  1  0.16688738  0.83318854  0.83365816  1
  Sn  Sn31  1  0.50002516  0.83361375  0.16682866  1
  Sn  Sn32  1  0.83328938  0.83290982  0.50027503  1
  Sn  Sn33  1  0.83348828  0.49939711  0.16619802  1
  Sn  Sn34  1  0.83378686  0.49951340  0.83365115  1
  Sn  Sn35  1  0.50067586  0.16677434  0.83356162  1
  Sn  Sn36  1  0.16669330  0.16671556  0.83252758  1
  Sn  Sn37  1  0.83252402  0.16709207  0.83400812  1
  Sn  Sn38  1  0.50007499  0.49962918  0.50019160  1
  Sn  Sn39  1  0.16657370  0.16676635  0.50007893  1
  Sn  Sn40  1  0.50106600  0.16594398  0.16609681  1
  Pb  Pb41  1  0.50172642  0.83082560  0.49762332  1
  Pb  Pb42  1  0.16960321  0.83314895  0.16379683  1
  Pb  Pb43  1  0.16642816  0.16671124  0.16623744  1
  Pb  Pb44  1  0.16442176  0.83579755  0.50216307  1
  Pb  Pb45  1  0.49764486  0.16862588  0.49922367  1
  Pb  Pb46  1  0.49767095  0.83610457  0.83498879  1
  Pb  Pb47  1  0.83445748  0.83366557  0.83149463  1
  Pb  Pb48  1  0.16599037  0.49828780  0.50222713  1
  Pb  Pb49  1  0.16316605  0.50003160  0.16322593  1
  Pb  Pb50  1  0.83493997  0.16701977  0.49968444  1
  Pb  Pb51  1  0.83186475  0.83371127  0.16858493  1
  Pb  Pb52  1  0.50066915  0.49781553  0.83145142  1
  Pb  Pb53  1  0.50210291  0.49932670  0.16876071  1
  I  I54  1  0.16104902  0.00019387  0.16462122  1
  I  I55  1  0.16519764  0.00347834  0.50700759  1
  I  I56  1  0.16624026  0.00175583  0.82948278  1
  I  I57  1  0.17246754  0.33327138  0.16609899  1
  I  I58  1  0.16437578  0.33060152  0.50707167  1
  I  I59  1  0.16474755  0.33239409  0.82893043  1
  I  I60  1  0.16744794  0.66651313  0.16633088  1
  I  I61  1  0.16852067  0.66654405  0.50193425  1
  I  I62  1  0.15984697  0.66572383  0.83420007  1
  I  I63  1  0.50596890  0.00205463  0.16278241  1
  I  I64  1  0.50077862  0.00016949  0.50173426  1
  I  I65  1  0.50114624  0.00455554  0.83345652  1
  I  I66  1  0.50154967  0.33026235  0.16332817  1
  I  I67  1  0.50856050  0.33599288  0.49902773  1
  I  I68  1  0.49541576  0.32967416  0.83949444  1
  I  I69  1  0.50166124  0.66837007  0.16783943  1
  I  I70  1  0.50181270  0.66303666  0.49992429  1
  I  I71  1  0.49889240  0.66658156  0.83451826  1
  I  I72  1  0.83232071  0.00324262  0.16318081  1
  I  I73  1  0.83629238  -0.00148681  0.50039973  1
  I  I74  1  0.83543958  0.00350101  0.83657535  1
  I  I75  1  0.82756589  0.33272191  0.16771707  1
  I  I76  1  0.83122763  0.33611328  0.50044191  1
  I  I77  1  0.83803471  0.33307145  0.83184885  1
  I  I78  1  0.83154333  0.66380879  0.16372626  1
  I  I79  1  0.82986602  0.66461516  0.50025418  1
  I  I80  1  0.83854217  0.66351437  0.83518295  1
  I  I81  1  0.16654684  0.16716270  -0.00372822  1
  I  I82  1  0.16549922  0.16741512  0.33556605  1
  I  I83  1  0.16565279  0.16728148  0.66935720  1
  I  I84  1  0.16395432  0.49472929  -0.00498881  1
  I  I85  1  0.16689060  0.49769581  0.33344820  1
  I  I86  1  0.16045118  0.49931017  0.67028084  1
  I  I87  1  0.16291087  0.83815440  -0.00419395  1
  I  I88  1  0.16643185  0.83569776  0.33346015  1
  I  I89  1  0.16669884  0.83223047  0.67010948  1
  I  I90  1  0.49809877  0.16445747  -0.00037156  1
  I  I91  1  0.50440738  0.16447704  0.33026009  1
  I  I92  1  0.50208879  0.16939463  0.66937915  1
  I  I93  1  0.49953255  0.50172542  0.00000432  1
  I  I94  1  0.50666863  0.49713383  0.33638351  1
  I  I95  1  0.50646890  0.49774106  0.66393183  1
  I  I96  1  0.50161369  0.83360360  0.00280444  1
  I  I97  1  0.50157592  0.84262341  0.33012073  1
  I  I98  1  0.49965432  0.83413081  0.66658839  1
  I  I99  1  0.83497273  0.17364329  -0.00096561  1
  I  I100  1  0.83022304  0.16961524  0.33063283  1
  I  I101  1  0.83259645  0.16968882  0.66967458  1
  I  I102  1  0.83834702  0.49427190  -0.00079188  1
  I  I103  1  0.82693412  0.49856384  0.33346301  1
  I  I104  1  0.83408022  0.49881633  0.66728184  1
  I  I105  1  0.83383876  0.83096190  -0.00005607  1
  I  I106  1  0.83303645  0.82962093  0.33633762  1
  I  I107  1  0.83402095  0.82922654  0.66377588  1
  I  I108  1  -0.00332457  0.17122431  0.16404973  1
  I  I109  1  0.00249471  0.16881881  0.50622072  1
  I  I110  1  -0.00024172  0.16777923  0.83274850  1
  I  I111  1  -0.00503603  0.49319475  0.17279632  1
  I  I112  1  -0.00340114  0.50207041  0.49874262  1
  I  I113  1  -0.00117388  0.49427234  0.83127675  1
  I  I114  1  -0.00017388  0.83385215  0.16765996  1
  I  I115  1  -0.00320559  0.82567647  0.49845871  1
  I  I116  1  0.00251316  0.83821214  0.83265310  1
  I  I117  1  0.33617680  0.16278369  0.16331857  1
  I  I118  1  0.33014717  0.16868558  0.50650552  1
  I  I119  1  0.33275898  0.16703491  0.83324796  1
  I  I120  1  0.33342753  0.49987601  0.16797688  1
  I  I121  1  0.33513034  0.49663451  0.50093881  1
  I  I122  1  0.33094202  0.49832419  0.83049109  1
  I  I123  1  0.33732811  0.84180203  0.16708115  1
  I  I124  1  0.33323432  0.83224234  0.49967049  1
  I  I125  1  0.32958921  0.83256723  0.83299631  1
  I  I126  1  0.66724552  0.16689327  0.15908463  1
  I  I127  1  0.66682094  0.16528544  0.50290328  1
  I  I128  1  0.66769140  0.17226428  0.83799144  1
  I  I129  1  0.67032777  0.49845735  0.16178863  1
  I  I130  1  0.66888035  0.50201715  0.50234909  1
  I  I131  1  0.67025308  0.49513390  0.83447802  1
  I  I132  1  0.66421352  0.83578039  0.16582369  1
  I  I133  1  0.66969553  0.83321477  0.50182815  1
  I  I134  1  0.66643267  0.83316707  0.83303726  1
