# generated using pymatgen
data_Cs27Sn13Pb14I81
_symmetry_space_group_name_H-M   'P 1'
_cell_length_a   18.98522192
_cell_length_b   18.97248064
_cell_length_c   18.97182402
_cell_angle_alpha   89.99971653
_cell_angle_beta   89.99968927
_cell_angle_gamma   89.99948977
_symmetry_Int_Tables_number   1
_chemical_formula_structural   Cs27Sn13Pb14I81
_chemical_formula_sum   'Cs27 Sn13 Pb14 I81'
_cell_volume   6833.58945322
_cell_formula_units_Z   1
loop_
 _symmetry_equiv_pos_site_id
 _symmetry_equiv_pos_as_xyz
  1  'x, y, z'
loop_
 _atom_site_type_symbol
 _atom_site_label
 _atom_site_symmetry_multiplicity
 _atom_site_fract_x
 _atom_site_fract_y
 _atom_site_fract_z
 _atom_site_occupancy
  Cs  Cs0  1  0.00051303  0.00017108  -0.00108305  1
  Cs  Cs1  1  -0.00022037  -0.00589802  0.33966930  1
  Cs  Cs2  1  -0.00063075  0.01041308  0.66307110  1
  Cs  Cs3  1  -0.00011909  0.33161157  0.00204839  1
  Cs  Cs4  1  0.00032971  0.33425199  0.33125965  1
  Cs  Cs5  1  0.00622810  0.32489888  0.66474316  1
  Cs  Cs6  1  -0.00271589  0.66788988  0.00116690  1
  Cs  Cs7  1  0.00087437  0.67011691  0.33322584  1
  Cs  Cs8  1  0.00229272  0.66558105  0.66682559  1
  Cs  Cs9  1  0.33586264  -0.00061147  0.00170775  1
  Cs  Cs10  1  0.33667106  -0.00861403  0.33223572  1
  Cs  Cs11  1  0.33405280  0.00018785  0.66590211  1
  Cs  Cs12  1  0.33301276  0.33394490  0.00093969  1
  Cs  Cs13  1  0.33429074  0.33283960  0.33168229  1
  Cs  Cs14  1  0.32950954  0.33453458  0.66680190  1
  Cs  Cs15  1  0.33168067  0.66599763  -0.00359502  1
  Cs  Cs16  1  0.33126279  0.67184320  0.33614555  1
  Cs  Cs17  1  0.33127098  0.66476190  0.66800223  1
  Cs  Cs18  1  0.66420603  0.00092044  0.00006473  1
  Cs  Cs19  1  0.66388321  -0.00761889  0.33493965  1
  Cs  Cs20  1  0.66740655  0.00137421  0.66597786  1
  Cs  Cs21  1  0.66700654  0.33465428  0.00195756  1
  Cs  Cs22  1  0.66578449  0.33435072  0.33209104  1
  Cs  Cs23  1  0.66600879  0.33258517  0.66499687  1
  Cs  Cs24  1  0.66967538  0.66463670  -0.00257407  1
  Cs  Cs25  1  0.66760050  0.66655988  0.33541745  1
  Cs  Cs26  1  0.66539161  0.66642963  0.66840060  1
  Sn  Sn27  1  0.16610134  0.83361019  0.83325874  1
  Sn  Sn28  1  0.16658187  0.49957953  0.16654639  1
  Sn  Sn29  1  0.83337342  0.49937969  0.16696979  1
  Sn  Sn30  1  0.49993431  0.50009811  0.16747350  1
  Sn  Sn31  1  0.83363008  0.49972024  0.83265813  1
  Sn  Sn32  1  0.50013697  0.83412385  0.83333342  1
  Sn  Sn33  1  0.16569299  0.16666966  0.16695614  1
  Sn  Sn34  1  0.83385569  0.83324288  0.83328741  1
  Sn  Sn35  1  0.83304802  0.49957469  0.50022161  1
  Sn  Sn36  1  0.50059457  0.49903541  0.49924390  1
  Sn  Sn37  1  0.83395392  0.16674726  0.16697343  1
  Sn  Sn38  1  0.50006430  0.16758096  0.50038319  1
  Sn  Sn39  1  0.50020361  0.16655439  0.83267467  1
  Pb  Pb40  1  0.16930551  0.16465300  0.83558897  1
  Pb  Pb41  1  0.83328701  0.83064530  0.50334699  1
  Pb  Pb42  1  0.50014196  0.83253336  0.50272042  1
  Pb  Pb43  1  0.16665774  0.49985628  0.49745795  1
  Pb  Pb44  1  0.16980632  0.16673712  0.49653280  1
  Pb  Pb45  1  0.16648688  0.83352577  0.16497096  1
  Pb  Pb46  1  0.83322199  0.83336976  0.16486282  1
  Pb  Pb47  1  0.16341565  0.50122738  0.83559576  1
  Pb  Pb48  1  0.83156080  0.16704055  0.83502668  1
  Pb  Pb49  1  0.50024937  0.82950831  0.16404768  1
  Pb  Pb50  1  0.83111654  0.16894495  0.49683110  1
  Pb  Pb51  1  0.16648652  0.83345494  0.50333482  1
  Pb  Pb52  1  0.50142866  0.49970655  0.83293512  1
  Pb  Pb53  1  0.50016025  0.16812899  0.16707726  1
  I  I54  1  0.16291477  0.00304308  0.16388755  1
  I  I55  1  0.16829756  0.00029092  0.49695929  1
  I  I56  1  0.16220947  -0.00335461  0.83664959  1
  I  I57  1  0.16578852  0.33444043  0.16518777  1
  I  I58  1  0.16566483  0.33339711  0.50423526  1
  I  I59  1  0.16737331  0.33314970  0.83301091  1
  I  I60  1  0.16580348  0.66343453  0.16512742  1
  I  I61  1  0.16929380  0.66632324  0.49736177  1
  I  I62  1  0.17240332  0.66933700  0.83597416  1
  I  I63  1  0.49953998  0.00000954  0.16839527  1
  I  I64  1  0.49903090  0.00259671  0.50186969  1
  I  I65  1  0.50208446  -0.00004087  0.82928286  1
  I  I66  1  0.50093808  0.33644506  0.16446256  1
  I  I67  1  0.50432136  0.33439114  0.50222120  1
  I  I68  1  0.50285048  0.33120837  0.83363156  1
  I  I69  1  0.50115272  0.66124630  0.17112339  1
  I  I70  1  0.50408518  0.66304210  0.49650620  1
  I  I71  1  0.49934894  0.66881155  0.83488269  1
  I  I72  1  0.83742345  0.00307931  0.16305809  1
  I  I73  1  0.83200411  0.00029472  0.49943668  1
  I  I74  1  0.83339060  -0.00245452  0.83714110  1
  I  I75  1  0.83349480  0.33540094  0.16333471  1
  I  I76  1  0.83028141  0.33737253  0.50475369  1
  I  I77  1  0.82927711  0.33633532  0.83416450  1
  I  I78  1  0.83354116  0.66278161  0.16728390  1
  I  I79  1  0.82628849  0.66205037  0.49390773  1
  I  I80  1  0.83026015  0.66595232  0.83618363  1
  I  I81  1  0.16548646  0.17135659  0.00334642  1
  I  I82  1  0.16407772  0.17290007  0.32869276  1
  I  I83  1  0.16578951  0.16481160  0.66667704  1
  I  I84  1  0.16869071  0.49712017  0.00385528  1
  I  I85  1  0.16304540  0.49653496  0.32903847  1
  I  I86  1  0.16751005  0.50289185  0.66684887  1
  I  I87  1  0.16727994  0.83203790  -0.00315782  1
  I  I88  1  0.16747274  0.83304786  0.33315145  1
  I  I89  1  0.16824877  0.83098280  0.67160452  1
  I  I90  1  0.50019461  0.16370192  -0.00198781  1
  I  I91  1  0.49996576  0.17163703  0.33562584  1
  I  I92  1  0.50150992  0.16840154  0.66693389  1
  I  I93  1  0.50152469  0.50000590  0.00239468  1
  I  I94  1  0.50501943  0.49321443  0.33322645  1
  I  I95  1  0.50570745  0.49987579  0.66418357  1
  I  I96  1  0.50038966  0.83864059  -0.00413680  1
  I  I97  1  0.49932535  0.83650932  0.33348946  1
  I  I98  1  0.50053477  0.83185986  0.67089987  1
  I  I99  1  0.83351090  0.17302291  0.00292405  1
  I  I100  1  0.83491124  0.17405705  0.32889463  1
  I  I101  1  0.83325287  0.16723981  0.66647637  1
  I  I102  1  0.83219591  0.50130857  0.00074093  1
  I  I103  1  0.83157593  0.49445908  0.33242437  1
  I  I104  1  0.82550325  0.50698063  0.66675507  1
  I  I105  1  0.83235393  0.82633699  -0.00352934  1
  I  I106  1  0.83327303  0.83295200  0.33355380  1
  I  I107  1  0.83154444  0.82775779  0.67160068  1
  I  I108  1  -0.00048037  0.17650176  0.16371730  1
  I  I109  1  -0.00011338  0.16758056  0.50173054  1
  I  I110  1  -0.00004306  0.16554216  0.83340444  1
  I  I111  1  -0.00100274  0.49610687  0.16513050  1
  I  I112  1  -0.00329407  0.50212256  0.49968496  1
  I  I113  1  -0.00481059  0.50590430  0.83378744  1
  I  I114  1  -0.00012437  0.82875470  0.16212617  1
  I  I115  1  -0.00030826  0.83077590  0.50085190  1
  I  I116  1  -0.00079430  0.82552730  0.83599690  1
  I  I117  1  0.33146997  0.17224050  0.16511489  1
  I  I118  1  0.33768288  0.17419335  0.50379161  1
  I  I119  1  0.33727773  0.16274571  0.83261440  1
  I  I120  1  0.33360693  0.49557635  0.16949381  1
  I  I121  1  0.33675422  0.49701778  0.49628450  1
  I  I122  1  0.33328707  0.50185622  0.83448506  1
  I  I123  1  0.33344452  0.83382598  0.16302164  1
  I  I124  1  0.33370387  0.83112013  0.50160416  1
  I  I125  1  0.33394872  0.83755134  0.83474445  1
  I  I126  1  0.66886188  0.17262041  0.16477316  1
  I  I127  1  0.66330622  0.16935454  0.50247760  1
  I  I128  1  0.66366468  0.16200566  0.83335850  1
  I  I129  1  0.66748353  0.49611360  0.16610937  1
  I  I130  1  0.66648337  0.49701615  0.49522439  1
  I  I131  1  0.66940176  0.50519543  0.83879705  1
  I  I132  1  0.66662149  0.83486949  0.16278847  1
  I  I133  1  0.66659450  0.83483510  0.50190195  1
  I  I134  1  0.66679580  0.83175536  0.83409453  1
