# generated using pymatgen
data_Cs27Sn14Pb13I81
_symmetry_space_group_name_H-M   'P 1'
_cell_length_a   18.97881329
_cell_length_b   18.97790484
_cell_length_c   18.96883174
_cell_angle_alpha   90.00084648
_cell_angle_beta   89.99843503
_cell_angle_gamma   90.00095502
_symmetry_Int_Tables_number   1
_chemical_formula_structural   Cs27Sn14Pb13I81
_chemical_formula_sum   'Cs27 Sn14 Pb13 I81'
_cell_volume   6832.15800901
_cell_formula_units_Z   1
loop_
 _symmetry_equiv_pos_site_id
 _symmetry_equiv_pos_as_xyz
  1  'x, y, z'
loop_
 _atom_site_type_symbol
 _atom_site_label
 _atom_site_symmetry_multiplicity
 _atom_site_fract_x
 _atom_site_fract_y
 _atom_site_fract_z
 _atom_site_occupancy
  Cs  Cs0  1  -0.00208675  0.00114814  -0.00100901  1
  Cs  Cs1  1  -0.00005832  0.00220552  0.33656315  1
  Cs  Cs2  1  -0.00161256  -0.00491791  0.66601109  1
  Cs  Cs3  1  -0.00153266  0.33550097  -0.00148813  1
  Cs  Cs4  1  -0.00105044  0.33002751  0.33495092  1
  Cs  Cs5  1  0.00202375  0.33388217  0.66822874  1
  Cs  Cs6  1  0.00065529  0.66504054  0.00009200  1
  Cs  Cs7  1  0.00608295  0.67070321  0.33228734  1
  Cs  Cs8  1  -0.00088540  0.66837089  0.66804814  1
  Cs  Cs9  1  0.33594032  0.00403611  -0.00226123  1
  Cs  Cs10  1  0.33171068  0.00109948  0.33329842  1
  Cs  Cs11  1  0.33554112  0.00241547  0.66865743  1
  Cs  Cs12  1  0.33333986  0.33344231  -0.00098897  1
  Cs  Cs13  1  0.33345052  0.33246133  0.33344496  1
  Cs  Cs14  1  0.33130548  0.33162231  0.66702097  1
  Cs  Cs15  1  0.33090522  0.66338751  0.00306513  1
  Cs  Cs16  1  0.33107534  0.67083184  0.33311475  1
  Cs  Cs17  1  0.33385881  0.66699595  0.66304707  1
  Cs  Cs18  1  0.66602658  -0.00331312  0.00108807  1
  Cs  Cs19  1  0.66891475  0.00539292  0.32919139  1
  Cs  Cs20  1  0.66710322  -0.01231915  0.67009769  1
  Cs  Cs21  1  0.66747678  0.33464624  0.00082567  1
  Cs  Cs22  1  0.66762693  0.33210679  0.33472957  1
  Cs  Cs23  1  0.66832504  0.33683182  0.66388860  1
  Cs  Cs24  1  0.66818620  0.66638254  -0.00026105  1
  Cs  Cs25  1  0.66396250  0.66431198  0.33562242  1
  Cs  Cs26  1  0.66633868  0.67168064  0.66046883  1
  Sn  Sn27  1  0.83269191  0.50090608  0.16642680  1
  Sn  Sn28  1  0.16726951  0.83241253  0.83378407  1
  Sn  Sn29  1  0.83288353  0.83193748  0.16659876  1
  Sn  Sn30  1  0.50057845  0.83300887  0.16646863  1
  Sn  Sn31  1  0.16688691  0.50086118  0.83240421  1
  Sn  Sn32  1  0.49904334  0.16707536  0.16711211  1
  Sn  Sn33  1  0.50036212  0.49984221  0.83346485  1
  Sn  Sn34  1  0.50071983  0.50011488  0.16611557  1
  Sn  Sn35  1  0.16659632  0.49929995  0.50063870  1
  Sn  Sn36  1  0.83271479  0.49927092  0.83369304  1
  Sn  Sn37  1  0.16706735  0.16707621  0.16688245  1
  Sn  Sn38  1  0.16755752  0.16771520  0.49942454  1
  Sn  Sn39  1  0.83276620  0.16726474  0.83295848  1
  Sn  Sn40  1  0.49981343  0.16685910  0.49989881  1
  Pb  Pb41  1  0.16672479  0.83629458  0.16468412  1
  Pb  Pb42  1  0.49771786  0.83011407  0.83576001  1
  Pb  Pb43  1  0.16651823  0.49806779  0.16663359  1
  Pb  Pb44  1  0.50271946  0.16876409  0.83318300  1
  Pb  Pb45  1  0.83477069  0.83213616  0.83527477  1
  Pb  Pb46  1  0.83294139  0.16724033  0.16516760  1
  Pb  Pb47  1  0.49989552  0.83662182  0.49688651  1
  Pb  Pb48  1  0.49787421  0.49826970  0.49948224  1
  Pb  Pb49  1  0.83321678  0.83311871  0.49608846  1
  Pb  Pb50  1  0.83601255  0.50010609  0.49952364  1
  Pb  Pb51  1  0.16519194  0.16711826  0.83296524  1
  Pb  Pb52  1  0.83294701  0.16674445  0.50336769  1
  Pb  Pb53  1  0.16691101  0.83398530  0.50253626  1
  I  I54  1  0.16951262  0.00405254  0.17010672  1
  I  I55  1  0.16986497  0.00358071  0.49660328  1
  I  I56  1  0.16332214  -0.00145710  0.83530728  1
  I  I57  1  0.17029450  0.33031042  0.16531103  1
  I  I58  1  0.16998940  0.33275908  0.50247301  1
  I  I59  1  0.16742985  0.33633441  0.83279465  1
  I  I60  1  0.16855097  0.66649478  0.16897047  1
  I  I61  1  0.16560704  0.66387099  0.50200552  1
  I  I62  1  0.16400853  0.66423521  0.82942274  1
  I  I63  1  0.50021436  0.00066596  0.17148300  1
  I  I64  1  0.49244587  0.00470861  0.49632812  1
  I  I65  1  0.49947897  -0.00003114  0.83391301  1
  I  I66  1  0.49986894  0.33360479  0.16627078  1
  I  I67  1  0.49739135  0.33040042  0.49378834  1
  I  I68  1  0.49426658  0.33681889  0.83965418  1
  I  I69  1  0.50459502  0.66560077  0.16060917  1
  I  I70  1  0.49845583  0.66655808  0.49970628  1
  I  I71  1  0.50454603  0.66189721  0.83849376  1
  I  I72  1  0.83066357  -0.00158694  0.16391710  1
  I  I73  1  0.83657249  0.00028045  0.50135584  1
  I  I74  1  0.83687774  0.00153734  0.83489766  1
  I  I75  1  0.83097787  0.33618373  0.16345539  1
  I  I76  1  0.83247811  0.33333545  0.49519439  1
  I  I77  1  0.83666057  0.33553684  0.83990130  1
  I  I78  1  0.82656518  0.66535136  0.15993307  1
  I  I79  1  0.83526763  0.66637210  0.50545760  1
  I  I80  1  0.83338700  0.66298805  0.83667532  1
  I  I81  1  0.17023812  0.16658056  0.00212887  1
  I  I82  1  0.16942530  0.17191318  0.33337134  1
  I  I83  1  0.17016432  0.16827227  0.66409130  1
  I  I84  1  0.16631572  0.50161725  -0.00262434  1
  I  I85  1  0.16671357  0.49637388  0.33537558  1
  I  I86  1  0.16667326  0.49714736  0.66801523  1
  I  I87  1  0.16588046  0.82676557  -0.00272912  1
  I  I88  1  0.16602859  0.83095475  0.33303723  1
  I  I89  1  0.16484316  0.83344319  0.67043755  1
  I  I90  1  0.49594649  0.16552190  0.00323442  1
  I  I91  1  0.49612821  0.16843235  0.33156658  1
  I  I92  1  0.49432541  0.17034449  0.66432783  1
  I  I93  1  0.49793835  0.49743637  0.00087729  1
  I  I94  1  0.50351929  0.50091580  0.32973024  1
  I  I95  1  0.50151539  0.49671092  0.66936244  1
  I  I96  1  0.50331902  0.83965939  0.00383403  1
  I  I97  1  0.50207330  0.82655452  0.32853010  1
  I  I98  1  0.49887426  0.83412655  0.66690437  1
  I  I99  1  0.83550308  0.16905666  -0.00246254  1
  I  I100  1  0.83451020  0.16597427  0.33327498  1
  I  I101  1  0.83561220  0.17488325  0.67101770  1
  I  I102  1  0.83539089  0.49934378  -0.00024340  1
  I  I103  1  0.82877285  0.50319523  0.32964420  1
  I  I104  1  0.83184158  0.49458591  0.67006673  1
  I  I105  1  0.82987760  0.83270175  0.00313642  1
  I  I106  1  0.83106660  0.82858372  0.32782873  1
  I  I107  1  0.83543424  0.83473748  0.66702570  1
  I  I108  1  0.00208503  0.16690122  0.16908336  1
  I  I109  1  0.00319811  0.17030304  0.49545630  1
  I  I110  1  -0.00234364  0.17232907  0.83573752  1
  I  I111  1  -0.00246916  0.50262656  0.16294240  1
  I  I112  1  0.00405295  0.49275257  0.50366027  1
  I  I113  1  -0.00008134  0.49927903  0.83436454  1
  I  I114  1  -0.00233139  0.82907679  0.16391087  1
  I  I115  1  0.00039689  0.83597282  0.49762832  1
  I  I116  1  0.00253759  0.82897832  0.83614906  1
  I  I117  1  0.33430298  0.16689149  0.16925802  1
  I  I118  1  0.33254519  0.17088945  0.49557265  1
  I  I119  1  0.33360363  0.16705482  0.83421696  1
  I  I120  1  0.33606308  0.50124259  0.16336939  1
  I  I121  1  0.32997142  0.49703551  0.50438739  1
  I  I122  1  0.33312631  0.50384919  0.83508617  1
  I  I123  1  0.33615111  0.83038220  0.16511208  1
  I  I124  1  0.33330454  0.83057412  0.49735493  1
  I  I125  1  0.33006530  0.82983850  0.83581056  1
  I  I126  1  0.66360779  0.16671918  0.16970854  1
  I  I127  1  0.66362322  0.16775058  0.49317851  1
  I  I128  1  0.67008395  0.17266806  0.83565976  1
  I  I129  1  0.66600132  0.49835347  0.15871644  1
  I  I130  1  0.66643249  0.49807437  0.50242735  1
  I  I131  1  0.66693747  0.49293208  0.84035054  1
  I  I132  1  0.66609720  0.83592043  0.16484101  1
  I  I133  1  0.66634258  0.83444353  0.50553227  1
  I  I134  1  0.66645423  0.83472560  0.83253815  1
