# generated using pymatgen
data_Cs27Sn14Pb13I81
_symmetry_space_group_name_H-M   'P 1'
_cell_length_a   18.96586189
_cell_length_b   18.95789196
_cell_length_c   18.95881312
_cell_angle_alpha   89.99995751
_cell_angle_beta   89.99888032
_cell_angle_gamma   90.00082265
_symmetry_Int_Tables_number   1
_chemical_formula_structural   Cs27Sn14Pb13I81
_chemical_formula_sum   'Cs27 Sn14 Pb13 I81'
_cell_volume   6816.69359628
_cell_formula_units_Z   1
loop_
 _symmetry_equiv_pos_site_id
 _symmetry_equiv_pos_as_xyz
  1  'x, y, z'
loop_
 _atom_site_type_symbol
 _atom_site_label
 _atom_site_symmetry_multiplicity
 _atom_site_fract_x
 _atom_site_fract_y
 _atom_site_fract_z
 _atom_site_occupancy
  Cs  Cs0  1  0.00033368  -0.00266228  -0.00034751  1
  Cs  Cs1  1  -0.00184379  0.00119094  0.33677717  1
  Cs  Cs2  1  -0.00283926  0.00110904  0.66229650  1
  Cs  Cs3  1  -0.00017782  0.33397314  0.00164541  1
  Cs  Cs4  1  0.00247054  0.33033175  0.33131117  1
  Cs  Cs5  1  -0.00166828  0.33287767  0.66619954  1
  Cs  Cs6  1  0.00107024  0.67135062  -0.00937485  1
  Cs  Cs7  1  0.00163136  0.66912806  0.33258941  1
  Cs  Cs8  1  -0.00501412  0.66687020  0.67674449  1
  Cs  Cs9  1  0.33418976  -0.00013380  -0.00026741  1
  Cs  Cs10  1  0.33323363  -0.00142424  0.33474848  1
  Cs  Cs11  1  0.33566945  0.00046166  0.66495712  1
  Cs  Cs12  1  0.33398570  0.33277562  0.00022650  1
  Cs  Cs13  1  0.33202438  0.33482232  0.33289989  1
  Cs  Cs14  1  0.33430065  0.33280246  0.66703399  1
  Cs  Cs15  1  0.33152238  0.66825510  -0.00048197  1
  Cs  Cs16  1  0.33422640  0.66635621  0.33419787  1
  Cs  Cs17  1  0.33346628  0.66703576  0.66532430  1
  Cs  Cs18  1  0.66555766  0.00275284  0.00080912  1
  Cs  Cs19  1  0.66751259  -0.00295107  0.33284547  1
  Cs  Cs20  1  0.66412448  -0.00037524  0.66715589  1
  Cs  Cs21  1  0.66611282  0.33053539  0.00118857  1
  Cs  Cs22  1  0.66646077  0.33584655  0.33148545  1
  Cs  Cs23  1  0.66603126  0.33701752  0.66544518  1
  Cs  Cs24  1  0.66671858  0.66852607  0.00116219  1
  Cs  Cs25  1  0.66697251  0.66646930  0.33488318  1
  Cs  Cs26  1  0.67066374  0.66422576  0.66452149  1
  Sn  Sn27  1  0.49975041  0.16726527  0.16794777  1
  Sn  Sn28  1  0.49970582  0.50115350  0.83429579  1
  Sn  Sn29  1  0.16632187  0.49976964  0.16707543  1
  Sn  Sn30  1  0.16679093  0.16703068  0.16576294  1
  Sn  Sn31  1  0.83383500  0.49970410  0.16658605  1
  Sn  Sn32  1  0.49969579  0.83192736  0.83264169  1
  Sn  Sn33  1  0.49998556  0.16628317  0.49861188  1
  Sn  Sn34  1  0.83352391  0.16724412  0.16588266  1
  Sn  Sn35  1  0.49990672  0.49940094  0.16572697  1
  Sn  Sn36  1  0.16654753  0.50113381  0.49982159  1
  Sn  Sn37  1  0.16554024  0.16686288  0.83405471  1
  Sn  Sn38  1  0.16712354  0.83189323  0.50009523  1
  Sn  Sn39  1  0.49931433  0.83391147  0.50084216  1
  Sn  Sn40  1  0.83453046  0.16693902  0.83400026  1
  Pb  Pb41  1  0.83362399  0.83336197  0.16649432  1
  Pb  Pb42  1  0.50007391  0.16683018  0.83365564  1
  Pb  Pb43  1  0.83034428  0.83625798  0.83344902  1
  Pb  Pb44  1  0.83069288  0.49767351  0.83588477  1
  Pb  Pb45  1  0.16664326  0.83334507  0.16855973  1
  Pb  Pb46  1  0.16872275  0.83623732  0.83069345  1
  Pb  Pb47  1  0.83012690  0.16690437  0.49946673  1
  Pb  Pb48  1  0.16834793  0.49814734  0.83375990  1
  Pb  Pb49  1  0.49865362  0.50023944  0.49956203  1
  Pb  Pb50  1  0.49989536  0.83303316  0.16698188  1
  Pb  Pb51  1  0.83713414  0.49988493  0.49727260  1
  Pb  Pb52  1  0.16842277  0.16685098  0.49966153  1
  Pb  Pb53  1  0.83326105  0.83304913  0.50010313  1
  I  I54  1  0.16766478  0.00372401  0.16443977  1
  I  I55  1  0.17069602  -0.00188377  0.50046617  1
  I  I56  1  0.16664065  0.00422578  0.83885988  1
  I  I57  1  0.16764483  0.33311085  0.16933526  1
  I  I58  1  0.16930205  0.33552805  0.49762754  1
  I  I59  1  0.16744703  0.32999089  0.83281211  1
  I  I60  1  0.16855035  0.66310664  0.17000528  1
  I  I61  1  0.17468346  0.66632313  0.49262137  1
  I  I62  1  0.16718270  0.66671524  0.83552215  1
  I  I63  1  0.50008412  0.00334186  0.16682426  1
  I  I64  1  0.49434085  -0.00011873  0.50075476  1
  I  I65  1  0.49991506  -0.00161818  0.83158593  1
  I  I66  1  0.49974377  0.33292867  0.16652677  1
  I  I67  1  0.49813401  0.33116100  0.49950146  1
  I  I68  1  0.49956887  0.33525447  0.83446976  1
  I  I69  1  0.49976716  0.66315525  0.16603453  1
  I  I70  1  0.49684833  0.66909855  0.50072261  1
  I  I71  1  0.49848314  0.66625349  0.83378889  1
  I  I72  1  0.83214442  0.00416633  0.16356942  1
  I  I73  1  0.83704618  0.00029309  0.49734650  1
  I  I74  1  0.83458968  0.00431673  0.84047288  1
  I  I75  1  0.83231509  0.33240506  0.16325908  1
  I  I76  1  0.83190885  0.33323093  0.50298944  1
  I  I77  1  0.83394929  0.32962192  0.83549743  1
  I  I78  1  0.83115534  0.66295985  0.16916681  1
  I  I79  1  0.82766378  0.66634886  0.49681952  1
  I  I80  1  0.83381640  0.66643941  0.83471743  1
  I  I81  1  0.16935592  0.17208995  0.00167466  1
  I  I82  1  0.16519599  0.16779817  0.33022454  1
  I  I83  1  0.16559480  0.16661380  0.66873454  1
  I  I84  1  0.16649155  0.49611888  0.00343956  1
  I  I85  1  0.16977221  0.49732993  0.33173821  1
  I  I86  1  0.17162883  0.50089547  0.66450087  1
  I  I87  1  0.16807892  0.83181234  -0.00041365  1
  I  I88  1  0.17451837  0.83415706  0.33661883  1
  I  I89  1  0.17053216  0.82904511  0.66275000  1
  I  I90  1  0.49993837  0.16756686  0.00287045  1
  I  I91  1  0.49908185  0.16684324  0.33182182  1
  I  I92  1  0.49865956  0.16587301  0.66498707  1
  I  I93  1  0.49782854  0.49835718  0.00158099  1
  I  I94  1  0.50112321  0.49830089  0.33013379  1
  I  I95  1  0.49716244  0.49871931  0.66856640  1
  I  I96  1  0.50097952  0.83353866  -0.00239312  1
  I  I97  1  0.49617590  0.83530963  0.33626975  1
  I  I98  1  0.49554177  0.83589725  0.66592390  1
  I  I99  1  0.83072790  0.17027386  0.00151614  1
  I  I100  1  0.83609033  0.17024746  0.32946527  1
  I  I101  1  0.83662674  0.16490664  0.66938304  1
  I  I102  1  0.83752147  0.49696374  0.00419568  1
  I  I103  1  0.82598221  0.49238000  0.32880183  1
  I  I104  1  0.83206664  0.49859385  0.66704719  1
  I  I105  1  0.83143506  0.83215203  -0.00013815  1
  I  I106  1  0.83027696  0.83622747  0.33328835  1
  I  I107  1  0.83458121  0.83573014  0.66687917  1
  I  I108  1  0.00046366  0.17280508  0.16240116  1
  I  I109  1  0.00016733  0.16552473  0.49857780  1
  I  I110  1  0.00040250  0.16747776  0.84056166  1
  I  I111  1  0.00077228  0.49200190  0.17360354  1
  I  I112  1  0.00521412  0.50368449  0.49534118  1
  I  I113  1  -0.00003737  0.50036271  0.83289745  1
  I  I114  1  0.00025543  0.83418378  0.17012081  1
  I  I115  1  0.00335906  0.83113459  0.49701768  1
  I  I116  1  0.00015819  0.83251248  0.83202361  1
  I  I117  1  0.33344998  0.17212882  0.16627490  1
  I  I118  1  0.33641089  0.16541194  0.49721839  1
  I  I119  1  0.33161794  0.16687805  0.83627521  1
  I  I120  1  0.33342267  0.49363207  0.16720103  1
  I  I121  1  0.33087536  0.50003533  0.49394171  1
  I  I122  1  0.33647220  0.49947520  0.83858206  1
  I  I123  1  0.33348451  0.83472800  0.16517074  1
  I  I124  1  0.33434028  0.83433127  0.50283083  1
  I  I125  1  0.33679203  0.83307244  0.83207296  1
  I  I126  1  0.66615737  0.17172510  0.16586508  1
  I  I127  1  0.66190103  0.16115306  0.49747024  1
  I  I128  1  0.66839305  0.16617430  0.83709902  1
  I  I129  1  0.66576058  0.49341952  0.16203527  1
  I  I130  1  0.66657753  0.49996159  0.49963145  1
  I  I131  1  0.66256129  0.50049241  0.83687759  1
  I  I132  1  0.66637298  0.83413431  0.16868848  1
  I  I133  1  0.66292035  0.83833678  0.50298345  1
  I  I134  1  0.66222958  0.83189902  0.82716607  1
