# generated using pymatgen
data_Cs27Sn13Pb14I81
_symmetry_space_group_name_H-M   'P 1'
_cell_length_a   18.97428974
_cell_length_b   18.97839602
_cell_length_c   18.98214126
_cell_angle_alpha   90.00101212
_cell_angle_beta   90.00163278
_cell_angle_gamma   90.00056926
_symmetry_Int_Tables_number   1
_chemical_formula_structural   Cs27Sn13Pb14I81
_chemical_formula_sum   'Cs27 Sn13 Pb14 I81'
_cell_volume   6835.49914745
_cell_formula_units_Z   1
loop_
 _symmetry_equiv_pos_site_id
 _symmetry_equiv_pos_as_xyz
  1  'x, y, z'
loop_
 _atom_site_type_symbol
 _atom_site_label
 _atom_site_symmetry_multiplicity
 _atom_site_fract_x
 _atom_site_fract_y
 _atom_site_fract_z
 _atom_site_occupancy
  Cs  Cs0  1  -0.00190185  0.00348841  0.00059379  1
  Cs  Cs1  1  0.00184780  0.00011536  0.33556730  1
  Cs  Cs2  1  0.00312075  -0.00445648  0.66215634  1
  Cs  Cs3  1  0.00024478  0.33212487  0.00029543  1
  Cs  Cs4  1  0.00048538  0.33504130  0.33244427  1
  Cs  Cs5  1  -0.00340304  0.33314924  0.66773211  1
  Cs  Cs6  1  -0.00011913  0.66717458  -0.00106296  1
  Cs  Cs7  1  -0.00185987  0.66391180  0.33262797  1
  Cs  Cs8  1  0.00157466  0.67231153  0.66815795  1
  Cs  Cs9  1  0.33327130  0.00115839  0.00203436  1
  Cs  Cs10  1  0.33276147  0.00067341  0.33431108  1
  Cs  Cs11  1  0.33320629  -0.00008062  0.66184387  1
  Cs  Cs12  1  0.33676528  0.33468333  -0.00116101  1
  Cs  Cs13  1  0.33323684  0.33386145  0.33151871  1
  Cs  Cs14  1  0.33495813  0.33340380  0.66962123  1
  Cs  Cs15  1  0.33317232  0.66393510  -0.00149498  1
  Cs  Cs16  1  0.33451221  0.66618144  0.33260715  1
  Cs  Cs17  1  0.33199406  0.66681362  0.66805205  1
  Cs  Cs18  1  0.66918322  -0.00010154  -0.00100237  1
  Cs  Cs19  1  0.66589759  -0.00076858  0.33497480  1
  Cs  Cs20  1  0.66465793  0.00170947  0.66630721  1
  Cs  Cs21  1  0.66541761  0.33267651  -0.00051135  1
  Cs  Cs22  1  0.66681321  0.33292387  0.33402779  1
  Cs  Cs23  1  0.66998528  0.33013691  0.66716160  1
  Cs  Cs24  1  0.66732245  0.66732880  0.00052585  1
  Cs  Cs25  1  0.66661003  0.66679638  0.33476775  1
  Cs  Cs26  1  0.66703561  0.66825621  0.66237461  1
  Sn  Sn27  1  0.16742400  0.49978467  0.49973993  1
  Sn  Sn28  1  0.16604272  0.16669646  0.83396964  1
  Sn  Sn29  1  0.16603464  0.16697701  0.16580337  1
  Sn  Sn30  1  0.83350614  0.49985912  0.83421460  1
  Sn  Sn31  1  0.16727917  0.83313526  0.16632385  1
  Sn  Sn32  1  0.49958018  0.83228077  0.49975983  1
  Sn  Sn33  1  0.83466107  0.16730232  0.83420611  1
  Sn  Sn34  1  0.83393642  0.49915163  0.16559270  1
  Sn  Sn35  1  0.49901476  0.50021042  0.49994971  1
  Sn  Sn36  1  0.49974828  0.83319848  0.83361746  1
  Sn  Sn37  1  0.83412093  0.16767387  0.16610105  1
  Sn  Sn38  1  0.49924092  0.83317384  0.16637773  1
  Sn  Sn39  1  0.16619929  0.49993346  0.16693616  1
  Pb  Pb40  1  0.83383335  0.83349044  0.16671158  1
  Pb  Pb41  1  0.83106869  0.83335591  0.49988468  1
  Pb  Pb42  1  0.16480329  0.49820078  0.83365409  1
  Pb  Pb43  1  0.50278707  0.50193148  0.83084573  1
  Pb  Pb44  1  0.50009776  0.16469075  0.83355727  1
  Pb  Pb45  1  0.50017679  0.16440451  0.16664538  1
  Pb  Pb46  1  0.83371971  0.16666137  0.49970797  1
  Pb  Pb47  1  0.50031954  0.50188277  0.16796633  1
  Pb  Pb48  1  0.83167685  0.83388462  0.83343973  1
  Pb  Pb49  1  0.83365121  0.49999686  0.49989841  1
  Pb  Pb50  1  0.16865132  0.83074449  0.49741078  1
  Pb  Pb51  1  0.16866079  0.83600043  0.83580475  1
  Pb  Pb52  1  0.16662979  0.16938927  0.49970408  1
  Pb  Pb53  1  0.49981567  0.16719830  0.49987894  1
  I  I54  1  0.16731189  0.00052848  0.16184723  1
  I  I55  1  0.16842388  -0.00014730  0.49949891  1
  I  I56  1  0.16058462  0.00389355  0.83863579  1
  I  I57  1  0.16153611  0.33354382  0.16802076  1
  I  I58  1  0.17307887  0.33719690  0.49339122  1
  I  I59  1  0.16613621  0.33025087  0.83853708  1
  I  I60  1  0.16688988  0.66592789  0.17184849  1
  I  I61  1  0.16782019  0.66288981  0.49519128  1
  I  I62  1  0.16573547  0.66665525  0.83369134  1
  I  I63  1  0.49665464  -0.00401591  0.16974493  1
  I  I64  1  0.50138845  -0.00348950  0.49989084  1
  I  I65  1  0.50197721  -0.00346041  0.83111889  1
  I  I66  1  0.49792364  0.33354035  0.16915671  1
  I  I67  1  0.49699285  0.33691307  0.49891879  1
  I  I68  1  0.49900359  0.33344324  0.83115828  1
  I  I69  1  0.49655695  0.67007004  0.16547088  1
  I  I70  1  0.49666523  0.66707197  0.49935398  1
  I  I71  1  0.50105136  0.66992261  0.83604510  1
  I  I72  1  0.83518314  0.00318196  0.16168283  1
  I  I73  1  0.83058916  0.00014036  0.49967193  1
  I  I74  1  0.83462144  0.00364947  0.83941016  1
  I  I75  1  0.84082781  0.33368614  0.16342398  1
  I  I76  1  0.82883498  0.33360903  0.50034799  1
  I  I77  1  0.83594194  0.33289267  0.83705294  1
  I  I78  1  0.83606085  0.66354796  0.16354620  1
  I  I79  1  0.83450475  0.66620033  0.49973688  1
  I  I80  1  0.83123062  0.66383496  0.83755582  1
  I  I81  1  0.16267889  0.16746938  0.00154186  1
  I  I82  1  0.16272659  0.16423304  0.32949258  1
  I  I83  1  0.16295291  0.16805989  0.66962397  1
  I  I84  1  0.16456786  0.50212617  0.00343389  1
  I  I85  1  0.16506149  0.49872953  0.33143018  1
  I  I86  1  0.16980572  0.49805218  0.66440672  1
  I  I87  1  0.17301891  0.82800314  0.00400497  1
  I  I88  1  0.17182110  0.83861695  0.32922408  1
  I  I89  1  0.16793815  0.83364306  0.66665182  1
  I  I90  1  0.49965072  0.16384452  0.00014960  1
  I  I91  1  0.50088683  0.16338484  0.33305008  1
  I  I92  1  0.50040826  0.16365334  0.66687527  1
  I  I93  1  0.49806381  0.50272123  -0.00006397  1
  I  I94  1  0.50086340  0.50652460  0.33591537  1
  I  I95  1  0.49475883  0.50604908  0.66300571  1
  I  I96  1  0.49693942  0.83509593  0.00085384  1
  I  I97  1  0.49645436  0.82963641  0.33314763  1
  I  I98  1  0.50285026  0.82956338  0.66610763  1
  I  I99  1  0.83733553  0.17044518  0.00060046  1
  I  I100  1  0.83710676  0.17092117  0.32931708  1
  I  I101  1  0.83548133  0.17159539  0.67040236  1
  I  I102  1  0.83815293  0.49679417  0.00131246  1
  I  I103  1  0.83444232  0.49620598  0.33000486  1
  I  I104  1  0.83158039  0.49502675  0.66943391  1
  I  I105  1  0.82819022  0.83198373  0.00025201  1
  I  I106  1  0.83026298  0.83316736  0.33281247  1
  I  I107  1  0.83127612  0.83252436  0.66692908  1
  I  I108  1  0.00067352  0.16541866  0.16249163  1
  I  I109  1  0.00029684  0.16843035  0.50014882  1
  I  I110  1  -0.00055276  0.17059170  0.83892959  1
  I  I111  1  0.00081567  0.50175222  0.16964712  1
  I  I112  1  0.00281792  0.49790202  0.49664948  1
  I  I113  1  -0.00319607  0.49899636  0.83281918  1
  I  I114  1  0.00327728  0.83300537  0.16610837  1
  I  I115  1  0.00076297  0.83232106  0.49910880  1
  I  I116  1  0.00026080  0.83147866  0.83494840  1
  I  I117  1  0.32974230  0.16899284  0.16295389  1
  I  I118  1  0.33301851  0.16497671  0.50014435  1
  I  I119  1  0.33031174  0.16540774  0.83821989  1
  I  I120  1  0.33033065  0.49784283  0.16944604  1
  I  I121  1  0.33297406  0.50391624  0.49372115  1
  I  I122  1  0.33328266  0.49884325  0.83503212  1
  I  I123  1  0.33298206  0.83371868  0.16715218  1
  I  I124  1  0.33684000  0.83151589  0.50183848  1
  I  I125  1  0.33669991  0.83421961  0.83128973  1
  I  I126  1  0.67013463  0.17023927  0.16248339  1
  I  I127  1  0.66675871  0.16748430  0.49991162  1
  I  I128  1  0.67010479  0.16909650  0.83761959  1
  I  I129  1  0.66968639  0.49702778  0.16486879  1
  I  I130  1  0.66406914  0.50593390  0.49981105  1
  I  I131  1  0.67057119  0.49388275  0.83879334  1
  I  I132  1  0.66382782  0.83301954  0.16789456  1
  I  I133  1  0.66192760  0.82623978  0.49636341  1
  I  I134  1  0.66330922  0.83453975  0.83556741  1
