# generated using pymatgen
data_Cs27Sn13Pb14I81
_symmetry_space_group_name_H-M   'P 1'
_cell_length_a   18.97802562
_cell_length_b   18.98179410
_cell_length_c   18.97181721
_cell_angle_alpha   89.99903480
_cell_angle_beta   90.00247899
_cell_angle_gamma   89.99930006
_symmetry_Int_Tables_number   1
_chemical_formula_structural   Cs27Sn13Pb14I81
_chemical_formula_sum   'Cs27 Sn13 Pb14 I81'
_cell_volume   6834.35002969
_cell_formula_units_Z   1
loop_
 _symmetry_equiv_pos_site_id
 _symmetry_equiv_pos_as_xyz
  1  'x, y, z'
loop_
 _atom_site_type_symbol
 _atom_site_label
 _atom_site_symmetry_multiplicity
 _atom_site_fract_x
 _atom_site_fract_y
 _atom_site_fract_z
 _atom_site_occupancy
  Cs  Cs0  1  -0.00108776  0.00042349  0.00120011  1
  Cs  Cs1  1  -0.00112700  -0.00241208  0.33324400  1
  Cs  Cs2  1  -0.00016490  0.00127206  0.66078052  1
  Cs  Cs3  1  0.00013894  0.33264772  -0.00299428  1
  Cs  Cs4  1  -0.00266994  0.33503849  0.33762071  1
  Cs  Cs5  1  0.00827278  0.34057370  0.66333866  1
  Cs  Cs6  1  -0.00099078  0.66714775  0.00070807  1
  Cs  Cs7  1  0.00004682  0.66768421  0.33791118  1
  Cs  Cs8  1  0.00059345  0.65981459  0.65866816  1
  Cs  Cs9  1  0.33173328  -0.00269401  0.00014788  1
  Cs  Cs10  1  0.33368221  0.00159972  0.33341056  1
  Cs  Cs11  1  0.33187220  0.00249745  0.66748308  1
  Cs  Cs12  1  0.33223669  0.33247502  0.00072633  1
  Cs  Cs13  1  0.33918257  0.33028136  0.33190897  1
  Cs  Cs14  1  0.32759281  0.33279504  0.66727432  1
  Cs  Cs15  1  0.33348986  0.67071400  0.00098424  1
  Cs  Cs16  1  0.33314353  0.66717377  0.33304469  1
  Cs  Cs17  1  0.33775784  0.66592768  0.66503836  1
  Cs  Cs18  1  0.66956688  -0.00095138  -0.00251069  1
  Cs  Cs19  1  0.66756652  0.00310645  0.33501569  1
  Cs  Cs20  1  0.66785547  0.00049557  0.66979553  1
  Cs  Cs21  1  0.66738038  0.33417324  0.00160977  1
  Cs  Cs22  1  0.66330776  0.33269512  0.33323831  1
  Cs  Cs23  1  0.66750389  0.33252013  0.66645121  1
  Cs  Cs24  1  0.66807104  0.66676550  -0.00079500  1
  Cs  Cs25  1  0.66651524  0.66430127  0.33324803  1
  Cs  Cs26  1  0.66282896  0.66584636  0.66711727  1
  Sn  Sn27  1  0.50053486  0.83346645  0.16765141  1
  Sn  Sn28  1  0.16623029  0.83337057  0.16594311  1
  Sn  Sn29  1  0.83412915  0.16598210  0.16571784  1
  Sn  Sn30  1  0.16553739  0.16665373  0.16629638  1
  Sn  Sn31  1  0.16481114  0.83315733  0.83352559  1
  Sn  Sn32  1  0.16648581  0.49998633  0.16629249  1
  Sn  Sn33  1  0.50040660  0.16781221  0.83392355  1
  Sn  Sn34  1  0.83325993  0.16623654  0.83373417  1
  Sn  Sn35  1  0.49993636  0.50044765  0.50071184  1
  Sn  Sn36  1  0.83334398  0.83389490  0.16592537  1
  Sn  Sn37  1  0.83518639  0.83366056  0.83360968  1
  Sn  Sn38  1  0.50018332  0.83326962  0.49897414  1
  Sn  Sn39  1  0.50000376  0.49860364  0.83319136  1
  Pb  Pb40  1  0.16658385  0.16650173  0.49649462  1
  Pb  Pb41  1  0.50021515  0.83358167  0.83352681  1
  Pb  Pb42  1  0.16904325  0.50298415  0.83529703  1
  Pb  Pb43  1  0.83579030  0.49992869  0.16655736  1
  Pb  Pb44  1  0.83339760  0.16662289  0.50039973  1
  Pb  Pb45  1  0.83042992  0.49995122  0.49996869  1
  Pb  Pb46  1  0.16964246  0.50008636  0.49698814  1
  Pb  Pb47  1  0.49837110  0.50220178  0.16635078  1
  Pb  Pb48  1  0.16573321  0.16463421  0.83498635  1
  Pb  Pb49  1  0.16902641  0.83344390  0.49995775  1
  Pb  Pb50  1  0.83162481  0.49999524  0.83338422  1
  Pb  Pb51  1  0.83077345  0.83332577  0.50025431  1
  Pb  Pb52  1  0.50008927  0.16653240  0.50305944  1
  Pb  Pb53  1  0.50055020  0.16414313  0.16438103  1
  I  I54  1  0.16696521  -0.00113731  0.16284796  1
  I  I55  1  0.17087954  -0.00035838  0.49880966  1
  I  I56  1  0.17057427  -0.00334899  0.84014255  1
  I  I57  1  0.16388618  0.33254097  0.16680842  1
  I  I58  1  0.16951011  0.33349220  0.49991109  1
  I  I59  1  0.16605971  0.33333304  0.83564300  1
  I  I60  1  0.16871088  0.66843280  0.16277680  1
  I  I61  1  0.16621580  0.66682557  0.49764133  1
  I  I62  1  0.16400445  0.67093554  0.84098521  1
  I  I63  1  0.49516328  -0.00401778  0.17004013  1
  I  I64  1  0.49984202  -0.00284427  0.49621205  1
  I  I65  1  0.50107978  0.00178789  0.83447898  1
  I  I66  1  0.49899525  0.33312262  0.16899871  1
  I  I67  1  0.49971338  0.33621058  0.50117539  1
  I  I68  1  0.50507768  0.33309168  0.82908245  1
  I  I69  1  0.49963143  0.67054250  0.16500818  1
  I  I70  1  0.49963273  0.66710634  0.50270607  1
  I  I71  1  0.49914398  0.66521790  0.83240955  1
  I  I72  1  0.83697350  -0.00098557  0.16271882  1
  I  I73  1  0.82949296  -0.00021884  0.49971769  1
  I  I74  1  0.82870054  -0.00044200  0.83873512  1
  I  I75  1  0.83704219  0.32971625  0.16215846  1
  I  I76  1  0.83006260  0.33314795  0.49799754  1
  I  I77  1  0.82892557  0.32983059  0.83932831  1
  I  I78  1  0.83280217  0.67038573  0.16218668  1
  I  I79  1  0.83411244  0.66705450  0.49927093  1
  I  I80  1  0.83402973  0.67022342  0.83934618  1
  I  I81  1  0.16687394  0.16708108  0.00348000  1
  I  I82  1  0.16261900  0.16251944  0.32760562  1
  I  I83  1  0.16771182  0.16431881  0.66710688  1
  I  I84  1  0.17021140  0.49945458  0.00327065  1
  I  I85  1  0.16831143  0.50393389  0.32899036  1
  I  I86  1  0.16602430  0.50146819  0.66674748  1
  I  I87  1  0.17005653  0.83338894  0.00173575  1
  I  I88  1  0.16479962  0.83329203  0.32934421  1
  I  I89  1  0.16494882  0.83430280  0.66981972  1
  I  I90  1  0.50113887  0.17052995  -0.00339579  1
  I  I91  1  0.49977926  0.16890075  0.33295990  1
  I  I92  1  0.50592973  0.16394959  0.67105871  1
  I  I93  1  0.49883411  0.49845325  -0.00254520  1
  I  I94  1  0.49772308  0.50364245  0.33541703  1
  I  I95  1  0.50068044  0.50475709  0.66689789  1
  I  I96  1  0.49870955  0.83316274  0.00251548  1
  I  I97  1  0.49898481  0.82779399  0.33218075  1
  I  I98  1  0.49980976  0.83165793  0.66500077  1
  I  I99  1  0.83244074  0.16149226  0.00035184  1
  I  I100  1  0.83753784  0.16137433  0.32946914  1
  I  I101  1  0.82605501  0.16007838  0.67071428  1
  I  I102  1  0.82870902  0.50111063  0.00007187  1
  I  I103  1  0.83149495  0.50013514  0.33289506  1
  I  I104  1  0.83497032  0.50083265  0.66695661  1
  I  I105  1  0.83114973  0.83693394  0.00089013  1
  I  I106  1  0.83598520  0.83724281  0.32964384  1
  I  I107  1  0.83500200  0.83846401  0.67031618  1
  I  I108  1  -0.00038461  0.16144249  0.16078142  1
  I  I109  1  -0.00005165  0.16673049  0.50427334  1
  I  I110  1  -0.00320216  0.16266650  0.83751956  1
  I  I111  1  0.00374843  0.50503205  0.16510354  1
  I  I112  1  0.00052532  0.49935110  0.49959594  1
  I  I113  1  0.00037664  0.49789881  0.83468717  1
  I  I114  1  0.00016689  0.83424139  0.16128009  1
  I  I115  1  -0.00008398  0.83363269  0.49778921  1
  I  I116  1  -0.00071154  0.83915182  0.84379559  1
  I  I117  1  0.33112321  0.16517574  0.16537751  1
  I  I118  1  0.33370387  0.16564489  0.49978316  1
  I  I119  1  0.33528478  0.16772773  0.83442210  1
  I  I120  1  0.33043461  0.50058909  0.16640886  1
  I  I121  1  0.33729242  0.50572548  0.50423773  1
  I  I122  1  0.33714761  0.49635858  0.83021195  1
  I  I123  1  0.33260923  0.83294981  0.16547572  1
  I  I124  1  0.33709175  0.82929202  0.49651909  1
  I  I125  1  0.33167623  0.83302921  0.83778734  1
  I  I126  1  0.66959736  0.16148577  0.16462690  1
  I  I127  1  0.66646199  0.16716549  0.49454752  1
  I  I128  1  0.66726540  0.16367265  0.83868636  1
  I  I129  1  0.66642050  0.50072393  0.16776158  1
  I  I130  1  0.66208571  0.50530620  0.50222789  1
  I  I131  1  0.66311365  0.50225892  0.83095138  1
  I  I132  1  0.66726661  0.83728422  0.16550484  1
  I  I133  1  0.66277123  0.82892089  0.49635284  1
  I  I134  1  0.66893317  0.83423851  0.83688614  1
