# generated using pymatgen
data_Cs27Sn13Pb14I81
_symmetry_space_group_name_H-M   'P 1'
_cell_length_a   18.98016051
_cell_length_b   18.98106262
_cell_length_c   18.97044549
_cell_angle_alpha   89.99872935
_cell_angle_beta   89.99826365
_cell_angle_gamma   90.00041199
_symmetry_Int_Tables_number   1
_chemical_formula_structural   Cs27Sn13Pb14I81
_chemical_formula_sum   'Cs27 Sn13 Pb14 I81'
_cell_volume   6834.36126802
_cell_formula_units_Z   1
loop_
 _symmetry_equiv_pos_site_id
 _symmetry_equiv_pos_as_xyz
  1  'x, y, z'
loop_
 _atom_site_type_symbol
 _atom_site_label
 _atom_site_symmetry_multiplicity
 _atom_site_fract_x
 _atom_site_fract_y
 _atom_site_fract_z
 _atom_site_occupancy
  Cs  Cs0  1  -0.00193317  0.00179504  -0.00016520  1
  Cs  Cs1  1  0.00006417  -0.00334716  0.33447935  1
  Cs  Cs2  1  0.00083375  0.00268210  0.66642254  1
  Cs  Cs3  1  -0.00179308  0.33090678  -0.00124433  1
  Cs  Cs4  1  0.00048794  0.33396777  0.33346046  1
  Cs  Cs5  1  0.00226783  0.33065882  0.66871879  1
  Cs  Cs6  1  0.00124408  0.66607057  -0.00050287  1
  Cs  Cs7  1  -0.00605503  0.66892736  0.33445948  1
  Cs  Cs8  1  0.00217654  0.66722478  0.66674922  1
  Cs  Cs9  1  0.33342304  -0.00218540  0.00157976  1
  Cs  Cs10  1  0.33373729  0.00319139  0.33242974  1
  Cs  Cs11  1  0.33423283  -0.00273348  0.66651931  1
  Cs  Cs12  1  0.33248683  0.33630790  0.00076392  1
  Cs  Cs13  1  0.33503415  0.33110793  0.33247331  1
  Cs  Cs14  1  0.33142639  0.33418766  0.66719911  1
  Cs  Cs15  1  0.33388480  0.66568909  -0.00040148  1
  Cs  Cs16  1  0.33109998  0.66582773  0.32948369  1
  Cs  Cs17  1  0.33377808  0.67015647  0.66669317  1
  Cs  Cs18  1  0.67039375  0.00124040  -0.00150739  1
  Cs  Cs19  1  0.66619730  0.00157090  0.33296729  1
  Cs  Cs20  1  0.66165871  -0.00070532  0.66912937  1
  Cs  Cs21  1  0.66886701  0.33221436  -0.00099094  1
  Cs  Cs22  1  0.66350542  0.33643977  0.33720442  1
  Cs  Cs23  1  0.66688276  0.33340400  0.66534493  1
  Cs  Cs24  1  0.66414700  0.66722726  0.00031428  1
  Cs  Cs25  1  0.67733042  0.66317589  0.33661025  1
  Cs  Cs26  1  0.66413530  0.66754903  0.66307412  1
  Sn  Sn27  1  0.49866563  0.16770165  0.83370445  1
  Sn  Sn28  1  0.49944432  0.50103993  0.16592551  1
  Sn  Sn29  1  0.16780545  0.16555422  0.83293914  1
  Sn  Sn30  1  0.49955115  0.83227298  0.16663949  1
  Sn  Sn31  1  0.16589779  0.16750112  0.50071168  1
  Sn  Sn32  1  0.83222521  0.50103486  0.83335156  1
  Sn  Sn33  1  0.83405851  0.16667754  0.50002632  1
  Sn  Sn34  1  0.16702723  0.50071677  0.16770926  1
  Sn  Sn35  1  0.16694520  0.49952958  0.49876999  1
  Sn  Sn36  1  0.16735196  0.83242736  0.16569779  1
  Sn  Sn37  1  0.50089620  0.49927460  0.83381669  1
  Sn  Sn38  1  0.83423247  0.83218828  0.83328620  1
  Sn  Sn39  1  0.16587003  0.83439700  0.83422979  1
  Pb  Pb40  1  0.49989621  0.83291417  0.49562281  1
  Pb  Pb41  1  0.83612252  0.49822956  0.50295878  1
  Pb  Pb42  1  0.83329712  0.16687259  0.17028964  1
  Pb  Pb43  1  0.16703374  0.50014453  0.83367081  1
  Pb  Pb44  1  0.83340315  0.49984646  0.16453213  1
  Pb  Pb45  1  0.49752354  0.50027394  0.49976735  1
  Pb  Pb46  1  0.49997578  0.16714694  0.16404708  1
  Pb  Pb47  1  0.49918937  0.16670105  0.50257259  1
  Pb  Pb48  1  0.83352140  0.83330385  0.16449357  1
  Pb  Pb49  1  0.49966943  0.83294045  0.83473207  1
  Pb  Pb50  1  0.16647453  0.16664945  0.16667049  1
  Pb  Pb51  1  0.16692070  0.83354516  0.49956202  1
  Pb  Pb52  1  0.83336492  0.83591033  0.50320699  1
  Pb  Pb53  1  0.83343359  0.16664293  0.83205242  1
  I  I54  1  0.17091612  -0.00307565  0.16510607  1
  I  I55  1  0.16271454  0.00304840  0.50200232  1
  I  I56  1  0.16632365  0.00004146  0.83297267  1
  I  I57  1  0.17129664  0.33643177  0.16688775  1
  I  I58  1  0.16342923  0.33275533  0.50165886  1
  I  I59  1  0.16692311  0.33131153  0.83219847  1
  I  I60  1  0.17139743  0.66656494  0.16508017  1
  I  I61  1  0.16816089  0.66400596  0.50057257  1
  I  I62  1  0.16570999  0.66888820  0.83384713  1
  I  I63  1  0.49477901  -0.00295256  0.16545002  1
  I  I64  1  0.49824054  0.00016097  0.50152478  1
  I  I65  1  0.49957848  0.00194110  0.83370857  1
  I  I66  1  0.49470864  0.33697374  0.16433504  1
  I  I67  1  0.50127159  0.33337800  0.49614602  1
  I  I68  1  0.49979493  0.33417083  0.83836936  1
  I  I69  1  0.49332704  0.66563752  0.15824943  1
  I  I70  1  0.49738983  0.66632716  0.50828358  1
  I  I71  1  0.50031255  0.66390504  0.83592865  1
  I  I72  1  0.83313252  -0.00024240  0.16270174  1
  I  I73  1  0.84185053  0.00364395  0.50202861  1
  I  I74  1  0.83440519  -0.00214738  0.83240875  1
  I  I75  1  0.83441088  0.33368820  0.16123470  1
  I  I76  1  0.83607548  0.33053701  0.50389609  1
  I  I77  1  0.83292348  0.33550341  0.83227445  1
  I  I78  1  0.83392583  0.66658652  0.16858086  1
  I  I79  1  0.83425469  0.66648014  0.49907333  1
  I  I80  1  0.83475303  0.66668693  0.83446721  1
  I  I81  1  0.17040416  0.16620271  -0.00320977  1
  I  I82  1  0.16208306  0.16762402  0.33623785  1
  I  I83  1  0.16627102  0.16785112  0.66751086  1
  I  I84  1  0.16803295  0.50110364  0.00230926  1
  I  I85  1  0.17256595  0.49910983  0.33233616  1
  I  I86  1  0.16558670  0.49805430  0.66516682  1
  I  I87  1  0.16677673  0.83287519  -0.00050632  1
  I  I88  1  0.17178769  0.83293629  0.32999959  1
  I  I89  1  0.16264176  0.83377607  0.66976333  1
  I  I90  1  0.49397346  0.16829485  -0.00417650  1
  I  I91  1  0.50050353  0.16610623  0.33329732  1
  I  I92  1  0.49866756  0.17192015  0.67088318  1
  I  I93  1  0.49665454  0.49978565  -0.00027555  1
  I  I94  1  0.49693465  0.50370316  0.32981171  1
  I  I95  1  0.50240283  0.49514255  0.66998589  1
  I  I96  1  0.49724851  0.83171460  0.00249839  1
  I  I97  1  0.49146564  0.82880360  0.32751225  1
  I  I98  1  0.49987002  0.83386148  0.66716261  1
  I  I99  1  0.83367544  0.16644158  -0.00064498  1
  I  I100  1  0.84133357  0.16677970  0.33821828  1
  I  I101  1  0.83684670  0.16715842  0.66456269  1
  I  I102  1  0.83508650  0.50186906  -0.00379685  1
  I  I103  1  0.83081474  0.49792289  0.33362113  1
  I  I104  1  0.82877862  0.50341131  0.67094096  1
  I  I105  1  0.83538849  0.83155241  -0.00373014  1
  I  I106  1  0.83327921  0.83523694  0.33335969  1
  I  I107  1  0.84009969  0.82925522  0.67139170  1
  I  I108  1  0.00046103  0.16730987  0.15987607  1
  I  I109  1  0.00198095  0.17056171  0.50770604  1
  I  I110  1  0.00283761  0.16637741  0.83117579  1
  I  I111  1  0.00350908  0.50406201  0.16898221  1
  I  I112  1  0.00404936  0.49807619  0.49587433  1
  I  I113  1  -0.00144566  0.50031374  0.83272147  1
  I  I114  1  0.00351194  0.82939001  0.16464892  1
  I  I115  1  0.00030473  0.83149992  0.49611971  1
  I  I116  1  0.00146633  0.83352352  0.83864161  1
  I  I117  1  0.33313864  0.16617642  0.17047865  1
  I  I118  1  0.32970145  0.17028936  0.50211099  1
  I  I119  1  0.33213104  0.16693708  0.82798253  1
  I  I120  1  0.33295783  0.50382098  0.16361477  1
  I  I121  1  0.32943254  0.49303123  0.50177178  1
  I  I122  1  0.33557608  0.49841486  0.83443951  1
  I  I123  1  0.33201951  0.82921550  0.15956287  1
  I  I124  1  0.33289938  0.83572792  0.50732929  1
  I  I125  1  0.33047873  0.83450145  0.83503495  1
  I  I126  1  0.66633018  0.16525721  0.16492424  1
  I  I127  1  0.66901526  0.16565960  0.50208758  1
  I  I128  1  0.66448482  0.16713975  0.83246628  1
  I  I129  1  0.66328217  0.50411849  0.16328557  1
  I  I130  1  0.66687557  0.49771278  0.49768641  1
  I  I131  1  0.66556332  0.49869360  0.83918695  1
  I  I132  1  0.66360702  0.82944363  0.16452370  1
  I  I133  1  0.66684075  0.83612405  0.50158680  1
  I  I134  1  0.66849954  0.83388965  0.83471331  1
