# generated using pymatgen
data_Cs27Sn13Pb14I81
_symmetry_space_group_name_H-M   'P 1'
_cell_length_a   18.99008328
_cell_length_b   18.99632214
_cell_length_c   18.98826325
_cell_angle_alpha   90.00121794
_cell_angle_beta   89.99977359
_cell_angle_gamma   90.00114695
_symmetry_Int_Tables_number   1
_chemical_formula_structural   Cs27Sn13Pb14I81
_chemical_formula_sum   'Cs27 Sn13 Pb14 I81'
_cell_volume   6849.85911144
_cell_formula_units_Z   1
loop_
 _symmetry_equiv_pos_site_id
 _symmetry_equiv_pos_as_xyz
  1  'x, y, z'
loop_
 _atom_site_type_symbol
 _atom_site_label
 _atom_site_symmetry_multiplicity
 _atom_site_fract_x
 _atom_site_fract_y
 _atom_site_fract_z
 _atom_site_occupancy
  Cs  Cs0  1  -0.00233592  0.00000287  0.00087862  1
  Cs  Cs1  1  -0.00220948  -0.00362879  0.33777525  1
  Cs  Cs2  1  0.00165931  0.00141350  0.66057620  1
  Cs  Cs3  1  0.00060572  0.33257928  0.00028171  1
  Cs  Cs4  1  0.00050632  0.33255508  0.33036583  1
  Cs  Cs5  1  -0.00219413  0.33315495  0.66552815  1
  Cs  Cs6  1  0.00072306  0.66686241  -0.00020460  1
  Cs  Cs7  1  0.00075089  0.67036841  0.33408400  1
  Cs  Cs8  1  -0.00026898  0.66532925  0.66651789  1
  Cs  Cs9  1  0.33372391  -0.00069518  -0.00080360  1
  Cs  Cs10  1  0.33317226  -0.00245229  0.33321793  1
  Cs  Cs11  1  0.33519054  0.00712179  0.66660229  1
  Cs  Cs12  1  0.33220018  0.33212662  0.00220254  1
  Cs  Cs13  1  0.33627384  0.33623565  0.33058201  1
  Cs  Cs14  1  0.33736740  0.32146438  0.66488011  1
  Cs  Cs15  1  0.33267737  0.66788707  0.00099338  1
  Cs  Cs16  1  0.33270540  0.66713373  0.33324710  1
  Cs  Cs17  1  0.33185534  0.66984892  0.66860704  1
  Cs  Cs18  1  0.66930701  -0.00130846  0.00098068  1
  Cs  Cs19  1  0.66942907  -0.00173711  0.33274005  1
  Cs  Cs20  1  0.66202180  0.00354879  0.66822514  1
  Cs  Cs21  1  0.66998695  0.33573649  0.00032782  1
  Cs  Cs22  1  0.66339083  0.33448000  0.33864243  1
  Cs  Cs23  1  0.66304656  0.34120035  0.65678125  1
  Cs  Cs24  1  0.66556305  0.66575430  -0.00394182  1
  Cs  Cs25  1  0.66608241  0.66861067  0.33581345  1
  Cs  Cs26  1  0.66571564  0.65604866  0.67197497  1
  Sn  Sn27  1  0.16554570  0.83327759  0.83404681  1
  Sn  Sn28  1  0.50042111  0.16569025  0.16620273  1
  Sn  Sn29  1  0.16637796  0.16603749  0.16651886  1
  Sn  Sn30  1  0.16692399  0.50009210  0.83320639  1
  Sn  Sn31  1  0.83313751  0.16620759  0.83380628  1
  Sn  Sn32  1  0.49938803  0.83400732  0.16739244  1
  Sn  Sn33  1  0.83436249  0.83435527  0.83322101  1
  Sn  Sn34  1  0.83407755  0.49966473  0.16673034  1
  Sn  Sn35  1  0.16719661  0.83354408  0.16594822  1
  Sn  Sn36  1  0.50009095  0.83308021  0.49958129  1
  Sn  Sn37  1  0.83325454  0.16752026  0.16620173  1
  Sn  Sn38  1  0.16687281  0.49978469  0.50033051  1
  Sn  Sn39  1  0.16566837  0.50028136  0.16642606  1
  Pb  Pb40  1  0.83547079  0.49954315  0.83531821  1
  Pb  Pb41  1  0.83031876  0.83316705  0.50418460  1
  Pb  Pb42  1  0.49681557  0.50268151  0.49983878  1
  Pb  Pb43  1  0.16807529  0.83181000  0.50049219  1
  Pb  Pb44  1  0.50005858  0.50043565  0.16645327  1
  Pb  Pb45  1  0.16473609  0.16626960  0.83530500  1
  Pb  Pb46  1  0.83596296  0.50025413  0.49671936  1
  Pb  Pb47  1  0.49624228  0.49961282  0.83355521  1
  Pb  Pb48  1  0.83323668  0.83311750  0.16549969  1
  Pb  Pb49  1  0.49999964  0.16419071  0.49682898  1
  Pb  Pb50  1  0.49958835  0.83341610  0.83380712  1
  Pb  Pb51  1  0.16659037  0.16932865  0.49677387  1
  Pb  Pb52  1  0.83331633  0.16655441  0.49982679  1
  Pb  Pb53  1  0.50350052  0.16684019  0.83624372  1
  I  I54  1  0.16800313  -0.00058786  0.16120963  1
  I  I55  1  0.16810320  -0.00000418  0.49998658  1
  I  I56  1  0.16550084  -0.00305263  0.83937343  1
  I  I57  1  0.16625185  0.33366950  0.16666148  1
  I  I58  1  0.16596564  0.33740801  0.50076329  1
  I  I59  1  0.16510182  0.33594069  0.83590164  1
  I  I60  1  0.16694053  0.66662063  0.16613341  1
  I  I61  1  0.16808891  0.66401893  0.49378057  1
  I  I62  1  0.16150287  0.66736075  0.83899892  1
  I  I63  1  0.49635636  -0.00036971  0.17012832  1
  I  I64  1  0.49711956  -0.00338534  0.49843558  1
  I  I65  1  0.49480101  -0.00001424  0.83078480  1
  I  I66  1  0.49680982  0.33052770  0.16482908  1
  I  I67  1  0.49983388  0.33334184  0.49974703  1
  I  I68  1  0.49933953  0.33307322  0.83584154  1
  I  I69  1  0.49585143  0.66992903  0.16980761  1
  I  I70  1  0.49961352  0.67010211  0.49048344  1
  I  I71  1  0.50595925  0.66700928  0.83609710  1
  I  I72  1  0.83520472  0.00257896  0.16399456  1
  I  I73  1  0.83506306  -0.00029938  0.49402316  1
  I  I74  1  0.83876549  -0.00021458  0.84192419  1
  I  I75  1  0.83749337  0.33245039  0.16043339  1
  I  I76  1  0.83303703  0.33350626  0.50448000  1
  I  I77  1  0.83562113  0.33074874  0.83897661  1
  I  I78  1  0.83775088  0.66446000  0.16504719  1
  I  I79  1  0.83279870  0.66674722  0.49835766  1
  I  I80  1  0.83485388  0.66893367  0.83545753  1
  I  I81  1  0.16870097  0.17108563  0.00398622  1
  I  I82  1  0.16378530  0.16526261  0.32777369  1
  I  I83  1  0.16514036  0.16687856  0.66678742  1
  I  I84  1  0.16267383  0.50132017  0.00146300  1
  I  I85  1  0.16331085  0.49972157  0.33122525  1
  I  I86  1  0.16698603  0.50886924  0.66756032  1
  I  I87  1  0.16905097  0.82838402  0.00144048  1
  I  I88  1  0.16883343  0.83250634  0.32992993  1
  I  I89  1  0.16421591  0.82709079  0.66998130  1
  I  I90  1  0.49613524  0.15904392  0.00456245  1
  I  I91  1  0.50171156  0.16627322  0.32849257  1
  I  I92  1  0.50012221  0.16503591  0.66659849  1
  I  I93  1  0.49822265  0.50360522  0.00053466  1
  I  I94  1  0.49769447  0.49772223  0.33285978  1
  I  I95  1  0.50117625  0.50339071  0.66651458  1
  I  I96  1  0.49776798  0.83723186  0.00327801  1
  I  I97  1  0.49354267  0.83678115  0.33092965  1
  I  I98  1  0.49963282  0.83102515  0.66445667  1
  I  I99  1  0.83380077  0.16629956  0.00185787  1
  I  I100  1  0.83353443  0.17112292  0.32899184  1
  I  I101  1  0.83609831  0.16071991  0.67007131  1
  I  I102  1  0.83975431  0.49849743  0.00327693  1
  I  I103  1  0.83887794  0.49389515  0.32846833  1
  I  I104  1  0.83437172  0.49995406  0.66686969  1
  I  I105  1  0.83335159  0.83419317  -0.00221747  1
  I  I106  1  0.83583079  0.83344273  0.33327190  1
  I  I107  1  0.84075718  0.83940011  0.67204583  1
  I  I108  1  0.00012835  0.16899506  0.16232073  1
  I  I109  1  0.00013887  0.16543315  0.49667644  1
  I  I110  1  -0.00286207  0.16584476  0.84212082  1
  I  I111  1  0.00181657  0.49670223  0.16633309  1
  I  I112  1  0.00387197  0.50227557  0.50138146  1
  I  I113  1  0.00359401  0.50224260  0.83347031  1
  I  I114  1  0.00303591  0.83423831  0.16406966  1
  I  I115  1  0.00006058  0.83222939  0.49702627  1
  I  I116  1  0.00131636  0.83224851  0.84120989  1
  I  I117  1  0.33257533  0.16707560  0.16786172  1
  I  I118  1  0.33324128  0.16736873  0.50026556  1
  I  I119  1  0.33323758  0.16673861  0.83411560  1
  I  I120  1  0.32964176  0.49763442  0.16658519  1
  I  I121  1  0.32915721  0.50094732  0.49414308  1
  I  I122  1  0.32762689  0.50850659  0.83905280  1
  I  I123  1  0.33190028  0.83540566  0.16481624  1
  I  I124  1  0.33575681  0.83097476  0.49779681  1
  I  I125  1  0.32997383  0.82708176  0.83573161  1
  I  I126  1  0.66712324  0.16567851  0.16210104  1
  I  I127  1  0.66654143  0.16664594  0.49809987  1
  I  I128  1  0.67135573  0.15769204  0.84115398  1
  I  I129  1  0.66958900  0.49667215  0.16516928  1
  I  I130  1  0.66652840  0.50003745  0.49899551  1
  I  I131  1  0.66720383  0.50222726  0.83606839  1
  I  I132  1  0.66424733  0.83648356  0.16864606  1
  I  I133  1  0.66284970  0.83466111  0.48973565  1
  I  I134  1  0.66936173  0.83830084  0.83504920  1
