# generated using pymatgen
data_Cs27Sn14Pb13I81
_symmetry_space_group_name_H-M   'P 1'
_cell_length_a   18.98461309
_cell_length_b   18.96907649
_cell_length_c   18.97462620
_cell_angle_alpha   89.99865160
_cell_angle_beta   89.99954130
_cell_angle_gamma   89.99968245
_symmetry_Int_Tables_number   1
_chemical_formula_structural   Cs27Sn14Pb13I81
_chemical_formula_sum   'Cs27 Sn14 Pb13 I81'
_cell_volume   6833.15334808
_cell_formula_units_Z   1
loop_
 _symmetry_equiv_pos_site_id
 _symmetry_equiv_pos_as_xyz
  1  'x, y, z'
loop_
 _atom_site_type_symbol
 _atom_site_label
 _atom_site_symmetry_multiplicity
 _atom_site_fract_x
 _atom_site_fract_y
 _atom_site_fract_z
 _atom_site_occupancy
  Cs  Cs0  1  -0.00282841  0.00771348  0.00141736  1
  Cs  Cs1  1  -0.00103889  -0.00192736  0.33655292  1
  Cs  Cs2  1  -0.00068421  -0.00099592  0.66542897  1
  Cs  Cs3  1  0.00611359  0.32592497  0.00061567  1
  Cs  Cs4  1  0.00391837  0.33650695  0.33388273  1
  Cs  Cs5  1  0.00131099  0.33081995  0.66731645  1
  Cs  Cs6  1  -0.00179698  0.66613987  0.00025934  1
  Cs  Cs7  1  0.00011305  0.66613433  0.33460514  1
  Cs  Cs8  1  -0.00127046  0.66825838  0.66553158  1
  Cs  Cs9  1  0.33463096  0.00029331  0.00205047  1
  Cs  Cs10  1  0.33506238  0.00136887  0.33406689  1
  Cs  Cs11  1  0.33305418  -0.00336926  0.66550290  1
  Cs  Cs12  1  0.32521267  0.33468836  0.00077196  1
  Cs  Cs13  1  0.33504493  0.33129643  0.33298901  1
  Cs  Cs14  1  0.33581034  0.33498280  0.66615588  1
  Cs  Cs15  1  0.33548919  0.66609211  -0.00157885  1
  Cs  Cs16  1  0.33020214  0.66680119  0.33307854  1
  Cs  Cs17  1  0.33338413  0.66974964  0.66831868  1
  Cs  Cs18  1  0.66856382  0.00232804  0.00611472  1
  Cs  Cs19  1  0.66610037  0.00153715  0.32696405  1
  Cs  Cs20  1  0.66747046  -0.00034548  0.66724087  1
  Cs  Cs21  1  0.66856071  0.33766620  -0.00182765  1
  Cs  Cs22  1  0.66149119  0.33534338  0.33645161  1
  Cs  Cs23  1  0.66463187  0.33431771  0.66593210  1
  Cs  Cs24  1  0.66638057  0.66585366  0.00027503  1
  Cs  Cs25  1  0.66899743  0.66439681  0.32888857  1
  Cs  Cs26  1  0.66714932  0.66677228  0.66886577  1
  Sn  Sn27  1  0.50066871  0.50000870  0.83418171  1
  Sn  Sn28  1  0.50071158  0.83306996  0.50011746  1
  Sn  Sn29  1  0.50012099  0.16639413  0.83356309  1
  Sn  Sn30  1  0.50040807  0.50027079  0.16573708  1
  Sn  Sn31  1  0.83259431  0.83410045  0.50043709  1
  Sn  Sn32  1  0.16640121  0.83338830  0.16637462  1
  Sn  Sn33  1  0.83308045  0.49984677  0.16551719  1
  Sn  Sn34  1  0.83315871  0.50043432  0.83417896  1
  Sn  Sn35  1  0.16664922  0.83378194  0.49996939  1
  Sn  Sn36  1  0.83307561  0.83303501  0.83309312  1
  Sn  Sn37  1  0.83368658  0.16589170  0.50007903  1
  Sn  Sn38  1  0.50063824  0.83377602  0.83298958  1
  Sn  Sn39  1  0.16613832  0.83334646  0.83391702  1
  Sn  Sn40  1  0.16608383  0.16573021  0.50044801  1
  Pb  Pb41  1  0.83335641  0.50010933  0.50071558  1
  Pb  Pb42  1  0.49833839  0.83158173  0.16626754  1
  Pb  Pb43  1  0.16677072  0.50009883  0.50027755  1
  Pb  Pb44  1  0.50017624  0.16404334  0.50176868  1
  Pb  Pb45  1  0.16659236  0.50192294  0.16645761  1
  Pb  Pb46  1  0.83528115  0.83191247  0.16642207  1
  Pb  Pb47  1  0.83320093  0.17021118  0.16994629  1
  Pb  Pb48  1  0.16623851  0.50198959  0.83317079  1
  Pb  Pb49  1  0.49997706  0.50295467  0.50056322  1
  Pb  Pb50  1  0.83160800  0.16671101  0.83153586  1
  Pb  Pb51  1  0.16909875  0.16365524  0.83092241  1
  Pb  Pb52  1  0.50008860  0.16993477  0.16346812  1
  Pb  Pb53  1  0.16666271  0.16365210  0.16957873  1
  I  I54  1  0.16721844  -0.00447350  0.16371024  1
  I  I55  1  0.16583062  -0.00238711  0.50052524  1
  I  I56  1  0.16597371  -0.00492615  0.83419292  1
  I  I57  1  0.16712708  0.33323380  0.16900055  1
  I  I58  1  0.16099037  0.32992814  0.50004461  1
  I  I59  1  0.16736842  0.33290474  0.83141432  1
  I  I60  1  0.16713653  0.67004678  0.17052052  1
  I  I61  1  0.16583517  0.67117404  0.50016217  1
  I  I62  1  0.17133477  0.67099055  0.82933126  1
  I  I63  1  0.49784989  -0.00014847  0.16633676  1
  I  I64  1  0.49860319  -0.00420238  0.50624634  1
  I  I65  1  0.49871578  -0.00188132  0.82645555  1
  I  I66  1  0.50382653  0.33809326  0.16386097  1
  I  I67  1  0.49938966  0.33324732  0.50101616  1
  I  I68  1  0.50580760  0.33453305  0.83636326  1
  I  I69  1  0.50322351  0.66382682  0.16118024  1
  I  I70  1  0.49920579  0.67123841  0.50608496  1
  I  I71  1  0.49986378  0.66752113  0.83308558  1
  I  I72  1  0.83522520  0.00003852  0.16437370  1
  I  I73  1  0.83519687  -0.00220222  0.50632162  1
  I  I74  1  0.83320208  -0.00344448  0.82995220  1
  I  I75  1  0.82959391  0.33817278  0.16051017  1
  I  I76  1  0.83895571  0.33060855  0.49989131  1
  I  I77  1  0.82712464  0.33624516  0.83434856  1
  I  I78  1  0.82989970  0.66399330  0.16741872  1
  I  I79  1  0.83468827  0.67013503  0.50125373  1
  I  I80  1  0.82941988  0.66794328  0.83099747  1
  I  I81  1  0.16799533  0.16554302  -0.00028098  1
  I  I82  1  0.16387141  0.16062492  0.33759702  1
  I  I83  1  0.16264602  0.15993761  0.66321213  1
  I  I84  1  0.16724490  0.50308229  -0.00025278  1
  I  I85  1  0.16625477  0.50400814  0.33323622  1
  I  I86  1  0.16717671  0.50293815  0.66690589  1
  I  I87  1  0.16859197  0.82953154  -0.00114149  1
  I  I88  1  0.16698485  0.83582695  0.33480968  1
  I  I89  1  0.16755694  0.83616043  0.66650303  1
  I  I90  1  0.50101549  0.15803323  -0.00449252  1
  I  I91  1  0.49913234  0.16721542  0.33352736  1
  I  I92  1  0.50008023  0.17151375  0.66960088  1
  I  I93  1  0.50456600  0.50352822  -0.00171470  1
  I  I94  1  0.50437828  0.50258245  0.33075775  1
  I  I95  1  0.50456651  0.49899825  0.67046467  1
  I  I96  1  0.49926917  0.83402952  -0.00366453  1
  I  I97  1  0.49877424  0.83175771  0.33601357  1
  I  I98  1  0.49578776  0.83103700  0.66783361  1
  I  I99  1  0.83163008  0.16371096  -0.00014041  1
  I  I100  1  0.83635265  0.15923637  0.33793081  1
  I  I101  1  0.83690665  0.16605106  0.66360057  1
  I  I102  1  0.82758891  0.50803194  -0.00146730  1
  I  I103  1  0.82926285  0.50063849  0.33100020  1
  I  I104  1  0.82799373  0.50256632  0.66998881  1
  I  I105  1  0.83249033  0.83012863  -0.00334553  1
  I  I106  1  0.83425542  0.83481972  0.33635370  1
  I  I107  1  0.83665148  0.83081818  0.66704507  1
  I  I108  1  -0.00002925  0.16980458  0.16265563  1
  I  I109  1  -0.00004122  0.15772195  0.50093695  1
  I  I110  1  0.00009274  0.16773049  0.83385518  1
  I  I111  1  -0.00298408  0.50250722  0.16355089  1
  I  I112  1  -0.00026891  0.50478429  0.49902700  1
  I  I113  1  -0.00356727  0.50577883  0.83612191  1
  I  I114  1  0.00305044  0.82944743  0.16797722  1
  I  I115  1  -0.00009336  0.83641464  0.50274536  1
  I  I116  1  -0.00061915  0.82724004  0.82936738  1
  I  I117  1  0.33338435  0.16910187  0.16940134  1
  I  I118  1  0.33099112  0.16121086  0.50138574  1
  I  I119  1  0.33690205  0.16800013  0.83067687  1
  I  I120  1  0.33624014  0.50225836  0.16153959  1
  I  I121  1  0.33364408  0.50036862  0.49950475  1
  I  I122  1  0.33675629  0.50133908  0.83700609  1
  I  I123  1  0.33044327  0.83014933  0.16762662  1
  I  I124  1  0.33291460  0.83569525  0.50315423  1
  I  I125  1  0.33393298  0.83275100  0.82984775  1
  I  I126  1  0.66661094  0.16163870  0.17057028  1
  I  I127  1  0.66917820  0.16274235  0.50192556  1
  I  I128  1  0.66384376  0.16227235  0.82925057  1
  I  I129  1  0.66661910  0.50270322  0.16252677  1
  I  I130  1  0.66669714  0.49915451  0.49874923  1
  I  I131  1  0.66626312  0.50558622  0.83683717  1
  I  I132  1  0.66676302  0.83339232  0.16834293  1
  I  I133  1  0.66727226  0.83612632  0.50830971  1
  I  I134  1  0.66649214  0.83132094  0.82505886  1
