# generated using pymatgen
data_Cs27Sn14Pb13I81
_symmetry_space_group_name_H-M   'P 1'
_cell_length_a   18.97569027
_cell_length_b   18.97570652
_cell_length_c   18.97452446
_cell_angle_alpha   90.00019205
_cell_angle_beta   90.00215416
_cell_angle_gamma   90.00082807
_symmetry_Int_Tables_number   1
_chemical_formula_structural   Cs27Sn14Pb13I81
_chemical_formula_sum   'Cs27 Sn14 Pb13 I81'
_cell_volume   6832.29229646
_cell_formula_units_Z   1
loop_
 _symmetry_equiv_pos_site_id
 _symmetry_equiv_pos_as_xyz
  1  'x, y, z'
loop_
 _atom_site_type_symbol
 _atom_site_label
 _atom_site_symmetry_multiplicity
 _atom_site_fract_x
 _atom_site_fract_y
 _atom_site_fract_z
 _atom_site_occupancy
  Cs  Cs0  1  -0.00132915  -0.00023441  -0.00153777  1
  Cs  Cs1  1  0.00412146  0.00118071  0.33352414  1
  Cs  Cs2  1  -0.00260563  0.00264156  0.66504579  1
  Cs  Cs3  1  -0.00198769  0.33182074  -0.00318589  1
  Cs  Cs4  1  0.00243047  0.33284177  0.33468274  1
  Cs  Cs5  1  -0.00036128  0.33377182  0.66659952  1
  Cs  Cs6  1  0.00315660  0.66845859  -0.00247800  1
  Cs  Cs7  1  -0.00149118  0.66709324  0.33260729  1
  Cs  Cs8  1  -0.00817844  0.66595937  0.67132006  1
  Cs  Cs9  1  0.33158110  -0.00339296  -0.00140905  1
  Cs  Cs10  1  0.33158988  0.00224917  0.33557904  1
  Cs  Cs11  1  0.33657803  0.00064046  0.66519301  1
  Cs  Cs12  1  0.33418217  0.33482170  -0.00132723  1
  Cs  Cs13  1  0.33307871  0.33367852  0.33400126  1
  Cs  Cs14  1  0.33197014  0.33269855  0.66677833  1
  Cs  Cs15  1  0.33321437  0.66786402  -0.00005765  1
  Cs  Cs16  1  0.33280336  0.66329009  0.33051951  1
  Cs  Cs17  1  0.33437504  0.66646061  0.67088565  1
  Cs  Cs18  1  0.67133445  0.00295520  0.00025139  1
  Cs  Cs19  1  0.66317824  0.00193939  0.33345679  1
  Cs  Cs20  1  0.66553037  -0.01128459  0.66586847  1
  Cs  Cs21  1  0.66675946  0.33037379  0.00107061  1
  Cs  Cs22  1  0.66405994  0.33326595  0.33093327  1
  Cs  Cs23  1  0.66837220  0.33503101  0.66866121  1
  Cs  Cs24  1  0.66339020  0.66663483  0.00447491  1
  Cs  Cs25  1  0.66912800  0.66578651  0.33193618  1
  Cs  Cs26  1  0.67330501  0.67542540  0.66499248  1
  Sn  Sn27  1  0.16613429  0.16688167  0.50019521  1
  Sn  Sn28  1  0.83270513  0.83292317  0.16712913  1
  Sn  Sn29  1  0.16682085  0.83229504  0.50032852  1
  Sn  Sn30  1  0.16635790  0.49901894  0.16699324  1
  Sn  Sn31  1  0.16691353  0.16761627  0.16626734  1
  Sn  Sn32  1  0.49943002  0.16723132  0.83313142  1
  Sn  Sn33  1  0.50009937  0.49940973  0.83295260  1
  Sn  Sn34  1  0.50056768  0.83310242  0.16710992  1
  Sn  Sn35  1  0.83310902  0.16704806  0.49970683  1
  Sn  Sn36  1  0.49965877  0.50001187  0.50046680  1
  Sn  Sn37  1  0.83378399  0.50034389  0.16668676  1
  Sn  Sn38  1  0.16768987  0.16693283  0.83320364  1
  Sn  Sn39  1  0.16718517  0.50071103  0.49984230  1
  Sn  Sn40  1  0.49989041  0.50038111  0.16677368  1
  Pb  Pb41  1  0.83564177  0.83558096  0.49728168  1
  Pb  Pb42  1  0.83579639  0.16683651  0.16853930  1
  Pb  Pb43  1  0.49758038  0.16680341  0.16483139  1
  Pb  Pb44  1  0.49991940  0.83317835  0.83585789  1
  Pb  Pb45  1  0.49776302  0.83021809  0.49734632  1
  Pb  Pb46  1  0.83286561  0.16673553  0.83050816  1
  Pb  Pb47  1  0.16676415  0.83620497  0.82983415  1
  Pb  Pb48  1  0.16815049  0.49845045  0.83314315  1
  Pb  Pb49  1  0.83352576  0.49844254  0.49803693  1
  Pb  Pb50  1  0.16672671  0.83288542  0.16803945  1
  Pb  Pb51  1  0.82999758  0.49995846  0.83650509  1
  Pb  Pb52  1  0.83341556  0.83325782  0.83660067  1
  Pb  Pb53  1  0.49987901  0.16869291  0.50228245  1
  I  I54  1  0.16685700  0.00246933  0.16833214  1
  I  I55  1  0.16189355  0.00151205  0.49868470  1
  I  I56  1  0.17298721  0.00487345  0.83616831  1
  I  I57  1  0.16734938  0.33433709  0.17175996  1
  I  I58  1  0.16689821  0.33338229  0.49829527  1
  I  I59  1  0.16901997  0.33016059  0.82992984  1
  I  I60  1  0.16723382  0.66331961  0.17169543  1
  I  I61  1  0.17254549  0.66505674  0.49157371  1
  I  I62  1  0.16868438  0.66652993  0.83460332  1
  I  I63  1  0.50321028  -0.00219734  0.16472575  1
  I  I64  1  0.49919450  -0.00005502  0.50005861  1
  I  I65  1  0.49510371  0.00290779  0.83429718  1
  I  I66  1  0.50201829  0.33672616  0.16820459  1
  I  I67  1  0.49428749  0.33678442  0.49342451  1
  I  I68  1  0.49538263  0.33413393  0.83626889  1
  I  I69  1  0.49818601  0.66445256  0.16469409  1
  I  I70  1  0.49474609  0.66201104  0.50384230  1
  I  I71  1  0.49912417  0.66328336  0.83314729  1
  I  I72  1  0.82956255  -0.00225942  0.16829318  1
  I  I73  1  0.83988397  0.00338850  0.49807113  1
  I  I74  1  0.83177662  0.00036319  0.83600427  1
  I  I75  1  0.83018023  0.33618313  0.16814661  1
  I  I76  1  0.84045697  0.33078824  0.49746193  1
  I  I77  1  0.83439383  0.33328514  0.83646831  1
  I  I78  1  0.83381051  0.66552704  0.16825867  1
  I  I79  1  0.83424205  0.66665358  0.50081573  1
  I  I80  1  0.83288080  0.66636669  0.82844078  1
  I  I81  1  0.17124162  0.17170873  0.00052408  1
  I  I82  1  0.16220885  0.16723748  0.33389649  1
  I  I83  1  0.16674211  0.16671949  0.66567856  1
  I  I84  1  0.16739925  0.49591299  0.00326458  1
  I  I85  1  0.17138561  0.49509059  0.33299921  1
  I  I86  1  0.17212642  0.49819049  0.66340657  1
  I  I87  1  0.16620694  0.83425431  0.00014068  1
  I  I88  1  0.16702615  0.83870975  0.33574140  1
  I  I89  1  0.16788198  0.83187964  0.66183449  1
  I  I90  1  0.49443075  0.17227385  -0.00290264  1
  I  I91  1  0.49926130  0.16695173  0.33335876  1
  I  I92  1  0.49349594  0.17324531  0.66994107  1
  I  I93  1  0.49991955  0.49991855  0.00124427  1
  I  I94  1  0.49849773  0.50395878  0.33245071  1
  I  I95  1  0.49229909  0.49280172  0.66620968  1
  I  I96  1  0.50150656  0.82723714  0.00392090  1
  I  I97  1  0.50311430  0.82858591  0.32946132  1
  I  I98  1  0.49858083  0.83296554  0.66638820  1
  I  I99  1  0.83499022  0.16589778  0.00022212  1
  I  I100  1  0.84038921  0.16722153  0.33607335  1
  I  I101  1  0.84117925  0.16860465  0.66293493  1
  I  I102  1  0.83561063  0.50233415  0.00500369  1
  I  I103  1  0.82938624  0.50263304  0.32982879  1
  I  I104  1  0.83370954  0.49785742  0.66652803  1
  I  I105  1  0.83065424  0.83074623  0.00487976  1
  I  I106  1  0.82970906  0.82832717  0.32971409  1
  I  I107  1  0.83405791  0.83506492  0.66610682  1
  I  I108  1  0.00406931  0.16977857  0.16358994  1
  I  I109  1  0.00287663  0.16857530  0.50098363  1
  I  I110  1  0.00323347  0.16624181  0.83505701  1
  I  I111  1  0.00118242  0.49991411  0.17303551  1
  I  I112  1  0.00354762  0.50000800  0.49421569  1
  I  I113  1  -0.00003864  0.49822369  0.83341938  1
  I  I114  1  -0.00198520  0.83046138  0.16912065  1
  I  I115  1  0.00355565  0.82970066  0.49591568  1
  I  I116  1  0.00032030  0.83489840  0.83662919  1
  I  I117  1  0.32942763  0.17010524  0.17264718  1
  I  I118  1  0.32989181  0.16548085  0.49806637  1
  I  I119  1  0.33240710  0.17102691  0.83157065  1
  I  I120  1  0.33345692  0.50009519  0.16765129  1
  I  I121  1  0.33229463  0.49717902  0.49421997  1
  I  I122  1  0.33634110  0.49775599  0.83807955  1
  I  I123  1  0.33550047  0.82949419  0.16732391  1
  I  I124  1  0.33005616  0.84042912  0.49656621  1
  I  I125  1  0.33330859  0.83227169  0.83739781  1
  I  I126  1  0.66658402  0.16850141  0.16674966  1
  I  I127  1  0.66860978  0.16969733  0.49973864  1
  I  I128  1  0.66351518  0.17196540  0.83413125  1
  I  I129  1  0.66562258  0.50487586  0.16671100  1
  I  I130  1  0.66393561  0.49614237  0.49804392  1
  I  I131  1  0.66160896  0.49215153  0.83290011  1
  I  I132  1  0.66622251  0.82453398  0.16692124  1
  I  I133  1  0.66660041  0.83476463  0.50111127  1
  I  I134  1  0.66637637  0.83629057  0.82970681  1
