# generated using pymatgen
data_Cs27Sn14Pb13I81
_symmetry_space_group_name_H-M   'P 1'
_cell_length_a   18.95976232
_cell_length_b   18.96029701
_cell_length_c   18.96035365
_cell_angle_alpha   90.00035133
_cell_angle_beta   90.00065955
_cell_angle_gamma   90.00179427
_symmetry_Int_Tables_number   1
_chemical_formula_structural   Cs27Sn14Pb13I81
_chemical_formula_sum   'Cs27 Sn14 Pb13 I81'
_cell_volume   6815.91959148
_cell_formula_units_Z   1
loop_
 _symmetry_equiv_pos_site_id
 _symmetry_equiv_pos_as_xyz
  1  'x, y, z'
loop_
 _atom_site_type_symbol
 _atom_site_label
 _atom_site_symmetry_multiplicity
 _atom_site_fract_x
 _atom_site_fract_y
 _atom_site_fract_z
 _atom_site_occupancy
  Cs  Cs0  1  0.00119153  0.00337168  0.00158075  1
  Cs  Cs1  1  -0.00013727  0.00044877  0.33308256  1
  Cs  Cs2  1  -0.00086354  -0.00001540  0.66572287  1
  Cs  Cs3  1  0.00117901  0.33494724  0.00153520  1
  Cs  Cs4  1  -0.00113189  0.33281223  0.33324382  1
  Cs  Cs5  1  -0.00129663  0.33300705  0.66640759  1
  Cs  Cs6  1  -0.00093209  0.66408288  -0.00180318  1
  Cs  Cs7  1  0.00179410  0.66644643  0.33437867  1
  Cs  Cs8  1  -0.00024954  0.66603177  0.66713605  1
  Cs  Cs9  1  0.33068773  0.00593239  0.00355374  1
  Cs  Cs10  1  0.33094741  -0.00296578  0.32414083  1
  Cs  Cs11  1  0.33545760  0.00220062  0.66922752  1
  Cs  Cs12  1  0.33140362  0.32811977  -0.00125804  1
  Cs  Cs13  1  0.34565090  0.33824380  0.33750013  1
  Cs  Cs14  1  0.33602794  0.33013541  0.66504349  1
  Cs  Cs15  1  0.33437909  0.66725866  0.00053104  1
  Cs  Cs16  1  0.33144855  0.66481859  0.33123621  1
  Cs  Cs17  1  0.33148366  0.66646438  0.66633012  1
  Cs  Cs18  1  0.66695236  -0.00050515  0.00171661  1
  Cs  Cs19  1  0.66873562  0.00113116  0.33394115  1
  Cs  Cs20  1  0.66720534  -0.00235895  0.66618779  1
  Cs  Cs21  1  0.66644951  0.33352714  0.00261367  1
  Cs  Cs22  1  0.66163972  0.33223065  0.33260807  1
  Cs  Cs23  1  0.66711811  0.33188336  0.66585025  1
  Cs  Cs24  1  0.66672394  0.66674929  -0.00238690  1
  Cs  Cs25  1  0.66634370  0.66680470  0.33190587  1
  Cs  Cs26  1  0.66888080  0.66996351  0.67000386  1
  Sn  Sn27  1  0.83345766  0.16563725  0.83278936  1
  Sn  Sn28  1  0.16640302  0.16659863  0.49967485  1
  Sn  Sn29  1  0.16783382  0.50057759  0.83380120  1
  Sn  Sn30  1  0.83362671  0.83445570  0.83357487  1
  Sn  Sn31  1  0.50021030  0.83330288  0.50044318  1
  Sn  Sn32  1  0.16667903  0.83295350  0.83321853  1
  Sn  Sn33  1  0.16613087  0.49982741  0.16629823  1
  Sn  Sn34  1  0.83433548  0.16660114  0.50094233  1
  Sn  Sn35  1  0.83410647  0.50099369  0.16777301  1
  Sn  Sn36  1  0.83289708  0.83321394  0.49980104  1
  Sn  Sn37  1  0.83342209  0.50014525  0.49901117  1
  Sn  Sn38  1  0.49873530  0.50055149  0.83314531  1
  Sn  Sn39  1  0.83360812  0.83229080  0.16663066  1
  Sn  Sn40  1  0.49960786  0.83265295  0.83268147  1
  Pb  Pb41  1  0.50224654  0.83323700  0.16621355  1
  Pb  Pb42  1  0.16650025  0.17033859  0.17017345  1
  Pb  Pb43  1  0.50014560  0.50029172  0.16392709  1
  Pb  Pb44  1  0.16444288  0.16696264  0.83179248  1
  Pb  Pb45  1  0.83345196  0.49993904  0.83341300  1
  Pb  Pb46  1  0.50032513  0.16335656  0.50001921  1
  Pb  Pb47  1  0.16503894  0.49817715  0.50036701  1
  Pb  Pb48  1  0.50288125  0.16609774  0.83337381  1
  Pb  Pb49  1  0.83334810  0.16699259  0.16712442  1
  Pb  Pb50  1  0.16406251  0.83130978  0.16390115  1
  Pb  Pb51  1  0.50291873  0.50279314  0.50268420  1
  Pb  Pb52  1  0.16680130  0.83506712  0.50189391  1
  Pb  Pb53  1  0.49991848  0.16654741  0.16667768  1
  I  I54  1  0.16593731  0.00005879  0.16552899  1
  I  I55  1  0.15937735  0.00273206  0.50360147  1
  I  I56  1  0.16761004  -0.00275761  0.83046482  1
  I  I57  1  0.15708842  0.33796858  0.15735937  1
  I  I58  1  0.15852092  0.33046944  0.50220925  1
  I  I59  1  0.16844326  0.33638662  0.83601755  1
  I  I60  1  0.16362309  0.66327570  0.16629107  1
  I  I61  1  0.16511480  0.66664818  0.49937409  1
  I  I62  1  0.16410332  0.66681813  0.83519965  1
  I  I63  1  0.50217953  -0.00067530  0.16491125  1
  I  I64  1  0.50764803  -0.00432386  0.50864551  1
  I  I65  1  0.49926978  -0.00385126  0.82888657  1
  I  I66  1  0.50361566  0.33403932  0.16554815  1
  I  I67  1  0.50120072  0.33350123  0.50078032  1
  I  I68  1  0.49738177  0.33608823  0.83459596  1
  I  I69  1  0.49973286  0.66672502  0.16856394  1
  I  I70  1  0.50587248  0.67063213  0.50268212  1
  I  I71  1  0.50287153  0.66794101  0.83028902  1
  I  I72  1  0.83178258  -0.00307548  0.16767897  1
  I  I73  1  0.83294398  -0.00096085  0.50137203  1
  I  I74  1  0.83322503  -0.00199020  0.83044996  1
  I  I75  1  0.83671235  0.33669401  0.16793858  1
  I  I76  1  0.83865288  0.33312293  0.50169958  1
  I  I77  1  0.83368529  0.33148794  0.82979529  1
  I  I78  1  0.83618267  0.66675155  0.16875431  1
  I  I79  1  0.82977220  0.66758391  0.50080038  1
  I  I80  1  0.83318665  0.66944948  0.83112378  1
  I  I81  1  0.16519945  0.16518777  0.00003484  1
  I  I82  1  0.15707100  0.16485189  0.33759885  1
  I  I83  1  0.16205101  0.16848338  0.66412220  1
  I  I84  1  0.16283296  0.50412653  -0.00104834  1
  I  I85  1  0.16194142  0.49821254  0.33105299  1
  I  I86  1  0.16736771  0.50307957  0.66973621  1
  I  I87  1  0.16668693  0.83234774  -0.00453443  1
  I  I88  1  0.16684357  0.83330183  0.33323325  1
  I  I89  1  0.16137236  0.82725854  0.67031028  1
  I  I90  1  0.50259954  0.16512502  -0.00066829  1
  I  I91  1  0.50267356  0.16638819  0.33402241  1
  I  I92  1  0.49916690  0.16943188  0.66670917  1
  I  I93  1  0.50298829  0.50727905  -0.00404366  1
  I  I94  1  0.49793989  0.50047892  0.33362172  1
  I  I95  1  0.49590785  0.50215212  0.67056659  1
  I  I96  1  0.50255723  0.82888407  -0.00381199  1
  I  I97  1  0.50604313  0.83537241  0.33624851  1
  I  I98  1  0.50638455  0.82993158  0.66791289  1
  I  I99  1  0.83257252  0.16345930  -0.00272400  1
  I  I100  1  0.83663179  0.16385090  0.33684327  1
  I  I101  1  0.83643988  0.16444222  0.66586877  1
  I  I102  1  0.83372906  0.50306387  0.00203131  1
  I  I103  1  0.83897742  0.50328108  0.33331808  1
  I  I104  1  0.83349010  0.50179355  0.66456072  1
  I  I105  1  0.83297744  0.83255027  -0.00120272  1
  I  I106  1  0.82868955  0.83323166  0.33440909  1
  I  I107  1  0.83242463  0.83352112  0.66692616  1
  I  I108  1  -0.00027268  0.16497211  0.16456131  1
  I  I109  1  -0.00267332  0.16468672  0.50433737  1
  I  I110  1  -0.00370092  0.16281906  0.83045809  1
  I  I111  1  -0.00116355  0.50389462  0.16346932  1
  I  I112  1  -0.00367800  0.50481256  0.50192788  1
  I  I113  1  0.00201520  0.50308151  0.83393964  1
  I  I114  1  -0.00434421  0.83152694  0.16803940  1
  I  I115  1  -0.00359490  0.83203877  0.50154028  1
  I  I116  1  -0.00112613  0.83218617  0.83257801  1
  I  I117  1  0.33264897  0.16684022  0.16716862  1
  I  I118  1  0.33094253  0.16711556  0.50111391  1
  I  I119  1  0.33314715  0.16476889  0.83171534  1
  I  I120  1  0.33039503  0.49903977  0.16440617  1
  I  I121  1  0.33358051  0.49882133  0.49755669  1
  I  I122  1  0.33241637  0.50801301  0.83795504  1
  I  I123  1  0.33298754  0.83232307  0.16788498  1
  I  I124  1  0.33588958  0.83533966  0.50638178  1
  I  I125  1  0.33365720  0.82749684  0.82720769  1
  I  I126  1  0.66753233  0.16897219  0.16723397  1
  I  I127  1  0.67046500  0.16804615  0.50374212  1
  I  I128  1  0.67112003  0.16386896  0.82697325  1
  I  I129  1  0.67004181  0.50325028  0.16866218  1
  I  I130  1  0.67131416  0.49529664  0.49591448  1
  I  I131  1  0.66511612  0.50333226  0.83244938  1
  I  I132  1  0.67102640  0.82743404  0.16261195  1
  I  I133  1  0.66900202  0.83418214  0.50482561  1
  I  I134  1  0.66773681  0.83233495  0.83231378  1
