# generated using pymatgen
data_Cs27Sn14Pb13I81
_symmetry_space_group_name_H-M   'P 1'
_cell_length_a   18.96310608
_cell_length_b   18.96190781
_cell_length_c   18.95809080
_cell_angle_alpha   90.00143581
_cell_angle_beta   89.99802654
_cell_angle_gamma   89.99804747
_symmetry_Int_Tables_number   1
_chemical_formula_structural   Cs27Sn14Pb13I81
_chemical_formula_sum   'Cs27 Sn14 Pb13 I81'
_cell_volume   6816.88713433
_cell_formula_units_Z   1
loop_
 _symmetry_equiv_pos_site_id
 _symmetry_equiv_pos_as_xyz
  1  'x, y, z'
loop_
 _atom_site_type_symbol
 _atom_site_label
 _atom_site_symmetry_multiplicity
 _atom_site_fract_x
 _atom_site_fract_y
 _atom_site_fract_z
 _atom_site_occupancy
  Cs  Cs0  1  0.00182565  -0.00493072  0.00227654  1
  Cs  Cs1  1  0.00061472  -0.00090465  0.33161461  1
  Cs  Cs2  1  0.00108645  0.00317213  0.66541614  1
  Cs  Cs3  1  0.00167563  0.33329729  -0.00026425  1
  Cs  Cs4  1  -0.00266835  0.33275093  0.33277352  1
  Cs  Cs5  1  -0.00062833  0.33075217  0.66816285  1
  Cs  Cs6  1  -0.00392037  0.67077740  -0.00183199  1
  Cs  Cs7  1  0.00026913  0.66820497  0.33442739  1
  Cs  Cs8  1  0.00250113  0.66892960  0.66751523  1
  Cs  Cs9  1  0.33251022  0.00038022  -0.00144915  1
  Cs  Cs10  1  0.33478070  0.00087463  0.33207525  1
  Cs  Cs11  1  0.33389692  -0.00095227  0.66930748  1
  Cs  Cs12  1  0.33070449  0.33102508  0.00141731  1
  Cs  Cs13  1  0.33337999  0.33448880  0.33200636  1
  Cs  Cs14  1  0.33349145  0.33491722  0.66714973  1
  Cs  Cs15  1  0.33283119  0.66778063  -0.00172835  1
  Cs  Cs16  1  0.33509976  0.66528328  0.33811253  1
  Cs  Cs17  1  0.33126717  0.66637391  0.66285349  1
  Cs  Cs18  1  0.66500228  -0.00152231  -0.00097045  1
  Cs  Cs19  1  0.66678895  -0.00031625  0.33489109  1
  Cs  Cs20  1  0.66488400  0.00195414  0.66255170  1
  Cs  Cs21  1  0.66694048  0.33370549  0.00027193  1
  Cs  Cs22  1  0.66789802  0.33246908  0.33297569  1
  Cs  Cs23  1  0.66687303  0.33401873  0.66950338  1
  Cs  Cs24  1  0.67114134  0.66715562  -0.00386126  1
  Cs  Cs25  1  0.66566345  0.66781455  0.33207771  1
  Cs  Cs26  1  0.66672959  0.66424275  0.67229787  1
  Sn  Sn27  1  0.16629617  0.50000819  0.16593802  1
  Sn  Sn28  1  0.83346793  0.49945327  0.16736190  1
  Sn  Sn29  1  0.83400160  0.16659816  0.83489624  1
  Sn  Sn30  1  0.50105866  0.83387190  0.49925634  1
  Sn  Sn31  1  0.50020751  0.50016604  0.16673101  1
  Sn  Sn32  1  0.16661576  0.49930177  0.83410634  1
  Sn  Sn33  1  0.49890490  0.16644146  0.49920965  1
  Sn  Sn34  1  0.16572413  0.16743690  0.83266429  1
  Sn  Sn35  1  0.83264475  0.16706902  0.16555046  1
  Sn  Sn36  1  0.83251900  0.83197593  0.49989392  1
  Sn  Sn37  1  0.50011617  0.83335690  0.16724776  1
  Sn  Sn38  1  0.83325208  0.50121108  0.49956903  1
  Sn  Sn39  1  0.16792062  0.16703339  0.50038927  1
  Sn  Sn40  1  0.50093177  0.16655281  0.16743647  1
  Pb  Pb41  1  0.49715419  0.49991231  0.83639771  1
  Pb  Pb42  1  0.83322166  0.83678152  0.83002454  1
  Pb  Pb43  1  0.49977675  0.16674660  0.83343474  1
  Pb  Pb44  1  0.83291793  0.16676964  0.49953549  1
  Pb  Pb45  1  0.83531912  0.49824691  0.83373124  1
  Pb  Pb46  1  0.16659294  0.83354186  0.83335818  1
  Pb  Pb47  1  0.16432042  0.49778432  0.49979273  1
  Pb  Pb48  1  0.83146469  0.83341827  0.16830352  1
  Pb  Pb49  1  0.16655185  0.16795149  0.16659599  1
  Pb  Pb50  1  0.16712046  0.83611814  0.49983666  1
  Pb  Pb51  1  0.50220279  0.49970420  0.49834458  1
  Pb  Pb52  1  0.50011725  0.83320533  0.83271897  1
  Pb  Pb53  1  0.16970662  0.82967256  0.16691398  1
  I  I54  1  0.16625394  0.00007907  0.16644277  1
  I  I55  1  0.16516296  0.00436405  0.50530053  1
  I  I56  1  0.16374522  0.00381384  0.82887740  1
  I  I57  1  0.17062467  0.33609059  0.16608580  1
  I  I58  1  0.17070759  0.32975756  0.50098720  1
  I  I59  1  0.16314168  0.33236237  0.83370034  1
  I  I60  1  0.16454459  0.66131936  0.16124564  1
  I  I61  1  0.16855481  0.66634919  0.50074309  1
  I  I62  1  0.16721940  0.66333606  0.83822975  1
  I  I63  1  0.50479915  0.00117566  0.17102822  1
  I  I64  1  0.50238285  0.00062399  0.49239954  1
  I  I65  1  0.49777898  0.00032074  0.83785833  1
  I  I66  1  0.50068375  0.33288093  0.17043073  1
  I  I67  1  0.49795786  0.33035838  0.49576007  1
  I  I68  1  0.50189970  0.33311909  0.83160855  1
  I  I69  1  0.49862058  0.66629544  0.17109893  1
  I  I70  1  0.50198297  0.66914933  0.49507434  1
  I  I71  1  0.49814708  0.66644746  0.83315488  1
  I  I72  1  0.82951426  0.00303939  0.16531729  1
  I  I73  1  0.83185560  -0.00167926  0.50056289  1
  I  I74  1  0.83962231  0.00484420  0.83858596  1
  I  I75  1  0.82907722  0.33356319  0.16927582  1
  I  I76  1  0.83406039  0.33512963  0.49793029  1
  I  I77  1  0.83512293  0.33014849  0.83187762  1
  I  I78  1  0.83289119  0.66362811  0.16919387  1
  I  I79  1  0.82913616  0.66621576  0.49357163  1
  I  I80  1  0.83486620  0.66659038  0.83513169  1
  I  I81  1  0.16614244  0.16991199  -0.00228523  1
  I  I82  1  0.16730963  0.16805993  0.33542442  1
  I  I83  1  0.16525052  0.17180628  0.66709867  1
  I  I84  1  0.16688642  0.49264955  0.00077213  1
  I  I85  1  0.16847154  0.49797297  0.33037358  1
  I  I86  1  0.16428264  0.49682495  0.66893568  1
  I  I87  1  0.16886022  0.83812849  0.00030534  1
  I  I88  1  0.16429561  0.83429558  0.33339432  1
  I  I89  1  0.16889828  0.82917131  0.66640463  1
  I  I90  1  0.50061142  0.16696510  0.00362942  1
  I  I91  1  0.50013169  0.16619022  0.33265412  1
  I  I92  1  0.49996022  0.16121810  0.66350598  1
  I  I93  1  0.50554178  0.49862843  0.00526428  1
  I  I94  1  0.49537718  0.49915358  0.32967575  1
  I  I95  1  0.50037831  0.50005323  0.66648028  1
  I  I96  1  0.49902156  0.83451020  0.00362453  1
  I  I97  1  0.50366374  0.83483590  0.33340258  1
  I  I98  1  0.50318521  0.83985882  0.66257657  1
  I  I99  1  0.83269250  0.17311891  0.00147931  1
  I  I100  1  0.83246301  0.16849909  0.33075038  1
  I  I101  1  0.83482222  0.16666264  0.66822527  1
  I  I102  1  0.83101290  0.49706128  0.00341500  1
  I  I103  1  0.83510471  0.49657305  0.33174590  1
  I  I104  1  0.83478057  0.50107454  0.66427982  1
  I  I105  1  0.83184847  0.83136109  0.00010935  1
  I  I106  1  0.83109732  0.83500211  0.33633269  1
  I  I107  1  0.82680043  0.82846648  0.66200704  1
  I  I108  1  -0.00263141  0.17199589  0.16727240  1
  I  I109  1  0.00154891  0.16765542  0.50109882  1
  I  I110  1  0.00049407  0.17118354  0.83144447  1
  I  I111  1  -0.00099598  0.49314207  0.16737288  1
  I  I112  1  -0.00359918  0.50270212  0.49391472  1
  I  I113  1  0.00316092  0.49612836  0.83852652  1
  I  I114  1  -0.00021666  0.83428040  0.16829562  1
  I  I115  1  -0.00277960  0.83114293  0.50045468  1
  I  I116  1  -0.00023495  0.83229985  0.83210530  1
  I  I117  1  0.33610747  0.16767740  0.16782531  1
  I  I118  1  0.33443824  0.16224848  0.49933907  1
  I  I119  1  0.33034589  0.17034149  0.83247676  1
  I  I120  1  0.33383927  0.49879351  0.16230397  1
  I  I121  1  0.33332588  0.50179192  0.49933440  1
  I  I122  1  0.32907170  0.49269512  0.83725653  1
  I  I123  1  0.33811613  0.83612391  0.17280415  1
  I  I124  1  0.33687329  0.83539986  0.49581016  1
  I  I125  1  0.33334402  0.83535669  0.83246659  1
  I  I126  1  0.66630964  0.17136214  0.16752528  1
  I  I127  1  0.66422456  0.16531932  0.49853787  1
  I  I128  1  0.66927393  0.16670512  0.83374944  1
  I  I129  1  0.66696003  0.49801064  0.17245642  1
  I  I130  1  0.67020245  0.49771301  0.49431135  1
  I  I131  1  0.66700719  0.49840653  0.83331562  1
  I  I132  1  0.66321101  0.83055997  0.16962617  1
  I  I133  1  0.66575567  0.83718647  0.49530632  1
  I  I134  1  0.66683647  0.83432866  0.83520283  1
