# generated using pymatgen
data_Cs27Sn13Pb14I81
_symmetry_space_group_name_H-M   'P 1'
_cell_length_a   18.96940852
_cell_length_b   18.98005484
_cell_length_c   18.98005491
_cell_angle_alpha   89.99884143
_cell_angle_beta   90.00104414
_cell_angle_gamma   89.99895590
_symmetry_Int_Tables_number   1
_chemical_formula_structural   Cs27Sn13Pb14I81
_chemical_formula_sum   'Cs27 Sn13 Pb14 I81'
_cell_volume   6833.58682251
_cell_formula_units_Z   1
loop_
 _symmetry_equiv_pos_site_id
 _symmetry_equiv_pos_as_xyz
  1  'x, y, z'
loop_
 _atom_site_type_symbol
 _atom_site_label
 _atom_site_symmetry_multiplicity
 _atom_site_fract_x
 _atom_site_fract_y
 _atom_site_fract_z
 _atom_site_occupancy
  Cs  Cs0  1  -0.00287698  0.00249859  -0.00182333  1
  Cs  Cs1  1  -0.00039153  -0.00144942  0.33386942  1
  Cs  Cs2  1  0.00235349  -0.00024260  0.66690929  1
  Cs  Cs3  1  0.00301466  0.33406806  0.00391005  1
  Cs  Cs4  1  -0.00379996  0.33951777  0.32714889  1
  Cs  Cs5  1  -0.00039139  0.33279735  0.66811603  1
  Cs  Cs6  1  0.00665200  0.66392897  0.00273752  1
  Cs  Cs7  1  0.00301461  0.66275681  0.33259880  1
  Cs  Cs8  1  -0.00287689  0.66849005  0.66416804  1
  Cs  Cs9  1  0.33307796  -0.00512446  0.00132643  1
  Cs  Cs10  1  0.33130999  0.00004113  0.33511199  1
  Cs  Cs11  1  0.32162295  0.00337278  0.66329392  1
  Cs  Cs12  1  0.33271401  0.33488359  -0.00053568  1
  Cs  Cs13  1  0.33674749  0.33194635  0.33472028  1
  Cs  Cs14  1  0.33130986  0.33155457  0.66662539  1
  Cs  Cs15  1  0.32990188  0.67032850  -0.00366186  1
  Cs  Cs16  1  0.33271407  0.66720219  0.33178313  1
  Cs  Cs17  1  0.33307792  0.66534043  0.67179107  1
  Cs  Cs18  1  0.66779547  0.00041625  0.00079308  1
  Cs  Cs19  1  0.66619030  0.00029185  0.33348096  1
  Cs  Cs20  1  0.66748339  0.00068901  0.66597773  1
  Cs  Cs21  1  0.66643463  0.33087330  0.00089942  1
  Cs  Cs22  1  0.66482322  0.33433572  0.33233093  1
  Cs  Cs23  1  0.66619029  0.33318573  0.66637481  1
  Cs  Cs24  1  0.66179217  0.67165812  -0.00499155  1
  Cs  Cs25  1  0.66643471  0.66576729  0.33579337  1
  Cs  Cs26  1  0.66779539  0.66587363  0.66625042  1
  Sn  Sn27  1  0.83240298  0.83421299  0.49963736  1
  Sn  Sn28  1  0.16788519  0.49983321  0.50020173  1
  Sn  Sn29  1  0.83310204  0.83286932  0.16690635  1
  Sn  Sn30  1  0.50036871  0.16621371  0.83381667  1
  Sn  Sn31  1  0.50033655  0.50007852  0.16658816  1
  Sn  Sn32  1  0.50036873  0.83285006  0.50045293  1
  Sn  Sn33  1  0.83240302  0.16702937  0.83245372  1
  Sn  Sn34  1  0.83297045  0.83321921  0.83344743  1
  Sn  Sn35  1  0.49908021  0.50091116  0.49965380  1
  Sn  Sn36  1  0.49908023  0.16701288  0.16575553  1
  Sn  Sn37  1  0.83303028  0.16635932  0.50030736  1
  Sn  Sn38  1  0.83310201  0.49976029  0.83379734  1
  Sn  Sn39  1  0.16788521  0.16646492  0.16683347  1
  Pb  Pb40  1  0.16380827  0.83341388  0.83325278  1
  Pb  Pb41  1  0.50154613  0.83353387  0.16850793  1
  Pb  Pb42  1  0.83045446  0.50290261  0.16376406  1
  Pb  Pb43  1  0.16657810  0.83113801  0.49994175  1
  Pb  Pb44  1  0.16412711  0.49980820  0.83100142  1
  Pb  Pb45  1  0.83263479  0.50005953  0.50122708  1
  Pb  Pb46  1  0.50149811  0.83651895  0.83014777  1
  Pb  Pb47  1  0.16412706  0.83566526  0.16685846  1
  Pb  Pb48  1  0.83263477  0.16543969  0.16660708  1
  Pb  Pb49  1  0.50154612  0.49815876  0.83313270  1
  Pb  Pb50  1  0.16980397  0.49826811  0.16839862  1
  Pb  Pb51  1  0.16304936  0.16916505  0.49750156  1
  Pb  Pb52  1  0.16657802  0.16672493  0.83552863  1
  Pb  Pb53  1  0.50142687  0.16659232  0.50007435  1
  I  I54  1  0.17349793  0.00358784  0.16734472  1
  I  I55  1  0.16825316  0.00028088  0.49945787  1
  I  I56  1  0.16467929  0.00035958  0.83220849  1
  I  I57  1  0.16485214  0.33036320  0.16739625  1
  I  I58  1  0.17244671  0.33646651  0.50014908  1
  I  I59  1  0.16202725  0.33316710  0.83261797  1
  I  I60  1  0.16543325  0.66644611  0.16771242  1
  I  I61  1  0.16444151  0.66341287  0.49858839  1
  I  I62  1  0.16534744  0.66648073  0.83419203  1
  I  I63  1  0.49895458  0.00299418  0.16428611  1
  I  I64  1  0.50576751  -0.00212329  0.49952000  1
  I  I65  1  0.50784409  0.00420586  0.83949502  1
  I  I66  1  0.49836563  0.33266793  0.16963909  1
  I  I67  1  0.49924955  0.33564076  0.49872241  1
  I  I68  1  0.50796801  0.33022615  0.83283000  1
  I  I69  1  0.50448096  0.66428349  0.17057404  1
  I  I70  1  0.50365778  0.66610039  0.49441703  1
  I  I71  1  0.50305903  0.66696458  0.83529273  1
  I  I72  1  0.83143891  -0.00247409  0.16390093  1
  I  I73  1  0.82795951  -0.00086718  0.50363899  1
  I  I74  1  0.82941872  0.00033228  0.83268584  1
  I  I75  1  0.83510047  0.33352067  0.16718339  1
  I  I76  1  0.83306524  0.33107848  0.50497512  1
  I  I77  1  0.82952263  0.33200221  0.82701671  1
  I  I78  1  0.83177076  0.67055133  0.16974283  1
  I  I79  1  0.83233128  0.66941882  0.50182890  1
  I  I80  1  0.83327854  0.66754081  0.83121380  1
  I  I81  1  0.16444156  0.16807847  0.00325380  1
  I  I82  1  0.17244654  0.16651717  0.33020013  1
  I  I83  1  0.16825346  0.16720915  0.66638578  1
  I  I84  1  0.16543353  0.49895473  0.00022056  1
  I  I85  1  0.16485236  0.49927053  0.33630349  1
  I  I86  1  0.17349760  0.49932142  0.66307882  1
  I  I87  1  0.16534765  0.83247399  0.00018594  1
  I  I88  1  0.16202759  0.83404909  0.33349953  1
  I  I89  1  0.16467881  0.83445820  0.66630713  1
  I  I90  1  0.50365778  0.17224938  0.00056631  1
  I  I91  1  0.49924959  0.16794392  0.33102590  1
  I  I92  1  0.50576757  0.16714722  0.66878993  1
  I  I93  1  0.50448084  0.49609245  0.00238321  1
  I  I94  1  0.49836536  0.49702785  0.33399872  1
  I  I95  1  0.49895497  0.50238052  0.66367247  1
  I  I96  1  0.50305931  0.83137435  -0.00029791  1
  I  I97  1  0.50796767  0.83383703  0.33644052  1
  I  I98  1  0.50784426  0.82717101  0.66246081  1
  I  I99  1  0.83233137  0.16483759  -0.00275215  1
  I  I100  1  0.83306550  0.16169181  0.33558820  1
  I  I101  1  0.82795919  0.16302752  0.66753385  1
  I  I102  1  0.83177079  0.49692363  -0.00388461  1
  I  I103  1  0.83510052  0.49948313  0.33314600  1
  I  I104  1  0.83143893  0.50276606  0.66914079  1
  I  I105  1  0.83327810  0.83545340  -0.00087413  1
  I  I106  1  0.82952271  0.83964977  0.33466440  1
  I  I107  1  0.82941902  0.83398064  0.66633438  1
  I  I108  1  0.00127521  0.16407017  0.16761459  1
  I  I109  1  -0.00478154  0.16148932  0.50517772  1
  I  I110  1  -0.00383623  0.16517128  0.83070028  1
  I  I111  1  -0.00023322  0.49890981  0.16775674  1
  I  I112  1  0.00127520  0.49905195  0.50259639  1
  I  I113  1  -0.00447804  0.49811774  0.83115270  1
  I  I114  1  -0.00447809  0.83551418  0.16854884  1
  I  I115  1  -0.00383617  0.83596612  0.50149494  1
  I  I116  1  -0.00562209  0.83714148  0.82952569  1
  I  I117  1  0.33521392  0.17106591  0.16211601  1
  I  I118  1  0.33334788  0.16406423  0.50260231  1
  I  I119  1  0.33646246  0.16841221  0.83446374  1
  I  I120  1  0.33773630  0.49830916  0.16835736  1
  I  I121  1  0.33521392  0.50455076  0.49560107  1
  I  I122  1  0.33361701  0.49738942  0.83427999  1
  I  I123  1  0.33361697  0.83238637  0.16927702  1
  I  I124  1  0.33646250  0.83220294  0.49825485  1
  I  I125  1  0.33383084  0.83460117  0.83206526  1
  I  I126  1  0.66398648  0.16898846  0.16571486  1
  I  I127  1  0.66959020  0.16707157  0.49959483  1
  I  I128  1  0.66808472  0.16678482  0.83574036  1
  I  I129  1  0.66315385  0.49157106  0.17509562  1
  I  I130  1  0.66398652  0.50095180  0.49767798  1
  I  I131  1  0.66978717  0.50160061  0.83016393  1
  I  I132  1  0.66978715  0.83650289  0.16506646  1
  I  I133  1  0.66808473  0.83092642  0.49988170  1
  I  I134  1  0.67038545  0.83198425  0.83468205  1
