# generated using pymatgen
data_Cs27Sn14Pb13I81
_symmetry_space_group_name_H-M   'P 1'
_cell_length_a   18.99095166
_cell_length_b   18.96009551
_cell_length_c   18.97686592
_cell_angle_alpha   90.00071488
_cell_angle_beta   89.99940598
_cell_angle_gamma   90.00120027
_symmetry_Int_Tables_number   1
_chemical_formula_structural   Cs27Sn14Pb13I81
_chemical_formula_sum   'Cs27 Sn14 Pb13 I81'
_cell_volume   6833.00499442
_cell_formula_units_Z   1
loop_
 _symmetry_equiv_pos_site_id
 _symmetry_equiv_pos_as_xyz
  1  'x, y, z'
loop_
 _atom_site_type_symbol
 _atom_site_label
 _atom_site_symmetry_multiplicity
 _atom_site_fract_x
 _atom_site_fract_y
 _atom_site_fract_z
 _atom_site_occupancy
  Cs  Cs0  1  0.00172518  -0.00074735  0.00109900  1
  Cs  Cs1  1  0.00226223  0.00086196  0.33090357  1
  Cs  Cs2  1  0.00160012  -0.00151075  0.66820829  1
  Cs  Cs3  1  -0.00115873  0.33394167  -0.00300578  1
  Cs  Cs4  1  0.00072169  0.33687236  0.33436098  1
  Cs  Cs5  1  0.00066092  0.33287040  0.66953115  1
  Cs  Cs6  1  -0.00028433  0.66655681  -0.00040950  1
  Cs  Cs7  1  0.00135124  0.65973533  0.33489276  1
  Cs  Cs8  1  -0.00355749  0.66742988  0.66658224  1
  Cs  Cs9  1  0.33008041  -0.00009501  0.00294118  1
  Cs  Cs10  1  0.33189047  0.00077540  0.33103845  1
  Cs  Cs11  1  0.33005464  -0.00022748  0.66668870  1
  Cs  Cs12  1  0.33466593  0.33406905  -0.00133934  1
  Cs  Cs13  1  0.33099038  0.33537641  0.33445453  1
  Cs  Cs14  1  0.33268303  0.33314201  0.66696757  1
  Cs  Cs15  1  0.33777641  0.66426721  -0.00190945  1
  Cs  Cs16  1  0.33027963  0.66169539  0.33476956  1
  Cs  Cs17  1  0.34423101  0.66584927  0.66710362  1
  Cs  Cs18  1  0.66795638  0.00165455  0.00364466  1
  Cs  Cs19  1  0.66593528  0.00148179  0.33154627  1
  Cs  Cs20  1  0.66754590  -0.00293520  0.66446884  1
  Cs  Cs21  1  0.66782030  0.33326005  -0.00126829  1
  Cs  Cs22  1  0.66869693  0.33251528  0.33268172  1
  Cs  Cs23  1  0.66702047  0.33151918  0.67003942  1
  Cs  Cs24  1  0.66306029  0.66376996  -0.00195680  1
  Cs  Cs25  1  0.66826341  0.66146443  0.34114801  1
  Cs  Cs26  1  0.65973465  0.67577937  0.66058750  1
  Sn  Sn27  1  0.83324783  0.83362484  0.16676856  1
  Sn  Sn28  1  0.83375112  0.16643608  0.49987734  1
  Sn  Sn29  1  0.83372286  0.16636103  0.16666604  1
  Sn  Sn30  1  0.83392456  0.49994287  0.83295146  1
  Sn  Sn31  1  0.16644636  0.16664111  0.16738434  1
  Sn  Sn32  1  0.16640672  0.16598688  0.49907996  1
  Sn  Sn33  1  0.50012142  0.83385500  0.16713490  1
  Sn  Sn34  1  0.16661437  0.83379544  0.16757407  1
  Sn  Sn35  1  0.83264956  0.16666760  0.83341682  1
  Sn  Sn36  1  0.49984366  0.16630906  0.49973745  1
  Sn  Sn37  1  0.16600401  0.50027481  0.83320110  1
  Sn  Sn38  1  0.16650106  0.83410576  0.49928110  1
  Sn  Sn39  1  0.50081380  0.16620699  0.83354467  1
  Sn  Sn40  1  0.49985898  0.16650223  0.16674193  1
  Pb  Pb41  1  0.50016651  0.49978936  0.16697985  1
  Pb  Pb42  1  0.50100044  0.49776783  0.83327552  1
  Pb  Pb43  1  0.83330256  0.49755844  0.50328150  1
  Pb  Pb44  1  0.50006796  0.83685710  0.83588410  1
  Pb  Pb45  1  0.83564912  0.83585597  0.49704955  1
  Pb  Pb46  1  0.83325523  0.83380650  0.83547766  1
  Pb  Pb47  1  0.16671320  0.83037851  0.83334337  1
  Pb  Pb48  1  0.16657641  0.50005545  0.16462800  1
  Pb  Pb49  1  0.16649060  0.16753530  0.83347822  1
  Pb  Pb50  1  0.16660302  0.50008142  0.50271674  1
  Pb  Pb51  1  0.83331051  0.49992260  0.16469816  1
  Pb  Pb52  1  0.50011234  0.49705255  0.49982024  1
  Pb  Pb53  1  0.49751892  0.83607433  0.49694815  1
  I  I54  1  0.16678139  0.00131437  0.16884818  1
  I  I55  1  0.16686144  0.00199790  0.49649568  1
  I  I56  1  0.16667285  -0.00003303  0.83354250  1
  I  I57  1  0.16677130  0.32958339  0.17006251  1
  I  I58  1  0.16725219  0.32952652  0.49612848  1
  I  I59  1  0.16534844  0.33509359  0.83394235  1
  I  I60  1  0.16652548  0.67033896  0.17029756  1
  I  I61  1  0.16586187  0.66978091  0.49385274  1
  I  I62  1  0.15868175  0.66276288  0.83497148  1
  I  I63  1  0.49982714  0.00199849  0.16589141  1
  I  I64  1  0.50295751  0.00458843  0.50244841  1
  I  I65  1  0.50569896  0.00507328  0.83128611  1
  I  I66  1  0.50020292  0.32851520  0.16610022  1
  I  I67  1  0.49654348  0.32767209  0.49705897  1
  I  I68  1  0.50090823  0.32906632  0.83654726  1
  I  I69  1  0.49849993  0.67020555  0.16476888  1
  I  I70  1  0.49810546  0.66743455  0.49944761  1
  I  I71  1  0.49946333  0.66684991  0.83558320  1
  I  I72  1  0.83357220  0.00210193  0.16411214  1
  I  I73  1  0.83064131  0.00465309  0.50578692  1
  I  I74  1  0.82935023  0.00397073  0.83221717  1
  I  I75  1  0.83290208  0.32915225  0.16836923  1
  I  I76  1  0.83585329  0.32825084  0.49356229  1
  I  I77  1  0.83372949  0.33091621  0.83570384  1
  I  I78  1  0.83470937  0.66992876  0.16367101  1
  I  I79  1  0.83562083  0.66706784  0.49962919  1
  I  I80  1  0.84016106  0.66401470  0.83751790  1
  I  I81  1  0.16689061  0.16365179  0.00304810  1
  I  I82  1  0.16689308  0.16375531  0.33275253  1
  I  I83  1  0.16711140  0.16447034  0.66389620  1
  I  I84  1  0.16258635  0.49771654  -0.00289826  1
  I  I85  1  0.16744025  0.49920394  0.33349724  1
  I  I86  1  0.16165137  0.49637786  0.67010732  1
  I  I87  1  0.16641712  0.83853692  0.00385137  1
  I  I88  1  0.16690622  0.83939679  0.33193770  1
  I  I89  1  0.16567188  0.83954290  0.66358370  1
  I  I90  1  0.50224113  0.16408660  0.00089829  1
  I  I91  1  0.50224092  0.16291111  0.33259765  1
  I  I92  1  0.50195047  0.16977325  0.66650576  1
  I  I93  1  0.49897265  0.49764698  -0.00012072  1
  I  I94  1  0.49899649  0.49714010  0.33329026  1
  I  I95  1  0.49824452  0.49804569  0.66688857  1
  I  I96  1  0.49649230  0.83929529  0.00424596  1
  I  I97  1  0.50243238  0.84160905  0.32904282  1
  I  I98  1  0.49787378  0.83348015  0.66612903  1
  I  I99  1  0.83092670  0.16721507  0.00063445  1
  I  I100  1  0.83090689  0.16172232  0.33265596  1
  I  I101  1  0.83119261  0.17250198  0.66679107  1
  I  I102  1  0.83731414  0.49204166  -0.00307155  1
  I  I103  1  0.83307208  0.49908891  0.33352722  1
  I  I104  1  0.83925939  0.49190179  0.67113583  1
  I  I105  1  0.83691794  0.84044006  0.00396144  1
  I  I106  1  0.83065257  0.84055771  0.32891095  1
  I  I107  1  0.83620484  0.83412067  0.66626726  1
  I  I108  1  -0.00001078  0.16151081  0.16771801  1
  I  I109  1  0.00030129  0.16360655  0.49793006  1
  I  I110  1  -0.00271242  0.16917360  0.83401057  1
  I  I111  1  0.00001719  0.49888246  0.16633008  1
  I  I112  1  0.00001961  0.49668561  0.49877589  1
  I  I113  1  -0.00095940  0.49172495  0.83454173  1
  I  I114  1  0.00042896  0.84111771  0.16858699  1
  I  I115  1  0.00340543  0.84002309  0.49514754  1
  I  I116  1  0.00003045  0.83821984  0.83659514  1
  I  I117  1  0.33318978  0.16177217  0.16770703  1
  I  I118  1  0.33287697  0.16346156  0.49802292  1
  I  I119  1  0.33559730  0.16859776  0.83410648  1
  I  I120  1  0.33319311  0.49818493  0.16234588  1
  I  I121  1  0.33302730  0.49711605  0.50321656  1
  I  I122  1  0.33138190  0.49839024  0.83415037  1
  I  I123  1  0.33284384  0.84154380  0.16919453  1
  I  I124  1  0.32976148  0.83967633  0.49545250  1
  I  I125  1  0.33331274  0.83281124  0.83594075  1
  I  I126  1  0.66682847  0.16207733  0.16777137  1
  I  I127  1  0.66682902  0.16908507  0.49770996  1
  I  I128  1  0.66753191  0.17282541  0.83457418  1
  I  I129  1  0.66678049  0.49885357  0.16257216  1
  I  I130  1  0.66687664  0.49954012  0.50152728  1
  I  I131  1  0.66983422  0.49426301  0.83609731  1
  I  I132  1  0.66671530  0.84254650  0.16302193  1
  I  I133  1  0.66658041  0.83321083  0.50003171  1
  I  I134  1  0.66667576  0.82822600  0.83430202  1
