# generated using pymatgen
data_Cs27Sn14Pb13I81
_symmetry_space_group_name_H-M   'P 1'
_cell_length_a   18.97765711
_cell_length_b   18.97171260
_cell_length_c   18.97865377
_cell_angle_alpha   89.99907934
_cell_angle_beta   89.99928394
_cell_angle_gamma   89.99900039
_symmetry_Int_Tables_number   1
_chemical_formula_structural   Cs27Sn14Pb13I81
_chemical_formula_sum   'Cs27 Sn14 Pb13 I81'
_cell_volume   6833.04900465
_cell_formula_units_Z   1
loop_
 _symmetry_equiv_pos_site_id
 _symmetry_equiv_pos_as_xyz
  1  'x, y, z'
loop_
 _atom_site_type_symbol
 _atom_site_label
 _atom_site_symmetry_multiplicity
 _atom_site_fract_x
 _atom_site_fract_y
 _atom_site_fract_z
 _atom_site_occupancy
  Cs  Cs0  1  -0.00115427  0.00217892  -0.00137166  1
  Cs  Cs1  1  0.00050828  0.00072441  0.33680502  1
  Cs  Cs2  1  0.00090863  -0.00015836  0.66638970  1
  Cs  Cs3  1  0.00048834  0.33083238  0.00544772  1
  Cs  Cs4  1  -0.00088609  0.34040417  0.33036780  1
  Cs  Cs5  1  0.00017146  0.32984569  0.66600917  1
  Cs  Cs6  1  -0.00556795  0.66421863  -0.00099940  1
  Cs  Cs7  1  0.00404973  0.65588967  0.33473977  1
  Cs  Cs8  1  -0.00246629  0.66741900  0.66629362  1
  Cs  Cs9  1  0.33297555  0.00077515  -0.00074780  1
  Cs  Cs10  1  0.33414029  -0.00114644  0.33377485  1
  Cs  Cs11  1  0.33184495  0.00036826  0.66680953  1
  Cs  Cs12  1  0.33344837  0.33256574  -0.00084742  1
  Cs  Cs13  1  0.33474760  0.33505003  0.33328525  1
  Cs  Cs14  1  0.33855450  0.33418105  0.66757445  1
  Cs  Cs15  1  0.33414946  0.66662210  0.00017398  1
  Cs  Cs16  1  0.32959584  0.66875214  0.33082910  1
  Cs  Cs17  1  0.33362528  0.66759019  0.66846859  1
  Cs  Cs18  1  0.66769065  -0.00088947  0.00276102  1
  Cs  Cs19  1  0.66686648  0.00079491  0.33231691  1
  Cs  Cs20  1  0.66748109  0.00083090  0.66507777  1
  Cs  Cs21  1  0.66592517  0.33351831  -0.00033905  1
  Cs  Cs22  1  0.66606689  0.33248203  0.33523642  1
  Cs  Cs23  1  0.66269424  0.33907431  0.66594361  1
  Cs  Cs24  1  0.67267066  0.66856609  -0.00296461  1
  Cs  Cs25  1  0.66951715  0.67012030  0.32997986  1
  Cs  Cs26  1  0.66819816  0.65964186  0.67091517  1
  Sn  Sn27  1  0.16709374  0.83221284  0.83351335  1
  Sn  Sn28  1  0.50008198  0.83349310  0.50108845  1
  Sn  Sn29  1  0.50107500  0.16558112  0.83395475  1
  Sn  Sn30  1  0.16645749  0.83424094  0.16643307  1
  Sn  Sn31  1  0.49902980  0.16737843  0.16597341  1
  Sn  Sn32  1  0.16663033  0.83416051  0.50000466  1
  Sn  Sn33  1  0.16671442  0.50102883  0.83316749  1
  Sn  Sn34  1  0.16614401  0.16625092  0.49885673  1
  Sn  Sn35  1  0.49988587  0.49948879  0.16654035  1
  Sn  Sn36  1  0.49953775  0.83434060  0.83256611  1
  Sn  Sn37  1  0.83416699  0.16592056  0.50094807  1
  Sn  Sn38  1  0.16765331  0.16555911  0.16806713  1
  Sn  Sn39  1  0.83356682  0.83403806  0.50002199  1
  Sn  Sn40  1  0.83182552  0.16632557  0.83232118  1
  Pb  Pb41  1  0.49852181  0.83389238  0.16609221  1
  Pb  Pb42  1  0.82985647  0.49994502  0.16648573  1
  Pb  Pb43  1  0.16701491  0.49962319  0.50248152  1
  Pb  Pb44  1  0.16811366  0.49970415  0.16446720  1
  Pb  Pb45  1  0.83325256  0.49956014  0.50013813  1
  Pb  Pb46  1  0.49853411  0.50037819  0.83508727  1
  Pb  Pb47  1  0.83628520  0.49634840  0.83320709  1
  Pb  Pb48  1  0.49982177  0.16511533  0.49997087  1
  Pb  Pb49  1  0.49974637  0.50396470  0.49722359  1
  Pb  Pb50  1  0.83338762  0.16647660  0.16739806  1
  Pb  Pb51  1  0.16704108  0.16603001  0.83313926  1
  Pb  Pb52  1  0.83335077  0.83533551  0.83139687  1
  Pb  Pb53  1  0.83732909  0.83362939  0.16993160  1
  I  I54  1  0.17350996  0.00048304  0.16577070  1
  I  I55  1  0.16607481  -0.00088938  0.50133032  1
  I  I56  1  0.16811400  -0.00287272  0.83266013  1
  I  I57  1  0.16797072  0.32998974  0.16876131  1
  I  I58  1  0.16114649  0.32962783  0.49684094  1
  I  I59  1  0.16648468  0.33446900  0.83401289  1
  I  I60  1  0.16898365  0.66963478  0.17030110  1
  I  I61  1  0.16614386  0.67046531  0.49647409  1
  I  I62  1  0.17338797  0.66946927  0.83313573  1
  I  I63  1  0.49729910  0.00273865  0.16528880  1
  I  I64  1  0.49834927  -0.00309014  0.49909044  1
  I  I65  1  0.49651513  -0.00006852  0.83549209  1
  I  I66  1  0.49358913  0.33101721  0.16093961  1
  I  I67  1  0.49996490  0.33318999  0.50249896  1
  I  I68  1  0.50094874  0.33031147  0.83533917  1
  I  I69  1  0.49675018  0.66532043  0.16828400  1
  I  I70  1  0.49837915  0.67228943  0.50534874  1
  I  I71  1  0.49654617  0.66996945  0.83061458  1
  I  I72  1  0.82742174  0.00006132  0.16408153  1
  I  I73  1  0.83550620  0.00028688  0.50406353  1
  I  I74  1  0.83484527  0.00326752  0.83133666  1
  I  I75  1  0.83973635  0.33284316  0.16823842  1
  I  I76  1  0.83865434  0.32930916  0.50296913  1
  I  I77  1  0.82851942  0.32833973  0.82653103  1
  I  I78  1  0.83253858  0.66707323  0.16815590  1
  I  I79  1  0.83484692  0.67025688  0.49917268  1
  I  I80  1  0.83085329  0.66682587  0.83213763  1
  I  I81  1  0.16753679  0.16406171  0.00205041  1
  I  I82  1  0.16735082  0.15851440  0.33342407  1
  I  I83  1  0.16550332  0.16319716  0.66429194  1
  I  I84  1  0.16862547  0.50341259  -0.00304854  1
  I  I85  1  0.16735491  0.50248936  0.33314260  1
  I  I86  1  0.16839836  0.50364601  0.67015160  1
  I  I87  1  0.17388214  0.83430904  -0.00055322  1
  I  I88  1  0.16816613  0.83873963  0.33409696  1
  I  I89  1  0.16766070  0.83418611  0.66619982  1
  I  I90  1  0.49888413  0.16450414  -0.00042918  1
  I  I91  1  0.49879448  0.16836525  0.33094921  1
  I  I92  1  0.49932225  0.16381193  0.66921024  1
  I  I93  1  0.49650952  0.49939213  0.00269328  1
  I  I94  1  0.49811112  0.49249573  0.32965527  1
  I  I95  1  0.49915294  0.49730970  0.66689359  1
  I  I96  1  0.49387693  0.83464473  -0.00286821  1
  I  I97  1  0.49874371  0.83351079  0.33574270  1
  I  I98  1  0.49377480  0.83978494  0.66738180  1
  I  I99  1  0.83365511  0.16735133  -0.00246304  1
  I  I100  1  0.83393440  0.16160875  0.33664931  1
  I  I101  1  0.83562123  0.16188818  0.66587414  1
  I  I102  1  0.83494494  0.49918642  -0.00039017  1
  I  I103  1  0.83506352  0.49872930  0.33337990  1
  I  I104  1  0.83229086  0.50146941  0.66684863  1
  I  I105  1  0.83269402  0.83403735  -0.00010213  1
  I  I106  1  0.82918129  0.84164047  0.33810222  1
  I  I107  1  0.83854903  0.83693043  0.66336228  1
  I  I108  1  0.00328312  0.16186314  0.16572728  1
  I  I109  1  0.00072717  0.15830002  0.50190977  1
  I  I110  1  -0.00148152  0.16673427  0.83222221  1
  I  I111  1  0.00034494  0.49980146  0.16599000  1
  I  I112  1  0.00029881  0.50384611  0.49956518  1
  I  I113  1  0.00400428  0.50707675  0.83398045  1
  I  I114  1  0.00552315  0.84083724  0.16340304  1
  I  I115  1  0.00128473  0.83879251  0.50052164  1
  I  I116  1  0.00318147  0.83169125  0.83273991  1
  I  I117  1  0.33299430  0.16614958  0.16600969  1
  I  I118  1  0.33060618  0.16166915  0.49957808  1
  I  I119  1  0.33567524  0.16564673  0.83440197  1
  I  I120  1  0.33568548  0.49795057  0.16557969  1
  I  I121  1  0.33331013  0.49811108  0.50070075  1
  I  I122  1  0.33071689  0.49940540  0.83386771  1
  I  I123  1  0.33030613  0.83477359  0.17125412  1
  I  I124  1  0.33215278  0.83749060  0.50055546  1
  I  I125  1  0.33291980  0.83585384  0.82862810  1
  I  I126  1  0.66354981  0.17097930  0.16564590  1
  I  I127  1  0.66879571  0.16142719  0.50023692  1
  I  I128  1  0.66524358  0.16095085  0.83416329  1
  I  I129  1  0.66188782  0.49329728  0.16589482  1
  I  I130  1  0.66643464  0.49894868  0.49992097  1
  I  I131  1  0.66662670  0.50242877  0.83517910  1
  I  I132  1  0.66672399  0.83228872  0.16733619  1
  I  I133  1  0.66650322  0.83821067  0.50373923  1
  I  I134  1  0.66367591  0.83566535  0.82972743  1
