# generated using pymatgen
data_Cs27Sn14Pb13I81
_symmetry_space_group_name_H-M   'P 1'
_cell_length_a   18.95139075
_cell_length_b   18.96698574
_cell_length_c   18.96698571
_cell_angle_alpha   89.99903271
_cell_angle_beta   90.00000002
_cell_angle_gamma   89.99999996
_symmetry_Int_Tables_number   1
_chemical_formula_structural   Cs27Sn14Pb13I81
_chemical_formula_sum   'Cs27 Sn14 Pb13 I81'
_cell_volume   6817.69739144
_cell_formula_units_Z   1
loop_
 _symmetry_equiv_pos_site_id
 _symmetry_equiv_pos_as_xyz
  1  'x, y, z'
loop_
 _atom_site_type_symbol
 _atom_site_label
 _atom_site_symmetry_multiplicity
 _atom_site_fract_x
 _atom_site_fract_y
 _atom_site_fract_z
 _atom_site_occupancy
  Cs  Cs0  1  -0.00059580  0.00017739  0.00222699  1
  Cs  Cs1  1  -0.00106352  0.00063867  0.33397211  1
  Cs  Cs2  1  -0.00063419  0.00239032  0.66427625  1
  Cs  Cs3  1  -0.00059586  0.33315597  -0.00222704  1
  Cs  Cs4  1  -0.00063424  0.33094309  0.33572354  1
  Cs  Cs5  1  -0.00106355  0.33269469  0.66602793  1
  Cs  Cs6  1  0.00740233  0.66666686  -0.00000021  1
  Cs  Cs7  1  -0.00059593  0.66889365  0.33351055  1
  Cs  Cs8  1  -0.00059588  0.66443962  0.66648950  1
  Cs  Cs9  1  0.33621865  -0.00189339  -0.00467299  1
  Cs  Cs10  1  0.33425274  0.00196491  0.33529832  1
  Cs  Cs11  1  0.33862358  -0.00271095  0.66937760  1
  Cs  Cs12  1  0.33621863  0.33522663  0.00467318  1
  Cs  Cs13  1  0.33862367  0.33604442  0.33062217  1
  Cs  Cs14  1  0.33425274  0.33136833  0.66470160  1
  Cs  Cs15  1  0.32484599  0.66666671  -0.00000008  1
  Cs  Cs16  1  0.33621854  0.66199337  0.33144010  1
  Cs  Cs17  1  0.33621863  0.67133973  0.66855989  1
  Cs  Cs18  1  0.66576878  -0.00047940  -0.00005055  1
  Cs  Cs19  1  0.66766472  -0.00131379  0.33201943  1
  Cs  Cs20  1  0.66413747  -0.00134979  0.66801635  1
  Cs  Cs21  1  0.66576881  0.33381282  0.00005056  1
  Cs  Cs22  1  0.66413747  0.33468327  0.33198344  1
  Cs  Cs23  1  0.66766460  0.33464701  0.66798046  1
  Cs  Cs24  1  0.66927506  0.66666682  -0.00000021  1
  Cs  Cs25  1  0.66576886  0.66661608  0.33285387  1
  Cs  Cs26  1  0.66576871  0.66671736  0.66714623  1
  Sn  Sn27  1  0.83397533  0.16766344  0.16684720  1
  Sn  Sn28  1  0.16597202  0.83349944  0.49996415  1
  Sn  Sn29  1  0.49973907  0.83335024  0.16668361  1
  Sn  Sn30  1  0.83389315  0.49941805  0.16724862  1
  Sn  Sn31  1  0.16597203  0.16670255  0.83316720  1
  Sn  Sn32  1  0.83397530  0.49981947  0.49900327  1
  Sn  Sn33  1  0.83336461  0.16666668  0.49999999  1
  Sn  Sn34  1  0.16597199  0.49983384  0.50003588  1
  Sn  Sn35  1  0.16612486  0.16666670  0.49999997  1
  Sn  Sn36  1  0.83397534  0.83351385  0.50099680  1
  Sn  Sn37  1  0.83397531  0.16566988  0.83315281  1
  Sn  Sn38  1  0.83389310  0.83391535  0.83275133  1
  Sn  Sn39  1  0.49973908  0.49998304  0.83331638  1
  Sn  Sn40  1  0.16597203  0.16663080  0.16683282  1
  Pb  Pb41  1  0.16893908  0.49740251  0.83073595  1
  Pb  Pb42  1  0.50242222  0.83119687  0.83546982  1
  Pb  Pb43  1  0.50028894  0.50002563  0.50164602  1
  Pb  Pb44  1  0.83276689  0.83349880  0.16683215  1
  Pb  Pb45  1  0.50028889  0.83330776  0.49835399  1
  Pb  Pb46  1  0.50242221  0.50213649  0.16453020  1
  Pb  Pb47  1  0.50025016  0.16666666  0.49999999  1
  Pb  Pb48  1  0.16893903  0.83593072  0.16926406  1
  Pb  Pb49  1  0.50028887  0.16831262  0.83335896  1
  Pb  Pb50  1  0.50028891  0.16502071  0.16664104  1
  Pb  Pb51  1  0.16414883  0.49765834  0.16900837  1
  Pb  Pb52  1  0.16414882  0.83567502  0.83099159  1
  Pb  Pb53  1  0.83276683  0.49983449  0.83316786  1
  I  I54  1  0.15922068  0.00416596  0.16924236  1
  I  I55  1  0.16044908  0.00105136  0.49900294  1
  I  I56  1  0.16583764  0.00401684  0.83158199  1
  I  I57  1  0.16583738  0.32931649  0.16841803  1
  I  I58  1  0.16044887  0.33228197  0.50099733  1
  I  I59  1  0.15922037  0.32916741  0.83075753  1
  I  I60  1  0.16663989  0.66657052  0.16789220  1
  I  I61  1  0.15970464  0.66666665  0.49999982  1
  I  I62  1  0.16663986  0.66676281  0.83210799  1
  I  I63  1  0.50341922  -0.00240627  0.16677940  1
  I  I64  1  0.50007802  -0.00007753  0.50007486  1
  I  I65  1  0.49905323  -0.00017704  0.83419304  1
  I  I66  1  0.49905325  0.33351041  0.16580657  1
  I  I67  1  0.50007781  0.33341084  0.49992570  1
  I  I68  1  0.50341932  0.33573963  0.83322055  1
  I  I69  1  0.50347561  0.66940032  0.16771101  1
  I  I70  1  0.50038649  0.66666662  0.49999952  1
  I  I71  1  0.50347570  0.66393308  0.83228944  1
  I  I72  1  0.83527456  0.00318449  0.16882646  1
  I  I73  1  0.83830517  0.00065448  0.49980859  1
  I  I74  1  0.83565108  0.00126263  0.83064229  1
  I  I75  1  0.83565117  0.33207068  0.16935804  1
  I  I76  1  0.83830553  0.33267883  0.50019155  1
  I  I77  1  0.83527471  0.33014883  0.83117322  1
  I  I78  1  0.82902455  0.66449057  0.17008511  1
  I  I79  1  0.83848082  0.66666668  0.49999981  1
  I  I80  1  0.82902454  0.66884274  0.82991510  1
  I  I81  1  0.15970481  0.16666671  -0.00000002  1
  I  I82  1  0.16044884  0.16566967  0.33438467  1
  I  I83  1  0.16044895  0.16766356  0.66561531  1
  I  I84  1  0.16663928  0.49877464  0.00009619  1
  I  I85  1  0.16583818  0.49824831  0.33735018  1
  I  I86  1  0.15922062  0.49742446  0.66250070  1
  I  I87  1  0.16663979  0.83455860  -0.00009617  1
  I  I88  1  0.15922073  0.83590919  0.33749927  1
  I  I89  1  0.16583739  0.83508477  0.66264977  1
  I  I90  1  0.50038655  0.16666645  0.00000001  1
  I  I91  1  0.50007774  0.16674118  0.33325585  1
  I  I92  1  0.50007796  0.16659231  0.66674420  1
  I  I93  1  0.50347607  0.49895573  -0.00273358  1
  I  I94  1  0.49905281  0.50085966  0.33315627  1
  I  I95  1  0.50341920  0.49988754  0.66907299  1
  I  I96  1  0.50347597  0.83437769  0.00273359  1
  I  I97  1  0.50341921  0.83344645  0.33092704  1
  I  I98  1  0.49905300  0.83247298  0.66684369  1
  I  I99  1  0.83848059  0.16666691  -0.00000001  1
  I  I100  1  0.83830552  0.16647494  0.33398781  1
  I  I101  1  0.83830541  0.16685818  0.66601217  1
  I  I102  1  0.82902477  0.49658184  0.00217610  1
  I  I103  1  0.83565102  0.49730861  0.33459603  1
  I  I104  1  0.83527452  0.49784000  0.66348216  1
  I  I105  1  0.82902428  0.83675123  -0.00217604  1
  I  I106  1  0.83527444  0.83549361  0.33651780  1
  I  I107  1  0.83565145  0.83602456  0.66540404  1
  I  I108  1  -0.00124202  0.16909208  0.16751212  1
  I  I109  1  -0.00055464  0.16666649  0.50000006  1
  I  I110  1  -0.00124201  0.16424096  0.83248785  1
  I  I111  1  -0.00408447  0.50013375  0.16653353  1
  I  I112  1  -0.00124198  0.49915441  0.49757433  1
  I  I113  1  0.00015499  0.50163963  0.83497245  1
  I  I114  1  0.00015500  0.83169385  0.16502718  1
  I  I115  1  -0.00124199  0.83417919  0.50242528  1
  I  I116  1  -0.00408446  0.83319943  0.83346743  1
  I  I117  1  0.33006846  0.16460314  0.16792801  1
  I  I118  1  0.32911549  0.16666658  0.50000006  1
  I  I119  1  0.33006843  0.16873057  0.83207190  1
  I  I120  1  0.33303585  0.49894333  0.16772268  1
  I  I121  1  0.33006844  0.49873881  0.50206402  1
  I  I122  1  0.33622529  0.49873304  0.83206684  1
  I  I123  1  0.33622529  0.83460028  0.16793332  1
  I  I124  1  0.33006843  0.83459471  0.49793636  1
  I  I125  1  0.33303582  0.83438982  0.83227691  1
  I  I126  1  0.67056563  0.16884749  0.16701394  1
  I  I127  1  0.67120239  0.16666685  0.49999999  1
  I  I128  1  0.67056563  0.16448589  0.83298617  1
  I  I129  1  0.67057961  0.49371316  0.17295361  1
  I  I130  1  0.67056564  0.49965288  0.49781901  1
  I  I131  1  0.66521689  0.49845576  0.83178908  1
  I  I132  1  0.66521691  0.83487757  0.16821103  1
  I  I133  1  0.67056562  0.83368031  0.50218110  1
  I  I134  1  0.67057958  0.83961986  0.82704625  1
