# generated using pymatgen
data_Cs27Sn14Pb13I81
_symmetry_space_group_name_H-M   'P 1'
_cell_length_a   18.96131814
_cell_length_b   18.96490687
_cell_length_c   18.95719578
_cell_angle_alpha   90.00097448
_cell_angle_beta   89.99863910
_cell_angle_gamma   89.99950280
_symmetry_Int_Tables_number   1
_chemical_formula_structural   Cs27Sn14Pb13I81
_chemical_formula_sum   'Cs27 Sn14 Pb13 I81'
_cell_volume   6817.00063474
_cell_formula_units_Z   1
loop_
 _symmetry_equiv_pos_site_id
 _symmetry_equiv_pos_as_xyz
  1  'x, y, z'
loop_
 _atom_site_type_symbol
 _atom_site_label
 _atom_site_symmetry_multiplicity
 _atom_site_fract_x
 _atom_site_fract_y
 _atom_site_fract_z
 _atom_site_occupancy
  Cs  Cs0  1  -0.00721817  0.00012632  0.00556013  1
  Cs  Cs1  1  0.00148476  -0.00215735  0.32936306  1
  Cs  Cs2  1  -0.00121326  0.00135308  0.66638956  1
  Cs  Cs3  1  -0.00011325  0.33263729  -0.00083771  1
  Cs  Cs4  1  0.00020709  0.33254657  0.33467149  1
  Cs  Cs5  1  0.00160011  0.33269515  0.66657640  1
  Cs  Cs6  1  -0.00068919  0.66498587  -0.00037303  1
  Cs  Cs7  1  0.00005319  0.66931148  0.33485847  1
  Cs  Cs8  1  0.00265851  0.66481857  0.66509495  1
  Cs  Cs9  1  0.33359057  0.00151489  0.00047427  1
  Cs  Cs10  1  0.33015820  -0.00222452  0.33509316  1
  Cs  Cs11  1  0.33418352  -0.00092828  0.66510422  1
  Cs  Cs12  1  0.33337967  0.33434203  -0.00044399  1
  Cs  Cs13  1  0.33514179  0.33177409  0.33210289  1
  Cs  Cs14  1  0.33092793  0.33134043  0.66920241  1
  Cs  Cs15  1  0.33590599  0.66295984  -0.00129995  1
  Cs  Cs16  1  0.33241740  0.67015018  0.33340319  1
  Cs  Cs17  1  0.33159587  0.67311924  0.66819804  1
  Cs  Cs18  1  0.67205922  -0.00180289  -0.00262098  1
  Cs  Cs19  1  0.66702686  0.00123355  0.33422460  1
  Cs  Cs20  1  0.66689151  -0.00248987  0.66936527  1
  Cs  Cs21  1  0.66529049  0.33299267  0.00043495  1
  Cs  Cs22  1  0.66445666  0.33696586  0.33588914  1
  Cs  Cs23  1  0.66740048  0.33311317  0.66282724  1
  Cs  Cs24  1  0.66517024  0.66799233  0.00029798  1
  Cs  Cs25  1  0.66710480  0.66085957  0.33326508  1
  Cs  Cs26  1  0.66624697  0.66859314  0.66484284  1
  Sn  Sn27  1  0.16720597  0.49929734  0.49899133  1
  Sn  Sn28  1  0.49978929  0.49976589  0.16592423  1
  Sn  Sn29  1  0.49998100  0.83353305  0.16661792  1
  Sn  Sn30  1  0.83340144  0.49964589  0.16572327  1
  Sn  Sn31  1  0.16622698  0.83516630  0.83414709  1
  Sn  Sn32  1  0.16691624  0.16519321  0.83317626  1
  Sn  Sn33  1  0.49989530  0.16637367  0.16572370  1
  Sn  Sn34  1  0.16679885  0.49970590  0.16790762  1
  Sn  Sn35  1  0.16587895  0.16740612  0.50046716  1
  Sn  Sn36  1  0.83328631  0.83441178  0.50001194  1
  Sn  Sn37  1  0.83204512  0.49970756  0.83378290  1
  Sn  Sn38  1  0.50108877  0.49920716  0.83352924  1
  Sn  Sn39  1  0.83417409  0.16561893  0.50006099  1
  Sn  Sn40  1  0.49941507  0.16744223  0.83414503  1
  Pb  Pb41  1  0.83114044  0.83091558  0.16859973  1
  Pb  Pb42  1  0.83062986  0.16900396  0.16915363  1
  Pb  Pb43  1  0.49948765  0.16670923  0.50056343  1
  Pb  Pb44  1  0.83527083  0.49959481  0.50005070  1
  Pb  Pb45  1  0.16831012  0.16834598  0.16645020  1
  Pb  Pb46  1  0.83315825  0.16862529  0.83167165  1
  Pb  Pb47  1  0.49860236  0.83360426  0.83515505  1
  Pb  Pb48  1  0.16711687  0.49926885  0.83346948  1
  Pb  Pb49  1  0.16831898  0.83086537  0.16405447  1
  Pb  Pb50  1  0.16509533  0.83403319  0.50148577  1
  Pb  Pb51  1  0.83566311  0.83060189  0.83170394  1
  Pb  Pb52  1  0.50253884  0.83330092  0.49746470  1
  Pb  Pb53  1  0.49676677  0.50007719  0.50072021  1
  I  I54  1  0.16985046  0.00006501  0.16932682  1
  I  I55  1  0.16538902  0.00324569  0.50292603  1
  I  I56  1  0.17353464  0.00191031  0.82616173  1
  I  I57  1  0.16930937  0.33689139  0.16586128  1
  I  I58  1  0.16095989  0.33264341  0.50255500  1
  I  I59  1  0.16821762  0.33091549  0.83155423  1
  I  I60  1  0.16885616  0.66232938  0.17050195  1
  I  I61  1  0.16490035  0.66437952  0.49848812  1
  I  I62  1  0.16662283  0.66768786  0.83307895  1
  I  I63  1  0.49900164  0.00092890  0.16364272  1
  I  I64  1  0.49626820  0.00024306  0.49887330  1
  I  I65  1  0.49696911  0.00313978  0.83683079  1
  I  I66  1  0.49956304  0.33448486  0.16287448  1
  I  I67  1  0.50467979  0.33335950  0.49548265  1
  I  I68  1  0.49711730  0.33351553  0.84092397  1
  I  I69  1  0.49995412  0.66469682  0.16328004  1
  I  I70  1  0.50036460  0.66642797  0.50019668  1
  I  I71  1  0.50092698  0.66371073  0.83765479  1
  I  I72  1  0.83136324  0.00016085  0.16682443  1
  I  I73  1  0.83856456  0.00105578  0.50063970  1
  I  I74  1  0.83127395  0.00013249  0.83247011  1
  I  I75  1  0.83161014  0.33732683  0.16552406  1
  I  I76  1  0.83587079  0.33119456  0.50006898  1
  I  I77  1  0.83460778  0.33671902  0.83458653  1
  I  I78  1  0.83136243  0.66252060  0.16595604  1
  I  I79  1  0.83483545  0.66796576  0.49961266  1
  I  I80  1  0.82967348  0.66250615  0.83480082  1
  I  I81  1  0.17035751  0.16626755  -0.00291649  1
  I  I82  1  0.16488048  0.17016950  0.33591079  1
  I  I83  1  0.16871328  0.17016866  0.66679925  1
  I  I84  1  0.16748167  0.50042059  0.00240488  1
  I  I85  1  0.16635359  0.49523163  0.33292616  1
  I  I86  1  0.16505404  0.49901812  0.66487059  1
  I  I87  1  0.16705289  0.83705668  -0.00372224  1
  I  I88  1  0.16722264  0.83400390  0.33307801  1
  I  I89  1  0.16772059  0.83001076  0.66942341  1
  I  I90  1  0.49367045  0.16960390  -0.00056298  1
  I  I91  1  0.50075212  0.16923035  0.33042202  1
  I  I92  1  0.49859882  0.17246002  0.67006143  1
  I  I93  1  0.49807318  0.49935152  0.00083934  1
  I  I94  1  0.50313019  0.49874795  0.32991472  1
  I  I95  1  0.50373794  0.49453955  0.67030986  1
  I  I96  1  0.49911761  0.83084482  0.00311621  1
  I  I97  1  0.49872133  0.83162277  0.32915580  1
  I  I98  1  0.49941881  0.83251345  0.66698877  1
  I  I99  1  0.83590513  0.16680550  0.00007340  1
  I  I100  1  0.83846878  0.16562641  0.33702097  1
  I  I101  1  0.83300971  0.16719454  0.66364556  1
  I  I102  1  0.83499888  0.50006835  0.00042811  1
  I  I103  1  0.83013338  0.49986469  0.33074375  1
  I  I104  1  0.83090669  0.49983163  0.66898510  1
  I  I105  1  0.83374572  0.83323639  0.00010050  1
  I  I106  1  0.83444767  0.83487832  0.33642597  1
  I  I107  1  0.83344334  0.83417990  0.66380516  1
  I  I108  1  -0.00009233  0.16940553  0.16483708  1
  I  I109  1  0.00120607  0.16858645  0.50602136  1
  I  I110  1  0.00271645  0.16653861  0.82950142  1
  I  I111  1  0.00008374  0.49989888  0.16602805  1
  I  I112  1  0.00312688  0.49880883  0.49761070  1
  I  I113  1  -0.00160262  0.50053266  0.83583433  1
  I  I114  1  -0.00010915  0.83083669  0.16676738  1
  I  I115  1  -0.00258878  0.83276287  0.50044509  1
  I  I116  1  0.00351767  0.83630442  0.83249478  1
  I  I117  1  0.33665448  0.17053134  0.16740903  1
  I  I118  1  0.33019341  0.17179364  0.50115151  1
  I  I119  1  0.33337356  0.16989154  0.83132939  1
  I  I120  1  0.33449363  0.49970557  0.16580642  1
  I  I121  1  0.32885472  0.49380375  0.49673164  1
  I  I122  1  0.33586119  0.49882433  0.83694752  1
  I  I123  1  0.33646681  0.83035315  0.16691810  1
  I  I124  1  0.33308866  0.83276377  0.50009974  1
  I  I125  1  0.33062433  0.83068895  0.83226464  1
  I  I126  1  0.66242202  0.16903410  0.16216035  1
  I  I127  1  0.66908694  0.16386514  0.49916486  1
  I  I128  1  0.66369016  0.16978178  0.83589086  1
  I  I129  1  0.66568270  0.50024907  0.16288987  1
  I  I130  1  0.66674564  0.49968779  0.49780655  1
  I  I131  1  0.66559333  0.49560612  0.84042176  1
  I  I132  1  0.66307222  0.83090946  0.16614873  1
  I  I133  1  0.67041307  0.83799661  0.50124356  1
  I  I134  1  0.66674107  0.83449036  0.83271511  1
