# generated using pymatgen
data_Cs27Sn14Pb13I81
_symmetry_space_group_name_H-M   'P 1'
_cell_length_a   18.96022269
_cell_length_b   18.96072118
_cell_length_c   18.96089442
_cell_angle_alpha   90.00068574
_cell_angle_beta   89.99875572
_cell_angle_gamma   90.00067101
_symmetry_Int_Tables_number   1
_chemical_formula_structural   Cs27Sn14Pb13I81
_chemical_formula_sum   'Cs27 Sn14 Pb13 I81'
_cell_volume   6816.43198450
_cell_formula_units_Z   1
loop_
 _symmetry_equiv_pos_site_id
 _symmetry_equiv_pos_as_xyz
  1  'x, y, z'
loop_
 _atom_site_type_symbol
 _atom_site_label
 _atom_site_symmetry_multiplicity
 _atom_site_fract_x
 _atom_site_fract_y
 _atom_site_fract_z
 _atom_site_occupancy
  Cs  Cs0  1  -0.00043242  0.00047050  0.00204550  1
  Cs  Cs1  1  0.00075681  0.00338083  0.33332838  1
  Cs  Cs2  1  -0.00126516  -0.00078404  0.66620254  1
  Cs  Cs3  1  -0.00076189  0.33512862  -0.00020335  1
  Cs  Cs4  1  0.00083491  0.33283638  0.33218549  1
  Cs  Cs5  1  0.00003327  0.33359212  0.66742529  1
  Cs  Cs6  1  0.00164478  0.66503426  -0.00104759  1
  Cs  Cs7  1  -0.00127043  0.66538848  0.33506874  1
  Cs  Cs8  1  0.00006830  0.66600266  0.66692747  1
  Cs  Cs9  1  0.33343612  -0.00112704  0.00816856  1
  Cs  Cs10  1  0.32980494  0.00480837  0.32884509  1
  Cs  Cs11  1  0.33559664  0.00270903  0.66516201  1
  Cs  Cs12  1  0.33902513  0.33419385  -0.00214292  1
  Cs  Cs13  1  0.33759907  0.32918180  0.33531881  1
  Cs  Cs14  1  0.33417973  0.32741098  0.66604331  1
  Cs  Cs15  1  0.33013807  0.66769599  0.00179701  1
  Cs  Cs16  1  0.33538686  0.66658961  0.33034666  1
  Cs  Cs17  1  0.32999386  0.66782897  0.66904214  1
  Cs  Cs18  1  0.66779100  0.00234363  -0.00161679  1
  Cs  Cs19  1  0.66959726  -0.00222435  0.32968756  1
  Cs  Cs20  1  0.66782886  -0.00261826  0.66818968  1
  Cs  Cs21  1  0.66669646  0.33113479  -0.00069175  1
  Cs  Cs22  1  0.65957342  0.33766001  0.33278125  1
  Cs  Cs23  1  0.66518703  0.33417192  0.66652525  1
  Cs  Cs24  1  0.66751283  0.66655079  -0.00073601  1
  Cs  Cs25  1  0.66492522  0.66481552  0.33450315  1
  Cs  Cs26  1  0.66836891  0.66805060  0.66567073  1
  Sn  Sn27  1  0.83318685  0.16639055  0.50061021  1
  Sn  Sn28  1  0.83461486  0.16659051  0.83226997  1
  Sn  Sn29  1  0.50048452  0.83232211  0.83263891  1
  Sn  Sn30  1  0.16594824  0.16623447  0.83362630  1
  Sn  Sn31  1  0.16681003  0.83267228  0.50009656  1
  Sn  Sn32  1  0.83268421  0.50012664  0.83394962  1
  Sn  Sn33  1  0.83343691  0.83403377  0.49981927  1
  Sn  Sn34  1  0.16603041  0.49988404  0.16780331  1
  Sn  Sn35  1  0.16660656  0.50041982  0.49910694  1
  Sn  Sn36  1  0.50091288  0.50135485  0.83293243  1
  Sn  Sn37  1  0.83404111  0.50086756  0.16605242  1
  Sn  Sn38  1  0.83311605  0.83324499  0.83353049  1
  Sn  Sn39  1  0.49983484  0.83332903  0.50051103  1
  Sn  Sn40  1  0.83360502  0.83219614  0.16653498  1
  Pb  Pb41  1  0.50062159  0.16567474  0.83335931  1
  Pb  Pb42  1  0.50253583  0.83324433  0.16644188  1
  Pb  Pb43  1  0.16684983  0.83554845  0.83167678  1
  Pb  Pb44  1  0.16401156  0.83138865  0.16949325  1
  Pb  Pb45  1  0.16676274  0.49846899  0.83317748  1
  Pb  Pb46  1  0.83439857  0.49993873  0.50002774  1
  Pb  Pb47  1  0.16634215  0.16997607  0.16381244  1
  Pb  Pb48  1  0.16467024  0.16657031  0.50149929  1
  Pb  Pb49  1  0.50017892  0.16657529  0.16687977  1
  Pb  Pb50  1  0.50345250  0.16347303  0.50009856  1
  Pb  Pb51  1  0.49685211  0.50235079  0.50266172  1
  Pb  Pb52  1  0.83323297  0.16736706  0.16676848  1
  Pb  Pb53  1  0.50027778  0.50026702  0.16416601  1
  I  I54  1  0.16615106  -0.00004800  0.16718740  1
  I  I55  1  0.16699059  -0.00298678  0.50329492  1
  I  I56  1  0.16108975  0.00302540  0.82979022  1
  I  I57  1  0.15802652  0.33787568  0.17264882  1
  I  I58  1  0.16320656  0.33583441  0.49848848  1
  I  I59  1  0.16145039  0.33089668  0.83158917  1
  I  I60  1  0.16395865  0.66338634  0.16554575  1
  I  I61  1  0.16300161  0.66742389  0.49870997  1
  I  I62  1  0.16480712  0.66671720  0.83388093  1
  I  I63  1  0.50190938  -0.00070637  0.16350428  1
  I  I64  1  0.49600104  -0.00481987  0.50847604  1
  I  I65  1  0.50440179  -0.00368073  0.82857239  1
  I  I66  1  0.50286307  0.33402294  0.16410267  1
  I  I67  1  0.49959859  0.33347055  0.50092558  1
  I  I68  1  0.50266888  0.33578749  0.83545641  1
  I  I69  1  0.49880642  0.66673562  0.16797837  1
  I  I70  1  0.50704788  0.67048602  0.50191257  1
  I  I71  1  0.50794425  0.66744639  0.82984949  1
  I  I72  1  0.83175207  -0.00298974  0.16495538  1
  I  I73  1  0.83512207  -0.00198037  0.50338710  1
  I  I74  1  0.83302585  -0.00108391  0.83247246  1
  I  I75  1  0.83735450  0.33684209  0.16266279  1
  I  I76  1  0.83756351  0.33120537  0.50417816  1
  I  I77  1  0.83380548  0.33382095  0.83347848  1
  I  I78  1  0.83668412  0.66665092  0.16351235  1
  I  I79  1  0.83257063  0.66989295  0.50239976  1
  I  I80  1  0.82934277  0.66708719  0.83327280  1
  I  I81  1  0.15916283  0.16695519  -0.00411722  1
  I  I82  1  0.16498384  0.16512424  0.33341706  1
  I  I83  1  0.16330990  0.16971765  0.66937807  1
  I  I84  1  0.16450086  0.49764998  0.00190350  1
  I  I85  1  0.15909239  0.50463003  0.33345872  1
  I  I86  1  0.16539110  0.50306623  0.66446891  1
  I  I87  1  0.16687818  0.83300281  0.00009680  1
  I  I88  1  0.16657607  0.83256272  0.33780346  1
  I  I89  1  0.16131052  0.82710448  0.66344675  1
  I  I90  1  0.50151505  0.16530370  -0.00077689  1
  I  I91  1  0.50132874  0.16619049  0.33400721  1
  I  I92  1  0.49769565  0.16971837  0.66688900  1
  I  I93  1  0.49930861  0.50564802  -0.00404795  1
  I  I94  1  0.50259116  0.50067680  0.33356810  1
  I  I95  1  0.50641229  0.50162231  0.67059969  1
  I  I96  1  0.50457970  0.83045544  -0.00362603  1
  I  I97  1  0.50197337  0.83388903  0.33645890  1
  I  I98  1  0.50567669  0.82961030  0.66721076  1
  I  I99  1  0.83589972  0.16433517  -0.00347978  1
  I  I100  1  0.83403386  0.16154750  0.33624029  1
  I  I101  1  0.83698282  0.16344351  0.66794790  1
  I  I102  1  0.83569580  0.50293740  -0.00098420  1
  I  I103  1  0.83685094  0.50319453  0.33096275  1
  I  I104  1  0.83220448  0.50197084  0.66960457  1
  I  I105  1  0.82887791  0.83331106  -0.00128949  1
  I  I106  1  0.83349170  0.83383456  0.33439845  1
  I  I107  1  0.83275906  0.83378111  0.66687358  1
  I  I108  1  -0.00039440  0.16459652  0.16746282  1
  I  I109  1  -0.00338213  0.16051071  0.50313019  1
  I  I110  1  -0.00258767  0.16745631  0.82961597  1
  I  I111  1  -0.00135355  0.50401263  0.16364625  1
  I  I112  1  0.00227063  0.50559161  0.50201174  1
  I  I113  1  -0.00305579  0.50239488  0.83402752  1
  I  I114  1  -0.00435706  0.83162232  0.16446533  1
  I  I115  1  -0.00133959  0.83309961  0.50083739  1
  I  I116  1  -0.00346090  0.83057079  0.83200597  1
  I  I117  1  0.33277639  0.16742162  0.16424230  1
  I  I118  1  0.33326339  0.16633469  0.50223328  1
  I  I119  1  0.33113241  0.16899472  0.83278293  1
  I  I120  1  0.33052612  0.49934672  0.16864604  1
  I  I121  1  0.32898485  0.50482781  0.49619308  1
  I  I122  1  0.33566840  0.50279631  0.83281501  1
  I  I123  1  0.33306578  0.83235808  0.16574270  1
  I  I124  1  0.33333495  0.82711675  0.50678672  1
  I  I125  1  0.33617381  0.82972037  0.82790301  1
  I  I126  1  0.66758010  0.16823891  0.16436576  1
  I  I127  1  0.67159254  0.16314201  0.50745722  1
  I  I128  1  0.67047858  0.16659547  0.83040368  1
  I  I129  1  0.67019186  0.50337870  0.16475179  1
  I  I130  1  0.66658413  0.49950540  0.49771724  1
  I  I131  1  0.66870513  0.49875636  0.83813743  1
  I  I132  1  0.67112294  0.82747592  0.17066184  1
  I  I133  1  0.66803510  0.83791814  0.50158423  1
  I  I134  1  0.66846736  0.83388463  0.82935558  1
