# generated using pymatgen
data_Cs27Sn14Pb13I81
_symmetry_space_group_name_H-M   'P 1'
_cell_length_a   18.97464472
_cell_length_b   18.98450715
_cell_length_c   18.96871802
_cell_angle_alpha   89.99979937
_cell_angle_beta   90.00031273
_cell_angle_gamma   90.00029872
_symmetry_Int_Tables_number   1
_chemical_formula_structural   Cs27Sn14Pb13I81
_chemical_formula_sum   'Cs27 Sn14 Pb13 I81'
_cell_volume   6832.99275775
_cell_formula_units_Z   1
loop_
 _symmetry_equiv_pos_site_id
 _symmetry_equiv_pos_as_xyz
  1  'x, y, z'
loop_
 _atom_site_type_symbol
 _atom_site_label
 _atom_site_symmetry_multiplicity
 _atom_site_fract_x
 _atom_site_fract_y
 _atom_site_fract_z
 _atom_site_occupancy
  Cs  Cs0  1  0.00195708  -0.00242804  0.00045383  1
  Cs  Cs1  1  -0.00297597  0.00303527  0.33155239  1
  Cs  Cs2  1  0.00095865  -0.00010981  0.66647231  1
  Cs  Cs3  1  0.00403652  0.33434351  0.00243955  1
  Cs  Cs4  1  0.00051380  0.33448940  0.33409005  1
  Cs  Cs5  1  -0.00015667  0.32821283  0.66281379  1
  Cs  Cs6  1  0.00007509  0.66889094  -0.00112541  1
  Cs  Cs7  1  -0.00398482  0.66214557  0.33152917  1
  Cs  Cs8  1  0.00097361  0.67212663  0.67050184  1
  Cs  Cs9  1  0.33267271  0.00160050  0.00091876  1
  Cs  Cs10  1  0.33766249  -0.00178161  0.33425538  1
  Cs  Cs11  1  0.33047566  -0.00617463  0.66520241  1
  Cs  Cs12  1  0.33273979  0.33294003  -0.00069470  1
  Cs  Cs13  1  0.33315333  0.33528611  0.33291549  1
  Cs  Cs14  1  0.33570546  0.33361772  0.66818087  1
  Cs  Cs15  1  0.33276324  0.66696961  0.00000823  1
  Cs  Cs16  1  0.33552033  0.66538256  0.33727899  1
  Cs  Cs17  1  0.33072001  0.67277508  0.66526430  1
  Cs  Cs18  1  0.66553568  0.00129911  0.00096529  1
  Cs  Cs19  1  0.66551379  -0.00215466  0.33207431  1
  Cs  Cs20  1  0.66925539  0.00515014  0.66969489  1
  Cs  Cs21  1  0.66432873  0.33412062  -0.00419686  1
  Cs  Cs22  1  0.66653826  0.33466368  0.33314690  1
  Cs  Cs23  1  0.66515676  0.33340475  0.67171699  1
  Cs  Cs24  1  0.66748395  0.66456557  -0.00123260  1
  Cs  Cs25  1  0.66651657  0.66691699  0.33332729  1
  Cs  Cs26  1  0.66752504  0.66259290  0.66634205  1
  Sn  Sn27  1  0.16675592  0.16757652  0.83378836  1
  Sn  Sn28  1  0.50075879  0.49904359  0.49921210  1
  Sn  Sn29  1  0.16630238  0.83378523  0.16724394  1
  Sn  Sn30  1  0.16646139  0.49907858  0.83312918  1
  Sn  Sn31  1  0.83259388  0.50062328  0.49939581  1
  Sn  Sn32  1  0.83310116  0.16708003  0.16658990  1
  Sn  Sn33  1  0.50063055  0.49928739  0.16712965  1
  Sn  Sn34  1  0.49993491  0.16738184  0.49924946  1
  Sn  Sn35  1  0.16686415  0.16579034  0.16645036  1
  Sn  Sn36  1  0.50061324  0.83331431  0.83354211  1
  Sn  Sn37  1  0.83311182  0.83280431  0.49928943  1
  Sn  Sn38  1  0.83232510  0.49976705  0.16700979  1
  Sn  Sn39  1  0.83413885  0.83316571  0.16729453  1
  Sn  Sn40  1  0.50001446  0.16774771  0.16734682  1
  Pb  Pb41  1  0.16341382  0.83332152  0.49638564  1
  Pb  Pb42  1  0.83119729  0.83332001  0.83362357  1
  Pb  Pb43  1  0.16942849  0.16666913  0.49912243  1
  Pb  Pb44  1  0.50043645  0.83300240  0.16564609  1
  Pb  Pb45  1  0.49785566  0.16494167  0.83349247  1
  Pb  Pb46  1  0.83103524  0.16714522  0.49787505  1
  Pb  Pb47  1  0.16631514  0.50000997  0.50271955  1
  Pb  Pb48  1  0.49812728  0.50160092  0.83314290  1
  Pb  Pb49  1  0.50262451  0.83316194  0.50214412  1
  Pb  Pb50  1  0.83582540  0.49976235  0.83311556  1
  Pb  Pb51  1  0.16813346  0.83389826  0.83553494  1
  Pb  Pb52  1  0.83629711  0.16678761  0.83636528  1
  Pb  Pb53  1  0.16681439  0.49996711  0.16576526  1
  I  I54  1  0.16388641  0.00120125  0.16027506  1
  I  I55  1  0.16766985  0.00000985  0.50601153  1
  I  I56  1  0.16883530  0.00268975  0.83726689  1
  I  I57  1  0.16489069  0.33056737  0.16389594  1
  I  I58  1  0.16163579  0.33331315  0.49610710  1
  I  I59  1  0.16796130  0.33235704  0.84137859  1
  I  I60  1  0.16339483  0.66875135  0.16354100  1
  I  I61  1  0.17297826  0.66669169  0.50154525  1
  I  I62  1  0.16837375  0.66503920  0.83494994  1
  I  I63  1  0.50148369  0.00278084  0.16864827  1
  I  I64  1  0.50019298  0.00244222  0.49578947  1
  I  I65  1  0.49788723  -0.00237764  0.83470958  1
  I  I66  1  0.50205080  0.33310228  0.16931478  1
  I  I67  1  0.50500965  0.33417879  0.49625208  1
  I  I68  1  0.49953344  0.33324889  0.83339529  1
  I  I69  1  0.50208239  0.66377406  0.16888300  1
  I  I70  1  0.50153638  0.66358045  0.49604706  1
  I  I71  1  0.49668267  0.66890804  0.83519356  1
  I  I72  1  0.83413206  -0.00001676  0.16998510  1
  I  I73  1  0.83200828  -0.00213080  0.49541520  1
  I  I74  1  0.83430131  0.00002403  0.83186533  1
  I  I75  1  0.83401516  0.33365906  0.17037280  1
  I  I76  1  0.83230634  0.33640242  0.49554574  1
  I  I77  1  0.83035901  0.33329571  0.83275514  1
  I  I78  1  0.83368267  0.66640117  0.17027290  1
  I  I79  1  0.82752491  0.66575222  0.49087611  1
  I  I80  1  0.83646738  0.66653751  0.83847988  1
  I  I81  1  0.16844375  0.16679034  0.00196531  1
  I  I82  1  0.16437740  0.16260638  0.32929712  1
  I  I83  1  0.16890643  0.17125580  0.66923725  1
  I  I84  1  0.16749547  0.49874863  -0.00191476  1
  I  I85  1  0.16711438  0.50022164  0.33336372  1
  I  I86  1  0.16781213  0.49383425  0.67053605  1
  I  I87  1  0.16053027  0.83452682  0.00339550  1
  I  I88  1  0.16823133  0.83983030  0.32846081  1
  I  I89  1  0.16674677  0.83365136  0.66669810  1
  I  I90  1  0.50172087  0.16944232  0.00358623  1
  I  I91  1  0.49767203  0.16944838  0.33146033  1
  I  I92  1  0.49942907  0.16996112  0.66408174  1
  I  I93  1  0.50327630  0.49698039  0.00310529  1
  I  I94  1  0.50271683  0.49684782  0.33258160  1
  I  I95  1  0.50410542  0.49656123  0.66351124  1
  I  I96  1  0.50046704  0.83335694  -0.00176316  1
  I  I97  1  0.49732209  0.83382850  0.33334901  1
  I  I98  1  0.49931561  0.83326583  0.66938505  1
  I  I99  1  0.82698929  0.16602900  0.00528498  1
  I  I100  1  0.83883686  0.16630014  0.32924621  1
  I  I101  1  0.83304916  0.16590879  0.66637187  1
  I  I102  1  0.82966226  0.50091255  0.00373890  1
  I  I103  1  0.83026687  0.50142909  0.33194817  1
  I  I104  1  0.82922069  0.50575947  0.66311709  1
  I  I105  1  0.83654587  0.83284488  0.00385614  1
  I  I106  1  0.83649629  0.83247191  0.33161694  1
  I  I107  1  0.83017503  0.82702048  0.66369468  1
  I  I108  1  -0.00012692  0.16555656  0.16148745  1
  I  I109  1  -0.00026008  0.16675370  0.50039972  1
  I  I110  1  0.00437872  0.16926415  0.83821534  1
  I  I111  1  -0.00292115  0.49816987  0.16955391  1
  I  I112  1  -0.00360993  0.50397711  0.49482524  1
  I  I113  1  0.00349689  0.49734823  0.83581545  1
  I  I114  1  -0.00094306  0.83632954  0.16855699  1
  I  I115  1  -0.00462549  0.82694071  0.50045324  1
  I  I116  1  0.00003596  0.83329094  0.83190853  1
  I  I117  1  0.33359915  0.16637702  0.16567480  1
  I  I118  1  0.33746304  0.17274075  0.49427677  1
  I  I119  1  0.33028650  0.16970135  0.84085477  1
  I  I120  1  0.33616427  0.49736914  0.16888992  1
  I  I121  1  0.33670549  0.49581120  0.49546006  1
  I  I122  1  0.33062295  0.49663422  0.83596170  1
  I  I123  1  0.33143579  0.83681817  0.16177185  1
  I  I124  1  0.33363677  0.83296394  0.50084447  1
  I  I125  1  0.33567442  0.83296976  0.83499736  1
  I  I126  1  0.66635417  0.16573001  0.17202187  1
  I  I127  1  0.66316742  0.16688577  0.49434811  1
  I  I128  1  0.66637700  0.16455152  0.83414724  1
  I  I129  1  0.66682721  0.49816030  0.16940615  1
  I  I130  1  0.66655047  0.50081513  0.49548539  1
  I  I131  1  0.66661159  0.50225825  0.83418393  1
  I  I132  1  0.66970193  0.83571404  0.16899536  1
  I  I133  1  0.67004497  0.83205966  0.49127330  1
  I  I134  1  0.66376860  0.83287669  0.83670727  1
