# generated using pymatgen
data_Cs27Sn13Pb14I81
_symmetry_space_group_name_H-M   'P 1'
_cell_length_a   18.98105242
_cell_length_b   18.99176199
_cell_length_c   19.00155100
_cell_angle_alpha   89.99888579
_cell_angle_beta   89.99848590
_cell_angle_gamma   90.00136627
_symmetry_Int_Tables_number   1
_chemical_formula_structural   Cs27Sn13Pb14I81
_chemical_formula_sum   'Cs27 Sn13 Pb14 I81'
_cell_volume   6849.74807472
_cell_formula_units_Z   1
loop_
 _symmetry_equiv_pos_site_id
 _symmetry_equiv_pos_as_xyz
  1  'x, y, z'
loop_
 _atom_site_type_symbol
 _atom_site_label
 _atom_site_symmetry_multiplicity
 _atom_site_fract_x
 _atom_site_fract_y
 _atom_site_fract_z
 _atom_site_occupancy
  Cs  Cs0  1  0.00168732  -0.00249279  0.00049939  1
  Cs  Cs1  1  0.00019481  -0.00142950  0.33263347  1
  Cs  Cs2  1  -0.00335980  -0.00157423  0.66744596  1
  Cs  Cs3  1  -0.00377394  0.33251741  0.00045287  1
  Cs  Cs4  1  0.00058099  0.33945464  0.33800258  1
  Cs  Cs5  1  0.00552710  0.33582538  0.66176784  1
  Cs  Cs6  1  0.00177402  0.66966054  0.00130992  1
  Cs  Cs7  1  0.00060591  0.66369758  0.33374556  1
  Cs  Cs8  1  0.00259933  0.66582316  0.66497759  1
  Cs  Cs9  1  0.32255199  0.00516634  0.00280679  1
  Cs  Cs10  1  0.33379043  0.00878093  0.33430845  1
  Cs  Cs11  1  0.33343246  0.00833775  0.66155978  1
  Cs  Cs12  1  0.33562176  0.32846204  -0.00573458  1
  Cs  Cs13  1  0.33176228  0.32784737  0.33324831  1
  Cs  Cs14  1  0.32530880  0.33032099  0.67336349  1
  Cs  Cs15  1  0.33178351  0.66583066  0.00066113  1
  Cs  Cs16  1  0.33798329  0.66736440  0.33148842  1
  Cs  Cs17  1  0.33356597  0.66356631  0.66836320  1
  Cs  Cs18  1  0.66891318  -0.00135759  0.00022236  1
  Cs  Cs19  1  0.66558024  -0.00167446  0.33481534  1
  Cs  Cs20  1  0.66837035  -0.00280016  0.66443456  1
  Cs  Cs21  1  0.66584931  0.33338280  -0.00140900  1
  Cs  Cs22  1  0.66742848  0.33769707  0.33049256  1
  Cs  Cs23  1  0.66637909  0.33337303  0.67254503  1
  Cs  Cs24  1  0.66606849  0.66724095  0.00129593  1
  Cs  Cs25  1  0.66431706  0.66548645  0.33200765  1
  Cs  Cs26  1  0.66519358  0.67010540  0.66753633  1
  Sn  Sn27  1  0.83265604  0.83384506  0.16689701  1
  Sn  Sn28  1  0.16666828  0.83307285  0.49967204  1
  Sn  Sn29  1  0.83421689  0.83351391  0.49960246  1
  Sn  Sn30  1  0.50003945  0.83376799  0.83474582  1
  Sn  Sn31  1  0.16822804  0.50015280  0.16643891  1
  Sn  Sn32  1  0.83346756  0.50075060  0.83313703  1
  Sn  Sn33  1  0.50027594  0.83323448  0.16531662  1
  Sn  Sn34  1  0.50002035  0.49946630  0.50002499  1
  Sn  Sn35  1  0.83299070  0.16572522  0.16715010  1
  Sn  Sn36  1  0.83310634  0.16643652  0.83310063  1
  Sn  Sn37  1  0.83275960  0.83303190  0.83354008  1
  Sn  Sn38  1  0.83269310  0.16626461  0.49972070  1
  Sn  Sn39  1  0.49867395  0.50042265  0.16723772  1
  Pb  Pb40  1  0.83264264  0.50048052  0.16497222  1
  Pb  Pb41  1  0.50225081  0.16627658  0.16656701  1
  Pb  Pb42  1  0.16379315  0.16421920  0.49979232  1
  Pb  Pb43  1  0.16722494  0.83337842  0.83099559  1
  Pb  Pb44  1  0.16712177  0.83215235  0.16870159  1
  Pb  Pb45  1  0.16972703  0.50215212  0.49806077  1
  Pb  Pb46  1  0.50004569  0.83241103  0.49982461  1
  Pb  Pb47  1  0.16345045  0.16636404  0.83335620  1
  Pb  Pb48  1  0.50216488  0.16292894  0.83352520  1
  Pb  Pb49  1  0.50290117  0.17017079  0.50014167  1
  Pb  Pb50  1  0.50156953  0.50178561  0.83391023  1
  Pb  Pb51  1  0.83153568  0.50046463  0.50235961  1
  Pb  Pb52  1  0.16325877  0.16975807  0.16681833  1
  Pb  Pb53  1  0.16405265  0.50036299  0.83603022  1
  I  I54  1  0.16859571  0.00011060  0.16746222  1
  I  I55  1  0.16621928  -0.00371570  0.49881525  1
  I  I56  1  0.16504455  -0.00031776  0.83493900  1
  I  I57  1  0.17131738  0.33738168  0.16776073  1
  I  I58  1  0.16494758  0.33338918  0.49890491  1
  I  I59  1  0.16496202  0.33349596  0.83258465  1
  I  I60  1  0.16409276  0.66435010  0.16778128  1
  I  I61  1  0.15652388  0.66958900  0.49995326  1
  I  I62  1  0.16122521  0.66686886  0.83244393  1
  I  I63  1  0.50436008  -0.00365033  0.16342263  1
  I  I64  1  0.49773464  -0.00004526  0.49999966  1
  I  I65  1  0.50776652  -0.00515577  0.83755700  1
  I  I66  1  0.49885386  0.33644618  0.17181914  1
  I  I67  1  0.50325820  0.33781111  0.49159412  1
  I  I68  1  0.50356583  0.33325497  0.83376289  1
  I  I69  1  0.50404859  0.66737404  0.16734680  1
  I  I70  1  0.50398688  0.66481304  0.49783524  1
  I  I71  1  0.50912070  0.66966769  0.83371106  1
  I  I72  1  0.82866241  -0.00158805  0.16327002  1
  I  I73  1  0.83633045  -0.00131463  0.50399306  1
  I  I74  1  0.82943858  -0.00092573  0.83283156  1
  I  I75  1  0.83412237  0.33115102  0.16570114  1
  I  I76  1  0.83034374  0.33080280  0.49943003  1
  I  I77  1  0.83355087  0.33285316  0.83505392  1
  I  I78  1  0.83250289  0.66980741  0.16664636  1
  I  I79  1  0.83526086  0.67001297  0.49967242  1
  I  I80  1  0.82943973  0.66828118  0.83388007  1
  I  I81  1  0.16366540  0.16575427  0.00030734  1
  I  I82  1  0.16349005  0.16627653  0.33328021  1
  I  I83  1  0.16529386  0.16752181  0.66638709  1
  I  I84  1  0.17260612  0.50287470  0.00366298  1
  I  I85  1  0.16410273  0.50157159  0.33039810  1
  I  I86  1  0.16698336  0.50039242  0.66656291  1
  I  I87  1  0.16326302  0.83189385  0.00024379  1
  I  I88  1  0.15958601  0.83124866  0.33610322  1
  I  I89  1  0.16011091  0.83206973  0.66335516  1
  I  I90  1  0.50411934  0.17275566  0.00009742  1
  I  I91  1  0.50402262  0.16169248  0.33331446  1
  I  I92  1  0.50387672  0.16595898  0.66675022  1
  I  I93  1  0.49860246  0.50311458  0.00317894  1
  I  I94  1  0.49981374  0.50760616  0.33182134  1
  I  I95  1  0.50546421  0.50371172  0.66493536  1
  I  I96  1  0.51187977  0.82568301  0.00095993  1
  I  I97  1  0.50511484  0.82944564  0.33050062  1
  I  I98  1  0.50600361  0.83043737  0.66873146  1
  I  I99  1  0.83312509  0.16440692  -0.00006100  1
  I  I100  1  0.83291045  0.15868966  0.33328047  1
  I  I101  1  0.83234602  0.16229422  0.66679720  1
  I  I102  1  0.83184609  0.50008050  -0.00274735  1
  I  I103  1  0.83483879  0.49925242  0.33325362  1
  I  I104  1  0.83006895  0.50089447  0.67000603  1
  I  I105  1  0.82883249  0.83513981  0.00008292  1
  I  I106  1  0.83291540  0.83985430  0.33301237  1
  I  I107  1  0.83264999  0.83581542  0.66699382  1
  I  I108  1  -0.00511977  0.16077218  0.16489038  1
  I  I109  1  -0.00482251  0.16699225  0.50080580  1
  I  I110  1  -0.00569173  0.16272740  0.83403445  1
  I  I111  1  0.00117759  0.49972487  0.16403664  1
  I  I112  1  -0.00016195  0.49796683  0.49933955  1
  I  I113  1  -0.00453194  0.50238047  0.83428265  1
  I  I114  1  -0.00341541  0.83534989  0.16372390  1
  I  I115  1  -0.00288598  0.83643000  0.50021940  1
  I  I116  1  -0.00402295  0.83462426  0.83628601  1
  I  I117  1  0.33324874  0.16332488  0.16734376  1
  I  I118  1  0.33323001  0.16429895  0.49936087  1
  I  I119  1  0.33346465  0.16629719  0.83301383  1
  I  I120  1  0.33494720  0.50918361  0.17120840  1
  I  I121  1  0.33732178  0.50576846  0.49867086  1
  I  I122  1  0.33351362  0.50302984  0.83075670  1
  I  I123  1  0.33665206  0.82860420  0.16329503  1
  I  I124  1  0.33139640  0.82802966  0.49996952  1
  I  I125  1  0.33672990  0.82915371  0.83730791  1
  I  I126  1  0.67089831  0.16770958  0.16604569  1
  I  I127  1  0.67127065  0.15724530  0.50046368  1
  I  I128  1  0.67124822  0.16930498  0.83373729  1
  I  I129  1  0.66421137  0.50167383  0.16931129  1
  I  I130  1  0.66430563  0.50293131  0.49176851  1
  I  I131  1  0.66992496  0.49829271  0.83580013  1
  I  I132  1  0.66802981  0.83061209  0.16805179  1
  I  I133  1  0.66998438  0.83618466  0.50070911  1
  I  I134  1  0.66901799  0.83299968  0.83170527  1
