# generated using pymatgen
data_Cs27Sn14Pb13I81
_symmetry_space_group_name_H-M   'P 1'
_cell_length_a   18.97207223
_cell_length_b   18.97117568
_cell_length_c   18.98575244
_cell_angle_alpha   90.00011376
_cell_angle_beta   90.00049576
_cell_angle_gamma   89.99953300
_symmetry_Int_Tables_number   1
_chemical_formula_structural   Cs27Sn14Pb13I81
_chemical_formula_sum   'Cs27 Sn14 Pb13 I81'
_cell_volume   6833.39977335
_cell_formula_units_Z   1
loop_
 _symmetry_equiv_pos_site_id
 _symmetry_equiv_pos_as_xyz
  1  'x, y, z'
loop_
 _atom_site_type_symbol
 _atom_site_label
 _atom_site_symmetry_multiplicity
 _atom_site_fract_x
 _atom_site_fract_y
 _atom_site_fract_z
 _atom_site_occupancy
  Cs  Cs0  1  0.00779993  -0.00835391  0.00246500  1
  Cs  Cs1  1  0.00449930  -0.00175342  0.33019639  1
  Cs  Cs2  1  0.00437906  0.00415862  0.66859075  1
  Cs  Cs3  1  -0.00038561  0.33408979  -0.00297467  1
  Cs  Cs4  1  -0.00028283  0.33299429  0.33423378  1
  Cs  Cs5  1  -0.00044247  0.33455110  0.67013708  1
  Cs  Cs6  1  0.00041084  0.67378824  -0.00689011  1
  Cs  Cs7  1  -0.00047861  0.66811464  0.33407626  1
  Cs  Cs8  1  -0.00805324  0.66480110  0.67147881  1
  Cs  Cs9  1  0.32761458  -0.00341395  -0.00027227  1
  Cs  Cs10  1  0.33051803  -0.00004169  0.33445478  1
  Cs  Cs11  1  0.33250347  -0.00317020  0.66651690  1
  Cs  Cs12  1  0.33650288  0.33479851  0.00089876  1
  Cs  Cs13  1  0.33463012  0.33557454  0.33376351  1
  Cs  Cs14  1  0.33298731  0.33348518  0.66555970  1
  Cs  Cs15  1  0.33310594  0.66529057  -0.00145433  1
  Cs  Cs16  1  0.33401829  0.66347771  0.33492759  1
  Cs  Cs17  1  0.33404177  0.66950753  0.66479967  1
  Cs  Cs18  1  0.66670676  0.00419517  0.00025065  1
  Cs  Cs19  1  0.66683969  0.00102440  0.33362045  1
  Cs  Cs20  1  0.66520874  -0.00148281  0.66654414  1
  Cs  Cs21  1  0.66459268  0.33115404  0.00191193  1
  Cs  Cs22  1  0.66518628  0.33297520  0.33188906  1
  Cs  Cs23  1  0.66731472  0.33192597  0.66710904  1
  Cs  Cs24  1  0.66690597  0.66877721  0.00050298  1
  Cs  Cs25  1  0.66805501  0.66729942  0.33458051  1
  Cs  Cs26  1  0.67331206  0.67476255  0.66560377  1
  Sn  Sn27  1  0.83349357  0.49944504  0.16666606  1
  Sn  Sn28  1  0.83257555  0.16704044  0.49958853  1
  Sn  Sn29  1  0.50001051  0.49962915  0.50058377  1
  Sn  Sn30  1  0.50021262  0.16631915  0.16672734  1
  Sn  Sn31  1  0.50027611  0.50018958  0.16676434  1
  Sn  Sn32  1  0.50016830  0.83348149  0.16691188  1
  Sn  Sn33  1  0.83254931  0.16680413  0.83406384  1
  Sn  Sn34  1  0.16614020  0.49968825  0.16712655  1
  Sn  Sn35  1  0.50031157  0.16763939  0.83333210  1
  Sn  Sn36  1  0.50066983  0.16741345  0.49993614  1
  Sn  Sn37  1  0.83304899  0.16757471  0.16645472  1
  Sn  Sn38  1  0.16696935  0.50102097  0.49939483  1
  Sn  Sn39  1  0.50036554  0.49963833  0.83263756  1
  Sn  Sn40  1  0.16646903  0.83159652  0.49992800  1
  Pb  Pb41  1  0.16738179  0.16697032  0.83362762  1
  Pb  Pb42  1  0.49899181  0.83340116  0.49798385  1
  Pb  Pb43  1  0.16928823  0.82991500  0.16841686  1
  Pb  Pb44  1  0.83302223  0.49812664  0.49821524  1
  Pb  Pb45  1  0.16673329  0.16923710  0.16661112  1
  Pb  Pb46  1  0.16906839  0.49985725  0.83284467  1
  Pb  Pb47  1  0.16700988  0.16783196  0.49988696  1
  Pb  Pb48  1  0.83028960  0.49802580  0.83622675  1
  Pb  Pb49  1  0.50012715  0.83368820  0.83585493  1
  Pb  Pb50  1  0.83116892  0.83364791  0.16680497  1
  Pb  Pb51  1  0.83622872  0.83681202  0.49970500  1
  Pb  Pb52  1  0.16696362  0.83283246  0.83007494  1
  Pb  Pb53  1  0.83286977  0.83710239  0.83348342  1
  I  I54  1  0.16687243  -0.00029300  0.16803173  1
  I  I55  1  0.16677755  -0.00159966  0.50063643  1
  I  I56  1  0.16821565  -0.00003160  0.83171780  1
  I  I57  1  0.17226509  0.33717053  0.17395657  1
  I  I58  1  0.16950122  0.33669288  0.49552574  1
  I  I59  1  0.16480278  0.33355608  0.83011542  1
  I  I60  1  0.16777258  0.66194906  0.16898803  1
  I  I61  1  0.17516027  0.66464900  0.49416177  1
  I  I62  1  0.16945803  0.66617305  0.83735562  1
  I  I63  1  0.50559593  0.00174305  0.16719674  1
  I  I64  1  0.50182380  0.00341244  0.49979576  1
  I  I65  1  0.50445665  0.00397076  0.83251489  1
  I  I66  1  0.50013823  0.33366729  0.16674616  1
  I  I67  1  0.49756387  0.33342218  0.49583559  1
  I  I68  1  0.50257514  0.33272308  0.83759819  1
  I  I69  1  0.49944385  0.66454965  0.16687185  1
  I  I70  1  0.49669383  0.66337779  0.49857157  1
  I  I71  1  0.49719665  0.66341704  0.83478825  1
  I  I72  1  0.82756258  0.00399255  0.16671459  1
  I  I73  1  0.82687958  0.00525599  0.49731997  1
  I  I74  1  0.82472517  0.00560426  0.83525512  1
  I  I75  1  0.82796228  0.33253011  0.16742659  1
  I  I76  1  0.83365238  0.32974271  0.50106775  1
  I  I77  1  0.83154191  0.32972468  0.83083029  1
  I  I78  1  0.83096340  0.66338932  0.16834860  1
  I  I79  1  0.83051571  0.66648359  0.49789050  1
  I  I80  1  0.83284749  0.66638240  0.83449369  1
  I  I81  1  0.16746712  0.16807800  0.00025517  1
  I  I82  1  0.16635416  0.16428418  0.33333832  1
  I  I83  1  0.16602378  0.16742822  0.66649183  1
  I  I84  1  0.16896794  0.49725369  0.00307667  1
  I  I85  1  0.17297931  0.50219445  0.33331708  1
  I  I86  1  0.17217558  0.50264862  0.66303109  1
  I  I87  1  0.16690875  0.83387474  0.00029415  1
  I  I88  1  0.16769285  0.83290327  0.33600771  1
  I  I89  1  0.17006655  0.82826547  0.66222828  1
  I  I90  1  0.50603159  0.17047260  0.00080068  1
  I  I91  1  0.50508820  0.16949973  0.33302357  1
  I  I92  1  0.50526791  0.17386553  0.66622972  1
  I  I93  1  0.49960754  0.49699117  0.00151537  1
  I  I94  1  0.49850271  0.49711576  0.33267737  1
  I  I95  1  0.49306131  0.49111323  0.66570610  1
  I  I96  1  0.49980920  0.83251693  0.00395627  1
  I  I97  1  0.49923435  0.83336899  0.33015888  1
  I  I98  1  0.49739453  0.83382099  0.66644662  1
  I  I99  1  0.82447532  0.17212918  0.00089046  1
  I  I100  1  0.82656436  0.17049657  0.33261549  1
  I  I101  1  0.82710703  0.16551149  0.66653309  1
  I  I102  1  0.83318850  0.49378734  0.00441706  1
  I  I103  1  0.82847390  0.49371402  0.33008899  1
  I  I104  1  0.83485638  0.49814476  0.66679518  1
  I  I105  1  0.83370429  0.83392014  0.00032103  1
  I  I106  1  0.83290531  0.83641356  0.33322153  1
  I  I107  1  0.83308323  0.83280599  0.66647034  1
  I  I108  1  -0.00346561  0.17145891  0.16779085  1
  I  I109  1  -0.00293342  0.16604281  0.49958969  1
  I  I110  1  -0.00336590  0.16646039  0.83185216  1
  I  I111  1  -0.00019988  0.49291921  0.17350738  1
  I  I112  1  0.00250734  0.50160513  0.49366294  1
  I  I113  1  -0.00047998  0.49828422  0.83350164  1
  I  I114  1  0.00035374  0.83483120  0.16742500  1
  I  I115  1  0.00399178  0.82706023  0.49808039  1
  I  I116  1  -0.00000958  0.83499630  0.83478664  1
  I  I117  1  0.33726766  0.16755014  0.16724294  1
  I  I118  1  0.33696280  0.16762929  0.49935031  1
  I  I119  1  0.33778021  0.17034173  0.83323586  1
  I  I120  1  0.33520872  0.49961266  0.16737996  1
  I  I121  1  0.33492734  0.49756631  0.49489453  1
  I  I122  1  0.33753286  0.49273950  0.83889406  1
  I  I123  1  0.33708679  0.83605857  0.16701555  1
  I  I124  1  0.33102189  0.83395776  0.49773561  1
  I  I125  1  0.33375773  0.83705015  0.83475149  1
  I  I126  1  0.66539354  0.17091872  0.16695261  1
  I  I127  1  0.66510640  0.17199475  0.49919954  1
  I  I128  1  0.66534842  0.17109509  0.83389553  1
  I  I129  1  0.66500249  0.49845137  0.16687121  1
  I  I130  1  0.66321262  0.49662311  0.49807848  1
  I  I131  1  0.66212740  0.49704496  0.83291421  1
  I  I132  1  0.66306519  0.82878359  0.16804127  1
  I  I133  1  0.66673689  0.83124499  0.49950085  1
  I  I134  1  0.66621218  0.82994652  0.83181392  1
