# generated using pymatgen
data_Cs27Sn13Pb14I81
_symmetry_space_group_name_H-M   'P 1'
_cell_length_a   18.98260183
_cell_length_b   18.96684070
_cell_length_c   18.98170182
_cell_angle_alpha   89.99900328
_cell_angle_beta   89.99904369
_cell_angle_gamma   89.99938058
_symmetry_Int_Tables_number   1
_chemical_formula_structural   Cs27Sn13Pb14I81
_chemical_formula_sum   'Cs27 Sn13 Pb14 I81'
_cell_volume   6834.17163755
_cell_formula_units_Z   1
loop_
 _symmetry_equiv_pos_site_id
 _symmetry_equiv_pos_as_xyz
  1  'x, y, z'
loop_
 _atom_site_type_symbol
 _atom_site_label
 _atom_site_symmetry_multiplicity
 _atom_site_fract_x
 _atom_site_fract_y
 _atom_site_fract_z
 _atom_site_occupancy
  Cs  Cs0  1  0.00267459  0.00128335  0.00123832  1
  Cs  Cs1  1  -0.00056996  -0.00140065  0.33344762  1
  Cs  Cs2  1  0.00049165  0.00051693  0.66646829  1
  Cs  Cs3  1  0.00204282  0.33315769  -0.00051855  1
  Cs  Cs4  1  0.00268083  0.34157137  0.33223406  1
  Cs  Cs5  1  -0.01042940  0.33382867  0.66821323  1
  Cs  Cs6  1  -0.00356568  0.66673372  0.00057061  1
  Cs  Cs7  1  0.00155150  0.66753750  0.33316782  1
  Cs  Cs8  1  0.00095712  0.66717713  0.66656182  1
  Cs  Cs9  1  0.33234118  0.00017990  -0.00227932  1
  Cs  Cs10  1  0.33282451  0.00068655  0.33515830  1
  Cs  Cs11  1  0.33332165  -0.00091979  0.66571021  1
  Cs  Cs12  1  0.32999262  0.33129778  -0.00070010  1
  Cs  Cs13  1  0.33105497  0.33746754  0.33239709  1
  Cs  Cs14  1  0.33547344  0.33535617  0.66700629  1
  Cs  Cs15  1  0.33805473  0.66811032  -0.00399500  1
  Cs  Cs16  1  0.33370873  0.66074899  0.33319823  1
  Cs  Cs17  1  0.33256045  0.66534831  0.66840867  1
  Cs  Cs18  1  0.66462030  -0.00199113  0.00401555  1
  Cs  Cs19  1  0.66762754  0.00026479  0.33312447  1
  Cs  Cs20  1  0.66627797  0.00146795  0.66418081  1
  Cs  Cs21  1  0.66811301  0.33434156  -0.00220888  1
  Cs  Cs22  1  0.66705101  0.33599642  0.33494387  1
  Cs  Cs23  1  0.67087274  0.33330865  0.66730823  1
  Cs  Cs24  1  0.66567594  0.66691178  0.00258386  1
  Cs  Cs25  1  0.66396356  0.66311251  0.33008079  1
  Cs  Cs26  1  0.66730597  0.66626878  0.66701808  1
  Sn  Sn27  1  0.50051898  0.16639990  0.16707302  1
  Sn  Sn28  1  0.49927034  0.49907345  0.83322574  1
  Sn  Sn29  1  0.16697501  0.16640473  0.50015723  1
  Sn  Sn30  1  0.49993942  0.16713669  0.83317521  1
  Sn  Sn31  1  0.83320435  0.83412034  0.83349141  1
  Sn  Sn32  1  0.83298725  0.16612727  0.16713256  1
  Sn  Sn33  1  0.16683018  0.49983346  0.83313290  1
  Sn  Sn34  1  0.16665670  0.83353300  0.16711853  1
  Sn  Sn35  1  0.83406052  0.83429804  0.16689021  1
  Sn  Sn36  1  0.16702269  0.83406554  0.49912668  1
  Sn  Sn37  1  0.49913900  0.16604642  0.49968342  1
  Sn  Sn38  1  0.83320931  0.83376530  0.49975556  1
  Sn  Sn39  1  0.49976026  0.83373525  0.49982711  1
  Pb  Pb40  1  0.16480733  0.83204884  0.83314996  1
  Pb  Pb41  1  0.50003223  0.49931858  0.50203134  1
  Pb  Pb42  1  0.83344702  0.16509070  0.49766133  1
  Pb  Pb43  1  0.83332519  0.50324031  0.49977238  1
  Pb  Pb44  1  0.16843839  0.16851470  0.83042552  1
  Pb  Pb45  1  0.16686203  0.50341715  0.16393181  1
  Pb  Pb46  1  0.50193488  0.83376163  0.83105586  1
  Pb  Pb47  1  0.83336568  0.49998638  0.16667257  1
  Pb  Pb48  1  0.83295364  0.50219601  0.83345082  1
  Pb  Pb49  1  0.16666873  0.49989302  0.50212988  1
  Pb  Pb50  1  0.49989589  0.49646755  0.16387298  1
  Pb  Pb51  1  0.16668787  0.16492090  0.16886671  1
  Pb  Pb52  1  0.49966283  0.83501783  0.16915897  1
  Pb  Pb53  1  0.83099308  0.16414392  0.83582619  1
  I  I54  1  0.16439060  -0.00330138  0.16746246  1
  I  I55  1  0.16801683  -0.00144678  0.49771952  1
  I  I56  1  0.16728362  -0.00000813  0.83449608  1
  I  I57  1  0.16573552  0.33318041  0.16809327  1
  I  I58  1  0.17384195  0.33017258  0.50025380  1
  I  I59  1  0.16852144  0.33631379  0.83244681  1
  I  I60  1  0.15963550  0.67155827  0.17430105  1
  I  I61  1  0.16610951  0.67045266  0.49758985  1
  I  I62  1  0.17355989  0.66428531  0.83186022  1
  I  I63  1  0.50166097  0.00317780  0.16173478  1
  I  I64  1  0.49961863  0.00035749  0.50291178  1
  I  I65  1  0.50248059  0.00293482  0.83419374  1
  I  I66  1  0.50581237  0.32812672  0.17299932  1
  I  I67  1  0.49458303  0.32938613  0.49786560  1
  I  I68  1  0.49621048  0.33234576  0.83177495  1
  I  I69  1  0.50086006  0.66683251  0.16644137  1
  I  I70  1  0.50039025  0.66984530  0.50182660  1
  I  I71  1  0.49786992  0.66476970  0.83076938  1
  I  I72  1  0.83224328  -0.00145303  0.16667375  1
  I  I73  1  0.83291905  -0.00364087  0.50166852  1
  I  I74  1  0.83261245  -0.00386986  0.83040979  1
  I  I75  1  0.82799138  0.32984570  0.16640858  1
  I  I76  1  0.83347342  0.33284688  0.49924806  1
  I  I77  1  0.83484244  0.33298859  0.83481317  1
  I  I78  1  0.83743907  0.67077193  0.16679054  1
  I  I79  1  0.83353190  0.67249645  0.49814444  1
  I  I80  1  0.83126656  0.67049614  0.83461413  1
  I  I81  1  0.16774227  0.16579842  0.00005563  1
  I  I82  1  0.17249139  0.16365199  0.33677456  1
  I  I83  1  0.17203991  0.15862804  0.66256534  1
  I  I84  1  0.17118626  0.50066480  -0.00367514  1
  I  I85  1  0.16568297  0.49896846  0.33339053  1
  I  I86  1  0.17196644  0.50357872  0.66961846  1
  I  I87  1  0.16124937  0.83161315  0.00248994  1
  I  I88  1  0.16147361  0.83710190  0.33448251  1
  I  I89  1  0.16565807  0.83515531  0.66339307  1
  I  I90  1  0.50537007  0.17104111  0.00005059  1
  I  I91  1  0.50069627  0.15939895  0.33406675  1
  I  I92  1  0.49523289  0.16603817  0.66597047  1
  I  I93  1  0.49656116  0.49765703  -0.00410696  1
  I  I94  1  0.50091736  0.50058880  0.33329780  1
  I  I95  1  0.49654963  0.49613995  0.66987543  1
  I  I96  1  0.50058327  0.83383668  0.00006622  1
  I  I97  1  0.50384847  0.83910934  0.33722144  1
  I  I98  1  0.49961031  0.83807948  0.66299813  1
  I  I99  1  0.82862008  0.16011421  0.00364089  1
  I  I100  1  0.82691924  0.15870816  0.33005010  1
  I  I101  1  0.83270182  0.16504392  0.66644995  1
  I  I102  1  0.83280394  0.50398948  -0.00013034  1
  I  I103  1  0.83338700  0.50128808  0.33314529  1
  I  I104  1  0.83333702  0.50147943  0.66691927  1
  I  I105  1  0.83775545  0.83604594  0.00116712  1
  I  I106  1  0.83471774  0.83788287  0.33326066  1
  I  I107  1  0.83299796  0.83163736  0.66562376  1
  I  I108  1  -0.00247601  0.16255967  0.16788372  1
  I  I109  1  0.00249867  0.16140508  0.49905929  1
  I  I110  1  -0.00014905  0.16826285  0.83312068  1
  I  I111  1  0.00018975  0.49553407  0.16337563  1
  I  I112  1  0.00019260  0.49835173  0.50409080  1
  I  I113  1  0.00228002  0.50369532  0.83243272  1
  I  I114  1  -0.00110480  0.83828103  0.17053233  1
  I  I115  1  0.00023578  0.83670611  0.49960901  1
  I  I116  1  -0.00311584  0.83055260  0.82957362  1
  I  I117  1  0.33619503  0.16487068  0.16488259  1
  I  I118  1  0.33456653  0.15758033  0.49910903  1
  I  I119  1  0.33700628  0.16618774  0.83809166  1
  I  I120  1  0.33340176  0.50084675  0.16805189  1
  I  I121  1  0.33340460  0.50543205  0.50012677  1
  I  I122  1  0.33428559  0.49797633  0.83227752  1
  I  I123  1  0.33080737  0.83477679  0.17075372  1
  I  I124  1  0.33305443  0.83793592  0.49668857  1
  I  I125  1  0.33358062  0.83384523  0.83367812  1
  I  I126  1  0.66618940  0.15963500  0.16752898  1
  I  I127  1  0.66356664  0.16230485  0.50191302  1
  I  I128  1  0.66273312  0.17244365  0.82747212  1
  I  I129  1  0.66648728  0.50570512  0.16386487  1
  I  I130  1  0.66646229  0.50021274  0.50347425  1
  I  I131  1  0.66364818  0.49635483  0.83256433  1
  I  I132  1  0.66937775  0.83541843  0.16698118  1
  I  I133  1  0.66659002  0.83754128  0.50138115  1
  I  I134  1  0.66976873  0.83195961  0.83417915  1
