# generated using pymatgen
data_Cs27Sn14Pb13I81
_symmetry_space_group_name_H-M   'P 1'
_cell_length_a   18.97855322
_cell_length_b   18.97335259
_cell_length_c   18.97312445
_cell_angle_alpha   90.00142925
_cell_angle_beta   90.00238757
_cell_angle_gamma   89.99949724
_symmetry_Int_Tables_number   1
_chemical_formula_structural   Cs27Sn14Pb13I81
_chemical_formula_sum   'Cs27 Sn14 Pb13 I81'
_cell_volume   6831.97131405
_cell_formula_units_Z   1
loop_
 _symmetry_equiv_pos_site_id
 _symmetry_equiv_pos_as_xyz
  1  'x, y, z'
loop_
 _atom_site_type_symbol
 _atom_site_label
 _atom_site_symmetry_multiplicity
 _atom_site_fract_x
 _atom_site_fract_y
 _atom_site_fract_z
 _atom_site_occupancy
  Cs  Cs0  1  0.00299334  -0.00351688  0.00033177  1
  Cs  Cs1  1  -0.00076253  0.00071730  0.33595573  1
  Cs  Cs2  1  -0.00180170  0.00071660  0.66440770  1
  Cs  Cs3  1  0.00122493  0.33093748  -0.00116263  1
  Cs  Cs4  1  -0.00581611  0.33123902  0.33172841  1
  Cs  Cs5  1  0.00121268  0.33679056  0.66903232  1
  Cs  Cs6  1  -0.00036409  0.66869688  0.00088990  1
  Cs  Cs7  1  0.00234957  0.66937639  0.33029514  1
  Cs  Cs8  1  -0.00001663  0.66308366  0.66754776  1
  Cs  Cs9  1  0.33171636  -0.00110334  0.00175675  1
  Cs  Cs10  1  0.33063736  0.00091386  0.33154393  1
  Cs  Cs11  1  0.33642448  0.00087765  0.66626063  1
  Cs  Cs12  1  0.33266232  0.32721080  -0.00090022  1
  Cs  Cs13  1  0.33859811  0.33475485  0.33481263  1
  Cs  Cs14  1  0.33131305  0.33426464  0.66576973  1
  Cs  Cs15  1  0.33091484  0.67158527  0.00087094  1
  Cs  Cs16  1  0.33219737  0.66410215  0.33464152  1
  Cs  Cs17  1  0.33611988  0.66335737  0.66282551  1
  Cs  Cs18  1  0.66455465  -0.00111830  -0.00345840  1
  Cs  Cs19  1  0.67051621  0.00291747  0.33889485  1
  Cs  Cs20  1  0.66569503  0.00081816  0.66543635  1
  Cs  Cs21  1  0.66658042  0.33554631  0.00204304  1
  Cs  Cs22  1  0.66710304  0.33428774  0.32349718  1
  Cs  Cs23  1  0.66794343  0.33171992  0.66896920  1
  Cs  Cs24  1  0.66824557  0.66531653  -0.00133387  1
  Cs  Cs25  1  0.66344473  0.66354878  0.33526777  1
  Cs  Cs26  1  0.66526087  0.66703226  0.66703553  1
  Sn  Sn27  1  0.16615771  0.83320285  0.83243902  1
  Sn  Sn28  1  0.16656774  0.83260202  0.16694613  1
  Sn  Sn29  1  0.50012560  0.49933754  0.83350694  1
  Sn  Sn30  1  0.83410967  0.83344424  0.83364693  1
  Sn  Sn31  1  0.83323179  0.50011714  0.50021016  1
  Sn  Sn32  1  0.16726212  0.16641863  0.50023161  1
  Sn  Sn33  1  0.16671674  0.83375883  0.50042831  1
  Sn  Sn34  1  0.16671934  0.49992744  0.16639714  1
  Sn  Sn35  1  0.49952770  0.16679533  0.50046501  1
  Sn  Sn36  1  0.50048272  0.83347583  0.16716886  1
  Sn  Sn37  1  0.50062251  0.16762159  0.83270874  1
  Sn  Sn38  1  0.83287769  0.16650145  0.83337476  1
  Sn  Sn39  1  0.83265638  0.50006294  0.83272221  1
  Sn  Sn40  1  0.83274309  0.83333802  0.16635477  1
  Pb  Pb41  1  0.83328877  0.16900575  0.50213856  1
  Pb  Pb42  1  0.83497484  0.50220564  0.16579641  1
  Pb  Pb43  1  0.16489373  0.49964894  0.49789098  1
  Pb  Pb44  1  0.49762106  0.83528015  0.49734747  1
  Pb  Pb45  1  0.83337324  0.16355612  0.16328777  1
  Pb  Pb46  1  0.16687420  0.16423593  0.83130760  1
  Pb  Pb47  1  0.16672275  0.50220565  0.83518586  1
  Pb  Pb48  1  0.50013014  0.16438504  0.16627919  1
  Pb  Pb49  1  0.49762975  0.50220707  0.16374218  1
  Pb  Pb50  1  0.50019954  0.83348346  0.83436386  1
  Pb  Pb51  1  0.16664073  0.16649692  0.16942010  1
  Pb  Pb52  1  0.83516078  0.83145063  0.50047144  1
  Pb  Pb53  1  0.50244960  0.49733187  0.50203010  1
  I  I54  1  0.16671876  -0.00381944  0.16432372  1
  I  I55  1  0.16888564  -0.00108237  0.49793979  1
  I  I56  1  0.16334024  -0.00395813  0.83898473  1
  I  I57  1  0.16578667  0.33587732  0.16683933  1
  I  I58  1  0.16943245  0.33068634  0.49930250  1
  I  I59  1  0.16405996  0.33328810  0.83419393  1
  I  I60  1  0.16616244  0.66942451  0.16825006  1
  I  I61  1  0.16391601  0.66952594  0.50037994  1
  I  I62  1  0.16294471  0.67055649  0.83058519  1
  I  I63  1  0.49564606  -0.00369339  0.16294835  1
  I  I64  1  0.50019059  0.00307956  0.50742922  1
  I  I65  1  0.50310007  0.00247092  0.83107870  1
  I  I66  1  0.49756250  0.33344155  0.16834151  1
  I  I67  1  0.49160754  0.32955359  0.50186261  1
  I  I68  1  0.50769547  0.33271784  0.83035370  1
  I  I69  1  0.50109557  0.67026046  0.16411514  1
  I  I70  1  0.49901482  0.66648751  0.50081606  1
  I  I71  1  0.50333138  0.66470014  0.83629445  1
  I  I72  1  0.83767076  -0.00480540  0.16290919  1
  I  I73  1  0.83257416  0.00007418  0.49997087  1
  I  I74  1  0.83322405  -0.00066423  0.83824281  1
  I  I75  1  0.83599861  0.33353131  0.16712188  1
  I  I76  1  0.83671064  0.33651868  0.50626626  1
  I  I77  1  0.82898469  0.33368445  0.82758281  1
  I  I78  1  0.83352269  0.67035616  0.16033064  1
  I  I79  1  0.83578348  0.66389466  0.50612190  1
  I  I80  1  0.83351126  0.66698443  0.83398889  1
  I  I81  1  0.16695810  0.16546100  -0.00025650  1
  I  I82  1  0.17212527  0.16030179  0.33728157  1
  I  I83  1  0.16749694  0.16080244  0.66361816  1
  I  I84  1  0.16470293  0.50803113  0.00280361  1
  I  I85  1  0.16451999  0.50776257  0.33035657  1
  I  I86  1  0.16747517  0.50220211  0.66682530  1
  I  I87  1  0.16557741  0.82905770  0.00037340  1
  I  I88  1  0.16649649  0.83356641  0.33260341  1
  I  I89  1  0.16093605  0.83810329  0.66700215  1
  I  I90  1  0.50470418  0.16926842  -0.00351347  1
  I  I91  1  0.49439398  0.16365109  0.33604989  1
  I  I92  1  0.49963784  0.16840646  0.66781521  1
  I  I93  1  0.50780740  0.49396418  -0.00397804  1
  I  I94  1  0.50133940  0.49923406  0.33320228  1
  I  I95  1  0.50023981  0.50123680  0.67021913  1
  I  I96  1  0.49470031  0.83504789  0.00226373  1
  I  I97  1  0.50062234  0.83453365  0.32933350  1
  I  I98  1  0.49907510  0.83196216  0.66652633  1
  I  I99  1  0.82752227  0.17231338  -0.00497824  1
  I  I100  1  0.83316355  0.16736509  0.33350857  1
  I  I101  1  0.83209857  0.16068588  0.67030693  1
  I  I102  1  0.83046927  0.49910145  -0.00352358  1
  I  I103  1  0.83679674  0.50128831  0.33504992  1
  I  I104  1  0.83181111  0.50273423  0.66891427  1
  I  I105  1  0.83857905  0.83198030  -0.00111827  1
  I  I106  1  0.83524023  0.83084854  0.33087469  1
  I  I107  1  0.83812571  0.83464066  0.67014133  1
  I  I108  1  0.00000619  0.16504577  0.16724079  1
  I  I109  1  0.00232802  0.16264412  0.50002303  1
  I  I110  1  -0.00267303  0.16885853  0.83226568  1
  I  I111  1  0.00265435  0.50775262  0.16529232  1
  I  I112  1  -0.00265734  0.49856728  0.50778718  1
  I  I113  1  -0.00298663  0.49806148  0.83091677  1
  I  I114  1  0.00067647  0.82937962  0.16479953  1
  I  I115  1  0.00340322  0.83930596  0.49568262  1
  I  I116  1  -0.00073545  0.83338468  0.83852479  1
  I  I117  1  0.33328940  0.16321963  0.16131274  1
  I  I118  1  0.33331132  0.16220087  0.50587550  1
  I  I119  1  0.33605148  0.16990422  0.83157999  1
  I  I120  1  0.33005373  0.50804697  0.16675166  1
  I  I121  1  0.33340988  0.50169196  0.50053721  1
  I  I122  1  0.33572276  0.49671616  0.83566787  1
  I  I123  1  0.33183903  0.83040138  0.16531357  1
  I  I124  1  0.32919136  0.83369460  0.50135838  1
  I  I125  1  0.33086144  0.83372476  0.83575392  1
  I  I126  1  0.66678346  0.16474796  0.17270614  1
  I  I127  1  0.66428792  0.16689154  0.50314013  1
  I  I128  1  0.66666945  0.16384484  0.82737592  1
  I  I129  1  0.66669377  0.50221709  0.16882084  1
  I  I130  1  0.67016251  0.50087215  0.50145914  1
  I  I131  1  0.66795907  0.50221413  0.83005035  1
  I  I132  1  0.66759461  0.83452931  0.15866997  1
  I  I133  1  0.66668239  0.83426677  0.49914639  1
  I  I134  1  0.66962713  0.83300330  0.83885022  1
