# generated using pymatgen
data_Cs27Sn14Pb13I81
_symmetry_space_group_name_H-M   'P 1'
_cell_length_a   18.97554289
_cell_length_b   18.97187510
_cell_length_c   18.98135800
_cell_angle_alpha   89.99975313
_cell_angle_beta   90.00083623
_cell_angle_gamma   89.99964519
_symmetry_Int_Tables_number   1
_chemical_formula_structural   Cs27Sn14Pb13I81
_chemical_formula_sum   'Cs27 Sn14 Pb13 I81'
_cell_volume   6833.31981127
_cell_formula_units_Z   1
loop_
 _symmetry_equiv_pos_site_id
 _symmetry_equiv_pos_as_xyz
  1  'x, y, z'
loop_
 _atom_site_type_symbol
 _atom_site_label
 _atom_site_symmetry_multiplicity
 _atom_site_fract_x
 _atom_site_fract_y
 _atom_site_fract_z
 _atom_site_occupancy
  Cs  Cs0  1  -0.00167269  0.00465507  0.00050551  1
  Cs  Cs1  1  0.00142581  0.00298944  0.33523778  1
  Cs  Cs2  1  0.00250129  -0.00060609  0.66498740  1
  Cs  Cs3  1  0.00159889  0.33135431  -0.00069176  1
  Cs  Cs4  1  -0.00238893  0.33004123  0.33395123  1
  Cs  Cs5  1  0.00029224  0.33535971  0.66874719  1
  Cs  Cs6  1  0.00221561  0.66577392  -0.00171778  1
  Cs  Cs7  1  -0.00113182  0.66817999  0.33496943  1
  Cs  Cs8  1  -0.00125117  0.66554565  0.66697876  1
  Cs  Cs9  1  0.33697002  -0.00376866  -0.00072862  1
  Cs  Cs10  1  0.32719589  0.00039535  0.33462855  1
  Cs  Cs11  1  0.33493621  0.00013134  0.66685260  1
  Cs  Cs12  1  0.32935065  0.33344709  0.00364177  1
  Cs  Cs13  1  0.33439588  0.33336613  0.33136844  1
  Cs  Cs14  1  0.33772874  0.33213720  0.66550508  1
  Cs  Cs15  1  0.32731971  0.67322943  0.00782969  1
  Cs  Cs16  1  0.33489553  0.66751661  0.32708331  1
  Cs  Cs17  1  0.33141231  0.66677194  0.66711821  1
  Cs  Cs18  1  0.66485197  -0.00054350  -0.00148646  1
  Cs  Cs19  1  0.66980012  0.00171329  0.33360514  1
  Cs  Cs20  1  0.66259574  -0.00057511  0.66831132  1
  Cs  Cs21  1  0.66740679  0.33285220  -0.00083967  1
  Cs  Cs22  1  0.66755934  0.33269308  0.33308805  1
  Cs  Cs23  1  0.66395104  0.33588265  0.66652099  1
  Cs  Cs24  1  0.66699225  0.66764089  0.00134383  1
  Cs  Cs25  1  0.66607242  0.66520397  0.33542899  1
  Cs  Cs26  1  0.66842656  0.66414353  0.66406908  1
  Sn  Sn27  1  0.83329310  0.50050851  0.49985670  1
  Sn  Sn28  1  0.83239055  0.83267683  0.50010406  1
  Sn  Sn29  1  0.83337055  0.50071731  0.16645039  1
  Sn  Sn30  1  0.49989385  0.50101981  0.50067036  1
  Sn  Sn31  1  0.16786373  0.16670825  0.16580550  1
  Sn  Sn32  1  0.16645705  0.16679076  0.83361181  1
  Sn  Sn33  1  0.83326549  0.83316399  0.83309015  1
  Sn  Sn34  1  0.83373631  0.16678594  0.83288319  1
  Sn  Sn35  1  0.49925072  0.16665658  0.16662778  1
  Sn  Sn36  1  0.83262569  0.50010481  0.83365725  1
  Sn  Sn37  1  0.50083839  0.83249788  0.49992189  1
  Sn  Sn38  1  0.16683129  0.50000042  0.49992151  1
  Sn  Sn39  1  0.49996872  0.50053573  0.83383049  1
  Sn  Sn40  1  0.83327695  0.83245943  0.16677736  1
  Pb  Pb41  1  0.16368651  0.83596280  0.16666547  1
  Pb  Pb42  1  0.49987645  0.16884340  0.83508576  1
  Pb  Pb43  1  0.16660126  0.83065461  0.50003980  1
  Pb  Pb44  1  0.83312288  0.16649531  0.50328049  1
  Pb  Pb45  1  0.50207544  0.83014461  0.83143253  1
  Pb  Pb46  1  0.50248477  0.83556435  0.16932929  1
  Pb  Pb47  1  0.83343493  0.16663051  0.16467629  1
  Pb  Pb48  1  0.50015251  0.16660795  0.49786731  1
  Pb  Pb49  1  0.50197778  0.49893938  0.16642990  1
  Pb  Pb50  1  0.16707129  0.49845754  0.83189940  1
  Pb  Pb51  1  0.16368444  0.49825494  0.16893605  1
  Pb  Pb52  1  0.16664223  0.16903281  0.50060136  1
  Pb  Pb53  1  0.16433492  0.83596027  0.83325723  1
  I  I54  1  0.16788349  0.00406700  0.16396822  1
  I  I55  1  0.16595517  -0.00005017  0.49926890  1
  I  I56  1  0.16073235  0.00430787  0.83644532  1
  I  I57  1  0.16696636  0.33031856  0.16315419  1
  I  I58  1  0.16474269  0.33701917  0.50010907  1
  I  I59  1  0.15888666  0.33054425  0.83638284  1
  I  I60  1  0.16779526  0.66656060  0.16774175  1
  I  I61  1  0.16412423  0.66271641  0.50142464  1
  I  I62  1  0.16550655  0.66648520  0.83127893  1
  I  I63  1  0.49910803  0.00330500  0.16672929  1
  I  I64  1  0.50689420  -0.00310411  0.49823522  1
  I  I65  1  0.50127921  -0.00012570  0.83210761  1
  I  I66  1  0.50002729  0.33101438  0.16865516  1
  I  I67  1  0.50189389  0.33699000  0.50288085  1
  I  I68  1  0.50793801  0.33661540  0.82555285  1
  I  I69  1  0.49955761  0.66678571  0.16512116  1
  I  I70  1  0.50304615  0.66517418  0.50348421  1
  I  I71  1  0.50716322  0.66212657  0.83128978  1
  I  I72  1  0.83335239  -0.00251246  0.16737377  1
  I  I73  1  0.82895843  -0.00352433  0.49843812  1
  I  I74  1  0.83866655  -0.00020255  0.83438837  1
  I  I75  1  0.83318906  0.33592900  0.16768375  1
  I  I76  1  0.83239662  0.33695327  0.49865573  1
  I  I77  1  0.83380338  0.33444978  0.83385219  1
  I  I78  1  0.83229704  0.66616473  0.16346414  1
  I  I79  1  0.83326798  0.66557313  0.50336196  1
  I  I80  1  0.82852401  0.66590847  0.83258579  1
  I  I81  1  0.16413156  0.16908466  -0.00026991  1
  I  I82  1  0.16996437  0.16782398  0.33069110  1
  I  I83  1  0.16001650  0.16807304  0.66966695  1
  I  I84  1  0.16591274  0.49917439  0.00018218  1
  I  I85  1  0.16679568  0.49755699  0.33690506  1
  I  I86  1  0.16131607  0.49750510  0.66388745  1
  I  I87  1  0.16520055  0.82972115  0.00001642  1
  I  I88  1  0.16308181  0.83694619  0.33341701  1
  I  I89  1  0.16380959  0.83692924  0.66653525  1
  I  I90  1  0.50065690  0.16916310  0.00270876  1
  I  I91  1  0.49513911  0.16922408  0.33011702  1
  I  I92  1  0.49983969  0.16573704  0.66679130  1
  I  I93  1  0.50778492  0.49520722  -0.00254638  1
  I  I94  1  0.50173677  0.50167814  0.33651142  1
  I  I95  1  0.50586209  0.50105044  0.66566655  1
  I  I96  1  0.50205398  0.83370122  0.00011360  1
  I  I97  1  0.50692597  0.82577917  0.33708747  1
  I  I98  1  0.50651159  0.83323977  0.66334391  1
  I  I99  1  0.83442033  0.16775390  -0.00317786  1
  I  I100  1  0.83439815  0.16713268  0.33328530  1
  I  I101  1  0.83923117  0.16786569  0.67132994  1
  I  I102  1  0.82841148  0.50146626  -0.00102724  1
  I  I103  1  0.83340787  0.50551459  0.33426390  1
  I  I104  1  0.83328826  0.50138846  0.66645069  1
  I  I105  1  0.83486060  0.83095355  -0.00036985  1
  I  I106  1  0.82976752  0.82634380  0.33404681  1
  I  I107  1  0.83027487  0.83056865  0.66634995  1
  I  I108  1  0.00174829  0.16696725  0.16406324  1
  I  I109  1  -0.00026490  0.16702656  0.49487155  1
  I  I110  1  -0.00129229  0.16877691  0.83961080  1
  I  I111  1  -0.00471865  0.50083375  0.16550650  1
  I  I112  1  -0.00209436  0.50252903  0.50043563  1
  I  I113  1  -0.00361700  0.50123602  0.83195663  1
  I  I114  1  -0.00484861  0.83133209  0.16986446  1
  I  I115  1  -0.00379232  0.82961951  0.50019657  1
  I  I116  1  -0.00502863  0.82719060  0.82993518  1
  I  I117  1  0.33269262  0.16920363  0.16148964  1
  I  I118  1  0.33341391  0.16706292  0.50393340  1
  I  I119  1  0.33087861  0.17050474  0.83527085  1
  I  I120  1  0.33323972  0.49835371  0.16740062  1
  I  I121  1  0.33465126  0.50184164  0.50605443  1
  I  I122  1  0.33615231  0.49523663  0.82605109  1
  I  I123  1  0.33349738  0.83304432  0.16857889  1
  I  I124  1  0.33647183  0.82959060  0.49981277  1
  I  I125  1  0.33373493  0.83413442  0.83090041  1
  I  I126  1  0.66531017  0.16721181  0.16631594  1
  I  I127  1  0.66679570  0.17105209  0.49793761  1
  I  I128  1  0.66955395  0.16568674  0.83523023  1
  I  I129  1  0.67041407  0.49985735  0.17051658  1
  I  I130  1  0.66765312  0.50361537  0.50103532  1
  I  I131  1  0.66892196  0.49724819  0.82821908  1
  I  I132  1  0.67075564  0.83248327  0.16433509  1
  I  I133  1  0.66835894  0.82518498  0.50018369  1
  I  I134  1  0.67099815  0.83939866  0.83566576  1
