# generated using pymatgen
data_Cs27Sn14Pb13I81
_symmetry_space_group_name_H-M   'P 1'
_cell_length_a   18.98598792
_cell_length_b   18.96519890
_cell_length_c   18.97717545
_cell_angle_alpha   89.99933157
_cell_angle_beta   90.00008322
_cell_angle_gamma   90.00004026
_symmetry_Int_Tables_number   1
_chemical_formula_structural   Cs27Sn14Pb13I81
_chemical_formula_sum   'Cs27 Sn14 Pb13 I81'
_cell_volume   6833.16920189
_cell_formula_units_Z   1
loop_
 _symmetry_equiv_pos_site_id
 _symmetry_equiv_pos_as_xyz
  1  'x, y, z'
loop_
 _atom_site_type_symbol
 _atom_site_label
 _atom_site_symmetry_multiplicity
 _atom_site_fract_x
 _atom_site_fract_y
 _atom_site_fract_z
 _atom_site_occupancy
  Cs  Cs0  1  0.01153263  -0.00179883  -0.00266527  1
  Cs  Cs1  1  -0.00434725  0.00031775  0.33548865  1
  Cs  Cs2  1  -0.00069315  0.00779991  0.66696199  1
  Cs  Cs3  1  -0.00202138  0.33344720  0.00339855  1
  Cs  Cs4  1  0.00320841  0.33354303  0.33011310  1
  Cs  Cs5  1  -0.00165454  0.33228870  0.66666950  1
  Cs  Cs6  1  0.00208366  0.66720661  -0.00226853  1
  Cs  Cs7  1  -0.00103799  0.66745759  0.33520689  1
  Cs  Cs8  1  0.00101909  0.66603042  0.66672548  1
  Cs  Cs9  1  0.32347362  -0.00372824  -0.00139781  1
  Cs  Cs10  1  0.33217203  0.00165902  0.33326171  1
  Cs  Cs11  1  0.33253117  0.00402495  0.66796609  1
  Cs  Cs12  1  0.33389596  0.33307997  0.00327433  1
  Cs  Cs13  1  0.33199050  0.33252405  0.33241827  1
  Cs  Cs14  1  0.33617220  0.33165864  0.66460015  1
  Cs  Cs15  1  0.33315393  0.66873631  -0.00119524  1
  Cs  Cs16  1  0.33511649  0.66545219  0.33693717  1
  Cs  Cs17  1  0.33353604  0.66609998  0.66568897  1
  Cs  Cs18  1  0.66582217  0.00049358  0.00235895  1
  Cs  Cs19  1  0.67063906  -0.00308079  0.33160824  1
  Cs  Cs20  1  0.66799777  0.00675110  0.66618972  1
  Cs  Cs21  1  0.66730741  0.33399968  0.00130307  1
  Cs  Cs22  1  0.66559127  0.33475380  0.32949507  1
  Cs  Cs23  1  0.66553147  0.33177846  0.66842140  1
  Cs  Cs24  1  0.66571093  0.66551482  -0.00216150  1
  Cs  Cs25  1  0.66619047  0.66840059  0.33389929  1
  Cs  Cs26  1  0.66548903  0.66531679  0.66776420  1
  Sn  Sn27  1  0.83232341  0.83276726  0.83320180  1
  Sn  Sn28  1  0.83333269  0.50061659  0.83328252  1
  Sn  Sn29  1  0.16683514  0.50053339  0.50113728  1
  Sn  Sn30  1  0.83300930  0.50018710  0.50004344  1
  Sn  Sn31  1  0.50079616  0.49963113  0.16662431  1
  Sn  Sn32  1  0.49977226  0.50037734  0.83333465  1
  Sn  Sn33  1  0.50113282  0.83273150  0.83214038  1
  Sn  Sn34  1  0.83243379  0.16714261  0.16609227  1
  Sn  Sn35  1  0.49948923  0.83271606  0.50129040  1
  Sn  Sn36  1  0.50077846  0.16699831  0.16636657  1
  Sn  Sn37  1  0.83237162  0.49999756  0.16663081  1
  Sn  Sn38  1  0.16695225  0.50001493  0.83243135  1
  Sn  Sn39  1  0.50022361  0.50036004  0.50006776  1
  Sn  Sn40  1  0.16736402  0.83245215  0.50029233  1
  Pb  Pb41  1  0.16682120  0.17054317  0.83313286  1
  Pb  Pb42  1  0.49992163  0.83292606  0.16658276  1
  Pb  Pb43  1  0.83299441  0.16994475  0.49731338  1
  Pb  Pb44  1  0.16681897  0.50043271  0.16695034  1
  Pb  Pb45  1  0.16677117  0.16698533  0.50005481  1
  Pb  Pb46  1  0.16695616  0.83120060  0.83074960  1
  Pb  Pb47  1  0.16653586  0.16682242  0.16681587  1
  Pb  Pb48  1  0.83281521  0.83138843  0.50266217  1
  Pb  Pb49  1  0.83317585  0.16680672  0.83595689  1
  Pb  Pb50  1  0.50020720  0.16636213  0.49759518  1
  Pb  Pb51  1  0.83334886  0.83264755  0.16362678  1
  Pb  Pb52  1  0.16663698  0.83276093  0.17048885  1
  Pb  Pb53  1  0.49997523  0.16631030  0.83596108  1
  I  I54  1  0.16714445  0.00000302  0.16678208  1
  I  I55  1  0.17281848  -0.00335598  0.49888835  1
  I  I56  1  0.16625211  -0.00047278  0.83299532  1
  I  I57  1  0.16696343  0.33391375  0.16834109  1
  I  I58  1  0.16736362  0.33768120  0.50294412  1
  I  I59  1  0.16636103  0.33908100  0.82695921  1
  I  I60  1  0.16625933  0.66601874  0.16372426  1
  I  I61  1  0.16804757  0.66466234  0.50328050  1
  I  I62  1  0.16602730  0.66291121  0.83208516  1
  I  I63  1  0.50537335  0.00265376  0.16779809  1
  I  I64  1  0.49405355  -0.00362199  0.50359243  1
  I  I65  1  0.50518593  -0.00365793  0.82916661  1
  I  I66  1  0.50373827  0.33590089  0.16666505  1
  I  I67  1  0.49939811  0.33726818  0.50290697  1
  I  I68  1  0.50105544  0.33725866  0.83020976  1
  I  I69  1  0.50474054  0.66297157  0.16703424  1
  I  I70  1  0.49915174  0.66477121  0.49794175  1
  I  I71  1  0.50088164  0.66479070  0.83513442  1
  I  I72  1  0.82759751  0.00271601  0.16636507  1
  I  I73  1  0.83457628  -0.00018447  0.49963613  1
  I  I74  1  0.82788059  -0.00308167  0.83379739  1
  I  I75  1  0.82929512  0.33574156  0.16520316  1
  I  I76  1  0.83301606  0.33889782  0.50632736  1
  I  I77  1  0.83269638  0.33746006  0.83127023  1
  I  I78  1  0.82831708  0.66265742  0.16884607  1
  I  I79  1  0.83348941  0.66255004  0.49425210  1
  I  I80  1  0.83230217  0.66417714  0.83580788  1
  I  I81  1  0.16688813  0.16674877  0.00007807  1
  I  I82  1  0.16684226  0.16912969  0.33336783  1
  I  I83  1  0.16622898  0.16531796  0.66653636  1
  I  I84  1  0.16643769  0.49949041  -0.00299836  1
  I  I85  1  0.16660249  0.50308587  0.33681229  1
  I  I86  1  0.16611219  0.50399318  0.66607457  1
  I  I87  1  0.16699484  0.83349625  -0.00069006  1
  I  I88  1  0.17321775  0.82511267  0.33858810  1
  I  I89  1  0.16855079  0.82817781  0.66322513  1
  I  I90  1  0.50527915  0.17315022  0.00372620  1
  I  I91  1  0.50363473  0.17235890  0.32975958  1
  I  I92  1  0.49867501  0.16962202  0.66673095  1
  I  I93  1  0.50242351  0.49987807  -0.00052110  1
  I  I94  1  0.50198893  0.50014344  0.33382481  1
  I  I95  1  0.50165557  0.50436514  0.66668617  1
  I  I96  1  0.50478833  0.82909480  -0.00323713  1
  I  I97  1  0.49547437  0.82926082  0.33643246  1
  I  I98  1  0.49970428  0.82346393  0.66671796  1
  I  I99  1  0.82774885  0.17501487  0.00360862  1
  I  I100  1  0.82915730  0.17133868  0.32932826  1
  I  I101  1  0.83521770  0.16733497  0.66687412  1
  I  I102  1  0.83091344  0.49931368  -0.00034843  1
  I  I103  1  0.83115377  0.49549618  0.33335218  1
  I  I104  1  0.83196736  0.50520098  0.66706923  1
  I  I105  1  0.82616904  0.82625472  -0.00419311  1
  I  I106  1  0.83391344  0.83305684  0.33357840  1
  I  I107  1  0.83214777  0.82528144  0.67034745  1
  I  I108  1  -0.00345225  0.17372968  0.16677381  1
  I  I109  1  -0.00015599  0.16594634  0.49682395  1
  I  I110  1  -0.00017164  0.16527831  0.83660468  1
  I  I111  1  -0.00330381  0.49551501  0.16656771  1
  I  I112  1  0.00000248  0.50339993  0.50207562  1
  I  I113  1  -0.00094438  0.50356429  0.83141247  1
  I  I114  1  -0.00026493  0.83340732  0.16569681  1
  I  I115  1  0.00209986  0.82753737  0.49968802  1
  I  I116  1  -0.00222997  0.82801596  0.83453450  1
  I  I117  1  0.33666844  0.17294746  0.16742774  1
  I  I118  1  0.33358918  0.17183021  0.49606142  1
  I  I119  1  0.33359079  0.16616158  0.83718410  1
  I  I120  1  0.33683948  0.49604057  0.16660774  1
  I  I121  1  0.33412780  0.50341755  0.50172074  1
  I  I122  1  0.33451527  0.50339475  0.83183672  1
  I  I123  1  0.33364823  0.83387195  0.16063032  1
  I  I124  1  0.33463846  0.82356836  0.50429811  1
  I  I125  1  0.33637740  0.82884299  0.83321044  1
  I  I126  1  0.66652494  0.17347477  0.16665277  1
  I  I127  1  0.66660293  0.16571813  0.50169259  1
  I  I128  1  0.66658568  0.17059717  0.83167791  1
  I  I129  1  0.66635555  0.49602539  0.16684194  1
  I  I130  1  0.66604586  0.50334531  0.50087855  1
  I  I131  1  0.66644355  0.50341694  0.83205665  1
  I  I132  1  0.66660015  0.83389043  0.17211627  1
  I  I133  1  0.66358487  0.82817720  0.50044199  1
  I  I134  1  0.66560340  0.82360689  0.82891224  1
