# generated using pymatgen
data_Cs27Sn13Pb14I81
_symmetry_space_group_name_H-M   'P 1'
_cell_length_a   18.97805452
_cell_length_b   18.98104352
_cell_length_c   18.97189770
_cell_angle_alpha   90.00070353
_cell_angle_beta   89.99854655
_cell_angle_gamma   90.00137796
_symmetry_Int_Tables_number   1
_chemical_formula_structural   Cs27Sn13Pb14I81
_chemical_formula_sum   'Cs27 Sn13 Pb14 I81'
_cell_volume   6834.11918658
_cell_formula_units_Z   1
loop_
 _symmetry_equiv_pos_site_id
 _symmetry_equiv_pos_as_xyz
  1  'x, y, z'
loop_
 _atom_site_type_symbol
 _atom_site_label
 _atom_site_symmetry_multiplicity
 _atom_site_fract_x
 _atom_site_fract_y
 _atom_site_fract_z
 _atom_site_occupancy
  Cs  Cs0  1  0.00387862  0.00121276  0.00771882  1
  Cs  Cs1  1  -0.00752499  -0.00665825  0.32852271  1
  Cs  Cs2  1  -0.00344158  0.00009426  0.66404378  1
  Cs  Cs3  1  0.00293913  0.33403133  -0.00112988  1
  Cs  Cs4  1  -0.00360813  0.33485468  0.33430450  1
  Cs  Cs5  1  0.00126693  0.33340770  0.66711401  1
  Cs  Cs6  1  -0.00390085  0.66460253  -0.00245857  1
  Cs  Cs7  1  0.00506552  0.66936896  0.33590750  1
  Cs  Cs8  1  -0.00047675  0.66870714  0.66613804  1
  Cs  Cs9  1  0.32918473  0.00158383  0.00198544  1
  Cs  Cs10  1  0.33153856  -0.00230535  0.32752977  1
  Cs  Cs11  1  0.33636222  0.00210236  0.66878226  1
  Cs  Cs12  1  0.33153756  0.33239739  0.00033928  1
  Cs  Cs13  1  0.33545890  0.33504808  0.33583064  1
  Cs  Cs14  1  0.33364057  0.33231356  0.66670224  1
  Cs  Cs15  1  0.33489295  0.66608698  -0.00037884  1
  Cs  Cs16  1  0.33010553  0.66807635  0.33297175  1
  Cs  Cs17  1  0.33389327  0.66662039  0.66614267  1
  Cs  Cs18  1  0.66865651  -0.00156886  0.00512261  1
  Cs  Cs19  1  0.67531313  0.00206277  0.32847784  1
  Cs  Cs20  1  0.66449523  0.00162989  0.66573235  1
  Cs  Cs21  1  0.66553640  0.33526693  -0.00007032  1
  Cs  Cs22  1  0.66782209  0.33328353  0.33262775  1
  Cs  Cs23  1  0.66612223  0.33291919  0.66649938  1
  Cs  Cs24  1  0.66872049  0.66694141  -0.00094071  1
  Cs  Cs25  1  0.66434428  0.66397900  0.32991912  1
  Cs  Cs26  1  0.66604387  0.66670717  0.66952244  1
  Sn  Sn27  1  0.49909299  0.83348839  0.83271956  1
  Sn  Sn28  1  0.50113570  0.16663729  0.83314393  1
  Sn  Sn29  1  0.49900585  0.16614218  0.50025059  1
  Sn  Sn30  1  0.50080171  0.50022845  0.50093460  1
  Sn  Sn31  1  0.16603859  0.49966697  0.16596021  1
  Sn  Sn32  1  0.83257617  0.16657379  0.83333449  1
  Sn  Sn33  1  0.50009412  0.83369310  0.50034198  1
  Sn  Sn34  1  0.83437968  0.49979348  0.16766522  1
  Sn  Sn35  1  0.16703142  0.16614778  0.49966184  1
  Sn  Sn36  1  0.16726116  0.83274656  0.83271947  1
  Sn  Sn37  1  0.83253256  0.50021018  0.49962294  1
  Sn  Sn38  1  0.49907139  0.49991319  0.83247273  1
  Sn  Sn39  1  0.16759228  0.50091508  0.83373629  1
  Pb  Pb40  1  0.16896159  0.83640657  0.50232350  1
  Pb  Pb41  1  0.83331510  0.49861762  0.83299178  1
  Pb  Pb42  1  0.16673224  0.16923091  0.17046340  1
  Pb  Pb43  1  0.49986155  0.16673376  0.16691265  1
  Pb  Pb44  1  0.83321270  0.83641485  0.83331590  1
  Pb  Pb45  1  0.16687716  0.83048536  0.16380239  1
  Pb  Pb46  1  0.49993241  0.83333312  0.16638412  1
  Pb  Pb47  1  0.83024815  0.83031297  0.50035145  1
  Pb  Pb48  1  0.83334283  0.16934231  0.16371460  1
  Pb  Pb49  1  0.16702199  0.16646740  0.83206648  1
  Pb  Pb50  1  0.83280398  0.16842539  0.50139448  1
  Pb  Pb51  1  0.16710210  0.49896058  0.50054817  1
  Pb  Pb52  1  0.49970268  0.49992005  0.16661947  1
  Pb  Pb53  1  0.83336480  0.82992733  0.16656346  1
  I  I54  1  0.16730114  -0.00013232  0.16499529  1
  I  I55  1  0.17255728  0.00397238  0.50482765  1
  I  I56  1  0.17061810  -0.00226825  0.82973001  1
  I  I57  1  0.16392724  0.33731774  0.15804684  1
  I  I58  1  0.17279113  0.33138172  0.50302488  1
  I  I59  1  0.16947433  0.33606961  0.83559932  1
  I  I60  1  0.16342543  0.66235970  0.16730739  1
  I  I61  1  0.16675493  0.66674267  0.49804504  1
  I  I62  1  0.17410839  0.66535270  0.83644483  1
  I  I63  1  0.49984378  0.00000693  0.16602359  1
  I  I64  1  0.49382292  0.00057738  0.50912639  1
  I  I65  1  0.49979122  0.00008830  0.82628550  1
  I  I66  1  0.49991712  0.33364670  0.16586237  1
  I  I67  1  0.49973996  0.33371681  0.50595193  1
  I  I68  1  0.50010009  0.33389379  0.82792103  1
  I  I69  1  0.50100730  0.66632031  0.16676120  1
  I  I70  1  0.50495019  0.66577765  0.50631864  1
  I  I71  1  0.49539142  0.66587859  0.82777993  1
  I  I72  1  0.83291072  0.00014408  0.16611939  1
  I  I73  1  0.83346694  0.00008219  0.50174673  1
  I  I74  1  0.82889009  0.00407532  0.83036904  1
  I  I75  1  0.83638227  0.33723983  0.17081625  1
  I  I76  1  0.82759235  0.33651726  0.49763635  1
  I  I77  1  0.82881795  0.33102453  0.83262805  1
  I  I78  1  0.83583576  0.66176222  0.16813757  1
  I  I79  1  0.83000668  0.66196424  0.49800473  1
  I  I80  1  0.83119710  0.66649058  0.83445436  1
  I  I81  1  0.16653721  0.16547210  -0.00011389  1
  I  I82  1  0.17513016  0.17010931  0.33815260  1
  I  I83  1  0.16919096  0.17112884  0.66447758  1
  I  I84  1  0.16640038  0.50238620  -0.00150289  1
  I  I85  1  0.16582995  0.49622877  0.33156955  1
  I  I86  1  0.16790630  0.50151191  0.66964749  1
  I  I87  1  0.17434075  0.83423308  -0.00444858  1
  I  I88  1  0.16859670  0.83253280  0.33351304  1
  I  I89  1  0.16868053  0.82487855  0.67034842  1
  I  I90  1  0.50366607  0.16808971  -0.00407767  1
  I  I91  1  0.49555239  0.16908817  0.33747559  1
  I  I92  1  0.50004853  0.16800467  0.66706204  1
  I  I93  1  0.49976153  0.49999624  -0.00358655  1
  I  I94  1  0.50089209  0.49915160  0.33676207  1
  I  I95  1  0.50014918  0.49938925  0.66700374  1
  I  I96  1  0.49691610  0.83207281  -0.00432402  1
  I  I97  1  0.50030833  0.83148972  0.33694028  1
  I  I98  1  0.49648429  0.83243507  0.66755242  1
  I  I99  1  0.82689654  0.16897593  -0.00425613  1
  I  I100  1  0.83266961  0.16722770  0.33335391  1
  I  I101  1  0.83121922  0.17079822  0.66928850  1
  I  I102  1  0.83437042  0.49774234  0.00176145  1
  I  I103  1  0.83230364  0.49818094  0.33397032  1
  I  I104  1  0.83135781  0.49776333  0.66433158  1
  I  I105  1  0.83000813  0.83113351  -0.00038381  1
  I  I106  1  0.83140579  0.83668613  0.33362896  1
  I  I107  1  0.83614897  0.82944723  0.66686947  1
  I  I108  1  0.00006705  0.16719537  0.16496935  1
  I  I109  1  0.00183320  0.17191402  0.50432931  1
  I  I110  1  -0.00151775  0.16957193  0.83050985  1
  I  I111  1  0.00024550  0.49892103  0.16559802  1
  I  I112  1  -0.00178974  0.49562031  0.49976392  1
  I  I113  1  0.00256233  0.50153959  0.83390103  1
  I  I114  1  0.00027733  0.83491341  0.16485256  1
  I  I115  1  0.00014202  0.83362327  0.50151556  1
  I  I116  1  0.00299299  0.82809705  0.83404299  1
  I  I117  1  0.33317993  0.16986681  0.16192989  1
  I  I118  1  0.33557181  0.17106273  0.50716730  1
  I  I119  1  0.33656980  0.16775229  0.83030690  1
  I  I120  1  0.33068048  0.50011823  0.16482665  1
  I  I121  1  0.33662276  0.50049409  0.50115738  1
  I  I122  1  0.33426615  0.49828136  0.83323775  1
  I  I123  1  0.33328393  0.82975333  0.16870343  1
  I  I124  1  0.33731472  0.82663905  0.50268851  1
  I  I125  1  0.33472728  0.83315106  0.82948375  1
  I  I126  1  0.66671594  0.16974053  0.16988205  1
  I  I127  1  0.66302110  0.16620585  0.50344443  1
  I  I128  1  0.66422750  0.16871692  0.82718897  1
  I  I129  1  0.66897531  0.49939967  0.16776037  1
  I  I130  1  0.66497286  0.49769954  0.50029593  1
  I  I131  1  0.66356716  0.50176896  0.83257959  1
  I  I132  1  0.66657796  0.83085718  0.16410842  1
  I  I133  1  0.66178624  0.83795288  0.50836589  1
  I  I134  1  0.66277336  0.82948641  0.82943807  1
