# generated using pymatgen
data_Cs27Sn13Pb14I81
_symmetry_space_group_name_H-M   'P 1'
_cell_length_a   18.98541972
_cell_length_b   18.97338395
_cell_length_c   18.97259419
_cell_angle_alpha   90.00084978
_cell_angle_beta   90.00083515
_cell_angle_gamma   89.99897552
_symmetry_Int_Tables_number   1
_chemical_formula_structural   Cs27Sn13Pb14I81
_chemical_formula_sum   'Cs27 Sn13 Pb14 I81'
_cell_volume   6834.26343847
_cell_formula_units_Z   1
loop_
 _symmetry_equiv_pos_site_id
 _symmetry_equiv_pos_as_xyz
  1  'x, y, z'
loop_
 _atom_site_type_symbol
 _atom_site_label
 _atom_site_symmetry_multiplicity
 _atom_site_fract_x
 _atom_site_fract_y
 _atom_site_fract_z
 _atom_site_occupancy
  Cs  Cs0  1  0.00220819  -0.00169662  0.00067999  1
  Cs  Cs1  1  -0.00051613  0.00244403  0.33346417  1
  Cs  Cs2  1  0.00069657  -0.00890096  0.66514889  1
  Cs  Cs3  1  -0.00260446  0.33511903  -0.00014901  1
  Cs  Cs4  1  -0.00622113  0.33544674  0.33372924  1
  Cs  Cs5  1  -0.00281470  0.33339547  0.66856915  1
  Cs  Cs6  1  -0.00019582  0.66713518  -0.00117338  1
  Cs  Cs7  1  0.00366117  0.66111882  0.34079345  1
  Cs  Cs8  1  0.00137502  0.67489125  0.66241683  1
  Cs  Cs9  1  0.33340092  0.00153388  0.00161586  1
  Cs  Cs10  1  0.33450357  0.00036793  0.33190036  1
  Cs  Cs11  1  0.33265768  0.00338832  0.66575757  1
  Cs  Cs12  1  0.33205042  0.33151785  -0.00140410  1
  Cs  Cs13  1  0.33286967  0.33488962  0.33429043  1
  Cs  Cs14  1  0.33364669  0.32997608  0.66773984  1
  Cs  Cs15  1  0.33493260  0.66651835  0.00167653  1
  Cs  Cs16  1  0.33285694  0.66129930  0.33414352  1
  Cs  Cs17  1  0.33260954  0.66628678  0.66375032  1
  Cs  Cs18  1  0.66463255  -0.00154422  0.00211538  1
  Cs  Cs19  1  0.66558066  0.00118626  0.33189696  1
  Cs  Cs20  1  0.66578272  -0.00058712  0.66438807  1
  Cs  Cs21  1  0.67018148  0.33429170  -0.00239559  1
  Cs  Cs22  1  0.67362304  0.33728881  0.33438158  1
  Cs  Cs23  1  0.66791522  0.33407055  0.66878441  1
  Cs  Cs24  1  0.66559241  0.66802879  -0.00100120  1
  Cs  Cs25  1  0.66411744  0.66094944  0.33391831  1
  Cs  Cs26  1  0.66713806  0.66669816  0.66792112  1
  Sn  Sn27  1  0.49950849  0.16621891  0.49863328  1
  Sn  Sn28  1  0.83374875  0.49989498  0.83342927  1
  Sn  Sn29  1  0.83344616  0.83304217  0.16713301  1
  Sn  Sn30  1  0.49960662  0.83283828  0.83321327  1
  Sn  Sn31  1  0.16669537  0.50017791  0.83329873  1
  Sn  Sn32  1  0.16731143  0.16637029  0.16758442  1
  Sn  Sn33  1  0.49976308  0.83387837  0.16716404  1
  Sn  Sn34  1  0.49968615  0.16661808  0.16760564  1
  Sn  Sn35  1  0.49979376  0.83412159  0.49943477  1
  Sn  Sn36  1  0.49945572  0.50065543  0.83363073  1
  Sn  Sn37  1  0.16679275  0.83367182  0.16682118  1
  Sn  Sn38  1  0.16707584  0.16667837  0.49921933  1
  Sn  Sn39  1  0.83339817  0.16593991  0.83333277  1
  Pb  Pb40  1  0.16924728  0.83554791  0.49713681  1
  Pb  Pb41  1  0.16431106  0.16792278  0.83352016  1
  Pb  Pb42  1  0.83339355  0.50314361  0.16461850  1
  Pb  Pb43  1  0.83313781  0.16636659  0.50233514  1
  Pb  Pb44  1  0.49999064  0.49920818  0.16461501  1
  Pb  Pb45  1  0.83329226  0.16512671  0.16491049  1
  Pb  Pb46  1  0.50133453  0.16638689  0.83354377  1
  Pb  Pb47  1  0.83055471  0.83351176  0.49661053  1
  Pb  Pb48  1  0.49996546  0.49924220  0.50256662  1
  Pb  Pb49  1  0.83335898  0.50025075  0.50302222  1
  Pb  Pb50  1  0.16943792  0.83143092  0.83532864  1
  Pb  Pb51  1  0.83136769  0.83320092  0.83478076  1
  Pb  Pb52  1  0.16677555  0.49936529  0.16508535  1
  Pb  Pb53  1  0.16684540  0.49677472  0.50265747  1
  I  I54  1  0.16829830  0.00025599  0.16793300  1
  I  I55  1  0.16880069  0.00346454  0.50116575  1
  I  I56  1  0.16603048  -0.00006670  0.83235030  1
  I  I57  1  0.17272402  0.32954160  0.16797893  1
  I  I58  1  0.17455724  0.32885900  0.49382936  1
  I  I59  1  0.17183502  0.33602237  0.83509004  1
  I  I60  1  0.16865783  0.66978682  0.16280471  1
  I  I61  1  0.16734800  0.66688469  0.49963200  1
  I  I62  1  0.16224357  0.66338038  0.83583051  1
  I  I63  1  0.49956386  -0.00092727  0.16390815  1
  I  I64  1  0.49688419  0.00006124  0.50224426  1
  I  I65  1  0.50286148  -0.00259505  0.83455648  1
  I  I66  1  0.49441243  0.32953272  0.16870225  1
  I  I67  1  0.49602852  0.32962021  0.49763901  1
  I  I68  1  0.49977523  0.33559477  0.83352775  1
  I  I69  1  0.49955985  0.67021019  0.16792408  1
  I  I70  1  0.50124145  0.66974555  0.49733606  1
  I  I71  1  0.50241405  0.66723394  0.83464855  1
  I  I72  1  0.83148470  -0.00276000  0.16170618  1
  I  I73  1  0.83468940  -0.00003976  0.50597709  1
  I  I74  1  0.83077484  0.00192585  0.83502048  1
  I  I75  1  0.83301932  0.33329621  0.16591295  1
  I  I76  1  0.83074167  0.33304271  0.49825450  1
  I  I77  1  0.83002475  0.33413406  0.83437826  1
  I  I78  1  0.83042113  0.67123625  0.16291071  1
  I  I79  1  0.83192262  0.66708007  0.50181660  1
  I  I80  1  0.83309395  0.66399726  0.83626618  1
  I  I81  1  0.17103314  0.16386891  0.00309998  1
  I  I82  1  0.17138170  0.16177894  0.33229654  1
  I  I83  1  0.17166854  0.17003727  0.66431445  1
  I  I84  1  0.16725466  0.49809247  -0.00329619  1
  I  I85  1  0.16721106  0.50261683  0.33345111  1
  I  I86  1  0.16761879  0.49849203  0.67093045  1
  I  I87  1  0.16951842  0.83970300  0.00349499  1
  I  I88  1  0.16826810  0.83421113  0.32896576  1
  I  I89  1  0.16742953  0.83379511  0.66641815  1
  I  I90  1  0.49683141  0.16307171  0.00271813  1
  I  I91  1  0.49609132  0.15708303  0.33271594  1
  I  I92  1  0.49710758  0.16375759  0.66435925  1
  I  I93  1  0.50070300  0.50400167  -0.00382756  1
  I  I94  1  0.49955478  0.50311284  0.33341867  1
  I  I95  1  0.50100138  0.50361790  0.67097784  1
  I  I96  1  0.50063370  0.83310640  0.00104035  1
  I  I97  1  0.50065602  0.83957744  0.33225829  1
  I  I98  1  0.50113446  0.83336809  0.66676198  1
  I  I99  1  0.83204208  0.17078154  -0.00285328  1
  I  I100  1  0.83301995  0.16502426  0.33316589  1
  I  I101  1  0.83152917  0.17193169  0.67026639  1
  I  I102  1  0.83216406  0.49574361  -0.00385929  1
  I  I103  1  0.83303582  0.50005756  0.33319660  1
  I  I104  1  0.83105536  0.49570820  0.67167894  1
  I  I105  1  0.82976701  0.83353721  0.00269828  1
  I  I106  1  0.83147898  0.83707126  0.32867751  1
  I  I107  1  0.83159868  0.83257395  0.66665268  1
  I  I108  1  0.00298194  0.16208204  0.16840478  1
  I  I109  1  0.00300625  0.16854182  0.49609211  1
  I  I110  1  -0.00316757  0.17311857  0.83467285  1
  I  I111  1  0.00008735  0.49971850  0.16176954  1
  I  I112  1  0.00028551  0.49855338  0.50190740  1
  I  I113  1  -0.00047384  0.49260122  0.83541099  1
  I  I114  1  0.00076749  0.83828292  0.16270427  1
  I  I115  1  0.00038652  0.83437783  0.50031754  1
  I  I116  1  0.00016033  0.83239662  0.83583026  1
  I  I117  1  0.33390041  0.15881979  0.16797733  1
  I  I118  1  0.33446329  0.16279841  0.49801051  1
  I  I119  1  0.33337546  0.16844409  0.83346921  1
  I  I120  1  0.33346982  0.50434593  0.16132735  1
  I  I121  1  0.33349284  0.50215467  0.50396428  1
  I  I122  1  0.33407315  0.50427659  0.83424139  1
  I  I123  1  0.33452745  0.83783486  0.16483479  1
  I  I124  1  0.33739031  0.83486973  0.50011639  1
  I  I125  1  0.33768453  0.82941218  0.83591069  1
  I  I126  1  0.66350694  0.16162119  0.16835285  1
  I  I127  1  0.66304583  0.16241679  0.49711807  1
  I  I128  1  0.66882317  0.17198172  0.83418146  1
  I  I129  1  0.66654752  0.49975124  0.16308234  1
  I  I130  1  0.66629722  0.49823147  0.50209520  1
  I  I131  1  0.66640543  0.49993704  0.83389954  1
  I  I132  1  0.66471036  0.83742215  0.16486071  1
  I  I133  1  0.66203452  0.84003458  0.49995853  1
  I  I134  1  0.66304505  0.82903664  0.83623303  1
