# generated using pymatgen
data_Cs27Sn13Pb14I81
_symmetry_space_group_name_H-M   'P 1'
_cell_length_a   18.97571609
_cell_length_b   18.97694734
_cell_length_c   18.97677250
_cell_angle_alpha   90.00336478
_cell_angle_beta   90.00063362
_cell_angle_gamma   90.00151461
_symmetry_Int_Tables_number   1
_chemical_formula_structural   Cs27Sn13Pb14I81
_chemical_formula_sum   'Cs27 Sn13 Pb14 I81'
_cell_volume   6833.55787086
_cell_formula_units_Z   1
loop_
 _symmetry_equiv_pos_site_id
 _symmetry_equiv_pos_as_xyz
  1  'x, y, z'
loop_
 _atom_site_type_symbol
 _atom_site_label
 _atom_site_symmetry_multiplicity
 _atom_site_fract_x
 _atom_site_fract_y
 _atom_site_fract_z
 _atom_site_occupancy
  Cs  Cs0  1  -0.00165409  -0.00022748  0.00086691  1
  Cs  Cs1  1  -0.00084829  0.00035941  0.33429753  1
  Cs  Cs2  1  0.00090318  0.00058014  0.66477250  1
  Cs  Cs3  1  0.00163798  0.33530879  0.00428479  1
  Cs  Cs4  1  -0.00022316  0.33292957  0.33265258  1
  Cs  Cs5  1  -0.00030448  0.33178717  0.66548110  1
  Cs  Cs6  1  0.00112979  0.66520201  0.00029378  1
  Cs  Cs7  1  -0.00229827  0.66686168  0.33291506  1
  Cs  Cs8  1  0.00232493  0.66907230  0.66675066  1
  Cs  Cs9  1  0.33565453  0.00121613  0.00612023  1
  Cs  Cs10  1  0.34188431  -0.00097015  0.32748513  1
  Cs  Cs11  1  0.32847410  0.00120353  0.66481964  1
  Cs  Cs12  1  0.32970903  0.33265264  0.00376759  1
  Cs  Cs13  1  0.33228860  0.32968817  0.33556618  1
  Cs  Cs14  1  0.33303291  0.33344299  0.66341314  1
  Cs  Cs15  1  0.33360263  0.66603711  -0.00373008  1
  Cs  Cs16  1  0.34181649  0.67075831  0.33646188  1
  Cs  Cs17  1  0.33020442  0.66721716  0.66937007  1
  Cs  Cs18  1  0.66634722  0.00017500  -0.00216071  1
  Cs  Cs19  1  0.66307556  -0.00429176  0.33226532  1
  Cs  Cs20  1  0.66765961  0.00351490  0.67047779  1
  Cs  Cs21  1  0.66806346  0.33542821  -0.00428024  1
  Cs  Cs22  1  0.66846810  0.33653813  0.33698781  1
  Cs  Cs23  1  0.66572310  0.33270258  0.66812623  1
  Cs  Cs24  1  0.66701480  0.66632962  0.00013566  1
  Cs  Cs25  1  0.66487802  0.66774766  0.33393281  1
  Cs  Cs26  1  0.66791290  0.66450458  0.66811269  1
  Sn  Sn27  1  0.83298989  0.83253605  0.83401605  1
  Sn  Sn28  1  0.50043580  0.50057442  0.83429054  1
  Sn  Sn29  1  0.83441921  0.49945995  0.50107051  1
  Sn  Sn30  1  0.83423338  0.83406208  0.16585401  1
  Sn  Sn31  1  0.16569786  0.16730652  0.50047252  1
  Sn  Sn32  1  0.50006300  0.49946908  0.16580924  1
  Sn  Sn33  1  0.16585200  0.83287968  0.16679896  1
  Sn  Sn34  1  0.83384108  0.16726349  0.49898868  1
  Sn  Sn35  1  0.83320446  0.16606144  0.16750713  1
  Sn  Sn36  1  0.16640253  0.16681023  0.83329936  1
  Sn  Sn37  1  0.83335142  0.50075719  0.83255652  1
  Sn  Sn38  1  0.16571871  0.49987524  0.49980959  1
  Sn  Sn39  1  0.50062124  0.83288614  0.83317429  1
  Pb  Pb40  1  0.50366272  0.16961199  0.16649149  1
  Pb  Pb41  1  0.50097988  0.83145689  0.16438586  1
  Pb  Pb42  1  0.50036648  0.16654110  0.50004031  1
  Pb  Pb43  1  0.83319832  0.83344787  0.50037117  1
  Pb  Pb44  1  0.16634983  0.83546622  0.83514161  1
  Pb  Pb45  1  0.50025441  0.83342135  0.50409896  1
  Pb  Pb46  1  0.83495509  0.16689072  0.83323495  1
  Pb  Pb47  1  0.16644059  0.49816117  0.83169755  1
  Pb  Pb48  1  0.16472483  0.16499679  0.16762777  1
  Pb  Pb49  1  0.16920565  0.50240993  0.16990530  1
  Pb  Pb50  1  0.83218214  0.50036596  0.16678329  1
  Pb  Pb51  1  0.49705595  0.16709060  0.83336529  1
  Pb  Pb52  1  0.16661215  0.83388061  0.49722086  1
  Pb  Pb53  1  0.50022602  0.49996455  0.50095451  1
  I  I54  1  0.16523974  -0.00288625  0.16698731  1
  I  I55  1  0.16079801  0.00353611  0.50458922  1
  I  I56  1  0.16537643  0.00305266  0.82633167  1
  I  I57  1  0.16640730  0.33335126  0.16472217  1
  I  I58  1  0.16265445  0.33294247  0.50379916  1
  I  I59  1  0.16571542  0.33041482  0.83204710  1
  I  I60  1  0.15864066  0.66989488  0.16587402  1
  I  I61  1  0.16244567  0.66384380  0.49924977  1
  I  I62  1  0.16705064  0.66664359  0.83218993  1
  I  I63  1  0.49773466  -0.00024880  0.16583045  1
  I  I64  1  0.49926191  0.00002752  0.49993421  1
  I  I65  1  0.50532217  -0.00289964  0.83340684  1
  I  I66  1  0.50039771  0.33728757  0.15972577  1
  I  I67  1  0.50022481  0.33354399  0.50194501  1
  I  I68  1  0.50534256  0.33688945  0.83572247  1
  I  I69  1  0.50225427  0.66382019  0.16558572  1
  I  I70  1  0.49982780  0.66626680  0.49593522  1
  I  I71  1  0.50398629  0.66585668  0.83738451  1
  I  I72  1  0.83738112  -0.00069847  0.16613371  1
  I  I73  1  0.83876117  0.00308658  0.49971747  1
  I  I74  1  0.83005133  -0.00250639  0.83452234  1
  I  I75  1  0.83174257  0.33133924  0.16740750  1
  I  I76  1  0.83687851  0.33367883  0.49956659  1
  I  I77  1  0.82960731  0.33613029  0.83237996  1
  I  I78  1  0.83506631  0.66928625  0.16553374  1
  I  I79  1  0.83680545  0.66350815  0.50088357  1
  I  I80  1  0.82984596  0.66639258  0.83352075  1
  I  I81  1  0.16543848  0.16481541  -0.00160503  1
  I  I82  1  0.16325825  0.17063928  0.33655959  1
  I  I83  1  0.16115272  0.16895608  0.66540434  1
  I  I84  1  0.16478390  0.49812210  0.00008932  1
  I  I85  1  0.16051640  0.49287962  0.33749686  1
  I  I86  1  0.16701649  0.49878593  0.66364413  1
  I  I87  1  0.16452979  0.83555525  0.00279490  1
  I  I88  1  0.15942382  0.83390267  0.32954351  1
  I  I89  1  0.16744933  0.83271228  0.66668650  1
  I  I90  1  0.49876148  0.16547066  -0.00008587  1
  I  I91  1  0.49515001  0.16832762  0.33309818  1
  I  I92  1  0.50449778  0.16789013  0.66690051  1
  I  I93  1  0.50639177  0.50381106  -0.00164396  1
  I  I94  1  0.50064339  0.50012388  0.33141598  1
  I  I95  1  0.50181186  0.50428642  0.67004539  1
  I  I96  1  0.50161303  0.83053863  -0.00329057  1
  I  I97  1  0.49949415  0.83171603  0.33287510  1
  I  I98  1  0.50593260  0.82595819  0.67204800  1
  I  I99  1  0.83528871  0.16554005  0.00197328  1
  I  I100  1  0.83955204  0.16794985  0.33419900  1
  I  I101  1  0.83585561  0.16766911  0.66414267  1
  I  I102  1  0.83013697  0.50035473  -0.00262549  1
  I  I103  1  0.83491140  0.49863461  0.33589317  1
  I  I104  1  0.83073330  0.49965861  0.66708213  1
  I  I105  1  0.83327621  0.83376120  -0.00028403  1
  I  I106  1  0.83780842  0.83397437  0.33052042  1
  I  I107  1  0.82873691  0.83229420  0.66997830  1
  I  I108  1  -0.00332028  0.16606053  0.16740467  1
  I  I109  1  -0.00051661  0.17152837  0.50045723  1
  I  I110  1  0.00244115  0.16619409  0.83136056  1
  I  I111  1  -0.00010444  0.49894476  0.16435071  1
  I  I112  1  -0.00132387  0.49580726  0.50496621  1
  I  I113  1  -0.00313602  0.50347393  0.83104753  1
  I  I114  1  -0.00189598  0.83626116  0.16102825  1
  I  I115  1  -0.00013926  0.83232845  0.50429022  1
  I  I116  1  -0.00320615  0.82975755  0.83572425  1
  I  I117  1  0.33327889  0.16455669  0.16700917  1
  I  I118  1  0.32968306  0.17186073  0.50497168  1
  I  I119  1  0.32935339  0.16641548  0.82664489  1
  I  I120  1  0.33669849  0.50231265  0.16033681  1
  I  I121  1  0.33060357  0.49524318  0.49926261  1
  I  I122  1  0.33598273  0.50388690  0.83523804  1
  I  I123  1  0.33177210  0.83243295  0.16657660  1
  I  I124  1  0.33313231  0.83241803  0.49850671  1
  I  I125  1  0.33573843  0.82889793  0.83452321  1
  I  I126  1  0.67158585  0.15914058  0.17166011  1
  I  I127  1  0.67071041  0.17154995  0.49685163  1
  I  I128  1  0.66694704  0.16636299  0.83295554  1
  I  I129  1  0.66443362  0.50159100  0.16684006  1
  I  I130  1  0.66999631  0.49574843  0.50103366  1
  I  I131  1  0.66766300  0.50305347  0.83154395  1
  I  I132  1  0.66991568  0.83623391  0.16500727  1
  I  I133  1  0.66710979  0.83265198  0.49348975  1
  I  I134  1  0.66808969  0.82998928  0.83898379  1
