# generated using pymatgen
data_Cs27Sn13Pb14I81
_symmetry_space_group_name_H-M   'P 1'
_cell_length_a   18.97531204
_cell_length_b   18.97868246
_cell_length_c   18.97514612
_cell_angle_alpha   90.00139011
_cell_angle_beta   90.00147811
_cell_angle_gamma   89.99960756
_symmetry_Int_Tables_number   1
_chemical_formula_structural   Cs27Sn13Pb14I81
_chemical_formula_sum   'Cs27 Sn13 Pb14 I81'
_cell_volume   6833.45146956
_cell_formula_units_Z   1
loop_
 _symmetry_equiv_pos_site_id
 _symmetry_equiv_pos_as_xyz
  1  'x, y, z'
loop_
 _atom_site_type_symbol
 _atom_site_label
 _atom_site_symmetry_multiplicity
 _atom_site_fract_x
 _atom_site_fract_y
 _atom_site_fract_z
 _atom_site_occupancy
  Cs  Cs0  1  -0.01073787  0.00253630  0.00135191  1
  Cs  Cs1  1  0.00040912  -0.00216102  0.33179293  1
  Cs  Cs2  1  -0.00108335  -0.00556545  0.66735705  1
  Cs  Cs3  1  0.00034358  0.33264922  0.00046970  1
  Cs  Cs4  1  0.00154655  0.33468617  0.33475156  1
  Cs  Cs5  1  0.00016501  0.33423397  0.66529647  1
  Cs  Cs6  1  0.00345240  0.66553960  -0.00208262  1
  Cs  Cs7  1  -0.00048417  0.66647493  0.33663167  1
  Cs  Cs8  1  0.00183286  0.67353499  0.66448509  1
  Cs  Cs9  1  0.33328724  0.00196255  0.00221148  1
  Cs  Cs10  1  0.33342014  0.00465563  0.33282025  1
  Cs  Cs11  1  0.33466575  -0.00040339  0.66492543  1
  Cs  Cs12  1  0.33168571  0.33480808  -0.00008632  1
  Cs  Cs13  1  0.33281974  0.33132791  0.33356738  1
  Cs  Cs14  1  0.33351909  0.33289419  0.66697869  1
  Cs  Cs15  1  0.33355521  0.66536071  -0.00033890  1
  Cs  Cs16  1  0.33269623  0.66644361  0.33165326  1
  Cs  Cs17  1  0.33222597  0.66777502  0.66819770  1
  Cs  Cs18  1  0.67769480  -0.00271001  0.00289149  1
  Cs  Cs19  1  0.66424908  0.00056105  0.32457153  1
  Cs  Cs20  1  0.66368301  0.00239807  0.66965620  1
  Cs  Cs21  1  0.66914014  0.33587113  -0.00112246  1
  Cs  Cs22  1  0.66243203  0.33398670  0.33617769  1
  Cs  Cs23  1  0.66650814  0.33343537  0.66622530  1
  Cs  Cs24  1  0.66422211  0.66578605  0.00335349  1
  Cs  Cs25  1  0.66921318  0.66720148  0.33152943  1
  Cs  Cs26  1  0.66603107  0.66447857  0.66485429  1
  Sn  Sn27  1  0.83418681  0.16643980  0.50010987  1
  Sn  Sn28  1  0.83305755  0.50022194  0.83350268  1
  Sn  Sn29  1  0.49994847  0.83243243  0.50026791  1
  Sn  Sn30  1  0.49943712  0.16664132  0.83348096  1
  Sn  Sn31  1  0.49890605  0.50102322  0.50084296  1
  Sn  Sn32  1  0.50062194  0.50000861  0.83242244  1
  Sn  Sn33  1  0.16590387  0.50085478  0.16757836  1
  Sn  Sn34  1  0.83435500  0.49974466  0.16609285  1
  Sn  Sn35  1  0.16749507  0.49961900  0.49963735  1
  Sn  Sn36  1  0.49978596  0.83330595  0.83295177  1
  Sn  Sn37  1  0.16544488  0.16725448  0.50132778  1
  Sn  Sn38  1  0.16694776  0.16650385  0.83246587  1
  Sn  Sn39  1  0.16683716  0.83270244  0.16642378  1
  Pb  Pb40  1  0.16871518  0.83359632  0.49857869  1
  Pb  Pb41  1  0.83621448  0.83022043  0.16677632  1
  Pb  Pb42  1  0.49802667  0.83322276  0.16650973  1
  Pb  Pb43  1  0.83350380  0.16981767  0.16974697  1
  Pb  Pb44  1  0.16873718  0.83669215  0.83570298  1
  Pb  Pb45  1  0.83347450  0.16868251  0.83152572  1
  Pb  Pb46  1  0.50023028  0.16677060  0.16258218  1
  Pb  Pb47  1  0.83058154  0.83004222  0.83301461  1
  Pb  Pb48  1  0.16659286  0.16710646  0.16669980  1
  Pb  Pb49  1  0.16677109  0.49876996  0.83288065  1
  Pb  Pb50  1  0.83337915  0.49907912  0.50021979  1
  Pb  Pb51  1  0.49962813  0.16674702  0.50141478  1
  Pb  Pb52  1  0.82991313  0.83660314  0.49998288  1
  Pb  Pb53  1  0.49957338  0.49980194  0.16688874  1
  I  I54  1  0.17064454  -0.00212583  0.16703333  1
  I  I55  1  0.16532278  0.00299516  0.50184612  1
  I  I56  1  0.17274698  0.00447756  0.82795514  1
  I  I57  1  0.16338475  0.33659180  0.16798781  1
  I  I58  1  0.16937580  0.33416109  0.49758693  1
  I  I59  1  0.17246977  0.33091690  0.83356731  1
  I  I60  1  0.16387884  0.66461496  0.17191028  1
  I  I61  1  0.16897583  0.66369228  0.49761931  1
  I  I62  1  0.16708768  0.66668025  0.83188868  1
  I  I63  1  0.49588492  -0.00013917  0.17003461  1
  I  I64  1  0.49969263  -0.00199274  0.50476381  1
  I  I65  1  0.49317492  0.00014260  0.82758010  1
  I  I66  1  0.49737186  0.33373215  0.16866827  1
  I  I67  1  0.49947548  0.33609676  0.50359298  1
  I  I68  1  0.50009215  0.33419578  0.82903247  1
  I  I69  1  0.50085984  0.66630553  0.16260843  1
  I  I70  1  0.49483458  0.66503885  0.50804111  1
  I  I71  1  0.50455228  0.66569238  0.82934132  1
  I  I72  1  0.83395644  0.00003555  0.16676333  1
  I  I73  1  0.84012366  0.00436079  0.50212684  1
  I  I74  1  0.83240209  0.00012367  0.83298752  1
  I  I75  1  0.84023232  0.33750874  0.16190786  1
  I  I76  1  0.83271797  0.33130710  0.50027428  1
  I  I77  1  0.82708875  0.33652181  0.83630663  1
  I  I78  1  0.83352793  0.66232360  0.16435637  1
  I  I79  1  0.83502775  0.66654307  0.49983524  1
  I  I80  1  0.82929914  0.66184211  0.83585546  1
  I  I81  1  0.17319596  0.16799228  -0.00281531  1
  I  I82  1  0.16364348  0.16842613  0.33652764  1
  I  I83  1  0.16788435  0.17357110  0.66580044  1
  I  I84  1  0.16636842  0.50136133  0.00204769  1
  I  I85  1  0.16691887  0.49772389  0.33411423  1
  I  I86  1  0.16815660  0.49641372  0.66385926  1
  I  I87  1  0.17029415  0.82588920  0.00313974  1
  I  I88  1  0.16979169  0.83262633  0.33079108  1
  I  I89  1  0.16641565  0.83097109  0.66676147  1
  I  I90  1  0.49234890  0.16876264  -0.00586385  1
  I  I91  1  0.49961842  0.16670061  0.33373960  1
  I  I92  1  0.49865542  0.16780266  0.66955728  1
  I  I93  1  0.50059745  0.49998493  -0.00326898  1
  I  I94  1  0.49970880  0.50393068  0.33668515  1
  I  I95  1  0.50035535  0.50000636  0.66706218  1
  I  I96  1  0.49765446  0.83191213  -0.00337911  1
  I  I97  1  0.49892165  0.82800203  0.33636369  1
  I  I98  1  0.49841550  0.83200110  0.66719041  1
  I  I99  1  0.83292191  0.16622802  -0.00012156  1
  I  I100  1  0.83951214  0.16908381  0.33745041  1
  I  I101  1  0.83428480  0.17164588  0.66400426  1
  I  I102  1  0.83242654  0.49879930  -0.00034597  1
  I  I103  1  0.83469084  0.49792203  0.33124993  1
  I  I104  1  0.83031244  0.49664842  0.66895905  1
  I  I105  1  0.83093405  0.83672531  -0.00009276  1
  I  I106  1  0.83002596  0.83154135  0.33335145  1
  I  I107  1  0.83736757  0.83004019  0.66656796  1
  I  I108  1  0.00022422  0.16480812  0.16123691  1
  I  I109  1  0.00200339  0.17449072  0.50503123  1
  I  I110  1  0.00265682  0.17019355  0.83186217  1
  I  I111  1  0.00101955  0.50308774  0.16656599  1
  I  I112  1  0.00279803  0.49626134  0.49870335  1
  I  I113  1  -0.00193584  0.49555358  0.83499423  1
  I  I114  1  0.00399436  0.83227524  0.16769272  1
  I  I115  1  0.00024783  0.83083792  0.49836018  1
  I  I116  1  0.00014552  0.83341179  0.83470252  1
  I  I117  1  0.33304888  0.16906161  0.17112288  1
  I  I118  1  0.33068667  0.16828924  0.50173564  1
  I  I119  1  0.33374715  0.16972812  0.82741901  1
  I  I120  1  0.33022443  0.50295674  0.16731300  1
  I  I121  1  0.33319678  0.49733975  0.49984481  1
  I  I122  1  0.33626575  0.50075882  0.83259203  1
  I  I123  1  0.33039837  0.82557004  0.16649247  1
  I  I124  1  0.33657608  0.83324593  0.50389371  1
  I  I125  1  0.33699923  0.82746271  0.82988840  1
  I  I126  1  0.66696966  0.16782090  0.16898398  1
  I  I127  1  0.66809032  0.16861992  0.50201156  1
  I  I128  1  0.66377669  0.16629056  0.83044762  1
  I  I129  1  0.66896573  0.49835449  0.16536790  1
  I  I130  1  0.66389935  0.50071862  0.50102130  1
  I  I131  1  0.66503125  0.49748419  0.83335677  1
  I  I132  1  0.66671922  0.83321767  0.16665343  1
  I  I133  1  0.66185827  0.82686387  0.50409976  1
  I  I134  1  0.66200743  0.83927537  0.83005141  1
