# generated using pymatgen
data_Cs27Sn14Pb13I81
_symmetry_space_group_name_H-M   'P 1'
_cell_length_a   18.97664599
_cell_length_b   18.97204564
_cell_length_c   18.98013859
_cell_angle_alpha   89.99931832
_cell_angle_beta   90.00025013
_cell_angle_gamma   89.99898723
_symmetry_Int_Tables_number   1
_chemical_formula_structural   Cs27Sn14Pb13I81
_chemical_formula_sum   'Cs27 Sn14 Pb13 I81'
_cell_volume   6833.33945899
_cell_formula_units_Z   1
loop_
 _symmetry_equiv_pos_site_id
 _symmetry_equiv_pos_as_xyz
  1  'x, y, z'
loop_
 _atom_site_type_symbol
 _atom_site_label
 _atom_site_symmetry_multiplicity
 _atom_site_fract_x
 _atom_site_fract_y
 _atom_site_fract_z
 _atom_site_occupancy
  Cs  Cs0  1  0.00185790  -0.00023785  -0.00173288  1
  Cs  Cs1  1  -0.00225097  0.00224582  0.33667531  1
  Cs  Cs2  1  -0.00236656  -0.00098284  0.66796042  1
  Cs  Cs3  1  -0.00109531  0.33412684  0.00055965  1
  Cs  Cs4  1  0.00296978  0.33065474  0.34018785  1
  Cs  Cs5  1  -0.00142345  0.33488172  0.66198383  1
  Cs  Cs6  1  0.00051738  0.66581066  0.00059321  1
  Cs  Cs7  1  -0.00209009  0.66731292  0.33167670  1
  Cs  Cs8  1  0.00193415  0.66674046  0.66766954  1
  Cs  Cs9  1  0.33234827  0.00104525  -0.00203396  1
  Cs  Cs10  1  0.33367513  0.00147073  0.33087872  1
  Cs  Cs11  1  0.33462224  -0.00145109  0.67158388  1
  Cs  Cs12  1  0.33364180  0.33082500  0.00047904  1
  Cs  Cs13  1  0.33004871  0.33323717  0.33771012  1
  Cs  Cs14  1  0.33460404  0.33597365  0.66402104  1
  Cs  Cs15  1  0.33027535  0.66774691  0.00053742  1
  Cs  Cs16  1  0.33881044  0.66550524  0.33595356  1
  Cs  Cs17  1  0.33245177  0.66563261  0.66425379  1
  Cs  Cs18  1  0.66592177  0.00205150  -0.00045237  1
  Cs  Cs19  1  0.66806194  -0.00572568  0.33547170  1
  Cs  Cs20  1  0.66737285  0.00125237  0.66553838  1
  Cs  Cs21  1  0.66780157  0.33588805  0.00045487  1
  Cs  Cs22  1  0.66694794  0.33314497  0.33076637  1
  Cs  Cs23  1  0.66686905  0.33397337  0.66813054  1
  Cs  Cs24  1  0.66875503  0.65685807  0.00843233  1
  Cs  Cs25  1  0.66279819  0.67281868  0.32620170  1
  Cs  Cs26  1  0.66432152  0.66186701  0.66479515  1
  Sn  Sn27  1  0.16663621  0.83314992  0.83346449  1
  Sn  Sn28  1  0.50081734  0.83337845  0.83389277  1
  Sn  Sn29  1  0.16659379  0.83380738  0.49981188  1
  Sn  Sn30  1  0.16671845  0.50054190  0.16610635  1
  Sn  Sn31  1  0.83287168  0.16628995  0.16592789  1
  Sn  Sn32  1  0.50029713  0.16598782  0.83345242  1
  Sn  Sn33  1  0.16659845  0.83267633  0.16682451  1
  Sn  Sn34  1  0.16672881  0.49990003  0.83399817  1
  Sn  Sn35  1  0.83283530  0.50072863  0.49967021  1
  Sn  Sn36  1  0.50097859  0.16644326  0.16653197  1
  Sn  Sn37  1  0.83329927  0.16601426  0.83406112  1
  Sn  Sn38  1  0.50001168  0.16635552  0.50012439  1
  Sn  Sn39  1  0.16635114  0.16724430  0.83313804  1
  Sn  Sn40  1  0.83246242  0.83329535  0.83366128  1
  Pb  Pb41  1  0.16868341  0.16424597  0.50324738  1
  Pb  Pb42  1  0.83556487  0.49990274  0.83238005  1
  Pb  Pb43  1  0.83112064  0.16764793  0.50041113  1
  Pb  Pb44  1  0.83480586  0.83113909  0.50245184  1
  Pb  Pb45  1  0.50281382  0.49809807  0.49981837  1
  Pb  Pb46  1  0.49807976  0.83532892  0.50236060  1
  Pb  Pb47  1  0.16553525  0.50236834  0.49977288  1
  Pb  Pb48  1  0.49713358  0.49733757  0.16656860  1
  Pb  Pb49  1  0.83550865  0.83563623  0.16407329  1
  Pb  Pb50  1  0.16641245  0.16661877  0.16500241  1
  Pb  Pb51  1  0.49786770  0.83553021  0.16381836  1
  Pb  Pb52  1  0.49742273  0.50007415  0.83354215  1
  Pb  Pb53  1  0.83595839  0.49741676  0.16904243  1
  I  I54  1  0.16738186  -0.00241307  0.16423183  1
  I  I55  1  0.16568362  -0.00350564  0.49963180  1
  I  I56  1  0.16723924  -0.00050684  0.83379799  1
  I  I57  1  0.16694771  0.33519635  0.16071665  1
  I  I58  1  0.16683922  0.33317240  0.50005341  1
  I  I59  1  0.16690162  0.33276295  0.83884517  1
  I  I60  1  0.16559175  0.66738866  0.15958648  1
  I  I61  1  0.16603341  0.66996951  0.50713661  1
  I  I62  1  0.16629151  0.66815872  0.83354407  1
  I  I63  1  0.50030570  0.00383162  0.16721462  1
  I  I64  1  0.50051589  0.00353743  0.49946927  1
  I  I65  1  0.49452080  0.00133844  0.83362071  1
  I  I66  1  0.50137268  0.32881737  0.16192948  1
  I  I67  1  0.49779637  0.32948628  0.50435629  1
  I  I68  1  0.49964641  0.32942391  0.83331602  1
  I  I69  1  0.50080790  0.66695078  0.16549839  1
  I  I70  1  0.49887597  0.66706060  0.50290681  1
  I  I71  1  0.49812627  0.66991808  0.83155731  1
  I  I72  1  0.83212313  0.00372852  0.16552425  1
  I  I73  1  0.83404756  -0.00008078  0.49870924  1
  I  I74  1  0.83868524  0.00097445  0.83569817  1
  I  I75  1  0.83131232  0.32950975  0.15886800  1
  I  I76  1  0.83571814  0.33516133  0.50258435  1
  I  I77  1  0.83331841  0.32992345  0.83527781  1
  I  I78  1  0.83333041  0.66676415  0.16595337  1
  I  I79  1  0.83686226  0.66383822  0.50368473  1
  I  I80  1  0.83582672  0.66945605  0.82975673  1
  I  I81  1  0.17047953  0.16241043  -0.00345430  1
  I  I82  1  0.16693291  0.16695338  0.33349332  1
  I  I83  1  0.16551552  0.16702549  0.67172187  1
  I  I84  1  0.16588435  0.50462184  -0.00128413  1
  I  I85  1  0.16484723  0.50304187  0.33064518  1
  I  I86  1  0.16537566  0.50039403  0.66948121  1
  I  I87  1  0.16700623  0.83318423  -0.00194161  1
  I  I88  1  0.16657320  0.82853263  0.33269275  1
  I  I89  1  0.16679450  0.83392424  0.66913131  1
  I  I90  1  0.49920276  0.16279818  -0.00146598  1
  I  I91  1  0.50379166  0.16866739  0.33270223  1
  I  I92  1  0.49903543  0.16293466  0.66862485  1
  I  I93  1  0.50274942  0.49720645  -0.00012806  1
  I  I94  1  0.49615551  0.49680055  0.33321388  1
  I  I95  1  0.49709428  0.49701986  0.66687578  1
  I  I96  1  0.49589913  0.84078214  -0.00428414  1
  I  I97  1  0.49683049  0.83586309  0.33305727  1
  I  I98  1  0.49633803  0.84040101  0.67076790  1
  I  I99  1  0.82979739  0.16397351  -0.00182772  1
  I  I100  1  0.83033497  0.16975357  0.33087495  1
  I  I101  1  0.83375522  0.16413575  0.67018834  1
  I  I102  1  0.83331851  0.50092635  0.00014977  1
  I  I103  1  0.83774037  0.49636706  0.33615644  1
  I  I104  1  0.83729702  0.49721291  0.66496544  1
  I  I105  1  0.83712664  0.83514670  -0.00426478  1
  I  I106  1  0.83690062  0.83472193  0.33309102  1
  I  I107  1  0.83750305  0.84110230  0.67093681  1
  I  I108  1  -0.00209980  0.16657874  0.16074402  1
  I  I109  1  0.00002372  0.16745457  0.49944933  1
  I  I110  1  0.00001474  0.16342223  0.83854116  1
  I  I111  1  0.00367255  0.50188642  0.16124598  1
  I  I112  1  -0.00180928  0.49725755  0.50147142  1
  I  I113  1  0.00380330  0.50026597  0.83593231  1
  I  I114  1  0.00377626  0.83246717  0.16284874  1
  I  I115  1  0.00320301  0.83411038  0.50378435  1
  I  I116  1  0.00142343  0.83683536  0.83315771  1
  I  I117  1  0.33550138  0.16630719  0.16467486  1
  I  I118  1  0.33643841  0.16702526  0.49895294  1
  I  I119  1  0.33339785  0.16354019  0.83403210  1
  I  I120  1  0.32907343  0.50200633  0.16220286  1
  I  I121  1  0.33320349  0.49942691  0.50028894  1
  I  I122  1  0.32890751  0.49959196  0.83548319  1
  I  I123  1  0.32956775  0.83276853  0.16301896  1
  I  I124  1  0.32983172  0.83282175  0.50378382  1
  I  I125  1  0.33200818  0.83719672  0.83361277  1
  I  I126  1  0.66643118  0.16751910  0.16053277  1
  I  I127  1  0.66351751  0.16772252  0.50596641  1
  I  I128  1  0.66644354  0.15960569  0.83312884  1
  I  I129  1  0.66688150  0.50030516  0.16800151  1
  I  I130  1  0.67023144  0.49843010  0.50400335  1
  I  I131  1  0.66683026  0.50000110  0.83063638  1
  I  I132  1  0.66666804  0.83252068  0.16608991  1
  I  I133  1  0.66650829  0.83310498  0.50219793  1
  I  I134  1  0.66668103  0.84423909  0.83117739  1
