# generated using pymatgen
data_Cs27Sn13Pb14I81
_symmetry_space_group_name_H-M   'P 1'
_cell_length_a   18.97673153
_cell_length_b   18.97735944
_cell_length_c   18.97461719
_cell_angle_alpha   90.00013104
_cell_angle_beta   90.00134779
_cell_angle_gamma   90.00180513
_symmetry_Int_Tables_number   1
_chemical_formula_structural   Cs27Sn13Pb14I81
_chemical_formula_sum   'Cs27 Sn13 Pb14 I81'
_cell_volume   6833.29577855
_cell_formula_units_Z   1
loop_
 _symmetry_equiv_pos_site_id
 _symmetry_equiv_pos_as_xyz
  1  'x, y, z'
loop_
 _atom_site_type_symbol
 _atom_site_label
 _atom_site_symmetry_multiplicity
 _atom_site_fract_x
 _atom_site_fract_y
 _atom_site_fract_z
 _atom_site_occupancy
  Cs  Cs0  1  -0.00148130  -0.00033024  0.00089471  1
  Cs  Cs1  1  -0.00067046  -0.00868350  0.32968048  1
  Cs  Cs2  1  0.00194008  0.00477735  0.66793412  1
  Cs  Cs3  1  0.00135732  0.33416006  0.00021489  1
  Cs  Cs4  1  -0.00021893  0.33632778  0.32975527  1
  Cs  Cs5  1  0.00025251  0.33274281  0.66712855  1
  Cs  Cs6  1  0.00145619  0.66542058  -0.00009771  1
  Cs  Cs7  1  -0.00023253  0.66957214  0.33369311  1
  Cs  Cs8  1  -0.00223275  0.66434358  0.66759358  1
  Cs  Cs9  1  0.33414811  -0.00320211  -0.00225908  1
  Cs  Cs10  1  0.33294071  -0.00093272  0.34348165  1
  Cs  Cs11  1  0.33198951  0.00338362  0.66200436  1
  Cs  Cs12  1  0.33203757  0.33585657  0.00152807  1
  Cs  Cs13  1  0.33830379  0.33074687  0.33101112  1
  Cs  Cs14  1  0.33177678  0.33000565  0.66476952  1
  Cs  Cs15  1  0.33404905  0.66642423  -0.00089772  1
  Cs  Cs16  1  0.33204262  0.66991855  0.33438789  1
  Cs  Cs17  1  0.33591447  0.66643559  0.66843258  1
  Cs  Cs18  1  0.66699858  0.00025869  0.00014044  1
  Cs  Cs19  1  0.66673317  0.00236855  0.33163001  1
  Cs  Cs20  1  0.66663844  0.00001483  0.66896383  1
  Cs  Cs21  1  0.66506789  0.33240524  0.00201461  1
  Cs  Cs22  1  0.65964076  0.33057984  0.33271815  1
  Cs  Cs23  1  0.66902627  0.33497350  0.66593212  1
  Cs  Cs24  1  0.66336277  0.66705740  -0.00250385  1
  Cs  Cs25  1  0.66742854  0.66633410  0.34648921  1
  Cs  Cs26  1  0.66708782  0.66503180  0.66304690  1
  Sn  Sn27  1  0.83398569  0.49990514  0.83449970  1
  Sn  Sn28  1  0.83249578  0.16698439  0.83294027  1
  Sn  Sn29  1  0.16594682  0.49931859  0.16685163  1
  Sn  Sn30  1  0.50024659  0.83302589  0.16628384  1
  Sn  Sn31  1  0.83338834  0.83316906  0.83363758  1
  Sn  Sn32  1  0.83324100  0.50030687  0.16600998  1
  Sn  Sn33  1  0.16600124  0.50068674  0.83318167  1
  Sn  Sn34  1  0.16666837  0.49982833  0.49990248  1
  Sn  Sn35  1  0.16655794  0.83276018  0.83347743  1
  Sn  Sn36  1  0.16661325  0.16643619  0.16654519  1
  Sn  Sn37  1  0.50052693  0.16629809  0.83384199  1
  Sn  Sn38  1  0.50003644  0.83437904  0.83398772  1
  Sn  Sn39  1  0.83390036  0.16675916  0.49988953  1
  Pb  Pb40  1  0.83497430  0.49804017  0.49989776  1
  Pb  Pb41  1  0.16406895  0.16876562  0.49680697  1
  Pb  Pb42  1  0.50015169  0.49982131  0.83325256  1
  Pb  Pb43  1  0.50017742  0.50252274  0.16664107  1
  Pb  Pb44  1  0.83362952  0.83615147  0.50283607  1
  Pb  Pb45  1  0.50010180  0.83351688  0.50084866  1
  Pb  Pb46  1  0.83094802  0.83023028  0.16456424  1
  Pb  Pb47  1  0.16629394  0.83092893  0.50336157  1
  Pb  Pb48  1  0.16827657  0.83285528  0.16472441  1
  Pb  Pb49  1  0.50253464  0.16670740  0.50281568  1
  Pb  Pb50  1  0.16646766  0.16693549  0.83465360  1
  Pb  Pb51  1  0.49740629  0.16430301  0.16433789  1
  Pb  Pb52  1  0.83476537  0.16847501  0.16613842  1
  Pb  Pb53  1  0.49677473  0.49969490  0.49996815  1
  I  I54  1  0.16732044  0.00189131  0.16251863  1
  I  I55  1  0.16690253  0.00018480  0.49981632  1
  I  I56  1  0.16457372  -0.00228678  0.83691181  1
  I  I57  1  0.16319794  0.33526995  0.16289550  1
  I  I58  1  0.16490530  0.33665571  0.50747012  1
  I  I59  1  0.16362323  0.33645725  0.83261060  1
  I  I60  1  0.16436013  0.66323529  0.16718091  1
  I  I61  1  0.16478501  0.66277517  0.49464576  1
  I  I62  1  0.16440617  0.66576152  0.83527879  1
  I  I63  1  0.49922429  -0.00327702  0.16142457  1
  I  I64  1  0.49836275  0.00014471  0.49868491  1
  I  I65  1  0.50321332  -0.00077598  0.83747646  1
  I  I66  1  0.50055608  0.33330928  0.16549605  1
  I  I67  1  0.50032941  0.33299805  0.50171000  1
  I  I68  1  0.50309341  0.33056590  0.83253729  1
  I  I69  1  0.49723011  0.66996800  0.15628944  1
  I  I70  1  0.50140197  0.66675278  0.50250159  1
  I  I71  1  0.50076006  0.66974634  0.83684971  1
  I  I72  1  0.83514036  -0.00015309  0.16608649  1
  I  I73  1  0.83374082  0.00394227  0.50582477  1
  I  I74  1  0.83294104  0.00001927  0.82866267  1
  I  I75  1  0.83635182  0.33659886  0.16009513  1
  I  I76  1  0.83502787  0.33066118  0.50844546  1
  I  I77  1  0.83416896  0.33364283  0.83271503  1
  I  I78  1  0.84145429  0.66234577  0.16085614  1
  I  I79  1  0.83369523  0.66641309  0.50057114  1
  I  I80  1  0.83456559  0.66622555  0.83821414  1
  I  I81  1  0.16481008  0.17296900  0.00210691  1
  I  I82  1  0.16563863  0.17247520  0.32926183  1
  I  I83  1  0.16872793  0.16727432  0.66686183  1
  I  I84  1  0.16257542  0.50005930  -0.00063528  1
  I  I85  1  0.16252568  0.49475790  0.33207659  1
  I  I86  1  0.16270120  0.50482666  0.66840735  1
  I  I87  1  0.16520705  0.82803834  -0.00377624  1
  I  I88  1  0.16974922  0.83315263  0.33319719  1
  I  I89  1  0.16906014  0.82977009  0.67197206  1
  I  I90  1  0.50693274  0.16476836  -0.00371840  1
  I  I91  1  0.50082077  0.16541742  0.33313316  1
  I  I92  1  0.49890442  0.15996143  0.67116030  1
  I  I93  1  0.49571973  0.49864754  -0.00027306  1
  I  I94  1  0.50173770  0.50221897  0.33305745  1
  I  I95  1  0.50040950  0.50266049  0.66715568  1
  I  I96  1  0.49953558  0.83622310  -0.00254162  1
  I  I97  1  0.49797621  0.83116411  0.33064852  1
  I  I98  1  0.49984596  0.83646657  0.67117124  1
  I  I99  1  0.83110541  0.16523080  -0.00362084  1
  I  I100  1  0.83647826  0.17018840  0.33521632  1
  I  I101  1  0.83047187  0.16850412  0.66951056  1
  I  I102  1  0.84162958  0.49820137  -0.00181068  1
  I  I103  1  0.83827684  0.49830018  0.33058324  1
  I  I104  1  0.83696064  0.50156054  0.67023537  1
  I  I105  1  0.83559786  0.83827037  -0.00427600  1
  I  I106  1  0.83130740  0.83345906  0.33310034  1
  I  I107  1  0.83032286  0.82680262  0.67191143  1
  I  I108  1  0.00272344  0.16912447  0.16294969  1
  I  I109  1  -0.00313747  0.16790512  0.51083669  1
  I  I110  1  -0.00289505  0.16484368  0.83111180  1
  I  I111  1  0.00104522  0.49641454  0.16422098  1
  I  I112  1  0.00287432  0.49869345  0.50155306  1
  I  I113  1  0.00011734  0.50260991  0.83389949  1
  I  I114  1  -0.00005797  0.83506159  0.16503174  1
  I  I115  1  -0.00002385  0.83375353  0.49999046  1
  I  I116  1  -0.00032278  0.83237241  0.83258795  1
  I  I117  1  0.32977445  0.17520473  0.16372122  1
  I  I118  1  0.33305594  0.16790673  0.50088854  1
  I  I119  1  0.33529045  0.16341318  0.83635305  1
  I  I120  1  0.32972014  0.49733578  0.16464382  1
  I  I121  1  0.32838731  0.49973694  0.50165135  1
  I  I122  1  0.32991192  0.50307234  0.83452722  1
  I  I123  1  0.33583187  0.83128794  0.15769429  1
  I  I124  1  0.33314083  0.83272279  0.50239450  1
  I  I125  1  0.33331546  0.83221479  0.83773279  1
  I  I126  1  0.66664738  0.16807651  0.16822611  1
  I  I127  1  0.67041725  0.16847973  0.50156513  1
  I  I128  1  0.66782750  0.16366376  0.83053630  1
  I  I129  1  0.66985853  0.50034319  0.15894860  1
  I  I130  1  0.66709862  0.49978557  0.50034070  1
  I  I131  1  0.67018677  0.50154392  0.83769304  1
  I  I132  1  0.66351359  0.83347270  0.15810579  1
  I  I133  1  0.66688417  0.83135059  0.50191011  1
  I  I134  1  0.66691750  0.83437228  0.83741799  1
