# generated using pymatgen
data_Cs27Sn14Pb13I81
_symmetry_space_group_name_H-M   'P 1'
_cell_length_a   18.97971066
_cell_length_b   18.98372711
_cell_length_c   18.96321711
_cell_angle_alpha   89.99995745
_cell_angle_beta   90.00054976
_cell_angle_gamma   89.99961951
_symmetry_Int_Tables_number   1
_chemical_formula_structural   Cs27Sn14Pb13I81
_chemical_formula_sum   'Cs27 Sn14 Pb13 I81'
_cell_volume   6832.55422539
_cell_formula_units_Z   1
loop_
 _symmetry_equiv_pos_site_id
 _symmetry_equiv_pos_as_xyz
  1  'x, y, z'
loop_
 _atom_site_type_symbol
 _atom_site_label
 _atom_site_symmetry_multiplicity
 _atom_site_fract_x
 _atom_site_fract_y
 _atom_site_fract_z
 _atom_site_occupancy
  Cs  Cs0  1  -0.00405942  -0.00140479  0.00210284  1
  Cs  Cs1  1  -0.00104623  -0.00032558  0.33330073  1
  Cs  Cs2  1  0.00733418  0.00056772  0.66539828  1
  Cs  Cs3  1  -0.00244501  0.33514579  0.00072021  1
  Cs  Cs4  1  -0.00015306  0.33138905  0.33240104  1
  Cs  Cs5  1  0.00515591  0.33433202  0.66533949  1
  Cs  Cs6  1  -0.00172655  0.66519935  0.00004697  1
  Cs  Cs7  1  -0.00401177  0.67042910  0.33696450  1
  Cs  Cs8  1  0.00626780  0.66651190  0.66046506  1
  Cs  Cs9  1  0.33547868  -0.00107102  -0.00264882  1
  Cs  Cs10  1  0.33298720  0.00148552  0.33149975  1
  Cs  Cs11  1  0.32725251  -0.00694568  0.67443844  1
  Cs  Cs12  1  0.33517211  0.33431816  0.00132967  1
  Cs  Cs13  1  0.33566539  0.33317809  0.33121884  1
  Cs  Cs14  1  0.32204050  0.33277158  0.66713847  1
  Cs  Cs15  1  0.33287385  0.66585789  0.00080614  1
  Cs  Cs16  1  0.33690109  0.66645000  0.33408724  1
  Cs  Cs17  1  0.32764331  0.67450989  0.65930425  1
  Cs  Cs18  1  0.66735225  -0.00001467  -0.00110091  1
  Cs  Cs19  1  0.66820976  0.00214361  0.33240598  1
  Cs  Cs20  1  0.66354450  0.00054649  0.67003946  1
  Cs  Cs21  1  0.66712386  0.33398952  -0.00012554  1
  Cs  Cs22  1  0.66582150  0.33202009  0.33341984  1
  Cs  Cs23  1  0.66839113  0.33305615  0.66727326  1
  Cs  Cs24  1  0.66825675  0.66341865  0.00076739  1
  Cs  Cs25  1  0.66675204  0.66851339  0.34008932  1
  Cs  Cs26  1  0.66489853  0.66668148  0.65894166  1
  Sn  Sn27  1  0.16679748  0.16654158  0.16629559  1
  Sn  Sn28  1  0.83318320  0.16750401  0.16648315  1
  Sn  Sn29  1  0.50013587  0.16686510  0.50029883  1
  Sn  Sn30  1  0.49974076  0.83326918  0.16628032  1
  Sn  Sn31  1  0.83306477  0.49939307  0.16649980  1
  Sn  Sn32  1  0.83318654  0.16682460  0.83305740  1
  Sn  Sn33  1  0.83311881  0.83245105  0.83312601  1
  Sn  Sn34  1  0.83230133  0.50051857  0.83364949  1
  Sn  Sn35  1  0.50058698  0.50028157  0.16605593  1
  Sn  Sn36  1  0.50034682  0.50001198  0.83330314  1
  Sn  Sn37  1  0.83223098  0.16686542  0.50014442  1
  Sn  Sn38  1  0.16749095  0.83319375  0.16621911  1
  Sn  Sn39  1  0.50019168  0.16651116  0.16701565  1
  Sn  Sn40  1  0.16637006  0.50037406  0.16644343  1
  Pb  Pb41  1  0.16686455  0.49983674  0.49639328  1
  Pb  Pb42  1  0.83285309  0.83295125  0.16567680  1
  Pb  Pb43  1  0.83309817  0.83670164  0.50371871  1
  Pb  Pb44  1  0.16732070  0.16662091  0.49759399  1
  Pb  Pb45  1  0.83324361  0.49766868  0.50021668  1
  Pb  Pb46  1  0.16415491  0.83305646  0.83623642  1
  Pb  Pb47  1  0.49989971  0.49728149  0.50057317  1
  Pb  Pb48  1  0.50015819  0.83686981  0.49761460  1
  Pb  Pb49  1  0.16674533  0.50020895  0.83530668  1
  Pb  Pb50  1  0.50202926  0.83014196  0.83553825  1
  Pb  Pb51  1  0.16676337  0.83367991  0.49662622  1
  Pb  Pb52  1  0.16383968  0.16673264  0.83653654  1
  Pb  Pb53  1  0.50141249  0.16875416  0.83319109  1
  I  I54  1  0.16802447  0.00069561  0.16704488  1
  I  I55  1  0.16493174  0.00042208  0.49654366  1
  I  I56  1  0.16503113  0.00005276  0.83640887  1
  I  I57  1  0.16776354  0.33321736  0.16674271  1
  I  I58  1  0.16578630  0.33291402  0.49869291  1
  I  I59  1  0.16485943  0.33340326  0.83521240  1
  I  I60  1  0.16914127  0.66602497  0.16515151  1
  I  I61  1  0.16577915  0.66678431  0.49847374  1
  I  I62  1  0.16329349  0.66651934  0.83793216  1
  I  I63  1  0.49807749  0.00105767  0.17130124  1
  I  I64  1  0.50609038  0.00478116  0.49275419  1
  I  I65  1  0.50283166  0.00005320  0.83496312  1
  I  I66  1  0.49840775  0.33319736  0.16708411  1
  I  I67  1  0.50582810  0.32962218  0.49066228  1
  I  I68  1  0.50716307  0.33649146  0.84176488  1
  I  I69  1  0.49701503  0.66571299  0.16116882  1
  I  I70  1  0.49977144  0.66669062  0.49851306  1
  I  I71  1  0.50713776  0.66232623  0.84229640  1
  I  I72  1  0.83364230  0.00304719  0.16566238  1
  I  I73  1  0.82988567  0.00479162  0.49482452  1
  I  I74  1  0.83400061  0.00127721  0.83606689  1
  I  I75  1  0.83386140  0.33251848  0.16319863  1
  I  I76  1  0.82951521  0.32955131  0.50105863  1
  I  I77  1  0.82935078  0.33343486  0.83630101  1
  I  I78  1  0.83421738  0.66366131  0.16112313  1
  I  I79  1  0.83429963  0.66673092  0.49836069  1
  I  I80  1  0.82981393  0.66516136  0.84351685  1
  I  I81  1  0.16803070  0.16753611  0.00520733  1
  I  I82  1  0.16152473  0.16714634  0.32857991  1
  I  I83  1  0.16656145  0.16642686  0.66678214  1
  I  I84  1  0.16589900  0.49874885  0.00444684  1
  I  I85  1  0.16671708  0.49835745  0.32731041  1
  I  I86  1  0.16610139  0.49952809  0.66679197  1
  I  I87  1  0.17042635  0.83395540  0.00455356  1
  I  I88  1  0.16820302  0.83393791  0.32801743  1
  I  I89  1  0.16559684  0.83387558  0.66685836  1
  I  I90  1  0.50028172  0.16530095  0.00380746  1
  I  I91  1  0.50477649  0.16818023  0.33036052  1
  I  I92  1  0.50828615  0.16970275  0.66429072  1
  I  I93  1  0.50125068  0.49726220  0.00260510  1
  I  I94  1  0.49998170  0.50142657  0.32927102  1
  I  I95  1  0.50923749  0.49724499  0.66995385  1
  I  I96  1  0.49648557  0.83959776  0.00414518  1
  I  I97  1  0.49751109  0.82759830  0.32861224  1
  I  I98  1  0.50191919  0.83346165  0.66695188  1
  I  I99  1  0.83399962  0.16723582  0.00114737  1
  I  I100  1  0.83337244  0.17100233  0.33135956  1
  I  I101  1  0.82645485  0.16656248  0.66704434  1
  I  I102  1  0.83312306  0.49505862  0.00129014  1
  I  I103  1  0.83335072  0.49587748  0.32961720  1
  I  I104  1  0.82729724  0.49877886  0.67032622  1
  I  I105  1  0.83370948  0.83845870  -0.00196724  1
  I  I106  1  0.83447971  0.83318039  0.33338527  1
  I  I107  1  0.83163246  0.83091632  0.67156706  1
  I  I108  1  -0.00122367  0.16881330  0.16595223  1
  I  I109  1  -0.00303571  0.16705192  0.49912796  1
  I  I110  1  -0.00511042  0.16993199  0.83316001  1
  I  I111  1  -0.00090968  0.49639595  0.16268427  1
  I  I112  1  -0.00017836  0.49698772  0.49994838  1
  I  I113  1  -0.00375267  0.49845932  0.83889488  1
  I  I114  1  0.00208956  0.83413297  0.16423383  1
  I  I115  1  -0.00025593  0.83551031  0.49711969  1
  I  I116  1  -0.00395957  0.83266280  0.83764999  1
  I  I117  1  0.33415818  0.16909408  0.17215205  1
  I  I118  1  0.33650806  0.16873702  0.49150483  1
  I  I119  1  0.33334039  0.16834787  0.83305616  1
  I  I120  1  0.33412008  0.49701052  0.16344366  1
  I  I121  1  0.33353695  0.49619197  0.50004055  1
  I  I122  1  0.33642194  0.49770891  0.84043762  1
  I  I123  1  0.33366463  0.83398942  0.16680779  1
  I  I124  1  0.33354403  0.83533214  0.50264357  1
  I  I125  1  0.33352269  0.83290897  0.83257771  1
  I  I126  1  0.66722042  0.16842111  0.16705144  1
  I  I127  1  0.66743434  0.16724161  0.49255587  1
  I  I128  1  0.67021560  0.16517478  0.83912172  1
  I  I129  1  0.66681674  0.49646935  0.16222223  1
  I  I130  1  0.66667045  0.50103478  0.49435161  1
  I  I131  1  0.66798455  0.49840668  0.84375850  1
  I  I132  1  0.66403996  0.83463863  0.16453806  1
  I  I133  1  0.66671167  0.83156755  0.49554865  1
  I  I134  1  0.66988538  0.83741509  0.83855898  1
