# generated using pymatgen
data_Cs27Sn14Pb13I81
_symmetry_space_group_name_H-M   'P 1'
_cell_length_a   18.97555026
_cell_length_b   18.97989063
_cell_length_c   18.97038228
_cell_angle_alpha   89.99889078
_cell_angle_beta   89.99994492
_cell_angle_gamma   90.00067109
_symmetry_Int_Tables_number   1
_chemical_formula_structural   Cs27Sn14Pb13I81
_chemical_formula_sum   'Cs27 Sn14 Pb13 I81'
_cell_volume   6832.25656721
_cell_formula_units_Z   1
loop_
 _symmetry_equiv_pos_site_id
 _symmetry_equiv_pos_as_xyz
  1  'x, y, z'
loop_
 _atom_site_type_symbol
 _atom_site_label
 _atom_site_symmetry_multiplicity
 _atom_site_fract_x
 _atom_site_fract_y
 _atom_site_fract_z
 _atom_site_occupancy
  Cs  Cs0  1  0.00538025  0.00757504  -0.00445008  1
  Cs  Cs1  1  -0.00281509  -0.00249600  0.33464226  1
  Cs  Cs2  1  -0.00449005  0.00313149  0.66895622  1
  Cs  Cs3  1  -0.00011731  0.33006042  -0.00021956  1
  Cs  Cs4  1  0.00235944  0.33387692  0.33268031  1
  Cs  Cs5  1  -0.00314888  0.33524935  0.66813371  1
  Cs  Cs6  1  -0.00092785  0.66554508  0.00034358  1
  Cs  Cs7  1  0.00171449  0.66835640  0.33179386  1
  Cs  Cs8  1  -0.00032270  0.66353194  0.66768556  1
  Cs  Cs9  1  0.33085469  -0.00147752  0.00075443  1
  Cs  Cs10  1  0.33282233  0.00282402  0.33349791  1
  Cs  Cs11  1  0.33424900  -0.00233224  0.66707068  1
  Cs  Cs12  1  0.33338844  0.33039220  0.00371140  1
  Cs  Cs13  1  0.33368150  0.33060355  0.33490804  1
  Cs  Cs14  1  0.33808494  0.33628019  0.66292118  1
  Cs  Cs15  1  0.33362757  0.67049969  -0.00206854  1
  Cs  Cs16  1  0.32911047  0.66670549  0.33640836  1
  Cs  Cs17  1  0.33351433  0.66658450  0.66612429  1
  Cs  Cs18  1  0.66309342  -0.00455906  0.00330095  1
  Cs  Cs19  1  0.67110447  -0.00362311  0.33397300  1
  Cs  Cs20  1  0.66844931  0.00332222  0.66394693  1
  Cs  Cs21  1  0.66695167  0.33585495  0.00093024  1
  Cs  Cs22  1  0.66501017  0.33447862  0.32984348  1
  Cs  Cs23  1  0.66581263  0.33273199  0.66707365  1
  Cs  Cs24  1  0.66779604  0.66753262  0.00504115  1
  Cs  Cs25  1  0.67053639  0.66822482  0.32544454  1
  Cs  Cs26  1  0.66643042  0.66504551  0.66776014  1
  Sn  Sn27  1  0.83288517  0.50096914  0.83273914  1
  Sn  Sn28  1  0.16711064  0.50049987  0.16543907  1
  Sn  Sn29  1  0.49932846  0.16652629  0.50074624  1
  Sn  Sn30  1  0.50155109  0.50053324  0.50024808  1
  Sn  Sn31  1  0.83329789  0.83286384  0.83304850  1
  Sn  Sn32  1  0.49973612  0.83298741  0.50002188  1
  Sn  Sn33  1  0.16718877  0.49984017  0.83449635  1
  Sn  Sn34  1  0.16700596  0.83465517  0.49984884  1
  Sn  Sn35  1  0.49982171  0.16718890  0.83296268  1
  Sn  Sn36  1  0.83201710  0.50020386  0.50015483  1
  Sn  Sn37  1  0.83315290  0.16673456  0.16676144  1
  Sn  Sn38  1  0.49995885  0.49940401  0.83295060  1
  Sn  Sn39  1  0.16682175  0.16552499  0.50062632  1
  Sn  Sn40  1  0.16661760  0.83282079  0.16698769  1
  Pb  Pb41  1  0.50197493  0.16663762  0.16699300  1
  Pb  Pb42  1  0.49725210  0.83327157  0.16979214  1
  Pb  Pb43  1  0.16689092  0.50016557  0.50040244  1
  Pb  Pb44  1  0.83053339  0.16728290  0.83510735  1
  Pb  Pb45  1  0.49717828  0.50019749  0.16662374  1
  Pb  Pb46  1  0.16941194  0.16951489  0.83038689  1
  Pb  Pb47  1  0.83360512  0.83077238  0.50156037  1
  Pb  Pb48  1  0.16532069  0.16644616  0.16891506  1
  Pb  Pb49  1  0.50188774  0.83298953  0.83119980  1
  Pb  Pb50  1  0.83560590  0.49882497  0.16624665  1
  Pb  Pb51  1  0.16493417  0.83150238  0.83251227  1
  Pb  Pb52  1  0.83639613  0.83563817  0.16374999  1
  Pb  Pb53  1  0.83279552  0.16924443  0.49856347  1
  I  I54  1  0.16474155  -0.00255726  0.16997546  1
  I  I55  1  0.17447815  -0.00074492  0.49367629  1
  I  I56  1  0.16554065  0.00021538  0.83625835  1
  I  I57  1  0.16475664  0.33567775  0.16450019  1
  I  I58  1  0.16966351  0.33172371  0.49973081  1
  I  I59  1  0.16059436  0.33762290  0.83771448  1
  I  I60  1  0.16572511  0.66652825  0.17052217  1
  I  I61  1  0.16967928  0.66871683  0.49896828  1
  I  I62  1  0.17110408  0.66309983  0.83147799  1
  I  I63  1  0.49873810  -0.00001808  0.16430906  1
  I  I64  1  0.49438635  0.00050795  0.50384671  1
  I  I65  1  0.50302089  0.00235151  0.82861920  1
  I  I66  1  0.49715459  0.33350448  0.17132242  1
  I  I67  1  0.49889791  0.33363940  0.50417766  1
  I  I68  1  0.50146904  0.33480701  0.82468311  1
  I  I69  1  0.50321710  0.66664660  0.16596680  1
  I  I70  1  0.49766962  0.66586761  0.50496718  1
  I  I71  1  0.49784955  0.66325426  0.82818979  1
  I  I72  1  0.83425005  0.00277457  0.16731792  1
  I  I73  1  0.83164850  -0.00006805  0.50058987  1
  I  I74  1  0.83302110  -0.00182833  0.83473433  1
  I  I75  1  0.83619574  0.33138464  0.16587595  1
  I  I76  1  0.83157163  0.33709018  0.50642551  1
  I  I77  1  0.83523563  0.33677611  0.83057991  1
  I  I78  1  0.83332322  0.66677555  0.16817024  1
  I  I79  1  0.83068700  0.66279684  0.50181773  1
  I  I80  1  0.83205917  0.66436203  0.82925133  1
  I  I81  1  0.16711858  0.16460552  -0.00029304  1
  I  I82  1  0.17293659  0.16946525  0.33679319  1
  I  I83  1  0.16651061  0.16139105  0.66251603  1
  I  I84  1  0.16568788  0.50544636  -0.00066815  1
  I  I85  1  0.16580458  0.50063957  0.33190657  1
  I  I86  1  0.16612613  0.49996174  0.66903754  1
  I  I87  1  0.16342825  0.83018481  0.00201024  1
  I  I88  1  0.17006141  0.82979847  0.33437716  1
  I  I89  1  0.17047187  0.83481249  0.66341614  1
  I  I90  1  0.50291528  0.17358712  -0.00297535  1
  I  I91  1  0.49631837  0.16857560  0.33720729  1
  I  I92  1  0.49709452  0.16885312  0.66533651  1
  I  I93  1  0.50285061  0.49450371  -0.00361302  1
  I  I94  1  0.50291798  0.49844527  0.33704875  1
  I  I95  1  0.49824640  0.49891361  0.66635738  1
  I  I96  1  0.50005164  0.83401925  -0.00024889  1
  I  I97  1  0.50023753  0.83345263  0.33834617  1
  I  I98  1  0.49248335  0.83241531  0.66300261  1
  I  I99  1  0.83417082  0.16878315  0.00237901  1
  I  I100  1  0.83296001  0.16893596  0.33117503  1
  I  I101  1  0.83547901  0.16556721  0.66672243  1
  I  I102  1  0.83083867  0.50216551  -0.00333059  1
  I  I103  1  0.83019026  0.49746404  0.33577380  1
  I  I104  1  0.83593522  0.50225500  0.66756670  1
  I  I105  1  0.83263276  0.82516612  -0.00366489  1
  I  I106  1  0.83153751  0.83270158  0.33337613  1
  I  I107  1  0.83573379  0.83146390  0.66930304  1
  I  I108  1  -0.00220082  0.16795395  0.16740091  1
  I  I109  1  0.00222949  0.16408602  0.49666623  1
  I  I110  1  0.00004226  0.16732938  0.83316427  1
  I  I111  1  0.00341288  0.50249678  0.16487236  1
  I  I112  1  -0.00167035  0.49953612  0.50326544  1
  I  I113  1  -0.00046129  0.50510238  0.83180827  1
  I  I114  1  0.00375649  0.82838798  0.17527451  1
  I  I115  1  0.00296684  0.83583695  0.49692621  1
  I  I116  1  -0.00283618  0.82702015  0.83148641  1
  I  I117  1  0.33321955  0.16689151  0.16566426  1
  I  I118  1  0.33428994  0.16939386  0.50200167  1
  I  I119  1  0.33725715  0.17129388  0.83233086  1
  I  I120  1  0.32917291  0.50234618  0.16418854  1
  I  I121  1  0.33598506  0.49982669  0.50287733  1
  I  I122  1  0.33406737  0.49589659  0.83148318  1
  I  I123  1  0.32923741  0.83009716  0.16608275  1
  I  I124  1  0.33327282  0.83127716  0.49711609  1
  I  I125  1  0.33332747  0.83247142  0.83528081  1
  I  I126  1  0.66949447  0.16873799  0.16826100  1
  I  I127  1  0.66329756  0.16470090  0.50294208  1
  I  I128  1  0.66304884  0.17253938  0.82555001  1
  I  I129  1  0.66671650  0.49807706  0.16570845  1
  I  I130  1  0.66549338  0.49878673  0.50832861  1
  I  I131  1  0.66643050  0.49906877  0.82696805  1
  I  I132  1  0.66703371  0.83482324  0.16752321  1
  I  I133  1  0.66399331  0.83656167  0.50373842  1
  I  I134  1  0.66957367  0.82782064  0.83127100  1
