# generated using pymatgen
data_Cs27Sn14Pb13I81
_symmetry_space_group_name_H-M   'P 1'
_cell_length_a   18.97058431
_cell_length_b   18.97889471
_cell_length_c   18.97639651
_cell_angle_alpha   89.99997239
_cell_angle_beta   90.00024645
_cell_angle_gamma   90.00056081
_symmetry_Int_Tables_number   1
_chemical_formula_structural   Cs27Sn14Pb13I81
_chemical_formula_sum   'Cs27 Sn14 Pb13 I81'
_cell_volume   6832.27550378
_cell_formula_units_Z   1
loop_
 _symmetry_equiv_pos_site_id
 _symmetry_equiv_pos_as_xyz
  1  'x, y, z'
loop_
 _atom_site_type_symbol
 _atom_site_label
 _atom_site_symmetry_multiplicity
 _atom_site_fract_x
 _atom_site_fract_y
 _atom_site_fract_z
 _atom_site_occupancy
  Cs  Cs0  1  -0.00873836  0.00188052  -0.00176101  1
  Cs  Cs1  1  0.00119226  -0.00880562  0.33231610  1
  Cs  Cs2  1  -0.00366583  0.00075449  0.66879220  1
  Cs  Cs3  1  -0.00210241  0.32984882  -0.00181937  1
  Cs  Cs4  1  0.00324597  0.33438710  0.33606806  1
  Cs  Cs5  1  0.00238898  0.33130972  0.66571952  1
  Cs  Cs6  1  -0.00454797  0.66827436  0.00260078  1
  Cs  Cs7  1  0.00222431  0.67366481  0.33193268  1
  Cs  Cs8  1  -0.00128420  0.66854850  0.66553252  1
  Cs  Cs9  1  0.33356230  -0.00150890  -0.00348866  1
  Cs  Cs10  1  0.33376415  -0.00062051  0.33264016  1
  Cs  Cs11  1  0.33531309  0.00010497  0.66867040  1
  Cs  Cs12  1  0.33224298  0.33488603  0.00263837  1
  Cs  Cs13  1  0.33243080  0.33339119  0.33400674  1
  Cs  Cs14  1  0.33165848  0.33257370  0.66581471  1
  Cs  Cs15  1  0.33398099  0.66705596  -0.00254808  1
  Cs  Cs16  1  0.33111816  0.66817245  0.33330359  1
  Cs  Cs17  1  0.33446807  0.66654957  0.66801685  1
  Cs  Cs18  1  0.67084426  0.00232409  0.00263486  1
  Cs  Cs19  1  0.66529389  0.00307901  0.33193455  1
  Cs  Cs20  1  0.66242588  -0.00228880  0.66559627  1
  Cs  Cs21  1  0.67344782  0.34094133  0.00954995  1
  Cs  Cs22  1  0.66693495  0.33198916  0.33157508  1
  Cs  Cs23  1  0.66650742  0.33529313  0.66401680  1
  Cs  Cs24  1  0.67250024  0.65741124  -0.00153541  1
  Cs  Cs25  1  0.66836361  0.66616765  0.33349822  1
  Cs  Cs26  1  0.66609773  0.66691446  0.66860247  1
  Sn  Sn27  1  0.16693433  0.50096636  0.83316708  1
  Sn  Sn28  1  0.16701969  0.49941183  0.16679537  1
  Sn  Sn29  1  0.83384859  0.49932629  0.50007236  1
  Sn  Sn30  1  0.49992215  0.83309134  0.16589468  1
  Sn  Sn31  1  0.83355944  0.16710994  0.50003439  1
  Sn  Sn32  1  0.49983407  0.16684016  0.50073002  1
  Sn  Sn33  1  0.16651855  0.16669067  0.49919389  1
  Sn  Sn34  1  0.16714989  0.16667186  0.16736982  1
  Sn  Sn35  1  0.16653656  0.49981745  0.50000692  1
  Sn  Sn36  1  0.49954848  0.83393733  0.83404474  1
  Sn  Sn37  1  0.16697575  0.83281591  0.83326725  1
  Sn  Sn38  1  0.50020046  0.16710164  0.83352019  1
  Sn  Sn39  1  0.49942055  0.83335456  0.49969257  1
  Sn  Sn40  1  0.49986493  0.49978809  0.50000321  1
  Pb  Pb41  1  0.16819981  0.83374471  0.16378275  1
  Pb  Pb42  1  0.82912460  0.16703017  0.83074872  1
  Pb  Pb43  1  0.49854052  0.49941606  0.83177462  1
  Pb  Pb44  1  0.16819991  0.16665113  0.83319208  1
  Pb  Pb45  1  0.83671519  0.49973481  0.83059693  1
  Pb  Pb46  1  0.16867582  0.83380091  0.50208934  1
  Pb  Pb47  1  0.83683534  0.49983722  0.16994912  1
  Pb  Pb48  1  0.83237020  0.83335859  0.83314548  1
  Pb  Pb49  1  0.82969392  0.83329162  0.16673588  1
  Pb  Pb50  1  0.49781676  0.50216102  0.16934341  1
  Pb  Pb51  1  0.83671423  0.16673837  0.16993655  1
  Pb  Pb52  1  0.49816043  0.16534600  0.16647245  1
  Pb  Pb53  1  0.83024331  0.83349081  0.50003297  1
  I  I54  1  0.16922888  0.00257472  0.17274998  1
  I  I55  1  0.16705815  0.00318565  0.49631610  1
  I  I56  1  0.17104140  -0.00216475  0.83238784  1
  I  I57  1  0.16885818  0.33376515  0.16697098  1
  I  I58  1  0.17066719  0.33387578  0.50137973  1
  I  I59  1  0.16861833  0.33580677  0.83172045  1
  I  I60  1  0.16843761  0.66400198  0.17096207  1
  I  I61  1  0.16688909  0.66360104  0.49763523  1
  I  I62  1  0.17377013  0.66624239  0.83178605  1
  I  I63  1  0.49582789  -0.00264136  0.17212194  1
  I  I64  1  0.49964648  0.00051883  0.50090584  1
  I  I65  1  0.49255525  -0.00084016  0.82619845  1
  I  I66  1  0.50018949  0.33355599  0.16624691  1
  I  I67  1  0.49896987  0.33283496  0.50511066  1
  I  I68  1  0.49641889  0.33064304  0.82524175  1
  I  I69  1  0.49609987  0.67005813  0.16695536  1
  I  I70  1  0.49896775  0.66647712  0.50008908  1
  I  I71  1  0.49664847  0.66936795  0.83083200  1
  I  I72  1  0.83694630  0.00019390  0.16961227  1
  I  I73  1  0.83405303  0.00327120  0.50016133  1
  I  I74  1  0.83945469  0.00025618  0.83043416  1
  I  I75  1  0.82809268  0.33332503  0.16448547  1
  I  I76  1  0.82940911  0.33334709  0.50077306  1
  I  I77  1  0.83400429  0.33332123  0.83381916  1
  I  I78  1  0.83593418  0.66637568  0.16993586  1
  I  I79  1  0.83429628  0.66349999  0.49998515  1
  I  I80  1  0.82910920  0.66646213  0.83001546  1
  I  I81  1  0.17128483  0.17012440  0.00201792  1
  I  I82  1  0.16932243  0.17465201  0.33532792  1
  I  I83  1  0.16600145  0.17022654  0.66338179  1
  I  I84  1  0.16998694  0.49971857  -0.00003750  1
  I  I85  1  0.16742106  0.49489115  0.33490189  1
  I  I86  1  0.16732416  0.49940313  0.66506631  1
  I  I87  1  0.17497324  0.82937290  -0.00371819  1
  I  I88  1  0.16863867  0.83117400  0.33337863  1
  I  I89  1  0.17352325  0.82952563  0.66969733  1
  I  I90  1  0.49445955  0.15937775  -0.00266931  1
  I  I91  1  0.50133895  0.16580772  0.33697310  1
  I  I92  1  0.49733647  0.16181522  0.66449294  1
  I  I93  1  0.49718336  0.50057940  0.00010581  1
  I  I94  1  0.49767218  0.49862285  0.33814438  1
  I  I95  1  0.49723423  0.50352065  0.66278147  1
  I  I96  1  0.49305952  0.83976171  -0.00127068  1
  I  I97  1  0.49985724  0.83338260  0.33461893  1
  I  I98  1  0.49635831  0.83458748  0.66633495  1
  I  I99  1  0.83381371  0.16493690  0.00017888  1
  I  I100  1  0.82587431  0.17135513  0.33810093  1
  I  I101  1  0.84005446  0.17055393  0.66228558  1
  I  I102  1  0.83290766  0.50134270  0.00023029  1
  I  I103  1  0.83273257  0.49542614  0.33804861  1
  I  I104  1  0.83423725  0.49642338  0.66224190  1
  I  I105  1  0.83324294  0.83377232  -0.00011757  1
  I  I106  1  0.83363721  0.83264770  0.33378048  1
  I  I107  1  0.83214645  0.83307855  0.66633366  1
  I  I108  1  0.00493899  0.17050008  0.16986117  1
  I  I109  1  0.00114412  0.17531819  0.49604074  1
  I  I110  1  0.00003289  0.16572297  0.83285975  1
  I  I111  1  0.00498567  0.49715680  0.16802917  1
  I  I112  1  0.00150477  0.49219146  0.50097070  1
  I  I113  1  0.00522883  0.50543480  0.83117644  1
  I  I114  1  0.00035911  0.83303508  0.16595495  1
  I  I115  1  0.00016920  0.83330378  0.50160214  1
  I  I116  1  0.00300067  0.82887642  0.83250841  1
  I  I117  1  0.33025062  0.17041981  0.17387414  1
  I  I118  1  0.33348896  0.16934704  0.50004842  1
  I  I119  1  0.33602369  0.16438453  0.82565326  1
  I  I120  1  0.32968065  0.49655657  0.17021984  1
  I  I121  1  0.33264046  0.49762699  0.50026682  1
  I  I122  1  0.33016658  0.50144775  0.82935295  1
  I  I123  1  0.33602065  0.83329244  0.17021818  1
  I  I124  1  0.33709733  0.83321162  0.49895130  1
  I  I125  1  0.33452301  0.83294273  0.83197676  1
  I  I126  1  0.66663454  0.16346432  0.16702772  1
  I  I127  1  0.66540681  0.16865231  0.50537800  1
  I  I128  1  0.66117190  0.15776061  0.82656571  1
  I  I129  1  0.66668834  0.50248299  0.16736316  1
  I  I130  1  0.66578277  0.49795612  0.50088897  1
  I  I131  1  0.66665067  0.50150570  0.83097495  1
  I  I132  1  0.66147401  0.83518083  0.16688163  1
  I  I133  1  0.66162804  0.83307563  0.50312266  1
  I  I134  1  0.66220056  0.83833307  0.83088808  1
