# generated using pymatgen
data_Cs27Sn14Pb13I81
_symmetry_space_group_name_H-M   'P 1'
_cell_length_a   18.95636906
_cell_length_b   18.96187586
_cell_length_c   18.96187587
_cell_angle_alpha   90.00205439
_cell_angle_beta   90.00163510
_cell_angle_gamma   90.00163512
_symmetry_Int_Tables_number   1
_chemical_formula_structural   Cs27Sn14Pb13I81
_chemical_formula_sum   'Cs27 Sn14 Pb13 I81'
_cell_volume   6815.81435812
_cell_formula_units_Z   1
loop_
 _symmetry_equiv_pos_site_id
 _symmetry_equiv_pos_as_xyz
  1  'x, y, z'
loop_
 _atom_site_type_symbol
 _atom_site_label
 _atom_site_symmetry_multiplicity
 _atom_site_fract_x
 _atom_site_fract_y
 _atom_site_fract_z
 _atom_site_occupancy
  Cs  Cs0  1  0.00036490  -0.00030125  -0.00165438  1
  Cs  Cs1  1  -0.00028441  0.00018625  0.33351960  1
  Cs  Cs2  1  -0.00040385  0.00309479  0.66651503  1
  Cs  Cs3  1  -0.00160846  0.33010203  -0.00468884  1
  Cs  Cs4  1  -0.00040380  0.33318175  0.33642810  1
  Cs  Cs5  1  0.00253482  0.33273160  0.66606503  1
  Cs  Cs6  1  0.00154639  0.66933379  0.00266713  1
  Cs  Cs7  1  0.00036486  0.66501228  0.33303212  1
  Cs  Cs8  1  -0.00160854  0.66197775  0.66343534  1
  Cs  Cs9  1  0.32859039  -0.00216336  -0.00058124  1
  Cs  Cs10  1  0.33240432  0.00213964  0.33547297  1
  Cs  Cs11  1  0.33501641  -0.00178441  0.66559811  1
  Cs  Cs12  1  0.33819985  0.34200005  0.00015742  1
  Cs  Cs13  1  0.33501650  0.33226485  0.33154878  1
  Cs  Cs14  1  0.33260457  0.33407445  0.66740780  1
  Cs  Cs15  1  0.32684175  0.66085305  -0.00581378  1
  Cs  Cs16  1  0.32859052  0.66608542  0.33116990  1
  Cs  Cs17  1  0.33819979  0.66682393  0.67533348  1
  Cs  Cs18  1  0.66962905  0.00129305  0.00407401  1
  Cs  Cs19  1  0.66673921  -0.00012866  0.33320467  1
  Cs  Cs20  1  0.66604497  -0.00039049  0.66581354  1
  Cs  Cs21  1  0.66494482  0.33394237  0.00138706  1
  Cs  Cs22  1  0.66604501  0.33248023  0.33294279  1
  Cs  Cs23  1  0.66720790  0.33178795  0.66512135  1
  Cs  Cs24  1  0.66767831  0.66563578  -0.00103094  1
  Cs  Cs25  1  0.66962910  0.67074051  0.33462629  1
  Cs  Cs26  1  0.66494478  0.66805392  0.66727564  1
  Sn  Sn27  1  0.49978804  0.83301607  0.16634944  1
  Sn  Sn28  1  0.83317464  0.49981101  0.16594439  1
  Sn  Sn29  1  0.83428387  0.16693246  0.16761826  1
  Sn  Sn30  1  0.16594294  0.16678673  0.16707883  1
  Sn  Sn31  1  0.83313754  0.50067538  0.83400874  1
  Sn  Sn32  1  0.83337908  0.16595192  0.49928524  1
  Sn  Sn33  1  0.16654528  0.16587797  0.49921132  1
  Sn  Sn34  1  0.50009644  0.49982283  0.49948280  1
  Sn  Sn35  1  0.83253536  0.83330835  0.16664171  1
  Sn  Sn36  1  0.83317462  0.83261103  0.83314436  1
  Sn  Sn37  1  0.50009646  0.16614942  0.83315618  1
  Sn  Sn38  1  0.83428388  0.83428496  0.50026584  1
  Sn  Sn39  1  0.50003660  0.16756823  0.50090156  1
  Sn  Sn40  1  0.16594293  0.83374543  0.50012006  1
  Pb  Pb41  1  0.83188443  0.16655292  0.83335463  1
  Pb  Pb42  1  0.83188446  0.50002124  0.49988629  1
  Pb  Pb43  1  0.49982781  0.16523648  0.16689113  1
  Pb  Pb44  1  0.16373569  0.83351616  0.83008276  1
  Pb  Pb45  1  0.16616593  0.83506625  0.16839960  1
  Pb  Pb46  1  0.16966337  0.50011506  0.50004063  1
  Pb  Pb47  1  0.16373568  0.49674948  0.16684946  1
  Pb  Pb48  1  0.16966339  0.16670730  0.83344838  1
  Pb  Pb49  1  0.50214194  0.83537181  0.83643065  1
  Pb  Pb50  1  0.50214193  0.50309738  0.16870513  1
  Pb  Pb51  1  0.49982785  0.83355773  0.49856983  1
  Pb  Pb52  1  0.16350837  0.49993434  0.83326769  1
  Pb  Pb53  1  0.50247565  0.49805545  0.83138875  1
  I  I54  1  0.16144794  0.00325779  0.16949759  1
  I  I55  1  0.16700185  0.00138527  0.49625113  1
  I  I56  1  0.16391693  0.00015435  0.83506527  1
  I  I57  1  0.16325200  0.32849503  0.17435956  1
  I  I58  1  0.16320073  0.32955647  0.49705896  1
  I  I59  1  0.16342788  0.33294167  0.83081295  1
  I  I60  1  0.16619822  0.66681117  0.16910132  1
  I  I61  1  0.16104328  0.66975780  0.49890513  1
  I  I62  1  0.16996199  0.66697900  0.83166293  1
  I  I63  1  0.50780800  -0.00233025  0.16926297  1
  I  I64  1  0.50086028  0.00300581  0.50177809  1
  I  I65  1  0.50295070  0.00305240  0.82531525  1
  I  I66  1  0.50101011  0.33325898  0.16553854  1
  I  I67  1  0.50182043  0.33095181  0.50261755  1
  I  I68  1  0.50301190  0.33008196  0.83234528  1
  I  I69  1  0.50760922  0.67065690  0.17038141  1
  I  I70  1  0.50274836  0.66499844  0.49713840  1
  I  I71  1  0.50044118  0.66671196  0.83113847  1
  I  I72  1  0.83249853  0.00000831  0.16742301  1
  I  I73  1  0.83157525  0.00040694  0.49761653  1
  I  I74  1  0.83144706  -0.00251094  0.83494898  1
  I  I75  1  0.83701583  0.33218883  0.16719304  1
  I  I76  1  0.83460470  0.33023933  0.49761925  1
  I  I77  1  0.83084783  0.33530207  0.83645129  1
  I  I78  1  0.82794592  0.66782002  0.16705231  1
  I  I79  1  0.83525380  0.66961762  0.49770986  1
  I  I80  1  0.83233703  0.66746514  0.83543728  1
  I  I81  1  0.16104329  0.16557190  0.00309112  1
  I  I82  1  0.16700193  0.16291801  0.33471861  1
  I  I83  1  0.16320066  0.16372518  0.66288983  1
  I  I84  1  0.16996195  0.49832946  0.00031237  1
  I  I85  1  0.16391698  0.50173157  0.33348775  1
  I  I86  1  0.16342785  0.49748006  0.66627500  1
  I  I87  1  0.16619787  0.83576786  0.00014452  1
  I  I88  1  0.16144781  0.83616421  0.33659108  1
  I  I89  1  0.16325249  0.84102650  0.66182836  1
  I  I90  1  0.50274837  0.16380542  -0.00166828  1
  I  I91  1  0.50085995  0.16844500  0.33633911  1
  I  I92  1  0.50182050  0.16928382  0.66428516  1
  I  I93  1  0.50044114  0.49780496  0.00004529  1
  I  I94  1  0.50295031  0.49198168  0.33638571  1
  I  I95  1  0.50301224  0.49901245  0.66341531  1
  I  I96  1  0.50760974  0.83704780  0.00399025  1
  I  I97  1  0.50780795  0.83592988  0.33100304  1
  I  I98  1  0.50100960  0.83220517  0.66659230  1
  I  I99  1  0.83525362  0.16437683  0.00295100  1
  I  I100  1  0.83157533  0.16428271  0.33374031  1
  I  I101  1  0.83460474  0.16428615  0.66357270  1
  I  I102  1  0.83233708  0.50210321  0.00079850  1
  I  I103  1  0.83144721  0.50161597  0.33082240  1
  I  I104  1  0.83084761  0.50311839  0.66863545  1
  I  I105  1  0.82794580  0.83371928  0.00115335  1
  I  I106  1  0.83249858  0.83408986  0.33334163  1
  I  I107  1  0.83701589  0.83385911  0.66552216  1
  I  I108  1  -0.00191617  0.16518738  0.17377076  1
  I  I109  1  -0.00099597  0.16225232  0.49558565  1
  I  I110  1  -0.00028033  0.16734548  0.83122670  1
  I  I111  1  -0.00489107  0.50602513  0.16543023  1
  I  I112  1  -0.00028029  0.49789330  0.50067886  1
  I  I113  1  -0.00491290  0.50175337  0.83508655  1
  I  I114  1  -0.00383653  0.83205789  0.16539118  1
  I  I115  1  -0.00191612  0.84043754  0.49852087  1
  I  I116  1  -0.00489108  0.83209689  0.83935824  1
  I  I117  1  0.33108362  0.16253372  0.17097847  1
  I  I118  1  0.33312971  0.16592287  0.49925646  1
  I  I119  1  0.33737064  0.16595829  0.82874126  1
  I  I120  1  0.33346982  0.50018533  0.16814295  1
  I  I121  1  0.33737064  0.49540803  0.49929191  1
  I  I122  1  0.33385543  0.49879944  0.83213268  1
  I  I123  1  0.33517487  0.83797175  0.17130487  1
  I  I124  1  0.33108361  0.83764529  0.49586669  1
  I  I125  1  0.33346982  0.83480960  0.83351928  1
  I  I126  1  0.66990393  0.16698018  0.16963805  1
  I  I127  1  0.66751161  0.16633468  0.49966788  1
  I  I128  1  0.66439419  0.16633540  0.82828753  1
  I  I129  1  0.67072090  0.49452484  0.16420872  1
  I  I130  1  0.66439415  0.49495420  0.49966827  1
  I  I131  1  0.67038195  0.50340120  0.83673481  1
  I  I132  1  0.66960388  0.83650913  0.16984266  1
  I  I133  1  0.66990396  0.83630455  0.50031374  1
  I  I134  1  0.67072091  0.83087523  0.82785774  1
