# generated using pymatgen
data_Cs27Sn14Pb13I81
_symmetry_space_group_name_H-M   'P 1'
_cell_length_a   18.95708003
_cell_length_b   18.96112676
_cell_length_c   18.96280727
_cell_angle_alpha   89.99887728
_cell_angle_beta   89.99740913
_cell_angle_gamma   90.00107364
_symmetry_Int_Tables_number   1
_chemical_formula_structural   Cs27Sn14Pb13I81
_chemical_formula_sum   'Cs27 Sn14 Pb13 I81'
_cell_volume   6816.13550057
_cell_formula_units_Z   1
loop_
 _symmetry_equiv_pos_site_id
 _symmetry_equiv_pos_as_xyz
  1  'x, y, z'
loop_
 _atom_site_type_symbol
 _atom_site_label
 _atom_site_symmetry_multiplicity
 _atom_site_fract_x
 _atom_site_fract_y
 _atom_site_fract_z
 _atom_site_occupancy
  Cs  Cs0  1  -0.00032197  -0.00036089  -0.00092776  1
  Cs  Cs1  1  0.00169237  0.00143522  0.33345854  1
  Cs  Cs2  1  0.00121614  0.00054017  0.66736966  1
  Cs  Cs3  1  0.00035633  0.33389562  -0.00219195  1
  Cs  Cs4  1  -0.00318340  0.32591898  0.33870729  1
  Cs  Cs5  1  0.00061706  0.33132066  0.66600233  1
  Cs  Cs6  1  0.00015178  0.66609149  0.00053510  1
  Cs  Cs7  1  0.00090148  0.66855822  0.33101122  1
  Cs  Cs8  1  -0.00089241  0.66729128  0.66746638  1
  Cs  Cs9  1  0.33369579  0.00083542  -0.00095414  1
  Cs  Cs10  1  0.33169343  -0.00166435  0.33646013  1
  Cs  Cs11  1  0.33313522  -0.00017852  0.66539594  1
  Cs  Cs12  1  0.33803594  0.33902549  0.00183558  1
  Cs  Cs13  1  0.33651994  0.33480206  0.33218440  1
  Cs  Cs14  1  0.33286912  0.33636712  0.66803791  1
  Cs  Cs15  1  0.33055698  0.65783287  0.00140439  1
  Cs  Cs16  1  0.33203604  0.66664697  0.33111389  1
  Cs  Cs17  1  0.33363944  0.66540101  0.66762840  1
  Cs  Cs18  1  0.66513273  0.00173026  -0.00002983  1
  Cs  Cs19  1  0.66628029  -0.00029255  0.33173888  1
  Cs  Cs20  1  0.66332095  -0.00358608  0.66914127  1
  Cs  Cs21  1  0.66287664  0.32875767  0.00409290  1
  Cs  Cs22  1  0.66604856  0.33429618  0.33219413  1
  Cs  Cs23  1  0.66598916  0.33909950  0.66381838  1
  Cs  Cs24  1  0.67098315  0.66931042  -0.00097887  1
  Cs  Cs25  1  0.66707676  0.66706330  0.33523156  1
  Cs  Cs26  1  0.66613449  0.66754160  0.66524857  1
  Sn  Sn27  1  0.83354411  0.83355499  0.49992292  1
  Sn  Sn28  1  0.83363346  0.16652985  0.83319618  1
  Sn  Sn29  1  0.50030203  0.83337835  0.16694486  1
  Sn  Sn30  1  0.83351595  0.49993710  0.83417235  1
  Sn  Sn31  1  0.49983539  0.83416424  0.49910057  1
  Sn  Sn32  1  0.50027775  0.16606243  0.50031064  1
  Sn  Sn33  1  0.16631825  0.16594980  0.83460056  1
  Sn  Sn34  1  0.16673350  0.16657668  0.16546502  1
  Sn  Sn35  1  0.16659320  0.83232326  0.50085365  1
  Sn  Sn36  1  0.16617173  0.83387510  0.83285966  1
  Sn  Sn37  1  0.16624430  0.50099511  0.49987976  1
  Sn  Sn38  1  0.83263144  0.83296777  0.16658090  1
  Sn  Sn39  1  0.83379207  0.50031319  0.16623113  1
  Sn  Sn40  1  0.83426082  0.83357902  0.83339710  1
  Pb  Pb41  1  0.50357254  0.50007637  0.83353133  1
  Pb  Pb42  1  0.49932704  0.83305271  0.83373692  1
  Pb  Pb43  1  0.16375115  0.49696908  0.16915945  1
  Pb  Pb44  1  0.16468795  0.49999989  0.83189780  1
  Pb  Pb45  1  0.49751979  0.16428046  0.16868367  1
  Pb  Pb46  1  0.50295521  0.50303297  0.16680906  1
  Pb  Pb47  1  0.16828748  0.16624488  0.50077935  1
  Pb  Pb48  1  0.49764786  0.50099730  0.49987899  1
  Pb  Pb49  1  0.83081377  0.16396131  0.50267703  1
  Pb  Pb50  1  0.83518358  0.50214324  0.49978403  1
  Pb  Pb51  1  0.83471600  0.16620045  0.16471773  1
  Pb  Pb52  1  0.49958691  0.16665286  0.83120290  1
  Pb  Pb53  1  0.16654891  0.83438058  0.16616370  1
  I  I54  1  0.16431169  0.00208856  0.16768211  1
  I  I55  1  0.16534847  -0.00324271  0.50098438  1
  I  I56  1  0.15864015  -0.00081111  0.83073021  1
  I  I57  1  0.16499800  0.32953359  0.16234581  1
  I  I58  1  0.16781271  0.33495703  0.49981851  1
  I  I59  1  0.16185456  0.33058425  0.83349800  1
  I  I60  1  0.16859916  0.66667550  0.16519287  1
  I  I61  1  0.16792904  0.66944149  0.50498547  1
  I  I62  1  0.16282245  0.66976066  0.83040101  1
  I  I63  1  0.50733254  -0.00371279  0.16881201  1
  I  I64  1  0.49770158  -0.00247681  0.49728605  1
  I  I65  1  0.50462704  -0.00034433  0.83413761  1
  I  I66  1  0.50064909  0.33321483  0.16881863  1
  I  I67  1  0.49736174  0.33103951  0.50197563  1
  I  I68  1  0.49918393  0.33311524  0.82972943  1
  I  I69  1  0.49971239  0.67115340  0.17381652  1
  I  I70  1  0.50232296  0.67080071  0.49710258  1
  I  I71  1  0.49888777  0.66715813  0.83035608  1
  I  I72  1  0.83114195  -0.00344574  0.16648806  1
  I  I73  1  0.83895592  -0.00462061  0.49856984  1
  I  I74  1  0.83743237  -0.00136698  0.83270502  1
  I  I75  1  0.83679773  0.33555834  0.16232069  1
  I  I76  1  0.83371148  0.33323270  0.50007332  1
  I  I77  1  0.83778602  0.33314173  0.83719995  1
  I  I78  1  0.83059838  0.66856021  0.16246031  1
  I  I79  1  0.82919357  0.67079524  0.50427481  1
  I  I80  1  0.83661563  0.66828676  0.83389106  1
  I  I81  1  0.16212067  0.15960218  -0.00160324  1
  I  I82  1  0.16783783  0.16584125  0.33198731  1
  I  I83  1  0.16352139  0.16495817  0.66954099  1
  I  I84  1  0.16716182  0.50246377  0.00002890  1
  I  I85  1  0.16515837  0.50648732  0.33673334  1
  I  I86  1  0.16429906  0.50040628  0.66397819  1
  I  I87  1  0.16279310  0.83661655  -0.00290271  1
  I  I88  1  0.16451735  0.83249681  0.33597761  1
  I  I89  1  0.16349846  0.83554593  0.66646396  1
  I  I90  1  0.50136710  0.16508402  0.00009016  1
  I  I91  1  0.49778224  0.16325060  0.33659021  1
  I  I92  1  0.49834566  0.15798973  0.66338039  1
  I  I93  1  0.49541260  0.50104544  0.00034738  1
  I  I94  1  0.50212137  0.49765911  0.33343759  1
  I  I95  1  0.50213192  0.50166181  0.66636473  1
  I  I96  1  0.50483824  0.83364448  0.00279900  1
  I  I97  1  0.50315929  0.83700926  0.33453508  1
  I  I98  1  0.50228903  0.83672813  0.66353256  1
  I  I99  1  0.83498241  0.16179857  -0.00354106  1
  I  I100  1  0.83513501  0.16689520  0.33344150  1
  I  I101  1  0.84072115  0.16715688  0.67080120  1
  I  I102  1  0.83469117  0.50667710  -0.00058701  1
  I  I103  1  0.83487161  0.50562168  0.33082830  1
  I  I104  1  0.83507594  0.50082119  0.66938252  1
  I  I105  1  0.83328668  0.83247621  -0.00059479  1
  I  I106  1  0.83286251  0.82844445  0.33331916  1
  I  I107  1  0.83372587  0.83349769  0.66714165  1
  I  I108  1  0.00264895  0.16364367  0.16712491  1
  I  I109  1  -0.00003807  0.16630155  0.49844516  1
  I  I110  1  0.00008360  0.16463193  0.83565351  1
  I  I111  1  -0.00386734  0.50922691  0.16238561  1
  I  I112  1  0.00291869  0.50481281  0.50051332  1
  I  I113  1  -0.00352273  0.50168137  0.83591620  1
  I  I114  1  -0.00306465  0.83118650  0.16845820  1
  I  I115  1  0.00006864  0.82885711  0.50083355  1
  I  I116  1  -0.00098659  0.83417308  0.83023397  1
  I  I117  1  0.32969900  0.16414374  0.16112887  1
  I  I118  1  0.33575625  0.15966755  0.50091132  1
  I  I119  1  0.32973830  0.15985772  0.83425296  1
  I  I120  1  0.33301484  0.50052879  0.16796736  1
  I  I121  1  0.32970529  0.50495467  0.50113001  1
  I  I122  1  0.33286211  0.50030171  0.83130820  1
  I  I123  1  0.33538024  0.83752130  0.17130707  1
  I  I124  1  0.33291272  0.83433385  0.49981349  1
  I  I125  1  0.32976850  0.83955174  0.82919312  1
  I  I126  1  0.66671233  0.16814892  0.16608997  1
  I  I127  1  0.66337118  0.16090575  0.50081464  1
  I  I128  1  0.66992669  0.16468590  0.83187201  1
  I  I129  1  0.67112574  0.50043365  0.16363065  1
  I  I130  1  0.66700800  0.50034703  0.50089011  1
  I  I131  1  0.67219629  0.50187754  0.83445545  1
  I  I132  1  0.66816402  0.83042388  0.16986277  1
  I  I133  1  0.66718358  0.83759294  0.50019624  1
  I  I134  1  0.67018412  0.83337370  0.83095084  1
