# generated using pymatgen
data_Cs27Sn14Pb13I81
_symmetry_space_group_name_H-M   'P 1'
_cell_length_a   18.95907740
_cell_length_b   18.96333443
_cell_length_c   18.95912490
_cell_angle_alpha   89.99810034
_cell_angle_beta   89.99955879
_cell_angle_gamma   90.00154808
_symmetry_Int_Tables_number   1
_chemical_formula_structural   Cs27Sn14Pb13I81
_chemical_formula_sum   'Cs27 Sn14 Pb13 I81'
_cell_volume   6816.32345663
_cell_formula_units_Z   1
loop_
 _symmetry_equiv_pos_site_id
 _symmetry_equiv_pos_as_xyz
  1  'x, y, z'
loop_
 _atom_site_type_symbol
 _atom_site_label
 _atom_site_symmetry_multiplicity
 _atom_site_fract_x
 _atom_site_fract_y
 _atom_site_fract_z
 _atom_site_occupancy
  Cs  Cs0  1  0.00194763  0.00207449  -0.00086276  1
  Cs  Cs1  1  -0.00063828  -0.00209010  0.33392518  1
  Cs  Cs2  1  -0.00026548  -0.00060553  0.66691527  1
  Cs  Cs3  1  0.00022464  0.33254250  0.00573702  1
  Cs  Cs4  1  0.00069494  0.33419159  0.32806223  1
  Cs  Cs5  1  -0.00102059  0.33564114  0.66700980  1
  Cs  Cs6  1  -0.00065550  0.66537149  -0.00048638  1
  Cs  Cs7  1  0.00086478  0.66810186  0.33575361  1
  Cs  Cs8  1  -0.00123062  0.66524267  0.66501391  1
  Cs  Cs9  1  0.33298135  -0.00146232  -0.00311492  1
  Cs  Cs10  1  0.33509687  -0.00131900  0.33532020  1
  Cs  Cs11  1  0.33097046  0.00038566  0.66747733  1
  Cs  Cs12  1  0.32962400  0.33229789  0.00301836  1
  Cs  Cs13  1  0.33363949  0.33564179  0.33638584  1
  Cs  Cs14  1  0.33486490  0.33401910  0.66347383  1
  Cs  Cs15  1  0.34348480  0.66953956  0.00045116  1
  Cs  Cs16  1  0.33287810  0.66764251  0.33103597  1
  Cs  Cs17  1  0.33304529  0.66526914  0.66939128  1
  Cs  Cs18  1  0.66581985  0.00085131  0.00103921  1
  Cs  Cs19  1  0.66611574  -0.00052629  0.33396714  1
  Cs  Cs20  1  0.67013538  0.00342958  0.66492659  1
  Cs  Cs21  1  0.66958580  0.33195328  -0.00063680  1
  Cs  Cs22  1  0.66492393  0.33295639  0.33222862  1
  Cs  Cs23  1  0.66532886  0.33204417  0.66738730  1
  Cs  Cs24  1  0.65962865  0.66704356  0.00094824  1
  Cs  Cs25  1  0.66448515  0.66897542  0.32984796  1
  Cs  Cs26  1  0.67062629  0.66394903  0.66839682  1
  Sn  Sn27  1  0.16542766  0.16681295  0.50013278  1
  Sn  Sn28  1  0.16599220  0.50018825  0.83293427  1
  Sn  Sn29  1  0.49910915  0.83295208  0.50086988  1
  Sn  Sn30  1  0.83419879  0.83340078  0.16534074  1
  Sn  Sn31  1  0.83447569  0.16788310  0.50035355  1
  Sn  Sn32  1  0.16774555  0.83318660  0.49965338  1
  Sn  Sn33  1  0.16557347  0.49998689  0.50073896  1
  Sn  Sn34  1  0.49983211  0.16675366  0.16577741  1
  Sn  Sn35  1  0.83429852  0.49978161  0.83284105  1
  Sn  Sn36  1  0.16588712  0.83327389  0.16673950  1
  Sn  Sn37  1  0.83359063  0.83330246  0.83468571  1
  Sn  Sn38  1  0.83403273  0.49876969  0.50028225  1
  Sn  Sn39  1  0.50026486  0.16667705  0.83427220  1
  Sn  Sn40  1  0.83311581  0.16685072  0.83278482  1
  Pb  Pb41  1  0.83228290  0.16461973  0.16689419  1
  Pb  Pb42  1  0.49982655  0.83503508  0.16821924  1
  Pb  Pb43  1  0.16480468  0.83104868  0.83309613  1
  Pb  Pb44  1  0.83331345  0.50261215  0.16667685  1
  Pb  Pb45  1  0.50020204  0.49728863  0.83326001  1
  Pb  Pb46  1  0.16668684  0.50269582  0.16664525  1
  Pb  Pb47  1  0.16891656  0.16421165  0.16950053  1
  Pb  Pb48  1  0.50036871  0.50274071  0.50013296  1
  Pb  Pb49  1  0.50030892  0.16533241  0.50041508  1
  Pb  Pb50  1  0.83388154  0.83310994  0.50027323  1
  Pb  Pb51  1  0.50278708  0.83566455  0.83065101  1
  Pb  Pb52  1  0.16604647  0.16896126  0.83141918  1
  Pb  Pb53  1  0.49999302  0.49673899  0.16667988  1
  I  I54  1  0.16273064  -0.00373441  0.17213531  1
  I  I55  1  0.16648447  -0.00028577  0.49580580  1
  I  I56  1  0.16578927  0.00001952  0.83195141  1
  I  I57  1  0.16887333  0.33318235  0.16779479  1
  I  I58  1  0.16331330  0.33363654  0.50492220  1
  I  I59  1  0.16243863  0.33685144  0.82745407  1
  I  I60  1  0.16265460  0.67061341  0.17349538  1
  I  I61  1  0.16550906  0.66657528  0.49955046  1
  I  I62  1  0.16025011  0.66323856  0.82721149  1
  I  I63  1  0.50093425  0.00258923  0.16417591  1
  I  I64  1  0.49708733  -0.00245643  0.49965637  1
  I  I65  1  0.50480473  0.00355924  0.83567372  1
  I  I66  1  0.50141509  0.32879323  0.16481489  1
  I  I67  1  0.49762374  0.33319263  0.49933152  1
  I  I68  1  0.50626930  0.32939748  0.83467470  1
  I  I69  1  0.50011736  0.66716724  0.16847328  1
  I  I70  1  0.49748725  0.67060673  0.49823616  1
  I  I71  1  0.50089619  0.66683176  0.83235464  1
  I  I72  1  0.83592855  -0.00340421  0.16470966  1
  I  I73  1  0.83518631  0.00215512  0.50306262  1
  I  I74  1  0.82881286  0.00066302  0.83172474  1
  I  I75  1  0.83091444  0.33315418  0.16539541  1
  I  I76  1  0.83922168  0.33294975  0.50745008  1
  I  I77  1  0.83187335  0.33310294  0.82748365  1
  I  I78  1  0.83637289  0.67079819  0.16537904  1
  I  I79  1  0.83606310  0.66436189  0.50327668  1
  I  I80  1  0.83848307  0.66609079  0.83099601  1
  I  I81  1  0.16545108  0.16686663  -0.00005270  1
  I  I82  1  0.16258373  0.17063976  0.33790877  1
  I  I83  1  0.16765954  0.16095973  0.66298608  1
  I  I84  1  0.16110710  0.49959954  -0.00306922  1
  I  I85  1  0.16253841  0.49861685  0.33708063  1
  I  I86  1  0.16234218  0.50245500  0.66514726  1
  I  I87  1  0.16357501  0.83242496  0.00217267  1
  I  I88  1  0.16422404  0.83218784  0.33490466  1
  I  I89  1  0.16854513  0.83499260  0.66345694  1
  I  I90  1  0.50666591  0.16547563  -0.00102718  1
  I  I91  1  0.50006341  0.16329256  0.33189792  1
  I  I92  1  0.50286522  0.16517084  0.66897341  1
  I  I93  1  0.49968997  0.50410685  -0.00036935  1
  I  I94  1  0.50062120  0.49783106  0.33379999  1
  I  I95  1  0.49978531  0.49807079  0.66662799  1
  I  I96  1  0.49802633  0.83320812  -0.00030817  1
  I  I97  1  0.50157158  0.83697893  0.33610207  1
  I  I98  1  0.49434069  0.83592333  0.66306075  1
  I  I99  1  0.83036055  0.16847595  -0.00302839  1
  I  I100  1  0.83480265  0.16842789  0.33654673  1
  I  I101  1  0.83077464  0.16448127  0.66686697  1
  I  I102  1  0.83780474  0.49673168  -0.00369088  1
  I  I103  1  0.83776842  0.49700179  0.33687448  1
  I  I104  1  0.83703316  0.50201551  0.66679360  1
  I  I105  1  0.83833534  0.83413563  -0.00057454  1
  I  I106  1  0.83364932  0.83412579  0.33184846  1
  I  I107  1  0.83277980  0.83389713  0.66895997  1
  I  I108  1  0.00023665  0.16633630  0.16521810  1
  I  I109  1  -0.00065168  0.16388367  0.50534505  1
  I  I110  1  -0.00338092  0.16429544  0.83005133  1
  I  I111  1  -0.00002131  0.49754777  0.16656744  1
  I  I112  1  0.00021326  0.50196214  0.50452175  1
  I  I113  1  -0.00137547  0.49917823  0.82783739  1
  I  I114  1  0.00000743  0.83423999  0.17056154  1
  I  I115  1  0.00258213  0.83351374  0.49875135  1
  I  I116  1  -0.00364529  0.83839271  0.83177226  1
  I  I117  1  0.33656495  0.16377686  0.16145318  1
  I  I118  1  0.33074316  0.16788337  0.49967719  1
  I  I119  1  0.33534813  0.16765866  0.83481161  1
  I  I120  1  0.33298639  0.50281621  0.16688480  1
  I  I121  1  0.32974489  0.49716291  0.50353645  1
  I  I122  1  0.33035884  0.49903166  0.82794589  1
  I  I123  1  0.33072161  0.83419721  0.17116787  1
  I  I124  1  0.33123536  0.83466780  0.49397988  1
  I  I125  1  0.33330962  0.83318526  0.83522297  1
  I  I126  1  0.66443352  0.16275835  0.16814056  1
  I  I127  1  0.66968820  0.16812140  0.50136391  1
  I  I128  1  0.66859864  0.16761564  0.83059988  1
  I  I129  1  0.66703803  0.50438546  0.16803864  1
  I  I130  1  0.67037338  0.49671950  0.50491999  1
  I  I131  1  0.67049289  0.50166205  0.82850005  1
  I  I132  1  0.66913505  0.83435099  0.16556658  1
  I  I133  1  0.66552960  0.83528425  0.49976471  1
  I  I134  1  0.67111415  0.82858890  0.83683873  1
