# generated using pymatgen
data_Cs27Sn13Pb14I81
_symmetry_space_group_name_H-M   'P 1'
_cell_length_a   19.00385415
_cell_length_b   18.98890490
_cell_length_c   18.98378147
_cell_angle_alpha   90.00050489
_cell_angle_beta   90.00024866
_cell_angle_gamma   89.99794976
_symmetry_Int_Tables_number   1
_chemical_formula_structural   Cs27Sn13Pb14I81
_chemical_formula_sum   'Cs27 Sn13 Pb14 I81'
_cell_volume   6850.53254394
_cell_formula_units_Z   1
loop_
 _symmetry_equiv_pos_site_id
 _symmetry_equiv_pos_as_xyz
  1  'x, y, z'
loop_
 _atom_site_type_symbol
 _atom_site_label
 _atom_site_symmetry_multiplicity
 _atom_site_fract_x
 _atom_site_fract_y
 _atom_site_fract_z
 _atom_site_occupancy
  Cs  Cs0  1  -0.00140772  0.00146810  0.00251854  1
  Cs  Cs1  1  0.00720877  -0.00792653  0.32765618  1
  Cs  Cs2  1  0.00016245  0.00039734  0.66640043  1
  Cs  Cs3  1  -0.00092890  0.33531912  -0.00176676  1
  Cs  Cs4  1  0.00187344  0.33279073  0.33104779  1
  Cs  Cs5  1  -0.00191228  0.33226961  0.67023237  1
  Cs  Cs6  1  0.00123592  0.66223965  -0.00155156  1
  Cs  Cs7  1  -0.00042970  0.67299483  0.33764950  1
  Cs  Cs8  1  0.00009397  0.66799978  0.66540457  1
  Cs  Cs9  1  0.33705591  -0.00461622  0.00424922  1
  Cs  Cs10  1  0.32596064  0.00643171  0.33050636  1
  Cs  Cs11  1  0.33343051  -0.00062632  0.66486360  1
  Cs  Cs12  1  0.33227035  0.33779287  -0.00129340  1
  Cs  Cs13  1  0.33503271  0.32771003  0.33725124  1
  Cs  Cs14  1  0.33327833  0.33221777  0.66534317  1
  Cs  Cs15  1  0.33584221  0.66470923  -0.00019625  1
  Cs  Cs16  1  0.33072116  0.66683540  0.33397830  1
  Cs  Cs17  1  0.33442591  0.66775003  0.66746532  1
  Cs  Cs18  1  0.66486922  -0.00227759  0.00324369  1
  Cs  Cs19  1  0.66667045  -0.00004083  0.32097525  1
  Cs  Cs20  1  0.66694811  0.00090354  0.66952515  1
  Cs  Cs21  1  0.66830086  0.33393314  -0.00036928  1
  Cs  Cs22  1  0.66233344  0.33364125  0.33651823  1
  Cs  Cs23  1  0.66733801  0.33215138  0.66511589  1
  Cs  Cs24  1  0.66391681  0.66619369  -0.00064356  1
  Cs  Cs25  1  0.67048928  0.66589977  0.34026680  1
  Cs  Cs26  1  0.66596575  0.66813287  0.66311296  1
  Sn  Sn27  1  0.16588371  0.83447076  0.83341024  1
  Sn  Sn28  1  0.83418099  0.83324192  0.83322139  1
  Sn  Sn29  1  0.83204534  0.50041181  0.83357624  1
  Sn  Sn30  1  0.83306873  0.49988566  0.16639439  1
  Sn  Sn31  1  0.16640673  0.49969327  0.49924303  1
  Sn  Sn32  1  0.83315065  0.16636505  0.83265053  1
  Sn  Sn33  1  0.16659843  0.49988228  0.16833035  1
  Sn  Sn34  1  0.16689012  0.16522873  0.83342733  1
  Sn  Sn35  1  0.49999104  0.16744481  0.83329524  1
  Sn  Sn36  1  0.50126127  0.49910218  0.83345138  1
  Sn  Sn37  1  0.83358803  0.16596923  0.49974648  1
  Sn  Sn38  1  0.50006783  0.83425488  0.49947436  1
  Sn  Sn39  1  0.50032157  0.50008270  0.16644470  1
  Pb  Pb40  1  0.49995345  0.16924026  0.16397971  1
  Pb  Pb41  1  0.83170575  0.83665956  0.50201160  1
  Pb  Pb42  1  0.49815901  0.50093015  0.50028058  1
  Pb  Pb43  1  0.16658332  0.16912751  0.16367293  1
  Pb  Pb44  1  0.49986765  0.83047182  0.17006910  1
  Pb  Pb45  1  0.16669657  0.49992235  0.83343624  1
  Pb  Pb46  1  0.16673441  0.83074403  0.16367421  1
  Pb  Pb47  1  0.83527558  0.49831697  0.50024430  1
  Pb  Pb48  1  0.16423521  0.16840197  0.50218283  1
  Pb  Pb49  1  0.50218633  0.16403010  0.50197291  1
  Pb  Pb50  1  0.50023526  0.83326707  0.83252029  1
  Pb  Pb51  1  0.16835541  0.83178760  0.50233399  1
  Pb  Pb52  1  0.83352192  0.16894949  0.16644115  1
  Pb  Pb53  1  0.83328221  0.83026995  0.16386182  1
  I  I54  1  0.16678048  -0.00003688  0.16803220  1
  I  I55  1  0.16738504  0.00012580  0.50068553  1
  I  I56  1  0.16329430  0.00056773  0.83086398  1
  I  I57  1  0.16627067  0.33770712  0.16663723  1
  I  I58  1  0.16842850  0.33641984  0.49890561  1
  I  I59  1  0.16420095  0.33137963  0.83379335  1
  I  I60  1  0.16648494  0.66218668  0.16652881  1
  I  I61  1  0.16575687  0.66362622  0.49933245  1
  I  I62  1  0.16362720  0.66828962  0.83350351  1
  I  I63  1  0.50054668  -0.00002049  0.16511435  1
  I  I64  1  0.50004952  -0.00308767  0.50733028  1
  I  I65  1  0.50223348  0.00257545  0.82945960  1
  I  I66  1  0.50045718  0.33779674  0.16542935  1
  I  I67  1  0.49946691  0.33315036  0.49881118  1
  I  I68  1  0.50232555  0.33420265  0.83644218  1
  I  I69  1  0.49927942  0.66203775  0.15641423  1
  I  I70  1  0.50008719  0.66826282  0.50452542  1
  I  I71  1  0.50182531  0.66367630  0.83596938  1
  I  I72  1  0.83289955  -0.00002654  0.16593108  1
  I  I73  1  0.83252619  0.00398619  0.51069599  1
  I  I74  1  0.83391148  0.00073810  0.82697611  1
  I  I75  1  0.83400681  0.33734990  0.15840494  1
  I  I76  1  0.83333182  0.33097942  0.50888561  1
  I  I77  1  0.83373322  0.33355646  0.83381541  1
  I  I78  1  0.83338185  0.66185691  0.16090243  1
  I  I79  1  0.83349713  0.66678517  0.50093669  1
  I  I80  1  0.83408832  0.66570894  0.83853654  1
  I  I81  1  0.16252274  0.16629595  -0.00495568  1
  I  I82  1  0.16494229  0.16696098  0.33333622  1
  I  I83  1  0.16806697  0.16780805  0.67081008  1
  I  I84  1  0.16664943  0.49982097  0.00184142  1
  I  I85  1  0.16676994  0.50033209  0.33241469  1
  I  I86  1  0.16688324  0.50007726  0.66538866  1
  I  I87  1  0.16396174  0.83498746  -0.00451089  1
  I  I88  1  0.16787347  0.83282109  0.33327020  1
  I  I89  1  0.16316948  0.83253496  0.67039366  1
  I  I90  1  0.50383713  0.16675582  -0.00485517  1
  I  I91  1  0.50243314  0.16780511  0.33338658  1
  I  I92  1  0.49862209  0.17451498  0.67081636  1
  I  I93  1  0.49798288  0.49695147  -0.00132275  1
  I  I94  1  0.50297556  0.50374718  0.33051438  1
  I  I95  1  0.50275445  0.49788394  0.66999657  1
  I  I96  1  0.49982895  0.83466462  -0.00003987  1
  I  I97  1  0.50125812  0.82979914  0.33736351  1
  I  I98  1  0.49983187  0.82920499  0.66550047  1
  I  I99  1  0.83354615  0.16589737  -0.00414690  1
  I  I100  1  0.83192878  0.17145113  0.33595777  1
  I  I101  1  0.83334759  0.17045198  0.67002298  1
  I  I102  1  0.83547290  0.49813562  -0.00180911  1
  I  I103  1  0.83039365  0.49675065  0.33057123  1
  I  I104  1  0.83086287  0.50087810  0.67037159  1
  I  I105  1  0.83528407  0.83897451  -0.00487203  1
  I  I106  1  0.83147116  0.83291945  0.33339082  1
  I  I107  1  0.83639205  0.82687164  0.67076782  1
  I  I108  1  -0.00002018  0.17188715  0.16288710  1
  I  I109  1  -0.00317888  0.16919586  0.50974365  1
  I  I110  1  -0.00089121  0.16820946  0.82977191  1
  I  I111  1  -0.00034443  0.49871739  0.16297475  1
  I  I112  1  0.00293409  0.49976340  0.49844897  1
  I  I113  1  -0.00251041  0.49773976  0.83600422  1
  I  I114  1  -0.00002429  0.83016109  0.16919836  1
  I  I115  1  -0.00009130  0.83212274  0.50033802  1
  I  I116  1  -0.00067711  0.83402532  0.83240454  1
  I  I117  1  0.33330140  0.17018988  0.16522964  1
  I  I118  1  0.33324406  0.16747140  0.50256161  1
  I  I119  1  0.33349436  0.16913546  0.83408852  1
  I  I120  1  0.33358054  0.50065513  0.16311233  1
  I  I121  1  0.33046262  0.50095036  0.49868944  1
  I  I122  1  0.33553494  0.49788679  0.83578737  1
  I  I123  1  0.33330972  0.82869082  0.16179840  1
  I  I124  1  0.33573760  0.83037924  0.50591623  1
  I  I125  1  0.33128723  0.83460451  0.83111314  1
  I  I126  1  0.66676454  0.16905780  0.16492687  1
  I  I127  1  0.66974854  0.17006011  0.50915560  1
  I  I128  1  0.66735934  0.16856620  0.82912380  1
  I  I129  1  0.66676560  0.49974469  0.15866617  1
  I  I130  1  0.66676361  0.50046039  0.49819376  1
  I  I131  1  0.66719420  0.49777137  0.84036614  1
  I  I132  1  0.66661421  0.83176332  0.16370479  1
  I  I133  1  0.66440436  0.82890987  0.50502772  1
  I  I134  1  0.66930544  0.83434329  0.83144984  1
