# generated using pymatgen
data_Cs27Sn13Pb14I81
_symmetry_space_group_name_H-M   'P 1'
_cell_length_a   18.97323197
_cell_length_b   18.97385744
_cell_length_c   18.98332236
_cell_angle_alpha   89.99898899
_cell_angle_beta   90.00102653
_cell_angle_gamma   90.00076252
_symmetry_Int_Tables_number   1
_chemical_formula_structural   Cs27Sn13Pb14I81
_chemical_formula_sum   'Cs27 Sn13 Pb14 I81'
_cell_volume   6833.90869845
_cell_formula_units_Z   1
loop_
 _symmetry_equiv_pos_site_id
 _symmetry_equiv_pos_as_xyz
  1  'x, y, z'
loop_
 _atom_site_type_symbol
 _atom_site_label
 _atom_site_symmetry_multiplicity
 _atom_site_fract_x
 _atom_site_fract_y
 _atom_site_fract_z
 _atom_site_occupancy
  Cs  Cs0  1  -0.00103476  0.00142982  -0.00389678  1
  Cs  Cs1  1  0.00304018  0.00188490  0.33361538  1
  Cs  Cs2  1  -0.00405361  0.00103355  0.67003815  1
  Cs  Cs3  1  0.00076075  0.33199463  -0.00258215  1
  Cs  Cs4  1  -0.00093868  0.33375781  0.33566037  1
  Cs  Cs5  1  0.00214026  0.33276956  0.66624159  1
  Cs  Cs6  1  -0.00083638  0.66625050  0.00374124  1
  Cs  Cs7  1  -0.00014956  0.66471370  0.33132056  1
  Cs  Cs8  1  0.00136888  0.66477778  0.66300084  1
  Cs  Cs9  1  0.33369834  -0.00368813  0.00401920  1
  Cs  Cs10  1  0.33220179  -0.00069687  0.33278815  1
  Cs  Cs11  1  0.33264645  0.00114137  0.66457994  1
  Cs  Cs12  1  0.33437214  0.33405208  -0.00299395  1
  Cs  Cs13  1  0.33443896  0.33198840  0.33493858  1
  Cs  Cs14  1  0.33288489  0.33296030  0.66685256  1
  Cs  Cs15  1  0.33277502  0.66845029  0.00169245  1
  Cs  Cs16  1  0.33213258  0.66969685  0.33192514  1
  Cs  Cs17  1  0.33262825  0.66667349  0.66646306  1
  Cs  Cs18  1  0.66802944  0.00096537  -0.00029817  1
  Cs  Cs19  1  0.66665464  0.00341096  0.33347127  1
  Cs  Cs20  1  0.67261447  -0.00943535  0.66766656  1
  Cs  Cs21  1  0.66525378  0.33537143  0.00199277  1
  Cs  Cs22  1  0.66662780  0.33136270  0.33214077  1
  Cs  Cs23  1  0.66226694  0.33389448  0.66601434  1
  Cs  Cs24  1  0.66878882  0.66392309  -0.00225029  1
  Cs  Cs25  1  0.66888176  0.66626154  0.33601481  1
  Cs  Cs26  1  0.66767343  0.67351452  0.66769378  1
  Sn  Sn27  1  0.83298767  0.49964974  0.83354295  1
  Sn  Sn28  1  0.49947039  0.16713905  0.50117737  1
  Sn  Sn29  1  0.16682661  0.16782547  0.16703927  1
  Sn  Sn30  1  0.16674741  0.83413270  0.50112394  1
  Sn  Sn31  1  0.49986427  0.49970455  0.50012290  1
  Sn  Sn32  1  0.83302008  0.83314264  0.16692474  1
  Sn  Sn33  1  0.83322128  0.50051845  0.16598775  1
  Sn  Sn34  1  0.49993996  0.16672994  0.83239783  1
  Sn  Sn35  1  0.16727377  0.16605034  0.49952867  1
  Sn  Sn36  1  0.16682070  0.49872893  0.16667535  1
  Sn  Sn37  1  0.49994380  0.50002441  0.16685989  1
  Sn  Sn38  1  0.50071768  0.49956602  0.83306592  1
  Sn  Sn39  1  0.16688563  0.83320571  0.83237159  1
  Pb  Pb40  1  0.83004306  0.16948836  0.83323439  1
  Pb  Pb41  1  0.50311405  0.83071735  0.16667654  1
  Pb  Pb42  1  0.83580166  0.83071686  0.83523392  1
  Pb  Pb43  1  0.83036310  0.49981049  0.50012844  1
  Pb  Pb44  1  0.16881021  0.49958505  0.49780748  1
  Pb  Pb45  1  0.16876670  0.16485617  0.83314747  1
  Pb  Pb46  1  0.49800789  0.16850058  0.16668860  1
  Pb  Pb47  1  0.83288475  0.16677387  0.50029368  1
  Pb  Pb48  1  0.16693786  0.50158163  0.83548690  1
  Pb  Pb49  1  0.83597571  0.16752354  0.16663682  1
  Pb  Pb50  1  0.49819003  0.83390607  0.49985467  1
  Pb  Pb51  1  0.49832848  0.83322719  0.83339361  1
  Pb  Pb52  1  0.16508530  0.83357777  0.16693004  1
  Pb  Pb53  1  0.83646920  0.83331499  0.49736779  1
  I  I54  1  0.16543336  0.00238235  0.16792896  1
  I  I55  1  0.17310459  0.00115739  0.49612915  1
  I  I56  1  0.16869506  -0.00285867  0.83541971  1
  I  I57  1  0.16533105  0.33408820  0.17141594  1
  I  I58  1  0.16920564  0.33051099  0.49689578  1
  I  I59  1  0.16474199  0.33346272  0.83222915  1
  I  I60  1  0.16829611  0.66391854  0.16647819  1
  I  I61  1  0.16807949  0.66863728  0.50157670  1
  I  I62  1  0.16848470  0.66932447  0.82938355  1
  I  I63  1  0.49919577  0.00031805  0.16657872  1
  I  I64  1  0.49695902  0.00368643  0.50424667  1
  I  I65  1  0.49639635  0.00304422  0.82819027  1
  I  I66  1  0.50416997  0.33718072  0.16658717  1
  I  I67  1  0.49401373  0.33357505  0.50051298  1
  I  I68  1  0.50207307  0.33481347  0.83315414  1
  I  I69  1  0.49316866  0.66161329  0.16601955  1
  I  I70  1  0.49888818  0.66351029  0.49980059  1
  I  I71  1  0.50267592  0.66289246  0.83367994  1
  I  I72  1  0.83701432  -0.00230020  0.16769890  1
  I  I73  1  0.82857158  -0.00012350  0.49722433  1
  I  I74  1  0.83263204  -0.00024375  0.83552606  1
  I  I75  1  0.83116861  0.33729090  0.16323862  1
  I  I76  1  0.83897418  0.33362647  0.49714911  1
  I  I77  1  0.83394184  0.33763231  0.84160298  1
  I  I78  1  0.83597358  0.66434624  0.16312893  1
  I  I79  1  0.83359844  0.66641430  0.50081143  1
  I  I80  1  0.82570168  0.66281750  0.83658741  1
  I  I81  1  0.16758934  0.16911371  0.00242537  1
  I  I82  1  0.17213818  0.16432950  0.33393177  1
  I  I83  1  0.16962565  0.16440904  0.66374236  1
  I  I84  1  0.17039345  0.49728434  0.00373794  1
  I  I85  1  0.16600963  0.50153374  0.32959835  1
  I  I86  1  0.16604440  0.49915276  0.66659808  1
  I  I87  1  0.16585329  0.83216299  -0.00144292  1
  I  I88  1  0.16573634  0.83451681  0.33549202  1
  I  I89  1  0.16816559  0.83745799  0.66585809  1
  I  I90  1  0.49836226  0.17164205  -0.00232020  1
  I  I91  1  0.49718267  0.17130340  0.33615394  1
  I  I92  1  0.49267096  0.17749098  0.66591886  1
  I  I93  1  0.50072035  0.49624188  -0.00001049  1
  I  I94  1  0.49921077  0.49652807  0.33299556  1
  I  I95  1  0.50332539  0.49557080  0.66709931  1
  I  I96  1  0.49447735  0.83463026  0.00004041  1
  I  I97  1  0.49681755  0.83243419  0.33325367  1
  I  I98  1  0.50086935  0.82783242  0.66660889  1
  I  I99  1  0.83444233  0.16432613  0.00004904  1
  I  I100  1  0.82948550  0.16863960  0.33316386  1
  I  I101  1  0.83932472  0.16869322  0.66689778  1
  I  I102  1  0.82870619  0.50357065  0.00119929  1
  I  I103  1  0.83334432  0.50391490  0.32991586  1
  I  I104  1  0.82934970  0.49945210  0.66978490  1
  I  I105  1  0.83715553  0.82986557  0.00296688  1
  I  I106  1  0.83522854  0.82426321  0.32964904  1
  I  I107  1  0.83272464  0.83187675  0.66680645  1
  I  I108  1  0.00418545  0.17167885  0.17263549  1
  I  I109  1  0.00371982  0.16300519  0.49489234  1
  I  I110  1  0.00019758  0.16687345  0.83353326  1
  I  I111  1  -0.00016022  0.50121641  0.16235446  1
  I  I112  1  0.00027084  0.50019340  0.49944757  1
  I  I113  1  -0.00226261  0.50338832  0.83968933  1
  I  I114  1  -0.00231572  0.82529590  0.16704645  1
  I  I115  1  0.00459177  0.83856688  0.50354616  1
  I  I116  1  0.00349777  0.83288007  0.83024491  1
  I  I117  1  0.32997286  0.17104437  0.16801510  1
  I  I118  1  0.33325447  0.16733517  0.49938304  1
  I  I119  1  0.33652431  0.17483290  0.83218506  1
  I  I120  1  0.33355197  0.49555087  0.16633478  1
  I  I121  1  0.33695164  0.49877609  0.50086612  1
  I  I122  1  0.33660035  0.49763192  0.83460234  1
  I  I123  1  0.33302252  0.83166321  0.16654927  1
  I  I124  1  0.32996878  0.83390132  0.50108211  1
  I  I125  1  0.33038775  0.83043092  0.83175374  1
  I  I126  1  0.66644645  0.16659503  0.16751611  1
  I  I127  1  0.66253241  0.17272306  0.50203262  1
  I  I128  1  0.66178737  0.16801860  0.82856555  1
  I  I129  1  0.66634911  0.50476657  0.16554330  1
  I  I130  1  0.66207120  0.49347789  0.49490933  1
  I  I131  1  0.66549647  0.49633806  0.83926338  1
  I  I132  1  0.67087017  0.82799450  0.16535910  1
  I  I133  1  0.66676714  0.83341642  0.49900600  1
  I  I134  1  0.66691355  0.83499339  0.83478535  1
