# generated using pymatgen
data_Cs27Sn14Pb13I81
_symmetry_space_group_name_H-M   'P 1'
_cell_length_a   18.97802662
_cell_length_b   18.97538215
_cell_length_c   18.97404908
_cell_angle_alpha   90.00011388
_cell_angle_beta   89.99915514
_cell_angle_gamma   90.00020361
_symmetry_Int_Tables_number   1
_chemical_formula_structural   Cs27Sn14Pb13I81
_chemical_formula_sum   'Cs27 Sn14 Pb13 I81'
_cell_volume   6832.84552006
_cell_formula_units_Z   1
loop_
 _symmetry_equiv_pos_site_id
 _symmetry_equiv_pos_as_xyz
  1  'x, y, z'
loop_
 _atom_site_type_symbol
 _atom_site_label
 _atom_site_symmetry_multiplicity
 _atom_site_fract_x
 _atom_site_fract_y
 _atom_site_fract_z
 _atom_site_occupancy
  Cs  Cs0  1  0.00011714  0.00030551  -0.00001180  1
  Cs  Cs1  1  0.00012068  0.00107694  0.33307512  1
  Cs  Cs2  1  0.00023959  0.00029596  0.66743462  1
  Cs  Cs3  1  0.00127930  0.33027466  0.00361539  1
  Cs  Cs4  1  -0.00100884  0.33096230  0.33433802  1
  Cs  Cs5  1  0.00019863  0.33772491  0.65901525  1
  Cs  Cs6  1  -0.00048656  0.66673002  0.00048634  1
  Cs  Cs7  1  -0.00027543  0.66900997  0.32854064  1
  Cs  Cs8  1  -0.00177615  0.66352529  0.67176210  1
  Cs  Cs9  1  0.33282804  0.00116176  -0.00157670  1
  Cs  Cs10  1  0.33359156  -0.00241560  0.33470073  1
  Cs  Cs11  1  0.33432454  -0.00056647  0.66651781  1
  Cs  Cs12  1  0.33918229  0.33050503  -0.00366007  1
  Cs  Cs13  1  0.33375279  0.33747204  0.33606113  1
  Cs  Cs14  1  0.33334964  0.34328108  0.66738078  1
  Cs  Cs15  1  0.33199146  0.66641528  0.00105537  1
  Cs  Cs16  1  0.33639526  0.66931295  0.33293984  1
  Cs  Cs17  1  0.33187556  0.66555656  0.66585630  1
  Cs  Cs18  1  0.66650851  0.00284640  -0.00105790  1
  Cs  Cs19  1  0.66591456  -0.00153760  0.33433909  1
  Cs  Cs20  1  0.66465875  -0.00106757  0.66622307  1
  Cs  Cs21  1  0.65848709  0.32848275  -0.00179802  1
  Cs  Cs22  1  0.66789163  0.33749034  0.33551116  1
  Cs  Cs23  1  0.66557853  0.34156936  0.66543833  1
  Cs  Cs24  1  0.66989769  0.66494848  -0.00011434  1
  Cs  Cs25  1  0.66363323  0.66762636  0.33225410  1
  Cs  Cs26  1  0.67019837  0.66360602  0.66871144  1
  Sn  Sn27  1  0.16555962  0.16610900  0.83335515  1
  Sn  Sn28  1  0.49983845  0.16614018  0.50013503  1
  Sn  Sn29  1  0.16594279  0.83373134  0.16650102  1
  Sn  Sn30  1  0.83438837  0.16657255  0.83324639  1
  Sn  Sn31  1  0.83361276  0.83377362  0.49953768  1
  Sn  Sn32  1  0.83404473  0.49965957  0.16621641  1
  Sn  Sn33  1  0.50011559  0.83429929  0.50133520  1
  Sn  Sn34  1  0.83396582  0.83368790  0.16723211  1
  Sn  Sn35  1  0.16741939  0.83418790  0.83347706  1
  Sn  Sn36  1  0.83380933  0.16661960  0.16606513  1
  Sn  Sn37  1  0.16618400  0.49968296  0.16637980  1
  Sn  Sn38  1  0.49931939  0.83365891  0.83282124  1
  Sn  Sn39  1  0.16637581  0.16658688  0.16621945  1
  Sn  Sn40  1  0.16612784  0.83376283  0.50026170  1
  Pb  Pb41  1  0.49968820  0.16647903  0.16915933  1
  Pb  Pb42  1  0.49992840  0.50385915  0.83359399  1
  Pb  Pb43  1  0.83370966  0.50342200  0.49723634  1
  Pb  Pb44  1  0.50009330  0.83350633  0.16625642  1
  Pb  Pb45  1  0.83158849  0.16477991  0.49998096  1
  Pb  Pb46  1  0.49994661  0.49989272  0.16647154  1
  Pb  Pb47  1  0.49949283  0.16501366  0.83081553  1
  Pb  Pb48  1  0.16632553  0.50341292  0.49697893  1
  Pb  Pb49  1  0.16846069  0.16501367  0.50030552  1
  Pb  Pb50  1  0.83373771  0.83481717  0.83375792  1
  Pb  Pb51  1  0.83385439  0.49587982  0.83652015  1
  Pb  Pb52  1  0.16634568  0.49953287  0.83598551  1
  Pb  Pb53  1  0.49998101  0.50101846  0.49992219  1
  I  I54  1  0.16121612  -0.00071656  0.16637304  1
  I  I55  1  0.16531565  -0.00375734  0.49463402  1
  I  I56  1  0.16700640  -0.00107684  0.83879471  1
  I  I57  1  0.16018047  0.33218232  0.16216240  1
  I  I58  1  0.17045205  0.33332926  0.50004082  1
  I  I59  1  0.16327612  0.32957063  0.83841081  1
  I  I60  1  0.16150179  0.66834294  0.16738473  1
  I  I61  1  0.17018319  0.67224066  0.50084635  1
  I  I62  1  0.17148162  0.67022776  0.83336328  1
  I  I63  1  0.50093971  -0.00018845  0.16618198  1
  I  I64  1  0.49997405  -0.00254525  0.50244117  1
  I  I65  1  0.49801828  -0.00305953  0.83119637  1
  I  I66  1  0.49981951  0.33303251  0.16938058  1
  I  I67  1  0.50025200  0.33081240  0.49813294  1
  I  I68  1  0.49988764  0.33301238  0.83173849  1
  I  I69  1  0.49983571  0.66706009  0.16860455  1
  I  I70  1  0.49938309  0.67111494  0.50260582  1
  I  I71  1  0.49429999  0.67214223  0.82703717  1
  I  I72  1  0.83892676  -0.00026560  0.16725282  1
  I  I73  1  0.83507502  -0.00360903  0.49324299  1
  I  I74  1  0.83438295  0.00246147  0.83989126  1
  I  I75  1  0.84011806  0.33236362  0.16220657  1
  I  I76  1  0.82947282  0.33326094  0.49964051  1
  I  I77  1  0.83897140  0.32787802  0.83765382  1
  I  I78  1  0.83902170  0.66786214  0.17229284  1
  I  I79  1  0.83050212  0.67199519  0.49586386  1
  I  I80  1  0.83158447  0.66674929  0.83327783  1
  I  I81  1  0.16330954  0.16116891  0.00092736  1
  I  I82  1  0.16303418  0.16543575  0.33001580  1
  I  I83  1  0.16336316  0.15928678  0.66976970  1
  I  I84  1  0.16166707  0.50669970  0.00408557  1
  I  I85  1  0.16249458  0.49827482  0.32871274  1
  I  I86  1  0.16886352  0.49972787  0.66672264  1
  I  I87  1  0.16697974  0.83335754  0.00068441  1
  I  I88  1  0.16674376  0.83316101  0.33250080  1
  I  I89  1  0.16793004  0.83934495  0.66702123  1
  I  I90  1  0.50069777  0.16562945  -0.00028711  1
  I  I91  1  0.49990073  0.15761992  0.33663943  1
  I  I92  1  0.50048411  0.16041221  0.66348563  1
  I  I93  1  0.50027771  0.50066669  0.00008613  1
  I  I94  1  0.49958122  0.50284066  0.33329692  1
  I  I95  1  0.49997064  0.49725413  0.66660274  1
  I  I96  1  0.49620860  0.83354102  -0.00279080  1
  I  I97  1  0.49781061  0.83585487  0.33621729  1
  I  I98  1  0.49676989  0.83820628  0.66582990  1
  I  I99  1  0.83652037  0.16331654  0.00153451  1
  I  I100  1  0.83706175  0.16769791  0.32985515  1
  I  I101  1  0.83673617  0.16135540  0.66926022  1
  I  I102  1  0.83832881  0.50945002  0.00456572  1
  I  I103  1  0.83783463  0.49426341  0.32901977  1
  I  I104  1  0.83105588  0.50039915  0.66681913  1
  I  I105  1  0.83600095  0.83131557  0.00326889  1
  I  I106  1  0.83571885  0.83511515  0.33213369  1
  I  I107  1  0.83485912  0.83692315  0.66443377  1
  I  I108  1  0.00024593  0.16550380  0.16380848  1
  I  I109  1  0.00007192  0.16490836  0.49979069  1
  I  I110  1  0.00100892  0.15832202  0.83877248  1
  I  I111  1  0.00017727  0.50188935  0.16685894  1
  I  I112  1  0.00001783  0.49890680  0.50254455  1
  I  I113  1  0.00001551  0.50797470  0.83102768  1
  I  I114  1  0.00058672  0.83330625  0.16969173  1
  I  I115  1  0.00038597  0.83347471  0.49748318  1
  I  I116  1  0.00310567  0.83513953  0.83161649  1
  I  I117  1  0.32952534  0.16509561  0.16282163  1
  I  I118  1  0.33606819  0.15794858  0.49860654  1
  I  I119  1  0.33007691  0.16322102  0.83906700  1
  I  I120  1  0.32963153  0.50205067  0.16721981  1
  I  I121  1  0.33313886  0.50155918  0.49638269  1
  I  I122  1  0.33302381  0.49528159  0.83685028  1
  I  I123  1  0.32977305  0.83320815  0.16916374  1
  I  I124  1  0.33296125  0.83709455  0.49915666  1
  I  I125  1  0.33167203  0.83886598  0.83134703  1
  I  I126  1  0.67014959  0.16582788  0.16292192  1
  I  I127  1  0.66394325  0.15790543  0.49910469  1
  I  I128  1  0.66896699  0.16410566  0.83891471  1
  I  I129  1  0.67037036  0.50177067  0.16762320  1
  I  I130  1  0.66685476  0.50191080  0.49634353  1
  I  I131  1  0.66699606  0.50030643  0.83629681  1
  I  I132  1  0.67010096  0.83281752  0.16987652  1
  I  I133  1  0.66664474  0.83766335  0.49878105  1
  I  I134  1  0.66488024  0.83550934  0.83005948  1
