# generated using pymatgen
data_Cs27Sn14Pb13I81
_symmetry_space_group_name_H-M   'P 1'
_cell_length_a   18.98051831
_cell_length_b   18.98011167
_cell_length_c   18.96861532
_cell_angle_alpha   89.99984917
_cell_angle_beta   89.99870310
_cell_angle_gamma   89.99961102
_symmetry_Int_Tables_number   1
_chemical_formula_structural   Cs27Sn14Pb13I81
_chemical_formula_sum   'Cs27 Sn14 Pb13 I81'
_cell_volume   6833.48837581
_cell_formula_units_Z   1
loop_
 _symmetry_equiv_pos_site_id
 _symmetry_equiv_pos_as_xyz
  1  'x, y, z'
loop_
 _atom_site_type_symbol
 _atom_site_label
 _atom_site_symmetry_multiplicity
 _atom_site_fract_x
 _atom_site_fract_y
 _atom_site_fract_z
 _atom_site_occupancy
  Cs  Cs0  1  0.00076640  0.00155626  -0.00329006  1
  Cs  Cs1  1  -0.00121097  -0.00165814  0.33441202  1
  Cs  Cs2  1  -0.00068342  -0.00095370  0.66478428  1
  Cs  Cs3  1  -0.00050226  0.33162990  0.00005370  1
  Cs  Cs4  1  0.00181814  0.33283088  0.33244221  1
  Cs  Cs5  1  0.00625499  0.33524155  0.66920235  1
  Cs  Cs6  1  0.00210638  0.66782564  -0.00571963  1
  Cs  Cs7  1  -0.00467229  0.66824025  0.33240414  1
  Cs  Cs8  1  0.00092613  0.66534155  0.67404233  1
  Cs  Cs9  1  0.33759577  -0.00569574  -0.00100726  1
  Cs  Cs10  1  0.33269585  -0.00269783  0.33237818  1
  Cs  Cs11  1  0.33436112  0.00196103  0.66586334  1
  Cs  Cs12  1  0.33330662  0.33209806  0.00131073  1
  Cs  Cs13  1  0.33127089  0.33424368  0.33411714  1
  Cs  Cs14  1  0.33009810  0.33384564  0.66542788  1
  Cs  Cs15  1  0.33165463  0.67389819  0.00168690  1
  Cs  Cs16  1  0.33423815  0.66656008  0.33193746  1
  Cs  Cs17  1  0.33272985  0.66438982  0.66804981  1
  Cs  Cs18  1  0.65950118  0.00979702  -0.00777613  1
  Cs  Cs19  1  0.66856684  0.00030946  0.33386976  1
  Cs  Cs20  1  0.66612697  -0.00029702  0.66779798  1
  Cs  Cs21  1  0.66742220  0.32738006  -0.00043173  1
  Cs  Cs22  1  0.66709798  0.33534680  0.33261504  1
  Cs  Cs23  1  0.66555836  0.33427513  0.66669622  1
  Cs  Cs24  1  0.66685673  0.66569098  -0.00217836  1
  Cs  Cs25  1  0.66894918  0.66502954  0.33573255  1
  Cs  Cs26  1  0.66754948  0.66658901  0.66385486  1
  Sn  Sn27  1  0.16639467  0.83263602  0.49979036  1
  Sn  Sn28  1  0.50036701  0.50006720  0.16646923  1
  Sn  Sn29  1  0.49998926  0.83306210  0.49956955  1
  Sn  Sn30  1  0.16686563  0.16655167  0.83459910  1
  Sn  Sn31  1  0.50046836  0.49983096  0.49975992  1
  Sn  Sn32  1  0.16629764  0.49973168  0.16697497  1
  Sn  Sn33  1  0.50007243  0.50006931  0.83355034  1
  Sn  Sn34  1  0.83279981  0.16732681  0.49972968  1
  Sn  Sn35  1  0.50082826  0.16710149  0.49938324  1
  Sn  Sn36  1  0.16671440  0.16658054  0.16584707  1
  Sn  Sn37  1  0.83321316  0.49959470  0.49954998  1
  Sn  Sn38  1  0.83264300  0.83318826  0.16657398  1
  Sn  Sn39  1  0.83345430  0.83294119  0.49948682  1
  Sn  Sn40  1  0.83345471  0.50087464  0.16725989  1
  Pb  Pb41  1  0.16623335  0.50230721  0.49811560  1
  Pb  Pb42  1  0.83300539  0.83342067  0.83387728  1
  Pb  Pb43  1  0.83494697  0.16661428  0.16850226  1
  Pb  Pb44  1  0.49798591  0.16894832  0.83068064  1
  Pb  Pb45  1  0.49787898  0.16859292  0.16909189  1
  Pb  Pb46  1  0.50324445  0.83128878  0.16860602  1
  Pb  Pb47  1  0.16678529  0.83586797  0.83064537  1
  Pb  Pb48  1  0.16444337  0.83320760  0.16830374  1
  Pb  Pb49  1  0.16659252  0.16498723  0.49927774  1
  Pb  Pb50  1  0.83545950  0.16695716  0.83006025  1
  Pb  Pb51  1  0.16919440  0.49853329  0.83671844  1
  Pb  Pb52  1  0.83127064  0.49984491  0.83368982  1
  Pb  Pb53  1  0.50017964  0.83086290  0.83078285  1
  I  I54  1  0.16404494  0.00236765  0.16594264  1
  I  I55  1  0.16632211  -0.00280381  0.49844599  1
  I  I56  1  0.16720479  0.00357842  0.83988613  1
  I  I57  1  0.16499990  0.33433605  0.16522024  1
  I  I58  1  0.16672245  0.33350471  0.50154358  1
  I  I59  1  0.16710573  0.33079426  0.83088591  1
  I  I60  1  0.16937632  0.66371506  0.17032765  1
  I  I61  1  0.16740925  0.66997300  0.49721692  1
  I  I62  1  0.16728621  0.66658170  0.83308053  1
  I  I63  1  0.49854343  -0.00008372  0.16912430  1
  I  I64  1  0.50208217  -0.00015995  0.50041110  1
  I  I65  1  0.49884827  0.00027490  0.83141579  1
  I  I66  1  0.50494841  0.33742444  0.16996997  1
  I  I67  1  0.50612358  0.33460393  0.49987071  1
  I  I68  1  0.49979784  0.33673468  0.83050803  1
  I  I69  1  0.49384240  0.66248371  0.16913485  1
  I  I70  1  0.50244664  0.66570105  0.49989671  1
  I  I71  1  0.49920050  0.66271568  0.83125851  1
  I  I72  1  0.83812766  -0.00248775  0.17489361  1
  I  I73  1  0.83165885  -0.00072649  0.49641533  1
  I  I74  1  0.83381709  0.00020927  0.83277030  1
  I  I75  1  0.83180637  0.33661660  0.17157793  1
  I  I76  1  0.82609894  0.33439964  0.49595293  1
  I  I77  1  0.83327300  0.33345205  0.83256388  1
  I  I78  1  0.83485508  0.66519981  0.17685548  1
  I  I79  1  0.82972876  0.66627835  0.49539833  1
  I  I80  1  0.83414505  0.66646408  0.82814674  1
  I  I81  1  0.16533009  0.17305356  0.00104886  1
  I  I82  1  0.16665131  0.17067708  0.33111257  1
  I  I83  1  0.16710266  0.16404785  0.66786324  1
  I  I84  1  0.16494269  0.49927437  0.00482891  1
  I  I85  1  0.17102289  0.49305065  0.33021396  1
  I  I86  1  0.16679290  0.49901188  0.66660910  1
  I  I87  1  0.16467843  0.83143406  0.00025278  1
  I  I88  1  0.16857051  0.83629878  0.33645549  1
  I  I89  1  0.16394535  0.83464067  0.66218580  1
  I  I90  1  0.50063451  0.16873987  0.00010249  1
  I  I91  1  0.50110214  0.16891897  0.33748219  1
  I  I92  1  0.50083029  0.16845325  0.66229014  1
  I  I93  1  0.49969476  0.49921004  0.00110743  1
  I  I94  1  0.50064506  0.50002458  0.33429128  1
  I  I95  1  0.50461844  0.50029008  0.66439278  1
  I  I96  1  0.50021707  0.83164128  0.00031644  1
  I  I97  1  0.49777422  0.83137951  0.33748026  1
  I  I98  1  0.50296910  0.83151946  0.66157633  1
  I  I99  1  0.83345956  0.16662661  0.00017420  1
  I  I100  1  0.83246957  0.16667729  0.33705067  1
  I  I101  1  0.83142865  0.16583362  0.66134748  1
  I  I102  1  0.83317956  0.50524216  0.00390233  1
  I  I103  1  0.82888708  0.50067089  0.33414558  1
  I  I104  1  0.82862909  0.50129267  0.66301628  1
  I  I105  1  0.83664403  0.82504627  0.00369497  1
  I  I106  1  0.83360902  0.83164087  0.33542224  1
  I  I107  1  0.83307758  0.83257224  0.66222970  1
  I  I108  1  0.00283537  0.17312341  0.16703674  1
  I  I109  1  -0.00258419  0.16617361  0.49964574  1
  I  I110  1  0.00330134  0.16799079  0.83481710  1
  I  I111  1  -0.00086949  0.49915844  0.17363492  1
  I  I112  1  -0.00318947  0.49891008  0.49496669  1
  I  I113  1  0.00025937  0.49904837  0.83162525  1
  I  I114  1  -0.00317225  0.82703709  0.17636880  1
  I  I115  1  -0.00144340  0.83553755  0.49576990  1
  I  I116  1  0.00005026  0.83245256  0.82909458  1
  I  I117  1  0.32990111  0.17277232  0.16709014  1
  I  I118  1  0.33586391  0.16742300  0.50029304  1
  I  I119  1  0.33037355  0.16835487  0.83405834  1
  I  I120  1  0.33382678  0.49412693  0.16846399  1
  I  I121  1  0.33638164  0.49949850  0.49919304  1
  I  I122  1  0.33684111  0.49841277  0.82813945  1
  I  I123  1  0.33355006  0.83195547  0.16976793  1
  I  I124  1  0.33420904  0.83415099  0.50072659  1
  I  I125  1  0.33343304  0.83272838  0.83117868  1
  I  I126  1  0.66665886  0.16710802  0.16633587  1
  I  I127  1  0.66663578  0.16347694  0.49956218  1
  I  I128  1  0.66632091  0.16696142  0.83427409  1
  I  I129  1  0.66686688  0.50530400  0.16955069  1
  I  I130  1  0.66621801  0.50308958  0.49642601  1
  I  I131  1  0.66330812  0.49948078  0.83481839  1
  I  I132  1  0.67100182  0.82742234  0.17506737  1
  I  I133  1  0.66704462  0.83249325  0.49677477  1
  I  I134  1  0.66648887  0.83362473  0.83084033  1
