# generated using pymatgen
data_Cs27Sn14Pb13I81
_symmetry_space_group_name_H-M   'P 1'
_cell_length_a   18.97627316
_cell_length_b   18.97410003
_cell_length_c   18.97563355
_cell_angle_alpha   90.00045286
_cell_angle_beta   89.99934332
_cell_angle_gamma   90.00046056
_symmetry_Int_Tables_number   1
_chemical_formula_structural   Cs27Sn14Pb13I81
_chemical_formula_sum   'Cs27 Sn14 Pb13 I81'
_cell_volume   6832.32306860
_cell_formula_units_Z   1
loop_
 _symmetry_equiv_pos_site_id
 _symmetry_equiv_pos_as_xyz
  1  'x, y, z'
loop_
 _atom_site_type_symbol
 _atom_site_label
 _atom_site_symmetry_multiplicity
 _atom_site_fract_x
 _atom_site_fract_y
 _atom_site_fract_z
 _atom_site_occupancy
  Cs  Cs0  1  -0.00197657  -0.00161683  0.00349339  1
  Cs  Cs1  1  0.00116226  0.00094046  0.33368984  1
  Cs  Cs2  1  0.00611304  -0.00748340  0.66455068  1
  Cs  Cs3  1  -0.00175655  0.33503293  0.00135867  1
  Cs  Cs4  1  -0.00125629  0.33283520  0.33236670  1
  Cs  Cs5  1  -0.00031789  0.33274946  0.66604671  1
  Cs  Cs6  1  0.00054103  0.66477783  0.00201363  1
  Cs  Cs7  1  -0.00052938  0.66525748  0.32966093  1
  Cs  Cs8  1  0.00078491  0.67335827  0.66942951  1
  Cs  Cs9  1  0.34636220  0.00182027  -0.00469755  1
  Cs  Cs10  1  0.33261807  -0.00187421  0.33319945  1
  Cs  Cs11  1  0.32386088  -0.00236667  0.67428457  1
  Cs  Cs12  1  0.33441711  0.33281021  -0.00339015  1
  Cs  Cs13  1  0.33330790  0.33466821  0.33432644  1
  Cs  Cs14  1  0.33053221  0.33101713  0.66818748  1
  Cs  Cs15  1  0.33106847  0.66521610  -0.00054954  1
  Cs  Cs16  1  0.33702116  0.66513001  0.33457755  1
  Cs  Cs17  1  0.33377373  0.67266502  0.66539092  1
  Cs  Cs18  1  0.65889453  0.00055058  -0.00196878  1
  Cs  Cs19  1  0.66525649  0.00151931  0.33231497  1
  Cs  Cs20  1  0.66767042  -0.00601005  0.66902670  1
  Cs  Cs21  1  0.66803923  0.33355613  -0.00022470  1
  Cs  Cs22  1  0.66807146  0.33385178  0.33542757  1
  Cs  Cs23  1  0.66800115  0.33445215  0.66371249  1
  Cs  Cs24  1  0.66808672  0.66499582  -0.00016967  1
  Cs  Cs25  1  0.66373226  0.66481586  0.33593829  1
  Cs  Cs26  1  0.66529905  0.67093098  0.66354345  1
  Sn  Sn27  1  0.50040876  0.16647904  0.50030492  1
  Sn  Sn28  1  0.16626174  0.83363982  0.16657198  1
  Sn  Sn29  1  0.83352517  0.83347448  0.16687517  1
  Sn  Sn30  1  0.83372232  0.16724346  0.83301018  1
  Sn  Sn31  1  0.16550953  0.49979388  0.49944767  1
  Sn  Sn32  1  0.50013095  0.49949927  0.16582263  1
  Sn  Sn33  1  0.83451461  0.49956613  0.50024020  1
  Sn  Sn34  1  0.50095340  0.49968262  0.83349101  1
  Sn  Sn35  1  0.16684043  0.49961211  0.16751967  1
  Sn  Sn36  1  0.83324018  0.49990836  0.16683726  1
  Sn  Sn37  1  0.83250128  0.16710757  0.50049475  1
  Sn  Sn38  1  0.16651239  0.16659950  0.16642037  1
  Sn  Sn39  1  0.83251243  0.49923167  0.83294241  1
  Sn  Sn40  1  0.83378792  0.16642397  0.16651208  1
  Pb  Pb41  1  0.16645761  0.83337436  0.83718921  1
  Pb  Pb42  1  0.49994208  0.83756265  0.49985333  1
  Pb  Pb43  1  0.50007489  0.83043143  0.16682948  1
  Pb  Pb44  1  0.49994410  0.49886852  0.50059436  1
  Pb  Pb45  1  0.16593434  0.16845129  0.49802841  1
  Pb  Pb46  1  0.16612219  0.50001835  0.83316530  1
  Pb  Pb47  1  0.50030844  0.16914682  0.16810375  1
  Pb  Pb48  1  0.83332545  0.83319906  0.83622920  1
  Pb  Pb49  1  0.50030660  0.83002194  0.83339407  1
  Pb  Pb50  1  0.16347637  0.16688317  0.83663111  1
  Pb  Pb51  1  0.16642689  0.83012680  0.49707644  1
  Pb  Pb52  1  0.83321486  0.83345925  0.49718763  1
  Pb  Pb53  1  0.50270002  0.16908545  0.83023708  1
  I  I54  1  0.15651873  0.00050783  0.16710533  1
  I  I55  1  0.16706721  0.00007160  0.49802571  1
  I  I56  1  0.16468716  0.00027501  0.83238897  1
  I  I57  1  0.16281352  0.33434544  0.17035414  1
  I  I58  1  0.16480037  0.33657123  0.49248816  1
  I  I59  1  0.16932110  0.33362472  0.83640503  1
  I  I60  1  0.16310444  0.66524589  0.16974328  1
  I  I61  1  0.16138507  0.66175222  0.49448484  1
  I  I62  1  0.16490136  0.66621823  0.83510661  1
  I  I63  1  0.49975375  0.00028700  0.16878892  1
  I  I64  1  0.50913612  0.00530338  0.49619022  1
  I  I65  1  0.50119838  0.00047175  0.83285754  1
  I  I66  1  0.50044953  0.33733774  0.16412117  1
  I  I67  1  0.50327270  0.33141429  0.49797357  1
  I  I68  1  0.50196315  0.33689871  0.83918393  1
  I  I69  1  0.50080972  0.66195472  0.16453183  1
  I  I70  1  0.49979299  0.66631440  0.49987226  1
  I  I71  1  0.50705696  0.66164313  0.83751594  1
  I  I72  1  0.84109312  0.00116676  0.16769957  1
  I  I73  1  0.82845084  0.00361504  0.49921796  1
  I  I74  1  0.83424219  0.00328613  0.83373261  1
  I  I75  1  0.83545935  0.33399195  0.16670398  1
  I  I76  1  0.83317678  0.33407721  0.49511198  1
  I  I77  1  0.83018391  0.33449775  0.83836705  1
  I  I78  1  0.83598872  0.66480129  0.16608277  1
  I  I79  1  0.83671385  0.66301042  0.49970420  1
  I  I80  1  0.83015981  0.66295052  0.83388997  1
  I  I81  1  0.16139743  0.17145470  0.00513821  1
  I  I82  1  0.16035896  0.16629077  0.32961365  1
  I  I83  1  0.16705021  0.16954398  0.66660041  1
  I  I84  1  0.16419947  0.50088071  0.00383189  1
  I  I85  1  0.16366769  0.49991279  0.33126894  1
  I  I86  1  0.16377103  0.49763208  0.66363205  1
  I  I87  1  0.16015503  0.82743512  0.00535362  1
  I  I88  1  0.16097832  0.83521599  0.32894742  1
  I  I89  1  0.16798769  0.83186837  0.66657305  1
  I  I90  1  0.49945046  0.16562054  -0.00019043  1
  I  I91  1  0.50683037  0.17134086  0.33558963  1
  I  I92  1  0.50584581  0.17193579  0.66286499  1
  I  I93  1  0.50334397  0.49944727  0.00119455  1
  I  I94  1  0.50197596  0.49910439  0.33088873  1
  I  I95  1  0.50423379  0.49741976  0.66909761  1
  I  I96  1  0.49979082  0.83718709  0.00042642  1
  I  I97  1  0.50052709  0.82866317  0.33294720  1
  I  I98  1  0.50136959  0.82875288  0.66666262  1
  I  I99  1  0.83881039  0.17058011  0.00121152  1
  I  I100  1  0.83337950  0.17004705  0.33254977  1
  I  I101  1  0.82701293  0.17742154  0.66618649  1
  I  I102  1  0.83305845  0.49815497  0.00149942  1
  I  I103  1  0.83375813  0.49792506  0.33219002  1
  I  I104  1  0.83282631  0.49185200  0.66637291  1
  I  I105  1  0.83851317  0.83126180  0.00445521  1
  I  I106  1  0.83792683  0.83198762  0.32899787  1
  I  I107  1  0.83209484  0.83264728  0.66667624  1
  I  I108  1  -0.00170693  0.17091140  0.16838417  1
  I  I109  1  -0.00368987  0.16980609  0.50020236  1
  I  I110  1  -0.00475493  0.17568384  0.82958880  1
  I  I111  1  -0.00096802  0.50019566  0.16694435  1
  I  I112  1  -0.00157882  0.49411093  0.49524780  1
  I  I113  1  -0.00371444  0.49631863  0.83679226  1
  I  I114  1  -0.00063251  0.82863307  0.16668666  1
  I  I115  1  -0.00017415  0.83756731  0.50186639  1
  I  I116  1  -0.00036636  0.83031917  0.83149474  1
  I  I117  1  0.33081302  0.16783231  0.17046701  1
  I  I118  1  0.33496123  0.17096679  0.49562051  1
  I  I119  1  0.33351051  0.16771420  0.83304832  1
  I  I120  1  0.33242235  0.50031293  0.16764840  1
  I  I121  1  0.33113475  0.49786061  0.49440406  1
  I  I122  1  0.33579983  0.50055301  0.83813816  1
  I  I123  1  0.33011303  0.83239429  0.16774467  1
  I  I124  1  0.33309739  0.83087886  0.49580345  1
  I  I125  1  0.33339898  0.83204479  0.83543461  1
  I  I126  1  0.67045900  0.16711124  0.16523857  1
  I  I127  1  0.66934612  0.17456697  0.49615019  1
  I  I128  1  0.67080370  0.16938820  0.84080499  1
  I  I129  1  0.66835791  0.49983439  0.16666867  1
  I  I130  1  0.66984797  0.49771327  0.49633446  1
  I  I131  1  0.66837605  0.49601136  0.83846268  1
  I  I132  1  0.66989679  0.83342603  0.16638827  1
  I  I133  1  0.66692277  0.82696226  0.49646803  1
  I  I134  1  0.66707701  0.83517336  0.83719067  1
