# generated using pymatgen
data_Cs27Sn13Pb14I81
_symmetry_space_group_name_H-M   'P 1'
_cell_length_a   18.98427511
_cell_length_b   18.99434379
_cell_length_c   18.99542247
_cell_angle_alpha   89.99891693
_cell_angle_beta   90.00273621
_cell_angle_gamma   89.99743896
_symmetry_Int_Tables_number   1
_chemical_formula_structural   Cs27Sn13Pb14I81
_chemical_formula_sum   'Cs27 Sn13 Pb14 I81'
_cell_volume   6849.63246838
_cell_formula_units_Z   1
loop_
 _symmetry_equiv_pos_site_id
 _symmetry_equiv_pos_as_xyz
  1  'x, y, z'
loop_
 _atom_site_type_symbol
 _atom_site_label
 _atom_site_symmetry_multiplicity
 _atom_site_fract_x
 _atom_site_fract_y
 _atom_site_fract_z
 _atom_site_occupancy
  Cs  Cs0  1  0.00251599  -0.00226973  -0.00489164  1
  Cs  Cs1  1  -0.00278666  0.00051193  0.33397432  1
  Cs  Cs2  1  -0.00209924  -0.00020186  0.66993722  1
  Cs  Cs3  1  0.00490428  0.33584633  -0.00056619  1
  Cs  Cs4  1  -0.00674558  0.33390180  0.33749099  1
  Cs  Cs5  1  -0.00332782  0.33274970  0.66352085  1
  Cs  Cs6  1  -0.00011632  0.66808503  0.00127427  1
  Cs  Cs7  1  0.00160337  0.66439057  0.33509234  1
  Cs  Cs8  1  -0.00001771  0.66813360  0.66338735  1
  Cs  Cs9  1  0.33130348  0.00170886  0.00098572  1
  Cs  Cs10  1  0.33563798  -0.00037923  0.33464749  1
  Cs  Cs11  1  0.33454408  0.00185241  0.66459875  1
  Cs  Cs12  1  0.33088438  0.33319361  0.00155093  1
  Cs  Cs13  1  0.33411133  0.33472005  0.33340713  1
  Cs  Cs14  1  0.33465942  0.33020965  0.66544428  1
  Cs  Cs15  1  0.33302550  0.66396207  -0.00092512  1
  Cs  Cs16  1  0.33138434  0.66442717  0.33774018  1
  Cs  Cs17  1  0.33599698  0.66853514  0.66252219  1
  Cs  Cs18  1  0.66565955  -0.00134457  0.00744652  1
  Cs  Cs19  1  0.66759706  0.00145951  0.32335702  1
  Cs  Cs20  1  0.66911264  -0.00013010  0.66647929  1
  Cs  Cs21  1  0.66772937  0.33686784  0.00030993  1
  Cs  Cs22  1  0.67008358  0.32942137  0.33426911  1
  Cs  Cs23  1  0.66651695  0.33463169  0.66634538  1
  Cs  Cs24  1  0.66759201  0.66574644  -0.00351312  1
  Cs  Cs25  1  0.66700737  0.66986298  0.32716280  1
  Cs  Cs26  1  0.66389545  0.66823848  0.67361097  1
  Sn  Sn27  1  0.16690484  0.83315023  0.16632484  1
  Sn  Sn28  1  0.83401013  0.83435230  0.83255197  1
  Sn  Sn29  1  0.49967221  0.16723224  0.50046847  1
  Sn  Sn30  1  0.49924547  0.49982468  0.16757938  1
  Sn  Sn31  1  0.50138451  0.16644004  0.83313593  1
  Sn  Sn32  1  0.83189244  0.16617154  0.83368204  1
  Sn  Sn33  1  0.16726387  0.50000097  0.16634473  1
  Sn  Sn34  1  0.83291682  0.83340135  0.50059580  1
  Sn  Sn35  1  0.16698216  0.16660521  0.49893013  1
  Sn  Sn36  1  0.50023356  0.49943981  0.49913070  1
  Sn  Sn37  1  0.16684316  0.50123808  0.83305248  1
  Sn  Sn38  1  0.16661249  0.16690406  0.16840343  1
  Sn  Sn39  1  0.16659667  0.83199973  0.83352898  1
  Pb  Pb40  1  0.49666395  0.83017638  0.16655452  1
  Pb  Pb41  1  0.49806905  0.16862942  0.16684197  1
  Pb  Pb42  1  0.16667271  0.16656494  0.83309929  1
  Pb  Pb43  1  0.16531895  0.83579492  0.50025218  1
  Pb  Pb44  1  0.83593938  0.83326545  0.16580354  1
  Pb  Pb45  1  0.16801628  0.49773264  0.50001034  1
  Pb  Pb46  1  0.49961504  0.83610192  0.83343046  1
  Pb  Pb47  1  0.83371189  0.49990433  0.16671027  1
  Pb  Pb48  1  0.49751056  0.49769540  0.83331072  1
  Pb  Pb49  1  0.82952127  0.50292502  0.50017283  1
  Pb  Pb50  1  0.50292306  0.83397608  0.49991471  1
  Pb  Pb51  1  0.83659061  0.16677750  0.16318739  1
  Pb  Pb52  1  0.83254376  0.16494567  0.50176007  1
  Pb  Pb53  1  0.83616036  0.50034045  0.83323836  1
  I  I54  1  0.16510996  0.00004213  0.16456776  1
  I  I55  1  0.17296565  0.00362434  0.49713357  1
  I  I56  1  0.16511806  -0.00223013  0.83684264  1
  I  I57  1  0.17134075  0.33385645  0.16360629  1
  I  I58  1  0.16779406  0.32979128  0.49818676  1
  I  I59  1  0.16769527  0.33503403  0.83766130  1
  I  I60  1  0.16999074  0.66630344  0.16054086  1
  I  I61  1  0.16719520  0.66669365  0.49825099  1
  I  I62  1  0.16145783  0.66745017  0.84181330  1
  I  I63  1  0.49874433  0.00019950  0.16737167  1
  I  I64  1  0.49554440  0.00353927  0.50546575  1
  I  I65  1  0.49722782  0.00404803  0.82617639  1
  I  I66  1  0.49142022  0.33621742  0.16660998  1
  I  I67  1  0.49471014  0.33235282  0.50068175  1
  I  I68  1  0.50317565  0.32988867  0.83156491  1
  I  I69  1  0.49453964  0.66223020  0.17287660  1
  I  I70  1  0.49983814  0.66383662  0.49563881  1
  I  I71  1  0.50231152  0.66647985  0.83309009  1
  I  I72  1  0.83387081  0.00002830  0.16932582  1
  I  I73  1  0.83386114  -0.00261818  0.50383812  1
  I  I74  1  0.83764839  -0.00068932  0.82876309  1
  I  I75  1  0.83687279  0.33311183  0.16526301  1
  I  I76  1  0.83601336  0.33313837  0.50149620  1
  I  I77  1  0.83155052  0.33046649  0.83342992  1
  I  I78  1  0.83430473  0.66681370  0.16504071  1
  I  I79  1  0.83552194  0.67045741  0.50710842  1
  I  I80  1  0.83611654  0.67005009  0.83010293  1
  I  I81  1  0.16650694  0.16702722  0.00200812  1
  I  I82  1  0.17310075  0.16605027  0.33308065  1
  I  I83  1  0.16805441  0.16666622  0.66477084  1
  I  I84  1  0.17195753  0.49771631  0.00090285  1
  I  I85  1  0.16945012  0.50322076  0.33036373  1
  I  I86  1  0.16766467  0.50294870  0.66913371  1
  I  I87  1  0.16092387  0.83502771  -0.00051361  1
  I  I88  1  0.16515800  0.83054462  0.33062341  1
  I  I89  1  0.16399065  0.83050816  0.66969481  1
  I  I90  1  0.50142830  0.16728977  -0.00240055  1
  I  I91  1  0.49649786  0.16863132  0.33613391  1
  I  I92  1  0.49616120  0.17223026  0.66593432  1
  I  I93  1  0.49633634  0.49861529  0.00234379  1
  I  I94  1  0.49216629  0.49465767  0.33326078  1
  I  I95  1  0.49844276  0.49715288  0.66431797  1
  I  I96  1  0.50485249  0.83402440  -0.00004882  1
  I  I97  1  0.50168591  0.83800690  0.33329688  1
  I  I98  1  0.49462123  0.82837073  0.66668623  1
  I  I99  1  0.82815741  0.15916605  -0.00461693  1
  I  I100  1  0.83177156  0.16445587  0.33325693  1
  I  I101  1  0.83641605  0.16406048  0.66963423  1
  I  I102  1  0.82821541  0.50146018  -0.00024115  1
  I  I103  1  0.83927554  0.50221914  0.33360633  1
  I  I104  1  0.83496113  0.49770972  0.66675875  1
  I  I105  1  0.83660739  0.83759206  -0.00351206  1
  I  I106  1  0.83383611  0.83317722  0.33552086  1
  I  I107  1  0.84032534  0.83748538  0.66841314  1
  I  I108  1  0.00505056  0.16963988  0.17164698  1
  I  I109  1  0.00233606  0.16530919  0.49764497  1
  I  I110  1  -0.00167917  0.16484357  0.83385088  1
  I  I111  1  0.00422786  0.50053672  0.16111726  1
  I  I112  1  -0.00002513  0.49823429  0.49958155  1
  I  I113  1  0.00427031  0.49783613  0.84077134  1
  I  I114  1  0.00416658  0.83078201  0.16467891  1
  I  I115  1  -0.00235082  0.83618440  0.50216005  1
  I  I116  1  0.00068093  0.83685500  0.83388767  1
  I  I117  1  0.32975285  0.16471794  0.16400962  1
  I  I118  1  0.33368818  0.16903104  0.50350204  1
  I  I119  1  0.33504973  0.16758886  0.83191961  1
  I  I120  1  0.33177482  0.49993806  0.16602004  1
  I  I121  1  0.33593834  0.49865396  0.49903652  1
  I  I122  1  0.32962014  0.50387667  0.83590678  1
  I  I123  1  0.32849332  0.83698246  0.16009019  1
  I  I124  1  0.33342830  0.83263160  0.50015487  1
  I  I125  1  0.32975713  0.83099733  0.83836324  1
  I  I126  1  0.66660830  0.16819025  0.16899101  1
  I  I127  1  0.66349469  0.17049376  0.50381337  1
  I  I128  1  0.66643261  0.16232062  0.82616666  1
  I  I129  1  0.66323311  0.49855655  0.17102610  1
  I  I130  1  0.66173989  0.49095184  0.49432891  1
  I  I131  1  0.66641109  0.50217517  0.83423625  1
  I  I132  1  0.66670363  0.83215972  0.16666806  1
  I  I133  1  0.67050082  0.83359297  0.50909788  1
  I  I134  1  0.66970405  0.83506718  0.82779799  1
