# generated using pymatgen
data_Cs27Sn14Pb13I81
_symmetry_space_group_name_H-M   'P 1'
_cell_length_a   18.97338604
_cell_length_b   18.97923596
_cell_length_c   18.97485466
_cell_angle_alpha   90.00040829
_cell_angle_beta   89.99852960
_cell_angle_gamma   89.99931140
_symmetry_Int_Tables_number   1
_chemical_formula_structural   Cs27Sn14Pb13I81
_chemical_formula_sum   'Cs27 Sn14 Pb13 I81'
_cell_volume   6832.85219018
_cell_formula_units_Z   1
loop_
 _symmetry_equiv_pos_site_id
 _symmetry_equiv_pos_as_xyz
  1  'x, y, z'
loop_
 _atom_site_type_symbol
 _atom_site_label
 _atom_site_symmetry_multiplicity
 _atom_site_fract_x
 _atom_site_fract_y
 _atom_site_fract_z
 _atom_site_occupancy
  Cs  Cs0  1  0.00087238  -0.00021470  0.00348705  1
  Cs  Cs1  1  0.00079516  0.00213845  0.33267033  1
  Cs  Cs2  1  -0.00031344  0.00046800  0.66310107  1
  Cs  Cs3  1  0.00103404  0.33303807  -0.00166774  1
  Cs  Cs4  1  -0.00087924  0.32977164  0.33441593  1
  Cs  Cs5  1  -0.00006179  0.33280464  0.66787015  1
  Cs  Cs6  1  0.00416039  0.66665567  0.00124447  1
  Cs  Cs7  1  -0.00339114  0.66772870  0.33252518  1
  Cs  Cs8  1  -0.00727036  0.66658631  0.66559261  1
  Cs  Cs9  1  0.33404134  -0.00013925  0.00055568  1
  Cs  Cs10  1  0.33225942  -0.00040049  0.33503527  1
  Cs  Cs11  1  0.33467289  -0.00346057  0.66240865  1
  Cs  Cs12  1  0.33377042  0.33397279  -0.00042600  1
  Cs  Cs13  1  0.33551453  0.33374648  0.33580849  1
  Cs  Cs14  1  0.33250557  0.33663289  0.66428486  1
  Cs  Cs15  1  0.32990160  0.66580831  -0.00056305  1
  Cs  Cs16  1  0.33427072  0.66690570  0.33343610  1
  Cs  Cs17  1  0.33448695  0.66282655  0.66791195  1
  Cs  Cs18  1  0.66474514  0.00219189  -0.00601235  1
  Cs  Cs19  1  0.66780494  0.00171228  0.33287959  1
  Cs  Cs20  1  0.66493829  -0.00556787  0.67518317  1
  Cs  Cs21  1  0.66457952  0.33196312  -0.00061257  1
  Cs  Cs22  1  0.66465875  0.33413044  0.33265184  1
  Cs  Cs23  1  0.66768763  0.33183678  0.66635869  1
  Cs  Cs24  1  0.67068520  0.66532111  0.00226704  1
  Cs  Cs25  1  0.67028303  0.66488854  0.33323258  1
  Cs  Cs26  1  0.67168975  0.67430739  0.66596217  1
  Sn  Sn27  1  0.83372170  0.16607737  0.16714062  1
  Sn  Sn28  1  0.16682200  0.49958840  0.16722563  1
  Sn  Sn29  1  0.16705092  0.50010700  0.83296250  1
  Sn  Sn30  1  0.50121222  0.16687615  0.50008017  1
  Sn  Sn31  1  0.16679224  0.83338052  0.83358319  1
  Sn  Sn32  1  0.16681576  0.83355726  0.16620312  1
  Sn  Sn33  1  0.16686009  0.50024115  0.49994355  1
  Sn  Sn34  1  0.49964635  0.50013848  0.83253800  1
  Sn  Sn35  1  0.83167917  0.16672931  0.49958349  1
  Sn  Sn36  1  0.16642972  0.16681951  0.16601628  1
  Sn  Sn37  1  0.16701622  0.16641676  0.83385174  1
  Sn  Sn38  1  0.83331556  0.83454324  0.16659683  1
  Sn  Sn39  1  0.49958991  0.49959902  0.50115643  1
  Sn  Sn40  1  0.50000503  0.83336236  0.16669369  1
  Pb  Pb41  1  0.49762566  0.83051791  0.83577571  1
  Pb  Pb42  1  0.83630613  0.83348242  0.83638530  1
  Pb  Pb43  1  0.83314577  0.49996770  0.83329642  1
  Pb  Pb44  1  0.49788409  0.50184402  0.16674546  1
  Pb  Pb45  1  0.83557107  0.16665757  0.83383492  1
  Pb  Pb46  1  0.83269927  0.49773043  0.49999159  1
  Pb  Pb47  1  0.16667786  0.83011386  0.49996029  1
  Pb  Pb48  1  0.49971559  0.16490886  0.16815203  1
  Pb  Pb49  1  0.83594982  0.49911421  0.16659118  1
  Pb  Pb50  1  0.16686351  0.16845731  0.49987084  1
  Pb  Pb51  1  0.49996173  0.83265130  0.49807882  1
  Pb  Pb52  1  0.49704714  0.16863402  0.83066674  1
  Pb  Pb53  1  0.83336122  0.83652993  0.49760878  1
  I  I54  1  0.16578853  -0.00007230  0.16040605  1
  I  I55  1  0.16681273  0.00012811  0.50034660  1
  I  I56  1  0.16500834  0.00002793  0.84204335  1
  I  I57  1  0.16208913  0.33303774  0.16405206  1
  I  I58  1  0.16776286  0.33649073  0.49947465  1
  I  I59  1  0.16919859  0.33398216  0.83673464  1
  I  I60  1  0.16702572  0.66698456  0.16403721  1
  I  I61  1  0.17390706  0.66190186  0.49884820  1
  I  I62  1  0.17073050  0.66603291  0.83804130  1
  I  I63  1  0.49381701  -0.00295606  0.16926400  1
  I  I64  1  0.50276753  0.00272936  0.49668793  1
  I  I65  1  0.49848886  -0.00016893  0.83215491  1
  I  I66  1  0.49985188  0.33347177  0.16565880  1
  I  I67  1  0.49857658  0.33402634  0.50131243  1
  I  I68  1  0.49267150  0.33659604  0.83422150  1
  I  I69  1  0.49915618  0.66977649  0.16830610  1
  I  I70  1  0.49296836  0.66309532  0.50222962  1
  I  I71  1  0.49166131  0.66279535  0.82655819  1
  I  I72  1  0.84046815  0.00037413  0.17176925  1
  I  I73  1  0.83006502  0.00451438  0.49753433  1
  I  I74  1  0.83421143  0.00010043  0.82991261  1
  I  I75  1  0.83891116  0.32963767  0.17059084  1
  I  I76  1  0.83350927  0.32998732  0.49170897  1
  I  I77  1  0.83756834  0.33311165  0.83658564  1
  I  I78  1  0.83467613  0.66952054  0.16525578  1
  I  I79  1  0.83358753  0.66673257  0.49883006  1
  I  I80  1  0.83602709  0.66685696  0.83499267  1
  I  I81  1  0.16139171  0.17052299  0.00135125  1
  I  I82  1  0.16555672  0.16621269  0.33039408  1
  I  I83  1  0.16674600  0.16744994  0.66908618  1
  I  I84  1  0.16968115  0.50049944  -0.00008533  1
  I  I85  1  0.17042377  0.49950120  0.33289080  1
  I  I86  1  0.17124500  0.49865652  0.66724096  1
  I  I87  1  0.16617680  0.82886468  0.00151014  1
  I  I88  1  0.16610209  0.83412967  0.32947485  1
  I  I89  1  0.16812476  0.83485973  0.66980485  1
  I  I90  1  0.50252060  0.16770248  -0.00014297  1
  I  I91  1  0.49824892  0.17310501  0.33607949  1
  I  I92  1  0.50420291  0.16809916  0.66269420  1
  I  I93  1  0.49423098  0.50230200  -0.00240103  1
  I  I94  1  0.49470952  0.49755483  0.33608174  1
  I  I95  1  0.48824940  0.49474908  0.66612179  1
  I  I96  1  0.50076180  0.83301260  0.00375756  1
  I  I97  1  0.49539506  0.83137656  0.32982439  1
  I  I98  1  0.49765995  0.83545613  0.66697018  1
  I  I99  1  0.83698645  0.16236271  0.00358866  1
  I  I100  1  0.83736416  0.16311782  0.33219410  1
  I  I101  1  0.83227684  0.17028165  0.66395391  1
  I  I102  1  0.83235095  0.49800001  0.00023878  1
  I  I103  1  0.83450813  0.50274827  0.33314909  1
  I  I104  1  0.84031742  0.49713170  0.66649252  1
  I  I105  1  0.83183961  0.84045150  0.00454558  1
  I  I106  1  0.83824841  0.83344192  0.32919783  1
  I  I107  1  0.83491306  0.83338946  0.66688493  1
  I  I108  1  0.00133577  0.16272947  0.16937318  1
  I  I109  1  -0.00167887  0.16780478  0.49804802  1
  I  I110  1  0.00429027  0.17021772  0.83266229  1
  I  I111  1  0.00486226  0.50448937  0.16580095  1
  I  I112  1  0.00308698  0.49924181  0.50035867  1
  I  I113  1  0.00446301  0.50006843  0.83359201  1
  I  I114  1  0.00133772  0.83362989  0.16287914  1
  I  I115  1  0.00023678  0.83286191  0.49851320  1
  I  I116  1  0.00473907  0.82972202  0.83906517  1
  I  I117  1  0.32985294  0.16616951  0.16447957  1
  I  I118  1  0.33533689  0.16969228  0.49958249  1
  I  I119  1  0.32889912  0.16549767  0.84012909  1
  I  I120  1  0.32916510  0.49944949  0.16633345  1
  I  I121  1  0.33284028  0.49365235  0.49993513  1
  I  I122  1  0.33110154  0.49993587  0.83272331  1
  I  I123  1  0.33140628  0.83275018  0.16353628  1
  I  I124  1  0.33311814  0.83955070  0.49530999  1
  I  I125  1  0.32937911  0.83497013  0.84068089  1
  I  I126  1  0.66934718  0.16176303  0.17016600  1
  I  I127  1  0.66663138  0.17375881  0.49171295  1
  I  I128  1  0.66631537  0.16949101  0.83608210  1
  I  I129  1  0.66649560  0.50160027  0.16693211  1
  I  I130  1  0.66310549  0.49777692  0.50382406  1
  I  I131  1  0.66313427  0.49952041  0.82834295  1
  I  I132  1  0.66726906  0.83732869  0.16973283  1
  I  I133  1  0.66667891  0.82774653  0.49683353  1
  I  I134  1  0.66650397  0.83118700  0.83477992  1
