# generated using pymatgen
data_Cs27Sn13Pb14I81
_symmetry_space_group_name_H-M   'P 1'
_cell_length_a   18.97589808
_cell_length_b   18.97978534
_cell_length_c   18.97485194
_cell_angle_alpha   89.99760240
_cell_angle_beta   89.99719214
_cell_angle_gamma   90.00356653
_symmetry_Int_Tables_number   1
_chemical_formula_structural   Cs27Sn13Pb14I81
_chemical_formula_sum   'Cs27 Sn13 Pb14 I81'
_cell_volume   6833.95365954
_cell_formula_units_Z   1
loop_
 _symmetry_equiv_pos_site_id
 _symmetry_equiv_pos_as_xyz
  1  'x, y, z'
loop_
 _atom_site_type_symbol
 _atom_site_label
 _atom_site_symmetry_multiplicity
 _atom_site_fract_x
 _atom_site_fract_y
 _atom_site_fract_z
 _atom_site_occupancy
  Cs  Cs0  1  -0.00111099  -0.00084307  0.00181235  1
  Cs  Cs1  1  0.00049373  0.00002474  0.32721911  1
  Cs  Cs2  1  -0.00096255  -0.00103697  0.66682676  1
  Cs  Cs3  1  0.00047172  0.33186851  0.00049283  1
  Cs  Cs4  1  -0.00370420  0.33677534  0.33364197  1
  Cs  Cs5  1  0.00775935  0.33475899  0.66510776  1
  Cs  Cs6  1  0.00267267  0.67203852  -0.00126826  1
  Cs  Cs7  1  -0.00068128  0.66485994  0.33688898  1
  Cs  Cs8  1  -0.00206746  0.66622677  0.66246611  1
  Cs  Cs9  1  0.33193059  -0.00079417  0.00043845  1
  Cs  Cs10  1  0.33506783  -0.00266369  0.33543881  1
  Cs  Cs11  1  0.33357975  0.00282910  0.66399469  1
  Cs  Cs12  1  0.33321985  0.33342936  -0.00171395  1
  Cs  Cs13  1  0.33270122  0.33165057  0.33620424  1
  Cs  Cs14  1  0.32884991  0.33306478  0.66519095  1
  Cs  Cs15  1  0.33342535  0.66764213  0.00293033  1
  Cs  Cs16  1  0.33582123  0.67171808  0.32622164  1
  Cs  Cs17  1  0.33226099  0.66370347  0.66838089  1
  Cs  Cs18  1  0.66996286  0.00393940  -0.00310821  1
  Cs  Cs19  1  0.66510466  0.00071159  0.33881691  1
  Cs  Cs20  1  0.66728237  -0.00126719  0.66570292  1
  Cs  Cs21  1  0.66635139  0.33219055  0.00093401  1
  Cs  Cs22  1  0.67056238  0.33530043  0.32953179  1
  Cs  Cs23  1  0.66419900  0.33284289  0.66836406  1
  Cs  Cs24  1  0.66412289  0.66343605  -0.00226667  1
  Cs  Cs25  1  0.66545161  0.66369903  0.33562929  1
  Cs  Cs26  1  0.66909394  0.66776537  0.66735813  1
  Sn  Sn27  1  0.49992620  0.49990687  0.50059989  1
  Sn  Sn28  1  0.83308285  0.16794332  0.83204796  1
  Sn  Sn29  1  0.49905236  0.83364322  0.83336848  1
  Sn  Sn30  1  0.16746318  0.83358860  0.83210014  1
  Sn  Sn31  1  0.16685849  0.83350016  0.50103217  1
  Sn  Sn32  1  0.50049119  0.49960604  0.83239955  1
  Sn  Sn33  1  0.83327985  0.49883801  0.83348210  1
  Sn  Sn34  1  0.16773175  0.16777473  0.16638961  1
  Sn  Sn35  1  0.83348035  0.16685943  0.50136429  1
  Sn  Sn36  1  0.83216497  0.83287105  0.16669044  1
  Sn  Sn37  1  0.49904419  0.16652748  0.16612144  1
  Sn  Sn38  1  0.50030680  0.16671544  0.83378154  1
  Sn  Sn39  1  0.16666149  0.49892675  0.16643057  1
  Pb  Pb40  1  0.16438213  0.16494493  0.49723049  1
  Pb  Pb41  1  0.83529384  0.50237908  0.16398136  1
  Pb  Pb42  1  0.83143081  0.49787579  0.50268166  1
  Pb  Pb43  1  0.16665505  0.16463614  0.83478143  1
  Pb  Pb44  1  0.83292496  0.16570044  0.16617649  1
  Pb  Pb45  1  0.83503385  0.83517227  0.49767224  1
  Pb  Pb46  1  0.16909697  0.50213850  0.49745501  1
  Pb  Pb47  1  0.16568224  0.83359878  0.16656038  1
  Pb  Pb48  1  0.50153178  0.16848560  0.50047155  1
  Pb  Pb49  1  0.50275623  0.83592524  0.16432933  1
  Pb  Pb50  1  0.49849867  0.49783147  0.16604121  1
  Pb  Pb51  1  0.16687436  0.50209865  0.83474691  1
  Pb  Pb52  1  0.49831501  0.83111224  0.50263418  1
  Pb  Pb53  1  0.83300254  0.83343473  0.83421899  1
  I  I54  1  0.16789193  0.00229772  0.16591604  1
  I  I55  1  0.16716849  -0.00285529  0.50197986  1
  I  I56  1  0.16961234  -0.00325535  0.83374505  1
  I  I57  1  0.16949211  0.33244731  0.16485369  1
  I  I58  1  0.16636610  0.33339413  0.49989943  1
  I  I59  1  0.16807287  0.33324481  0.83428076  1
  I  I60  1  0.16486869  0.66509547  0.16569873  1
  I  I61  1  0.16550691  0.66982223  0.50218628  1
  I  I62  1  0.16963640  0.66999347  0.83439132  1
  I  I63  1  0.49390231  0.00385996  0.16191943  1
  I  I64  1  0.50021404  0.00006271  0.49976424  1
  I  I65  1  0.50069419  0.00082874  0.83902124  1
  I  I66  1  0.49985552  0.32993346  0.16054758  1
  I  I67  1  0.49980185  0.33610581  0.50612645  1
  I  I68  1  0.50577477  0.33304428  0.83460758  1
  I  I69  1  0.49815130  0.66665258  0.16568994  1
  I  I70  1  0.50006619  0.66330105  0.50456823  1
  I  I71  1  0.50073646  0.66617820  0.82924893  1
  I  I72  1  0.83713148  -0.00172144  0.16317447  1
  I  I73  1  0.83175009  0.00305532  0.50636568  1
  I  I74  1  0.83015828  0.00274175  0.83253834  1
  I  I75  1  0.83306684  0.33337722  0.16802808  1
  I  I76  1  0.83338922  0.33000883  0.49902399  1
  I  I77  1  0.82489540  0.33247582  0.83207464  1
  I  I78  1  0.83704473  0.66969181  0.16395744  1
  I  I79  1  0.83388003  0.66640820  0.49993897  1
  I  I80  1  0.83002483  0.66453978  0.83702237  1
  I  I81  1  0.16557841  0.16662526  0.00274641  1
  I  I82  1  0.17092316  0.16673588  0.32927741  1
  I  I83  1  0.16826546  0.16629402  0.66669262  1
  I  I84  1  0.16830625  0.49919401  0.00249895  1
  I  I85  1  0.16764961  0.49838621  0.32979470  1
  I  I86  1  0.16521832  0.50060241  0.66674379  1
  I  I87  1  0.16866996  0.83306050  -0.00225678  1
  I  I88  1  0.16326529  0.83348812  0.33498376  1
  I  I89  1  0.16954425  0.83338191  0.66787520  1
  I  I90  1  0.50243220  0.16828692  -0.00163897  1
  I  I91  1  0.49830174  0.16850711  0.33089928  1
  I  I92  1  0.50321311  0.16462153  0.67025502  1
  I  I93  1  0.50249363  0.50149394  -0.00350785  1
  I  I94  1  0.49736521  0.49814463  0.33516746  1
  I  I95  1  0.50319145  0.49860431  0.66905829  1
  I  I96  1  0.49359480  0.82834703  -0.00399206  1
  I  I97  1  0.49865596  0.83297514  0.33330050  1
  I  I98  1  0.50009043  0.83880135  0.67108169  1
  I  I99  1  0.83154152  0.16807388  -0.00294793  1
  I  I100  1  0.83375541  0.16284801  0.33485783  1
  I  I101  1  0.82697237  0.16795577  0.66872127  1
  I  I102  1  0.82612576  0.49378865  -0.00387831  1
  I  I103  1  0.83234900  0.49931690  0.33339397  1
  I  I104  1  0.83221330  0.50074788  0.67081250  1
  I  I105  1  0.83726408  0.83661808  0.00163117  1
  I  I106  1  0.83741692  0.83681527  0.33014376  1
  I  I107  1  0.83306434  0.83254100  0.66678697  1
  I  I108  1  0.00201673  0.16691374  0.16643603  1
  I  I109  1  -0.00336904  0.16605974  0.50543130  1
  I  I110  1  -0.00281832  0.16889507  0.83238273  1
  I  I111  1  0.00311055  0.49401753  0.16518488  1
  I  I112  1  0.00006074  0.50048237  0.50006015  1
  I  I113  1  -0.00242114  0.49685326  0.83673163  1
  I  I114  1  -0.00168791  0.83677501  0.16285566  1
  I  I115  1  0.00296549  0.83307324  0.50640566  1
  I  I116  1  0.00205947  0.83337279  0.83337844  1
  I  I117  1  0.33371403  0.16928341  0.16021708  1
  I  I118  1  0.33333615  0.16662039  0.50111528  1
  I  I119  1  0.33641218  0.16867375  0.83656160  1
  I  I120  1  0.33062932  0.50035513  0.16420676  1
  I  I121  1  0.33663083  0.49794474  0.50858513  1
  I  I122  1  0.33659158  0.49766377  0.83131323  1
  I  I123  1  0.33367161  0.83247026  0.16754253  1
  I  I124  1  0.33038568  0.83430912  0.49920289  1
  I  I125  1  0.33402061  0.83314127  0.83162180  1
  I  I126  1  0.66422147  0.16454451  0.16414631  1
  I  I127  1  0.66938101  0.16581554  0.49900755  1
  I  I128  1  0.66585361  0.16513429  0.83627561  1
  I  I129  1  0.66651326  0.49960122  0.16808857  1
  I  I130  1  0.66352249  0.50050949  0.50067216  1
  I  I131  1  0.66547365  0.50193688  0.83122900  1
  I  I132  1  0.66986358  0.83566457  0.16394498  1
  I  I133  1  0.66649350  0.83356439  0.49957710  1
  I  I134  1  0.66387264  0.83343477  0.83673119  1
