# generated using pymatgen
data_Cs27Sn14Pb13I81
_symmetry_space_group_name_H-M   'P 1'
_cell_length_a   18.96347503
_cell_length_b   18.95611008
_cell_length_c   18.95995158
_cell_angle_alpha   89.99861481
_cell_angle_beta   89.99715820
_cell_angle_gamma   90.00089837
_symmetry_Int_Tables_number   1
_chemical_formula_structural   Cs27Sn14Pb13I81
_chemical_formula_sum   'Cs27 Sn14 Pb13 I81'
_cell_volume   6815.60432072
_cell_formula_units_Z   1
loop_
 _symmetry_equiv_pos_site_id
 _symmetry_equiv_pos_as_xyz
  1  'x, y, z'
loop_
 _atom_site_type_symbol
 _atom_site_label
 _atom_site_symmetry_multiplicity
 _atom_site_fract_x
 _atom_site_fract_y
 _atom_site_fract_z
 _atom_site_occupancy
  Cs  Cs0  1  0.00312044  0.00517006  -0.00198283  1
  Cs  Cs1  1  0.00447409  -0.00250369  0.33317723  1
  Cs  Cs2  1  -0.00042124  0.00033348  0.66849423  1
  Cs  Cs3  1  0.00336098  0.32885926  0.00142967  1
  Cs  Cs4  1  0.00194060  0.34235185  0.33139600  1
  Cs  Cs5  1  -0.00539404  0.33336424  0.66675695  1
  Cs  Cs6  1  -0.00411538  0.66575885  0.00077307  1
  Cs  Cs7  1  -0.00086459  0.66313232  0.33249003  1
  Cs  Cs8  1  -0.00026575  0.66676989  0.66536410  1
  Cs  Cs9  1  0.33090710  -0.00152495  -0.00169453  1
  Cs  Cs10  1  0.33150805  -0.00013792  0.33567490  1
  Cs  Cs11  1  0.33112262  -0.00318903  0.66396368  1
  Cs  Cs12  1  0.33415793  0.33301798  0.00186755  1
  Cs  Cs13  1  0.33297176  0.33264277  0.33105905  1
  Cs  Cs14  1  0.33761182  0.33698023  0.66642473  1
  Cs  Cs15  1  0.33715864  0.66827269  -0.00497471  1
  Cs  Cs16  1  0.33234006  0.66738260  0.33574816  1
  Cs  Cs17  1  0.33312262  0.66684385  0.66743444  1
  Cs  Cs18  1  0.66599579  -0.00084668  0.00374770  1
  Cs  Cs19  1  0.66641229  0.00039354  0.33225245  1
  Cs  Cs20  1  0.66898584  0.00353892  0.66439899  1
  Cs  Cs21  1  0.66481534  0.33323550  -0.00118806  1
  Cs  Cs22  1  0.66642174  0.33070101  0.33445694  1
  Cs  Cs23  1  0.66644420  0.33064637  0.66677797  1
  Cs  Cs24  1  0.66645016  0.66816471  0.00136456  1
  Cs  Cs25  1  0.66907437  0.66850461  0.32982961  1
  Cs  Cs26  1  0.66632508  0.66606313  0.66820032  1
  Sn  Sn27  1  0.16682701  0.83291520  0.16670080  1
  Sn  Sn28  1  0.83319006  0.16682135  0.16710416  1
  Sn  Sn29  1  0.83333994  0.83333798  0.50050235  1
  Sn  Sn30  1  0.16629288  0.83386551  0.49925856  1
  Sn  Sn31  1  0.50043176  0.83258529  0.50004692  1
  Sn  Sn32  1  0.50023234  0.50098379  0.49976033  1
  Sn  Sn33  1  0.16641377  0.16702757  0.50022996  1
  Sn  Sn34  1  0.50026760  0.49939456  0.83348423  1
  Sn  Sn35  1  0.16649706  0.49980567  0.83334152  1
  Sn  Sn36  1  0.49974756  0.16674146  0.83397313  1
  Sn  Sn37  1  0.83306080  0.83304167  0.83279827  1
  Sn  Sn38  1  0.50014113  0.49964927  0.16668176  1
  Sn  Sn39  1  0.83322184  0.50048046  0.83336445  1
  Sn  Sn40  1  0.50059275  0.16709271  0.16580732  1
  Pb  Pb41  1  0.49819901  0.83363688  0.16889087  1
  Pb  Pb42  1  0.50205837  0.83362913  0.83115312  1
  Pb  Pb43  1  0.83128977  0.16662638  0.83493243  1
  Pb  Pb44  1  0.16937112  0.16903899  0.83080033  1
  Pb  Pb45  1  0.16840257  0.50043968  0.50170495  1
  Pb  Pb46  1  0.83548993  0.83508206  0.16656943  1
  Pb  Pb47  1  0.83107922  0.49771537  0.16418599  1
  Pb  Pb48  1  0.49870285  0.16668002  0.49973599  1
  Pb  Pb49  1  0.16737773  0.16530097  0.16846279  1
  Pb  Pb50  1  0.83064468  0.50201346  0.50177927  1
  Pb  Pb51  1  0.16429770  0.83155510  0.83282478  1
  Pb  Pb52  1  0.16916495  0.50253943  0.16422878  1
  Pb  Pb53  1  0.83612750  0.16461874  0.49747238  1
  I  I54  1  0.16852709  -0.00278727  0.16874949  1
  I  I55  1  0.17008158  -0.00196556  0.49694031  1
  I  I56  1  0.16682080  -0.00003252  0.83462211  1
  I  I57  1  0.16528947  0.33355060  0.16800288  1
  I  I58  1  0.17064528  0.33153741  0.50143140  1
  I  I59  1  0.16322322  0.33704337  0.83211433  1
  I  I60  1  0.16672033  0.67012438  0.17463412  1
  I  I61  1  0.16613761  0.66980676  0.49805765  1
  I  I62  1  0.17316543  0.66361792  0.83152664  1
  I  I63  1  0.50221267  0.00284312  0.16353798  1
  I  I64  1  0.50035650  -0.00262536  0.50025605  1
  I  I65  1  0.50186344  0.00248787  0.83671488  1
  I  I66  1  0.50274588  0.33348166  0.16731640  1
  I  I67  1  0.49712097  0.33592844  0.50118567  1
  I  I68  1  0.50170459  0.33507127  0.83127700  1
  I  I69  1  0.49782016  0.66404616  0.16355981  1
  I  I70  1  0.49737227  0.66656170  0.50110927  1
  I  I71  1  0.49872516  0.66357447  0.83500928  1
  I  I72  1  0.82606793  0.00272953  0.16509252  1
  I  I73  1  0.82810209  -0.00395574  0.50633735  1
  I  I74  1  0.83201489  -0.00245547  0.83014777  1
  I  I75  1  0.83232848  0.32999484  0.16532147  1
  I  I76  1  0.83340369  0.33340204  0.50128504  1
  I  I77  1  0.83349426  0.33613767  0.83500077  1
  I  I78  1  0.83276003  0.66659246  0.16738429  1
  I  I79  1  0.83808045  0.67051993  0.50070121  1
  I  I80  1  0.83110233  0.66618091  0.82987000  1
  I  I81  1  0.16568001  0.16494843  -0.00009764  1
  I  I82  1  0.16974136  0.16349705  0.33630521  1
  I  I83  1  0.16855382  0.15855902  0.66330481  1
  I  I84  1  0.16896993  0.50144986  -0.00365934  1
  I  I85  1  0.16908809  0.49875907  0.33334114  1
  I  I86  1  0.17049316  0.50222756  0.66969025  1
  I  I87  1  0.16607798  0.83206988  0.00182986  1
  I  I88  1  0.16618615  0.83703020  0.33523949  1
  I  I89  1  0.16873972  0.83526410  0.66353899  1
  I  I90  1  0.50284104  0.17456845  0.00029316  1
  I  I91  1  0.50178373  0.16961734  0.33074487  1
  I  I92  1  0.49859265  0.17062335  0.66871368  1
  I  I93  1  0.49967799  0.49514887  -0.00094736  1
  I  I94  1  0.49866857  0.49970959  0.33340878  1
  I  I95  1  0.49931537  0.49996687  0.66764231  1
  I  I96  1  0.49946128  0.83132966  -0.00004938  1
  I  I97  1  0.50341716  0.83001853  0.33718098  1
  I  I98  1  0.49488613  0.82974171  0.66297745  1
  I  I99  1  0.83167212  0.16452514  0.00273507  1
  I  I100  1  0.82486350  0.16446028  0.32997523  1
  I  I101  1  0.83231987  0.16749079  0.66663450  1
  I  I102  1  0.83063931  0.50729334  -0.00406548  1
  I  I103  1  0.83199877  0.50070336  0.33316289  1
  I  I104  1  0.83102943  0.50073650  0.67023185  1
  I  I105  1  0.83410936  0.82983685  -0.00254555  1
  I  I106  1  0.83168265  0.83585199  0.33619607  1
  I  I107  1  0.83481723  0.82991506  0.66612883  1
  I  I108  1  -0.00174325  0.16285563  0.16711494  1
  I  I109  1  0.00367549  0.16078556  0.49960886  1
  I  I110  1  0.00001362  0.16785935  0.83478581  1
  I  I111  1  0.00001996  0.49875155  0.16511286  1
  I  I112  1  -0.00017887  0.50006747  0.50237063  1
  I  I113  1  -0.00062768  0.50600734  0.83199874  1
  I  I114  1  0.00308271  0.83530575  0.17184131  1
  I  I115  1  0.00039724  0.83880084  0.50061628  1
  I  I116  1  -0.00351120  0.82835257  0.82877102  1
  I  I117  1  0.33652028  0.17003103  0.16446998  1
  I  I118  1  0.33112322  0.16047592  0.49893010  1
  I  I119  1  0.33742461  0.17157942  0.83907603  1
  I  I120  1  0.33746103  0.49387550  0.16506086  1
  I  I121  1  0.33685237  0.50485330  0.50343246  1
  I  I122  1  0.33504296  0.49639652  0.83281558  1
  I  I123  1  0.33054490  0.83465257  0.17211871  1
  I  I124  1  0.33316333  0.83358851  0.49591906  1
  I  I125  1  0.33345143  0.83213598  0.83233527  1
  I  I126  1  0.66491118  0.16880535  0.16353002  1
  I  I127  1  0.66664092  0.16544836  0.50115512  1
  I  I128  1  0.66319741  0.17220240  0.83311652  1
  I  I129  1  0.66262230  0.50034771  0.16494439  1
  I  I130  1  0.66225341  0.50379164  0.50228980  1
  I  I131  1  0.66545106  0.50042837  0.83289781  1
  I  I132  1  0.66653466  0.83247604  0.16790901  1
  I  I133  1  0.66648978  0.82863490  0.50468291  1
  I  I134  1  0.66987170  0.82819265  0.82896248  1
