# generated using pymatgen
data_Cs27Sn14Pb13I81
_symmetry_space_group_name_H-M   'P 1'
_cell_length_a   18.97393259
_cell_length_b   18.97160905
_cell_length_c   18.98254927
_cell_angle_alpha   89.99998261
_cell_angle_beta   90.00072933
_cell_angle_gamma   89.99923926
_symmetry_Int_Tables_number   1
_chemical_formula_structural   Cs27Sn14Pb13I81
_chemical_formula_sum   'Cs27 Sn14 Pb13 I81'
_cell_volume   6833.07292196
_cell_formula_units_Z   1
loop_
 _symmetry_equiv_pos_site_id
 _symmetry_equiv_pos_as_xyz
  1  'x, y, z'
loop_
 _atom_site_type_symbol
 _atom_site_label
 _atom_site_symmetry_multiplicity
 _atom_site_fract_x
 _atom_site_fract_y
 _atom_site_fract_z
 _atom_site_occupancy
  Cs  Cs0  1  -0.00098609  -0.00059269  0.00036223  1
  Cs  Cs1  1  -0.00276746  -0.00227672  0.33233233  1
  Cs  Cs2  1  0.00214404  -0.00167070  0.66751944  1
  Cs  Cs3  1  0.00050619  0.33365367  0.00076750  1
  Cs  Cs4  1  0.00111490  0.33884294  0.33016242  1
  Cs  Cs5  1  0.00119218  0.33485329  0.66770556  1
  Cs  Cs6  1  -0.00002908  0.66745411  -0.00040020  1
  Cs  Cs7  1  0.00232625  0.66741551  0.33270382  1
  Cs  Cs8  1  -0.00242502  0.66802698  0.66750671  1
  Cs  Cs9  1  0.33402621  -0.00065781  -0.00070547  1
  Cs  Cs10  1  0.33479734  -0.00039585  0.33569797  1
  Cs  Cs11  1  0.33207618  0.00278168  0.66483311  1
  Cs  Cs12  1  0.32983610  0.33348717  0.00211785  1
  Cs  Cs13  1  0.33190663  0.34151739  0.33188214  1
  Cs  Cs14  1  0.33199648  0.32744640  0.66410715  1
  Cs  Cs15  1  0.33826350  0.66583693  0.00160281  1
  Cs  Cs16  1  0.33100747  0.65609203  0.33065937  1
  Cs  Cs17  1  0.33508839  0.66535410  0.66691862  1
  Cs  Cs18  1  0.66682089  -0.00022884  0.00069602  1
  Cs  Cs19  1  0.66774707  0.00169274  0.33466498  1
  Cs  Cs20  1  0.66690743  -0.00003690  0.66450948  1
  Cs  Cs21  1  0.66925304  0.33069732  -0.00277185  1
  Cs  Cs22  1  0.66693663  0.32855272  0.33686901  1
  Cs  Cs23  1  0.66706671  0.33805287  0.66625513  1
  Cs  Cs24  1  0.66026062  0.66713852  -0.00276665  1
  Cs  Cs25  1  0.66522066  0.66669363  0.33394367  1
  Cs  Cs26  1  0.66751008  0.65958964  0.66871749  1
  Sn  Sn27  1  0.50096565  0.16608500  0.83318154  1
  Sn  Sn28  1  0.83232142  0.83414956  0.50027007  1
  Sn  Sn29  1  0.83267203  0.16574911  0.83212981  1
  Sn  Sn30  1  0.16665789  0.50136279  0.83323883  1
  Sn  Sn31  1  0.16636136  0.83243800  0.83430029  1
  Sn  Sn32  1  0.49869505  0.16610838  0.16689883  1
  Sn  Sn33  1  0.50086340  0.16564719  0.49992855  1
  Sn  Sn34  1  0.83264925  0.50167139  0.16641509  1
  Sn  Sn35  1  0.16752845  0.16535253  0.16697952  1
  Sn  Sn36  1  0.83323842  0.16583114  0.50124281  1
  Sn  Sn37  1  0.83355844  0.83414024  0.83342413  1
  Sn  Sn38  1  0.16652337  0.83434540  0.16588072  1
  Sn  Sn39  1  0.50069197  0.83381579  0.49980895  1
  Sn  Sn40  1  0.83350745  0.83198890  0.16633073  1
  Pb  Pb41  1  0.83461443  0.50015584  0.83521520  1
  Pb  Pb42  1  0.49705694  0.49662926  0.83340194  1
  Pb  Pb43  1  0.50326578  0.49680539  0.16642757  1
  Pb  Pb44  1  0.49995721  0.83529189  0.83108505  1
  Pb  Pb45  1  0.16615227  0.16568453  0.83506713  1
  Pb  Pb46  1  0.83338779  0.50016863  0.49774520  1
  Pb  Pb47  1  0.49983590  0.83507264  0.16889702  1
  Pb  Pb48  1  0.50023004  0.49973050  0.50011211  1
  Pb  Pb49  1  0.16601524  0.16653069  0.49680361  1
  Pb  Pb50  1  0.16494794  0.50089114  0.16488094  1
  Pb  Pb51  1  0.16668904  0.83331874  0.49986727  1
  Pb  Pb52  1  0.16628428  0.50018525  0.50344611  1
  Pb  Pb53  1  0.83332469  0.16581101  0.16677320  1
  I  I54  1  0.16328825  -0.00098010  0.16031437  1
  I  I55  1  0.16716733  -0.00004997  0.50475675  1
  I  I56  1  0.16450888  -0.00290750  0.83588643  1
  I  I57  1  0.16838629  0.33113961  0.16526099  1
  I  I58  1  0.16671041  0.33295793  0.49961355  1
  I  I59  1  0.16691128  0.33445578  0.83576172  1
  I  I60  1  0.16315632  0.67011860  0.16566650  1
  I  I61  1  0.16726855  0.66713950  0.49395190  1
  I  I62  1  0.15963500  0.66887448  0.83877213  1
  I  I63  1  0.50128695  0.00344252  0.16485885  1
  I  I64  1  0.50469877  0.00130255  0.49960207  1
  I  I65  1  0.49899253  0.00354961  0.83567411  1
  I  I66  1  0.49469297  0.32828220  0.16947333  1
  I  I67  1  0.50471374  0.32914648  0.50005338  1
  I  I68  1  0.50559272  0.32815257  0.83097360  1
  I  I69  1  0.49709986  0.66686729  0.16913840  1
  I  I70  1  0.50478781  0.67000180  0.50027640  1
  I  I71  1  0.50235492  0.66693287  0.83121542  1
  I  I72  1  0.83480276  -0.00290329  0.16662640  1
  I  I73  1  0.82913830  -0.00041375  0.49810704  1
  I  I74  1  0.83593989  -0.00052593  0.83532865  1
  I  I75  1  0.83363233  0.33434039  0.16618902  1
  I  I76  1  0.82844129  0.32977013  0.50256685  1
  I  I77  1  0.83128449  0.33014727  0.83150701  1
  I  I78  1  0.84086966  0.66932599  0.16755352  1
  I  I79  1  0.82965417  0.67061636  0.50293713  1
  I  I80  1  0.83642471  0.67016186  0.83061754  1
  I  I81  1  0.16953191  0.16572368  0.00293072  1
  I  I82  1  0.16865095  0.16040602  0.32877065  1
  I  I83  1  0.16936321  0.16760250  0.66674706  1
  I  I84  1  0.16445581  0.49998553  -0.00258176  1
  I  I85  1  0.16623981  0.49927770  0.33285921  1
  I  I86  1  0.16465156  0.50532854  0.67139411  1
  I  I87  1  0.15802520  0.83453466  0.00011599  1
  I  I88  1  0.16239448  0.83887809  0.33012923  1
  I  I89  1  0.16280875  0.82951264  0.66975318  1
  I  I90  1  0.50096121  0.16738527  -0.00009958  1
  I  I91  1  0.50206331  0.16226048  0.33393928  1
  I  I92  1  0.50384965  0.16294897  0.66630197  1
  I  I93  1  0.50046930  0.49901718  -0.00001531  1
  I  I94  1  0.49853008  0.49796239  0.33311962  1
  I  I95  1  0.49966864  0.49836765  0.66685838  1
  I  I96  1  0.50235071  0.83581086  -0.00002006  1
  I  I97  1  0.50485886  0.84120955  0.33659587  1
  I  I98  1  0.50291804  0.84027762  0.66332237  1
  I  I99  1  0.83072748  0.16422894  -0.00218627  1
  I  I100  1  0.83012012  0.16370024  0.33553513  1
  I  I101  1  0.82647178  0.15973068  0.66702685  1
  I  I102  1  0.83543947  0.50150594  0.00292425  1
  I  I103  1  0.83543447  0.50187228  0.32984696  1
  I  I104  1  0.83523652  0.50114907  0.66686114  1
  I  I105  1  0.83908911  0.83491166  -0.00022955  1
  I  I106  1  0.83407564  0.83475361  0.33323158  1
  I  I107  1  0.83486140  0.83899508  0.66711299  1
  I  I108  1  0.00178545  0.16607031  0.16531488  1
  I  I109  1  -0.00369466  0.16147731  0.50417579  1
  I  I110  1  -0.00303290  0.16574927  0.83075683  1
  I  I111  1  -0.00270004  0.49718484  0.16631793  1
  I  I112  1  -0.00045504  0.49819601  0.49811716  1
  I  I113  1  0.00242626  0.49832437  0.83544738  1
  I  I114  1  -0.00071909  0.83639417  0.16793138  1
  I  I115  1  -0.00353022  0.83814392  0.49974027  1
  I  I116  1  -0.00123694  0.83602624  0.83209655  1
  I  I117  1  0.33342809  0.16111591  0.16517297  1
  I  I118  1  0.33659059  0.16214334  0.50395752  1
  I  I119  1  0.33564426  0.16723021  0.83096049  1
  I  I120  1  0.33330364  0.50107093  0.16638316  1
  I  I121  1  0.33339336  0.49987891  0.49817582  1
  I  I122  1  0.32935358  0.50673518  0.83582013  1
  I  I123  1  0.33051537  0.83706026  0.16247384  1
  I  I124  1  0.33623519  0.83990987  0.50123777  1
  I  I125  1  0.33053205  0.83127848  0.83726630  1
  I  I126  1  0.66455091  0.16720950  0.16679104  1
  I  I127  1  0.66684749  0.16246612  0.49732607  1
  I  I128  1  0.66764243  0.16140339  0.83627769  1
  I  I129  1  0.67088199  0.50620628  0.16555475  1
  I  I130  1  0.66693633  0.49949925  0.50021796  1
  I  I131  1  0.66666566  0.50124657  0.83428487  1
  I  I132  1  0.66991487  0.83173658  0.16405197  1
  I  I133  1  0.66827312  0.83910891  0.49854874  1
  I  I134  1  0.66996758  0.83657073  0.83703084  1
