# generated using pymatgen
data_Cs27Sn13Pb14I81
_symmetry_space_group_name_H-M   'P 1'
_cell_length_a   18.97701233
_cell_length_b   18.97564603
_cell_length_c   18.97735618
_cell_angle_alpha   90.00130838
_cell_angle_beta   89.99868390
_cell_angle_gamma   90.00203313
_symmetry_Int_Tables_number   1
_chemical_formula_structural   Cs27Sn13Pb14I81
_chemical_formula_sum   'Cs27 Sn13 Pb14 I81'
_cell_volume   6833.76623392
_cell_formula_units_Z   1
loop_
 _symmetry_equiv_pos_site_id
 _symmetry_equiv_pos_as_xyz
  1  'x, y, z'
loop_
 _atom_site_type_symbol
 _atom_site_label
 _atom_site_symmetry_multiplicity
 _atom_site_fract_x
 _atom_site_fract_y
 _atom_site_fract_z
 _atom_site_occupancy
  Cs  Cs0  1  0.00422705  0.00213477  0.00343557  1
  Cs  Cs1  1  0.00353642  -0.00159213  0.33258231  1
  Cs  Cs2  1  -0.00087929  -0.00866676  0.66487574  1
  Cs  Cs3  1  -0.00033827  0.33401172  -0.00049127  1
  Cs  Cs4  1  -0.00009185  0.33355848  0.33152301  1
  Cs  Cs5  1  -0.00018402  0.33485542  0.66966085  1
  Cs  Cs6  1  -0.00064406  0.66228967  -0.00270632  1
  Cs  Cs7  1  -0.00039348  0.66613821  0.33633046  1
  Cs  Cs8  1  -0.00173190  0.67410220  0.66495293  1
  Cs  Cs9  1  0.33248807  -0.00548733  0.00106968  1
  Cs  Cs10  1  0.32433011  0.00121602  0.33411834  1
  Cs  Cs11  1  0.33396296  -0.00079512  0.66598476  1
  Cs  Cs12  1  0.33230869  0.33377144  -0.00228022  1
  Cs  Cs13  1  0.33340172  0.33524284  0.34294023  1
  Cs  Cs14  1  0.33370193  0.33354971  0.66425513  1
  Cs  Cs15  1  0.33623869  0.67177470  0.00183563  1
  Cs  Cs16  1  0.33721605  0.66381203  0.33317323  1
  Cs  Cs17  1  0.33004273  0.66682878  0.66546884  1
  Cs  Cs18  1  0.66433949  0.00347576  0.00101202  1
  Cs  Cs19  1  0.66862176  0.00070646  0.33450745  1
  Cs  Cs20  1  0.66581998  -0.00110601  0.66475850  1
  Cs  Cs21  1  0.66757616  0.33264314  -0.00068910  1
  Cs  Cs22  1  0.66634935  0.33348483  0.33297436  1
  Cs  Cs23  1  0.66585734  0.33183646  0.66814669  1
  Cs  Cs24  1  0.66417623  0.66805437  0.00005764  1
  Cs  Cs25  1  0.66456817  0.66619439  0.33126533  1
  Cs  Cs26  1  0.67108830  0.67310235  0.66949978  1
  Sn  Sn27  1  0.49926658  0.49946659  0.83346812  1
  Sn  Sn28  1  0.16680083  0.16726001  0.83336913  1
  Sn  Sn29  1  0.83275183  0.16668564  0.16688569  1
  Sn  Sn30  1  0.83308540  0.49916274  0.49959666  1
  Sn  Sn31  1  0.83342656  0.16754957  0.49985823  1
  Sn  Sn32  1  0.49987398  0.16718047  0.16652609  1
  Sn  Sn33  1  0.49961108  0.16752517  0.83429300  1
  Sn  Sn34  1  0.83383032  0.50001461  0.16730641  1
  Sn  Sn35  1  0.16649279  0.49940984  0.16605155  1
  Sn  Sn36  1  0.83328406  0.83328253  0.16617094  1
  Sn  Sn37  1  0.50000091  0.83344653  0.49953544  1
  Sn  Sn38  1  0.16763754  0.49924162  0.83431522  1
  Sn  Sn39  1  0.83366356  0.16671680  0.83320413  1
  Pb  Pb40  1  0.16666107  0.83282384  0.83359556  1
  Pb  Pb41  1  0.50173984  0.83647707  0.16868193  1
  Pb  Pb42  1  0.83323008  0.83702233  0.83654265  1
  Pb  Pb43  1  0.50182534  0.16549773  0.50001060  1
  Pb  Pb44  1  0.50298918  0.50181065  0.50316462  1
  Pb  Pb45  1  0.16417850  0.82977541  0.16652285  1
  Pb  Pb46  1  0.16696735  0.16890468  0.16502660  1
  Pb  Pb47  1  0.16333495  0.16683309  0.50323099  1
  Pb  Pb48  1  0.49999818  0.83374661  0.83184200  1
  Pb  Pb49  1  0.50010730  0.49774520  0.16496736  1
  Pb  Pb50  1  0.83214622  0.83342069  0.49759768  1
  Pb  Pb51  1  0.83334256  0.49863396  0.83343557  1
  Pb  Pb52  1  0.16410983  0.49988396  0.50057594  1
  Pb  Pb53  1  0.16981177  0.83310104  0.49963412  1
  I  I54  1  0.16587375  0.00032759  0.16523061  1
  I  I55  1  0.16370130  0.00028369  0.50139414  1
  I  I56  1  0.16640796  0.00356250  0.83321212  1
  I  I57  1  0.15901917  0.33660709  0.16352121  1
  I  I58  1  0.16966153  0.33330240  0.49830976  1
  I  I59  1  0.16648767  0.33322623  0.83737146  1
  I  I60  1  0.16181037  0.66171275  0.15982869  1
  I  I61  1  0.16271159  0.66623553  0.50314014  1
  I  I62  1  0.17126377  0.66263910  0.83709363  1
  I  I63  1  0.50704623  0.00447913  0.15919194  1
  I  I64  1  0.50503819  -0.00195626  0.50214055  1
  I  I65  1  0.50090899  0.00393724  0.83583088  1
  I  I66  1  0.50780084  0.32981430  0.16481618  1
  I  I67  1  0.50000237  0.33335789  0.49903062  1
  I  I68  1  0.50041305  0.33194693  0.83607816  1
  I  I69  1  0.50151262  0.66646065  0.16548297  1
  I  I70  1  0.50330923  0.66920355  0.50060303  1
  I  I71  1  0.49579156  0.66365865  0.83213269  1
  I  I72  1  0.82786578  0.00184892  0.16605169  1
  I  I73  1  0.83128980  0.00300277  0.50068148  1
  I  I74  1  0.83220882  0.00558645  0.83094158  1
  I  I75  1  0.83354619  0.33278606  0.16706305  1
  I  I76  1  0.83231150  0.33262139  0.49532728  1
  I  I77  1  0.83280321  0.33015019  0.83710290  1
  I  I78  1  0.83794098  0.66523136  0.17223186  1
  I  I79  1  0.83216907  0.66401781  0.49611425  1
  I  I80  1  0.83322461  0.66662949  0.83231270  1
  I  I81  1  0.16141847  0.16957874  -0.00323979  1
  I  I82  1  0.16742547  0.16750608  0.33327206  1
  I  I83  1  0.16882839  0.17388360  0.67164679  1
  I  I84  1  0.16226686  0.49550317  -0.00052837  1
  I  I85  1  0.16293432  0.50039225  0.33052369  1
  I  I86  1  0.16987784  0.49516167  0.67031400  1
  I  I87  1  0.16676671  0.83574664  0.00014293  1
  I  I88  1  0.16585761  0.83359765  0.33289884  1
  I  I89  1  0.16455172  0.83180844  0.66676256  1
  I  I90  1  0.50684480  0.16979513  -0.00095949  1
  I  I91  1  0.50693945  0.16508852  0.33066615  1
  I  I92  1  0.50151023  0.16859554  0.67002034  1
  I  I93  1  0.50198801  0.49773753  -0.00311008  1
  I  I94  1  0.49773537  0.49942469  0.33335150  1
  I  I95  1  0.49547185  0.49254386  0.67092311  1
  I  I96  1  0.50121571  0.83243711  0.00025593  1
  I  I97  1  0.50340962  0.83362879  0.33597341  1
  I  I98  1  0.50339777  0.83544571  0.66424445  1
  I  I99  1  0.83210489  0.16706423  0.00038058  1
  I  I100  1  0.82744271  0.16760575  0.33209365  1
  I  I101  1  0.83259945  0.17277292  0.66701180  1
  I  I102  1  0.83451905  0.49879292  0.00287248  1
  I  I103  1  0.83801262  0.49539998  0.33181362  1
  I  I104  1  0.83218464  0.49459938  0.66469426  1
  I  I105  1  0.83221520  0.83057835  0.00426405  1
  I  I106  1  0.83160685  0.83763912  0.33010387  1
  I  I107  1  0.83274380  0.83278572  0.66651405  1
  I  I108  1  -0.00342178  0.16525400  0.16573192  1
  I  I109  1  -0.00507878  0.16981554  0.49734768  1
  I  I110  1  -0.00055216  0.17168077  0.83405867  1
  I  I111  1  -0.00168588  0.49786536  0.16408905  1
  I  I112  1  -0.00410815  0.49651396  0.50008581  1
  I  I113  1  0.00219849  0.49478226  0.83514860  1
  I  I114  1  -0.00410345  0.84092909  0.16819171  1
  I  I115  1  -0.00033805  0.83311097  0.50027206  1
  I  I116  1  -0.00027662  0.83239000  0.83121954  1
  I  I117  1  0.33600817  0.16735951  0.16121697  1
  I  I118  1  0.33335324  0.16407794  0.49912713  1
  I  I119  1  0.33403997  0.17090164  0.83823833  1
  I  I120  1  0.33099085  0.49799657  0.16322309  1
  I  I121  1  0.33357209  0.50228893  0.49730740  1
  I  I122  1  0.33292862  0.49138947  0.83834706  1
  I  I123  1  0.33342989  0.83390339  0.16792011  1
  I  I124  1  0.33739598  0.83464111  0.50100624  1
  I  I125  1  0.33341761  0.83761697  0.83246488  1
  I  I126  1  0.66861466  0.16841248  0.16175033  1
  I  I127  1  0.67023871  0.16923532  0.50348800  1
  I  I128  1  0.66678211  0.17071098  0.83451273  1
  I  I129  1  0.66993965  0.50052022  0.16877346  1
  I  I130  1  0.67072052  0.49565829  0.49442671  1
  I  I131  1  0.66466857  0.49515056  0.83297096  1
  I  I132  1  0.66993221  0.82898278  0.16719504  1
  I  I133  1  0.66482880  0.83407679  0.50066103  1
  I  I134  1  0.66675919  0.83119343  0.83241284  1
