# generated using pymatgen
data_Cs27Sn13Pb14I81
_symmetry_space_group_name_H-M   'P 1'
_cell_length_a   18.97121142
_cell_length_b   18.98556659
_cell_length_c   18.97344607
_cell_angle_alpha   90.00035557
_cell_angle_beta   89.99820981
_cell_angle_gamma   89.99940484
_symmetry_Int_Tables_number   1
_chemical_formula_structural   Cs27Sn13Pb14I81
_chemical_formula_sum   'Cs27 Sn13 Pb14 I81'
_cell_volume   6833.84058180
_cell_formula_units_Z   1
loop_
 _symmetry_equiv_pos_site_id
 _symmetry_equiv_pos_as_xyz
  1  'x, y, z'
loop_
 _atom_site_type_symbol
 _atom_site_label
 _atom_site_symmetry_multiplicity
 _atom_site_fract_x
 _atom_site_fract_y
 _atom_site_fract_z
 _atom_site_occupancy
  Cs  Cs0  1  -0.00663573  0.00026703  -0.00163333  1
  Cs  Cs1  1  0.00294122  0.00380716  0.33642472  1
  Cs  Cs2  1  0.00134886  0.00656437  0.66566949  1
  Cs  Cs3  1  -0.00423546  0.33467075  -0.00594917  1
  Cs  Cs4  1  -0.00271855  0.33513454  0.33142034  1
  Cs  Cs5  1  0.00105799  0.32799117  0.67551223  1
  Cs  Cs6  1  -0.00546278  0.66446856  -0.00260601  1
  Cs  Cs7  1  0.00187614  0.66465269  0.33585814  1
  Cs  Cs8  1  -0.00096177  0.66674592  0.66531445  1
  Cs  Cs9  1  0.33564181  -0.00026775  0.00157539  1
  Cs  Cs10  1  0.33013393  -0.00105302  0.33122888  1
  Cs  Cs11  1  0.33133936  -0.00161477  0.66607554  1
  Cs  Cs12  1  0.33299709  0.33312538  0.00038968  1
  Cs  Cs13  1  0.33514927  0.33557271  0.33154789  1
  Cs  Cs14  1  0.33582719  0.33136303  0.66836924  1
  Cs  Cs15  1  0.33406752  0.66689634  0.00087870  1
  Cs  Cs16  1  0.33161354  0.66594235  0.33219793  1
  Cs  Cs17  1  0.33412160  0.66766797  0.66737537  1
  Cs  Cs18  1  0.66850849  -0.00330250  0.00093824  1
  Cs  Cs19  1  0.66997434  -0.00011754  0.33170958  1
  Cs  Cs20  1  0.66753333  -0.00028179  0.66704660  1
  Cs  Cs21  1  0.66818527  0.33408612  0.00095649  1
  Cs  Cs22  1  0.66774763  0.33195590  0.33626106  1
  Cs  Cs23  1  0.66212088  0.33006369  0.66121205  1
  Cs  Cs24  1  0.67081713  0.66925623  0.00086657  1
  Cs  Cs25  1  0.66768484  0.66731500  0.33430798  1
  Cs  Cs26  1  0.66635272  0.66722517  0.66522494  1
  Sn  Sn27  1  0.50043082  0.83325506  0.50024971  1
  Sn  Sn28  1  0.49976953  0.50031961  0.83437151  1
  Sn  Sn29  1  0.16719888  0.16723769  0.16633307  1
  Sn  Sn30  1  0.16721018  0.83296538  0.83443564  1
  Sn  Sn31  1  0.49929267  0.16746118  0.16582871  1
  Sn  Sn32  1  0.49925744  0.83322082  0.83265822  1
  Sn  Sn33  1  0.16715973  0.49976440  0.16686644  1
  Sn  Sn34  1  0.83466869  0.50038717  0.50028196  1
  Sn  Sn35  1  0.16664324  0.83300690  0.16530814  1
  Sn  Sn36  1  0.16594111  0.49978744  0.50016287  1
  Sn  Sn37  1  0.49952467  0.49958973  0.16576922  1
  Sn  Sn38  1  0.49955295  0.16635375  0.83446090  1
  Sn  Sn39  1  0.83284619  0.83283806  0.50000932  1
  Pb  Pb40  1  0.49962641  0.50172701  0.49951936  1
  Pb  Pb41  1  0.16887652  0.16403079  0.83607212  1
  Pb  Pb42  1  0.82980487  0.50004289  0.83013485  1
  Pb  Pb43  1  0.16663492  0.83194111  0.50024741  1
  Pb  Pb44  1  0.83349927  0.16695367  0.50000974  1
  Pb  Pb45  1  0.83307736  0.16681832  0.16657269  1
  Pb  Pb46  1  0.49886695  0.83316198  0.16652926  1
  Pb  Pb47  1  0.16703901  0.17044803  0.49760011  1
  Pb  Pb48  1  0.49967362  0.16344460  0.49912517  1
  Pb  Pb49  1  0.83315116  0.50010075  0.16847364  1
  Pb  Pb50  1  0.83728754  0.83320050  0.16955492  1
  Pb  Pb51  1  0.83343366  0.83328049  0.83089783  1
  Pb  Pb52  1  0.16848733  0.50177890  0.83374080  1
  Pb  Pb53  1  0.82980347  0.16663758  0.83347340  1
  I  I54  1  0.17217334  -0.00007309  0.16339713  1
  I  I55  1  0.16607609  -0.00004814  0.49882694  1
  I  I56  1  0.17274804  -0.00392630  0.83590022  1
  I  I57  1  0.17245351  0.33408476  0.17368699  1
  I  I58  1  0.16233029  0.33852357  0.49531262  1
  I  I59  1  0.16801936  0.33326820  0.83205939  1
  I  I60  1  0.17201165  0.66592626  0.16842249  1
  I  I61  1  0.16687613  0.66419018  0.49368680  1
  I  I62  1  0.17405955  0.66963913  0.83758305  1
  I  I63  1  0.49525539  0.00227115  0.16459808  1
  I  I64  1  0.50501474  -0.00455390  0.50361149  1
  I  I65  1  0.49609268  -0.00058241  0.83314884  1
  I  I66  1  0.49219455  0.33389495  0.16016307  1
  I  I67  1  0.50083270  0.33349129  0.50288693  1
  I  I68  1  0.50056597  0.33359282  0.83728930  1
  I  I69  1  0.49511090  0.66406867  0.16511325  1
  I  I70  1  0.50042631  0.66948398  0.50365563  1
  I  I71  1  0.49582815  0.66713676  0.83250674  1
  I  I72  1  0.83182914  -0.00014076  0.16949029  1
  I  I73  1  0.82829404  -0.00318493  0.49989291  1
  I  I74  1  0.83224408  -0.00028629  0.83055033  1
  I  I75  1  0.83589107  0.33354226  0.17062718  1
  I  I76  1  0.83588303  0.33680630  0.49816477  1
  I  I77  1  0.83428271  0.33352348  0.83087185  1
  I  I78  1  0.83141990  0.66670102  0.16600010  1
  I  I79  1  0.83268443  0.66673520  0.49945201  1
  I  I80  1  0.83050507  0.66668929  0.83466524  1
  I  I81  1  0.16993693  0.17204782  0.00419930  1
  I  I82  1  0.17378928  0.15962424  0.32912308  1
  I  I83  1  0.16729089  0.16558396  0.66714077  1
  I  I84  1  0.17071511  0.49893614  0.00334888  1
  I  I85  1  0.16934751  0.50304409  0.33197855  1
  I  I86  1  0.16510731  0.50493944  0.66444915  1
  I  I87  1  0.17503663  0.83163925  0.00034152  1
  I  I88  1  0.16760805  0.83443164  0.33072905  1
  I  I89  1  0.16936234  0.83025267  0.66899269  1
  I  I90  1  0.49520447  0.16565091  0.00028625  1
  I  I91  1  0.49654218  0.17112227  0.32960487  1
  I  I92  1  0.50135549  0.16989180  0.66962298  1
  I  I93  1  0.49345021  0.50107184  0.00063098  1
  I  I94  1  0.49855863  0.49712097  0.33044726  1
  I  I95  1  0.50024262  0.49867499  0.66899727  1
  I  I96  1  0.49650759  0.83332143  -0.00276919  1
  I  I97  1  0.50158010  0.83206797  0.33542522  1
  I  I98  1  0.49769478  0.83228217  0.66784741  1
  I  I99  1  0.83557377  0.16642565  0.00008762  1
  I  I100  1  0.83011068  0.16563699  0.33330284  1
  I  I101  1  0.83209676  0.16663082  0.66666581  1
  I  I102  1  0.83546623  0.49936269  -0.00025016  1
  I  I103  1  0.83226363  0.50475770  0.33650692  1
  I  I104  1  0.83843666  0.50585346  0.66227297  1
  I  I105  1  0.83086720  0.83417153  -0.00001950  1
  I  I106  1  0.82626221  0.82910490  0.33729422  1
  I  I107  1  0.83254046  0.82788567  0.66307048  1
  I  I108  1  0.00364834  0.16632575  0.16968829  1
  I  I109  1  0.00036306  0.16076910  0.49765004  1
  I  I110  1  0.00040752  0.16476381  0.83374474  1
  I  I111  1  0.00353478  0.50021840  0.17031921  1
  I  I112  1  0.00063683  0.50805102  0.49211220  1
  I  I113  1  0.00007534  0.50229506  0.83532360  1
  I  I114  1  0.00556824  0.83263854  0.16182482  1
  I  I115  1  -0.00205737  0.82947684  0.49833376  1
  I  I116  1  0.00313863  0.83190678  0.83707726  1
  I  I117  1  0.33382484  0.16757402  0.16349288  1
  I  I118  1  0.33347986  0.16573613  0.50183008  1
  I  I119  1  0.33717637  0.16854498  0.83475313  1
  I  I120  1  0.33308716  0.49965889  0.16977862  1
  I  I121  1  0.33111668  0.50273503  0.49732698  1
  I  I122  1  0.33691551  0.49932412  0.83178079  1
  I  I123  1  0.33065664  0.83266135  0.16882091  1
  I  I124  1  0.33553180  0.83160449  0.50174777  1
  I  I125  1  0.33479733  0.83304430  0.83037827  1
  I  I126  1  0.66259049  0.17120320  0.16337173  1
  I  I127  1  0.66627808  0.17085785  0.49833941  1
  I  I128  1  0.66116613  0.16356840  0.83946249  1
  I  I129  1  0.66296975  0.49544273  0.16441833  1
  I  I130  1  0.66835571  0.50339906  0.50070979  1
  I  I131  1  0.66138619  0.50327113  0.83865398  1
  I  I132  1  0.66668588  0.83365998  0.16535524  1
  I  I133  1  0.66582427  0.82733080  0.50508187  1
  I  I134  1  0.66300735  0.83374321  0.83087298  1
