# generated using pymatgen
data_Cs27Sn14Pb13I81
_symmetry_space_group_name_H-M   'P 1'
_cell_length_a   18.96286086
_cell_length_b   18.96418868
_cell_length_c   18.95910411
_cell_angle_alpha   90.00047220
_cell_angle_beta   90.00048370
_cell_angle_gamma   89.99948708
_symmetry_Int_Tables_number   1
_chemical_formula_structural   Cs27Sn14Pb13I81
_chemical_formula_sum   'Cs27 Sn14 Pb13 I81'
_cell_volume   6817.98336649
_cell_formula_units_Z   1
loop_
 _symmetry_equiv_pos_site_id
 _symmetry_equiv_pos_as_xyz
  1  'x, y, z'
loop_
 _atom_site_type_symbol
 _atom_site_label
 _atom_site_symmetry_multiplicity
 _atom_site_fract_x
 _atom_site_fract_y
 _atom_site_fract_z
 _atom_site_occupancy
  Cs  Cs0  1  -0.00039264  0.00012630  -0.00064949  1
  Cs  Cs1  1  0.00126384  -0.00070998  0.33469955  1
  Cs  Cs2  1  -0.00007659  -0.00110596  0.66632016  1
  Cs  Cs3  1  -0.00166224  0.33372054  0.00037569  1
  Cs  Cs4  1  0.00462253  0.33018146  0.33349863  1
  Cs  Cs5  1  -0.00108371  0.33303871  0.66473375  1
  Cs  Cs6  1  -0.00006695  0.66627299  -0.00083508  1
  Cs  Cs7  1  -0.00196422  0.66949274  0.33407928  1
  Cs  Cs8  1  0.00071097  0.66801108  0.66704881  1
  Cs  Cs9  1  0.33370805  0.00159887  -0.00014636  1
  Cs  Cs10  1  0.33208020  0.00491274  0.32988320  1
  Cs  Cs11  1  0.33479317  -0.00375246  0.66873036  1
  Cs  Cs12  1  0.33076220  0.33256112  0.00638235  1
  Cs  Cs13  1  0.33255187  0.33453634  0.33136197  1
  Cs  Cs14  1  0.33405120  0.33632586  0.66072196  1
  Cs  Cs15  1  0.32988642  0.66403064  0.00069588  1
  Cs  Cs16  1  0.33504400  0.66107416  0.33317919  1
  Cs  Cs17  1  0.33079931  0.66843689  0.66636330  1
  Cs  Cs18  1  0.66701626  -0.00058578  -0.00020653  1
  Cs  Cs19  1  0.66432156  -0.00089174  0.33193665  1
  Cs  Cs20  1  0.66694403  0.00044723  0.66738755  1
  Cs  Cs21  1  0.66953408  0.33386188  -0.00334235  1
  Cs  Cs22  1  0.66180622  0.33296959  0.33664665  1
  Cs  Cs23  1  0.66752937  0.33281224  0.66858873  1
  Cs  Cs24  1  0.66812888  0.66676161  0.00132383  1
  Cs  Cs25  1  0.66668581  0.66797597  0.33082846  1
  Cs  Cs26  1  0.66734185  0.66667342  0.66697700  1
  Sn  Sn27  1  0.16669167  0.16707744  0.83282965  1
  Sn  Sn28  1  0.83266596  0.83326364  0.83261072  1
  Sn  Sn29  1  0.83332229  0.49880257  0.16711461  1
  Sn  Sn30  1  0.83283958  0.50023901  0.83317492  1
  Sn  Sn31  1  0.50090784  0.83282521  0.83291274  1
  Sn  Sn32  1  0.83313118  0.16736264  0.16630780  1
  Sn  Sn33  1  0.83343337  0.16657699  0.83398159  1
  Sn  Sn34  1  0.50045866  0.50030467  0.83337703  1
  Sn  Sn35  1  0.49966855  0.16702356  0.83322513  1
  Sn  Sn36  1  0.83336577  0.50064969  0.49990066  1
  Sn  Sn37  1  0.16700849  0.83339809  0.49870912  1
  Sn  Sn38  1  0.83283598  0.83270642  0.50083633  1
  Sn  Sn39  1  0.50024280  0.83342994  0.50050504  1
  Sn  Sn40  1  0.16666834  0.83312192  0.16745176  1
  Pb  Pb41  1  0.83326061  0.16652481  0.49993746  1
  Pb  Pb42  1  0.16409127  0.50205587  0.16675780  1
  Pb  Pb43  1  0.16669379  0.49702579  0.83323332  1
  Pb  Pb44  1  0.49722555  0.83324756  0.16627365  1
  Pb  Pb45  1  0.16432190  0.50217987  0.50008682  1
  Pb  Pb46  1  0.16684602  0.16451011  0.50225428  1
  Pb  Pb47  1  0.50228824  0.50222035  0.50214369  1
  Pb  Pb48  1  0.83446613  0.83351130  0.16658726  1
  Pb  Pb49  1  0.16675639  0.83463926  0.83314845  1
  Pb  Pb50  1  0.50264031  0.16676030  0.16440358  1
  Pb  Pb51  1  0.16440874  0.16492814  0.16475810  1
  Pb  Pb52  1  0.50250372  0.49996467  0.16423652  1
  Pb  Pb53  1  0.49994209  0.16449933  0.50214875  1
  I  I54  1  0.16296359  -0.00301382  0.16983650  1
  I  I55  1  0.16179477  -0.00439370  0.49782324  1
  I  I56  1  0.16467611  0.00242094  0.83300703  1
  I  I57  1  0.16638244  0.33315010  0.16416467  1
  I  I58  1  0.16406533  0.33338014  0.50190131  1
  I  I59  1  0.16414345  0.32909180  0.83507224  1
  I  I60  1  0.16393032  0.67020363  0.16799439  1
  I  I61  1  0.16744121  0.67103582  0.49951776  1
  I  I62  1  0.16593619  0.66676298  0.83332620  1
  I  I63  1  0.50342996  -0.00017050  0.16375487  1
  I  I64  1  0.50409632  -0.00445599  0.50650593  1
  I  I65  1  0.50310485  -0.00049923  0.82964634  1
  I  I66  1  0.49766637  0.33335166  0.16550547  1
  I  I67  1  0.50264667  0.33370809  0.50263124  1
  I  I68  1  0.50553142  0.33315939  0.83470898  1
  I  I69  1  0.50262224  0.66680095  0.16285632  1
  I  I70  1  0.49833770  0.67067762  0.50692858  1
  I  I71  1  0.50783624  0.66744013  0.82979432  1
  I  I72  1  0.83530012  0.00215229  0.16143916  1
  I  I73  1  0.83386377  -0.00367683  0.50389108  1
  I  I74  1  0.83162700  -0.00017436  0.83371056  1
  I  I75  1  0.83369311  0.33361380  0.16047444  1
  I  I76  1  0.83315868  0.33624678  0.50388418  1
  I  I77  1  0.83115339  0.33347540  0.83382886  1
  I  I78  1  0.83519299  0.66436746  0.16341898  1
  I  I79  1  0.83406386  0.66789147  0.50344469  1
  I  I80  1  0.82801472  0.66685236  0.83336440  1
  I  I81  1  0.16776014  0.16225342  -0.00352916  1
  I  I82  1  0.16304886  0.16521802  0.33317100  1
  I  I83  1  0.16189021  0.16375620  0.67077450  1
  I  I84  1  0.16410595  0.50468235  -0.00024361  1
  I  I85  1  0.16452812  0.49890094  0.33343750  1
  I  I86  1  0.16320958  0.50244500  0.66690913  1
  I  I87  1  0.16462601  0.83545174  0.00153028  1
  I  I88  1  0.16298449  0.83357818  0.33455804  1
  I  I89  1  0.16554815  0.83517589  0.66431887  1
  I  I90  1  0.49893375  0.16241134  -0.00488952  1
  I  I91  1  0.50224454  0.16349830  0.33328677  1
  I  I92  1  0.50523219  0.16760426  0.67145793  1
  I  I93  1  0.50629277  0.50327044  -0.00472261  1
  I  I94  1  0.50263071  0.50324931  0.33362412  1
  I  I95  1  0.50680317  0.49762073  0.67077183  1
  I  I96  1  0.50448714  0.83425817  -0.00403479  1
  I  I97  1  0.50473550  0.83288004  0.33654111  1
  I  I98  1  0.49920759  0.83415755  0.66804694  1
  I  I99  1  0.83322685  0.16851467  -0.00239078  1
  I  I100  1  0.83519712  0.16836657  0.33050821  1
  I  I101  1  0.83260049  0.16778547  0.67044100  1
  I  I102  1  0.83007379  0.49994551  -0.00148981  1
  I  I103  1  0.83539004  0.50251461  0.33357883  1
  I  I104  1  0.83022081  0.50097709  0.66791475  1
  I  I105  1  0.83122886  0.83190855  -0.00324104  1
  I  I106  1  0.83194058  0.83052006  0.33620237  1
  I  I107  1  0.83525139  0.83134169  0.66747148  1
  I  I108  1  -0.00373224  0.16946549  0.15908232  1
  I  I109  1  -0.00037766  0.16358722  0.50408187  1
  I  I110  1  -0.00184642  0.16498869  0.83686424  1
  I  I111  1  -0.00464023  0.49733871  0.16199562  1
  I  I112  1  -0.00459326  0.50578470  0.50434768  1
  I  I113  1  -0.00406287  0.50136281  0.83369287  1
  I  I114  1  0.00201333  0.83348387  0.16934503  1
  I  I115  1  -0.00125085  0.82987046  0.50104344  1
  I  I116  1  -0.00311793  0.83352227  0.83108100  1
  I  I117  1  0.33318624  0.16370362  0.16344620  1
  I  I118  1  0.33343348  0.16384928  0.50349143  1
  I  I119  1  0.33428846  0.16287331  0.83147163  1
  I  I120  1  0.33338469  0.50192535  0.16405678  1
  I  I121  1  0.33372712  0.50245186  0.50327518  1
  I  I122  1  0.33665815  0.50248222  0.83266758  1
  I  I123  1  0.32955925  0.83470252  0.16840549  1
  I  I124  1  0.33374757  0.83553970  0.50331865  1
  I  I125  1  0.33620887  0.83403157  0.83069208  1
  I  I126  1  0.67100294  0.16765283  0.16027615  1
  I  I127  1  0.66699057  0.16353235  0.50163521  1
  I  I128  1  0.66762010  0.16591803  0.83672088  1
  I  I129  1  0.67124505  0.49921313  0.16718488  1
  I  I130  1  0.67086224  0.50586758  0.49918569  1
  I  I131  1  0.66843022  0.49713315  0.83322794  1
  I  I132  1  0.66683430  0.83351544  0.16819339  1
  I  I133  1  0.66764832  0.83003448  0.50605030  1
  I  I134  1  0.66768828  0.83685925  0.82724152  1
