# generated using pymatgen
data_Cs27Sn13Pb14I81
_symmetry_space_group_name_H-M   'P 1'
_cell_length_a   18.98501422
_cell_length_b   18.97175475
_cell_length_c   18.97602685
_cell_angle_alpha   90.00052801
_cell_angle_beta   90.00019210
_cell_angle_gamma   90.00142129
_symmetry_Int_Tables_number   1
_chemical_formula_structural   Cs27Sn13Pb14I81
_chemical_formula_sum   'Cs27 Sn13 Pb14 I81'
_cell_volume   6834.76701171
_cell_formula_units_Z   1
loop_
 _symmetry_equiv_pos_site_id
 _symmetry_equiv_pos_as_xyz
  1  'x, y, z'
loop_
 _atom_site_type_symbol
 _atom_site_label
 _atom_site_symmetry_multiplicity
 _atom_site_fract_x
 _atom_site_fract_y
 _atom_site_fract_z
 _atom_site_occupancy
  Cs  Cs0  1  -0.00159055  -0.00059504  -0.00055489  1
  Cs  Cs1  1  0.00198551  -0.00136180  0.33776086  1
  Cs  Cs2  1  0.00125208  -0.00355985  0.66342124  1
  Cs  Cs3  1  -0.00040493  0.33442545  -0.00283661  1
  Cs  Cs4  1  0.00607975  0.33357731  0.33276005  1
  Cs  Cs5  1  -0.00307277  0.33175617  0.66967745  1
  Cs  Cs6  1  -0.00294259  0.66754600  0.00308952  1
  Cs  Cs7  1  -0.00048244  0.66881848  0.33076445  1
  Cs  Cs8  1  0.00103063  0.67244818  0.66485001  1
  Cs  Cs9  1  0.33448785  -0.00229608  0.00265076  1
  Cs  Cs10  1  0.33325614  0.00133187  0.32980762  1
  Cs  Cs11  1  0.33413775  -0.00210339  0.66651347  1
  Cs  Cs12  1  0.33300580  0.33210907  0.00176966  1
  Cs  Cs13  1  0.32733570  0.33970295  0.32788259  1
  Cs  Cs14  1  0.33350135  0.33502219  0.66668237  1
  Cs  Cs15  1  0.33275580  0.67145416  -0.00150871  1
  Cs  Cs16  1  0.33413914  0.66013073  0.33404872  1
  Cs  Cs17  1  0.33231495  0.66679668  0.66555868  1
  Cs  Cs18  1  0.66565481  0.00045463  -0.00039959  1
  Cs  Cs19  1  0.66550852  0.00000928  0.33506961  1
  Cs  Cs20  1  0.66573889  0.00176390  0.66539126  1
  Cs  Cs21  1  0.66704058  0.33213431  -0.00089367  1
  Cs  Cs22  1  0.66481780  0.33388133  0.33466744  1
  Cs  Cs23  1  0.66776379  0.33189456  0.66705984  1
  Cs  Cs24  1  0.66970971  0.66896148  0.00136424  1
  Cs  Cs25  1  0.66723867  0.66556943  0.33072652  1
  Cs  Cs26  1  0.66542667  0.66573932  0.66701201  1
  Sn  Sn27  1  0.83333156  0.49940333  0.83222905  1
  Sn  Sn28  1  0.83325784  0.16688583  0.16711600  1
  Sn  Sn29  1  0.16724451  0.83349237  0.16683577  1
  Sn  Sn30  1  0.16642009  0.49949791  0.83318331  1
  Sn  Sn31  1  0.16688475  0.16691039  0.83309192  1
  Sn  Sn32  1  0.83266414  0.16768304  0.49994938  1
  Sn  Sn33  1  0.49991771  0.16661756  0.50021533  1
  Sn  Sn34  1  0.83338500  0.49905068  0.50080082  1
  Sn  Sn35  1  0.50018554  0.83389771  0.49896656  1
  Sn  Sn36  1  0.50018379  0.49909287  0.83340713  1
  Sn  Sn37  1  0.49968328  0.16744935  0.83259598  1
  Sn  Sn38  1  0.49943608  0.83350265  0.16793620  1
  Sn  Sn39  1  0.83339622  0.16693687  0.83306032  1
  Pb  Pb40  1  0.83297165  0.83593597  0.16689896  1
  Pb  Pb41  1  0.16660159  0.83340787  0.83484373  1
  Pb  Pb42  1  0.16714969  0.16685980  0.50221733  1
  Pb  Pb43  1  0.50143268  0.16551694  0.16691927  1
  Pb  Pb44  1  0.83102557  0.83331260  0.50006997  1
  Pb  Pb45  1  0.50012336  0.83365033  0.83302822  1
  Pb  Pb46  1  0.83326437  0.49725514  0.16672865  1
  Pb  Pb47  1  0.16424367  0.16508201  0.16411267  1
  Pb  Pb48  1  0.16338497  0.49978704  0.50266276  1
  Pb  Pb49  1  0.16994132  0.83337538  0.49736086  1
  Pb  Pb50  1  0.50172078  0.49914270  0.50189540  1
  Pb  Pb51  1  0.50015974  0.50251457  0.16358161  1
  Pb  Pb52  1  0.16656391  0.50221647  0.16384114  1
  Pb  Pb53  1  0.83330179  0.83337601  0.83304165  1
  I  I54  1  0.17088039  -0.00268504  0.16304828  1
  I  I55  1  0.16123261  0.00016530  0.50383403  1
  I  I56  1  0.16619143  0.00337314  0.83473341  1
  I  I57  1  0.16564852  0.33320672  0.16758416  1
  I  I58  1  0.17207472  0.33325351  0.49583034  1
  I  I59  1  0.16584203  0.33284884  0.83380757  1
  I  I60  1  0.17026321  0.67016225  0.16396503  1
  I  I61  1  0.16623860  0.66662166  0.50361891  1
  I  I62  1  0.16682641  0.66335555  0.83482038  1
  I  I63  1  0.49782387  -0.00266044  0.16488330  1
  I  I64  1  0.50620535  0.00143744  0.50285214  1
  I  I65  1  0.50107490  0.00355737  0.83292916  1
  I  I66  1  0.50150421  0.33321978  0.16824899  1
  I  I67  1  0.50416461  0.32996134  0.50442915  1
  I  I68  1  0.50090735  0.33202314  0.82826465  1
  I  I69  1  0.49725920  0.67076316  0.17141300  1
  I  I70  1  0.50157730  0.66876215  0.49805434  1
  I  I71  1  0.50035204  0.66370077  0.83380240  1
  I  I72  1  0.83270246  0.00388277  0.16438815  1
  I  I73  1  0.83152404  0.00367392  0.50163538  1
  I  I74  1  0.83273209  0.00431343  0.83298565  1
  I  I75  1  0.83235624  0.32930281  0.16431384  1
  I  I76  1  0.82693836  0.33172744  0.50234402  1
  I  I77  1  0.83328138  0.33231214  0.83308489  1
  I  I78  1  0.83350046  0.66667395  0.16540599  1
  I  I79  1  0.83229768  0.66357015  0.50649051  1
  I  I80  1  0.83297681  0.66271448  0.82940127  1
  I  I81  1  0.16704686  0.16993493  -0.00435558  1
  I  I82  1  0.16556005  0.16411542  0.33318833  1
  I  I83  1  0.16243359  0.16973109  0.67088372  1
  I  I84  1  0.16328139  0.49569565  -0.00465002  1
  I  I85  1  0.16569550  0.50149208  0.33333607  1
  I  I86  1  0.16963959  0.49656641  0.67116128  1
  I  I87  1  0.17446684  0.83385513  0.00253209  1
  I  I88  1  0.16656315  0.83520915  0.32960453  1
  I  I89  1  0.16705570  0.83304184  0.66661019  1
  I  I90  1  0.50173125  0.16838787  -0.00334590  1
  I  I91  1  0.50722255  0.16232845  0.33635904  1
  I  I92  1  0.50488629  0.16385513  0.66748659  1
  I  I93  1  0.50342554  0.49458371  -0.00502888  1
  I  I94  1  0.50220003  0.49858706  0.33356705  1
  I  I95  1  0.49848259  0.50133995  0.67037678  1
  I  I96  1  0.49624478  0.83316995  0.00224681  1
  I  I97  1  0.49716896  0.84059052  0.33386283  1
  I  I98  1  0.50240912  0.83533510  0.66410898  1
  I  I99  1  0.83317124  0.16900242  -0.00190836  1
  I  I100  1  0.82701368  0.16905810  0.33476835  1
  I  I101  1  0.83188336  0.17083789  0.66733653  1
  I  I102  1  0.83358126  0.49647593  -0.00374905  1
  I  I103  1  0.83124445  0.49638612  0.33650920  1
  I  I104  1  0.83271415  0.49174618  0.66809096  1
  I  I105  1  0.83063124  0.83380138  0.00011036  1
  I  I106  1  0.83510550  0.83312433  0.33345477  1
  I  I107  1  0.83184297  0.83698901  0.66647687  1
  I  I108  1  -0.00381376  0.16421901  0.16658309  1
  I  I109  1  -0.00351639  0.17014685  0.50084828  1
  I  I110  1  -0.00105428  0.17204993  0.83473020  1
  I  I111  1  -0.00019804  0.50360213  0.16451523  1
  I  I112  1  -0.00475534  0.49334575  0.50514993  1
  I  I113  1  -0.00081326  0.49296440  0.83064430  1
  I  I114  1  0.00227516  0.83420223  0.16284556  1
  I  I115  1  -0.00001469  0.83375441  0.49886042  1
  I  I116  1  0.00001646  0.83396428  0.83678967  1
  I  I117  1  0.33328947  0.16570237  0.16535471  1
  I  I118  1  0.33694154  0.16091035  0.50600009  1
  I  I119  1  0.33427456  0.17196351  0.82928767  1
  I  I120  1  0.33339230  0.49744074  0.16540028  1
  I  I121  1  0.33348241  0.50106675  0.50219602  1
  I  I122  1  0.33360030  0.49407348  0.83490835  1
  I  I123  1  0.33433313  0.83554112  0.16842980  1
  I  I124  1  0.33791881  0.83978113  0.50095886  1
  I  I125  1  0.33356551  0.83315343  0.83226614  1
  I  I126  1  0.66942694  0.16388211  0.16107715  1
  I  I127  1  0.66707558  0.16546983  0.50511650  1
  I  I128  1  0.66689475  0.17119274  0.83313315  1
  I  I129  1  0.66680291  0.50394031  0.16305936  1
  I  I130  1  0.66967842  0.49868132  0.50689504  1
  I  I131  1  0.66720679  0.49449446  0.82994753  1
  I  I132  1  0.66371128  0.83418259  0.16944388  1
  I  I133  1  0.66320863  0.83571601  0.49420031  1
  I  I134  1  0.66642872  0.83261551  0.83723109  1
