# generated using pymatgen
data_Cs27Sn13Pb14I81
_symmetry_space_group_name_H-M   'P 1'
_cell_length_a   18.97718690
_cell_length_b   18.97127634
_cell_length_c   18.98090868
_cell_angle_alpha   89.99948721
_cell_angle_beta   89.99990667
_cell_angle_gamma   89.99835936
_symmetry_Int_Tables_number   1
_chemical_formula_structural   Cs27Sn13Pb14I81
_chemical_formula_sum   'Cs27 Sn13 Pb14 I81'
_cell_volume   6833.53439050
_cell_formula_units_Z   1
loop_
 _symmetry_equiv_pos_site_id
 _symmetry_equiv_pos_as_xyz
  1  'x, y, z'
loop_
 _atom_site_type_symbol
 _atom_site_label
 _atom_site_symmetry_multiplicity
 _atom_site_fract_x
 _atom_site_fract_y
 _atom_site_fract_z
 _atom_site_occupancy
  Cs  Cs0  1  0.00044094  0.00134428  0.00143077  1
  Cs  Cs1  1  0.00008597  0.00055349  0.33268265  1
  Cs  Cs2  1  0.00066898  0.00229294  0.66598164  1
  Cs  Cs3  1  0.00144689  0.33286590  0.00067734  1
  Cs  Cs4  1  0.00042629  0.33147170  0.33299430  1
  Cs  Cs5  1  0.00008227  0.32974432  0.66633872  1
  Cs  Cs6  1  0.00249814  0.66255434  -0.00080054  1
  Cs  Cs7  1  -0.00723157  0.66494505  0.33297183  1
  Cs  Cs8  1  0.00113364  0.66602767  0.66802003  1
  Cs  Cs9  1  0.33339512  -0.00189603  0.00188276  1
  Cs  Cs10  1  0.33172321  0.00040384  0.33378305  1
  Cs  Cs11  1  0.33189617  -0.00168562  0.66291770  1
  Cs  Cs12  1  0.33330984  0.33563156  0.00430578  1
  Cs  Cs13  1  0.34069748  0.33445403  0.33524970  1
  Cs  Cs14  1  0.33390112  0.33050730  0.65994157  1
  Cs  Cs15  1  0.33055829  0.66688803  -0.00217528  1
  Cs  Cs16  1  0.33359537  0.66817345  0.33404032  1
  Cs  Cs17  1  0.33232839  0.66888225  0.66892109  1
  Cs  Cs18  1  0.66634816  0.00160287  -0.00195205  1
  Cs  Cs19  1  0.66984636  -0.00314672  0.33046631  1
  Cs  Cs20  1  0.66753672  0.00009220  0.67133450  1
  Cs  Cs21  1  0.66315550  0.32970500  -0.00304308  1
  Cs  Cs22  1  0.65960725  0.34141479  0.33398047  1
  Cs  Cs23  1  0.66548668  0.33407484  0.66945943  1
  Cs  Cs24  1  0.66769880  0.66769392  -0.00171545  1
  Cs  Cs25  1  0.67446751  0.66220602  0.33520957  1
  Cs  Cs26  1  0.66696565  0.66617213  0.66658080  1
  Sn  Sn27  1  0.49966061  0.83324329  0.16691924  1
  Sn  Sn28  1  0.83305197  0.50067175  0.83342019  1
  Sn  Sn29  1  0.16675183  0.83221914  0.49886107  1
  Sn  Sn30  1  0.83325608  0.83271973  0.83342287  1
  Sn  Sn31  1  0.16697679  0.83364489  0.16762050  1
  Sn  Sn32  1  0.16642340  0.50110040  0.49955380  1
  Sn  Sn33  1  0.83260444  0.16665535  0.49865828  1
  Sn  Sn34  1  0.49991703  0.83336211  0.49969171  1
  Sn  Sn35  1  0.16727355  0.16649656  0.83425982  1
  Sn  Sn36  1  0.16620091  0.16598173  0.16595399  1
  Sn  Sn37  1  0.83350043  0.16679234  0.16797522  1
  Sn  Sn38  1  0.50077249  0.83270729  0.83334205  1
  Sn  Sn39  1  0.50026984  0.50077996  0.83333038  1
  Pb  Pb40  1  0.83380630  0.83465365  0.16423879  1
  Pb  Pb41  1  0.83517936  0.49756355  0.50227251  1
  Pb  Pb42  1  0.49818977  0.50287342  0.50230975  1
  Pb  Pb43  1  0.16724142  0.49734810  0.83148729  1
  Pb  Pb44  1  0.49681997  0.16636469  0.83329999  1
  Pb  Pb45  1  0.83479030  0.16672816  0.83383832  1
  Pb  Pb46  1  0.16687411  0.83471703  0.83344517  1
  Pb  Pb47  1  0.49999361  0.50356041  0.16416196  1
  Pb  Pb48  1  0.16575070  0.16617043  0.49880349  1
  Pb  Pb49  1  0.83327790  0.49670200  0.16389003  1
  Pb  Pb50  1  0.16668357  0.50016710  0.16941558  1
  Pb  Pb51  1  0.49978321  0.16458713  0.16683125  1
  Pb  Pb52  1  0.83365456  0.83469249  0.50215301  1
  Pb  Pb53  1  0.50339696  0.16384417  0.49989748  1
  I  I54  1  0.16681305  -0.00059215  0.16796733  1
  I  I55  1  0.16960006  -0.00294960  0.49998301  1
  I  I56  1  0.16491648  0.00241164  0.83236802  1
  I  I57  1  0.16125315  0.33009452  0.16279566  1
  I  I58  1  0.16323556  0.33486736  0.50338176  1
  I  I59  1  0.16434444  0.32979439  0.83690643  1
  I  I60  1  0.17163507  0.67027455  0.16725654  1
  I  I61  1  0.17032826  0.66865609  0.49733342  1
  I  I62  1  0.16557921  0.66672250  0.83487410  1
  I  I63  1  0.49843948  -0.00400180  0.16291731  1
  I  I64  1  0.49177282  -0.00454392  0.50388954  1
  I  I65  1  0.50424055  -0.00376375  0.83349429  1
  I  I66  1  0.49944799  0.33352298  0.16445773  1
  I  I67  1  0.49787670  0.33370764  0.50225584  1
  I  I68  1  0.50472546  0.33609795  0.83281121  1
  I  I69  1  0.49292926  0.67187113  0.16788254  1
  I  I70  1  0.49869336  0.67111938  0.49862686  1
  I  I71  1  0.50361703  0.66831488  0.83329825  1
  I  I72  1  0.83547799  0.00263853  0.16693993  1
  I  I73  1  0.83647219  0.00243807  0.50001469  1
  I  I74  1  0.82964289  -0.00227008  0.83303224  1
  I  I75  1  0.84194810  0.32862781  0.16799802  1
  I  I76  1  0.83830846  0.32981283  0.49931054  1
  I  I77  1  0.83028431  0.33563087  0.83270576  1
  I  I78  1  0.83386436  0.66678053  0.16682570  1
  I  I79  1  0.83257514  0.66673652  0.50025901  1
  I  I80  1  0.83017210  0.66732463  0.83239950  1
  I  I81  1  0.16042972  0.16108237  0.00120756  1
  I  I82  1  0.16290427  0.16389060  0.33030299  1
  I  I83  1  0.16399753  0.16619478  0.66786599  1
  I  I84  1  0.16641288  0.50129430  -0.00010761  1
  I  I85  1  0.16646273  0.49961472  0.33720209  1
  I  I86  1  0.16657093  0.50497356  0.66395947  1
  I  I87  1  0.16929158  0.83725874  0.00245513  1
  I  I88  1  0.17465496  0.83649041  0.33319670  1
  I  I89  1  0.16938447  0.83267972  0.66439555  1
  I  I90  1  0.50421200  0.16389205  -0.00008925  1
  I  I91  1  0.49517568  0.16549580  0.33336832  1
  I  I92  1  0.49909313  0.16366719  0.66676235  1
  I  I93  1  0.50258504  0.50467519  -0.00406137  1
  I  I94  1  0.49830525  0.49949433  0.33361542  1
  I  I95  1  0.50320585  0.50576373  0.67020251  1
  I  I96  1  0.49922217  0.83060933  -0.00043210  1
  I  I97  1  0.49311083  0.83726907  0.33334339  1
  I  I98  1  0.49903354  0.83009530  0.66709701  1
  I  I99  1  0.83701984  0.16581410  0.00226589  1
  I  I100  1  0.84164908  0.16317801  0.33261746  1
  I  I101  1  0.83690081  0.16575413  0.66538003  1
  I  I102  1  0.83150399  0.50299575  -0.00425957  1
  I  I103  1  0.83463798  0.50078597  0.33348597  1
  I  I104  1  0.83022479  0.50132516  0.67017079  1
  I  I105  1  0.82970666  0.83327094  -0.00365783  1
  I  I106  1  0.83076403  0.83426174  0.33320962  1
  I  I107  1  0.83015274  0.83375459  0.67009287  1
  I  I108  1  0.00112336  0.16001990  0.16587071  1
  I  I109  1  -0.00199989  0.16399910  0.50072823  1
  I  I110  1  0.00249088  0.16556801  0.83383905  1
  I  I111  1  0.00009554  0.50475518  0.16343230  1
  I  I112  1  0.00298029  0.50684366  0.50309418  1
  I  I113  1  -0.00228578  0.50331364  0.83153929  1
  I  I114  1  0.00307604  0.83685891  0.16998936  1
  I  I115  1  0.00300101  0.83226166  0.49738327  1
  I  I116  1  -0.00207373  0.83165927  0.83279939  1
  I  I117  1  0.32998340  0.16374583  0.16171320  1
  I  I118  1  0.33337222  0.16845733  0.50112878  1
  I  I119  1  0.32912476  0.16564306  0.83824021  1
  I  I120  1  0.33323234  0.49487435  0.16368273  1
  I  I121  1  0.33024566  0.49921787  0.50283388  1
  I  I122  1  0.33602991  0.50557876  0.83234080  1
  I  I123  1  0.33274003  0.83911180  0.16504221  1
  I  I124  1  0.33289916  0.83094608  0.50263589  1
  I  I125  1  0.33612308  0.83049829  0.83334574  1
  I  I126  1  0.66948220  0.16419592  0.16886231  1
  I  I127  1  0.67110202  0.16508114  0.49673497  1
  I  I128  1  0.66655414  0.16626032  0.83340494  1
  I  I129  1  0.66664076  0.49981306  0.16959822  1
  I  I130  1  0.66656441  0.49962637  0.49967168  1
  I  I131  1  0.66666858  0.50383880  0.83254538  1
  I  I132  1  0.66409419  0.83553938  0.16748797  1
  I  I133  1  0.66399807  0.83682315  0.49896112  1
  I  I134  1  0.66576112  0.83124370  0.83298192  1
