# generated using pymatgen
data_Cs27Sn14Pb13I81
_symmetry_space_group_name_H-M   'P 1'
_cell_length_a   18.97270607
_cell_length_b   18.98143114
_cell_length_c   18.97204162
_cell_angle_alpha   89.99863806
_cell_angle_beta   90.00211995
_cell_angle_gamma   90.00067543
_symmetry_Int_Tables_number   1
_chemical_formula_structural   Cs27Sn14Pb13I81
_chemical_formula_sum   'Cs27 Sn14 Pb13 I81'
_cell_volume   6832.38453070
_cell_formula_units_Z   1
loop_
 _symmetry_equiv_pos_site_id
 _symmetry_equiv_pos_as_xyz
  1  'x, y, z'
loop_
 _atom_site_type_symbol
 _atom_site_label
 _atom_site_symmetry_multiplicity
 _atom_site_fract_x
 _atom_site_fract_y
 _atom_site_fract_z
 _atom_site_occupancy
  Cs  Cs0  1  -0.00075647  -0.00287602  0.00320677  1
  Cs  Cs1  1  -0.00159240  -0.00150894  0.32950497  1
  Cs  Cs2  1  0.01040316  0.00153338  0.66818034  1
  Cs  Cs3  1  0.00037212  0.33335742  -0.00077671  1
  Cs  Cs4  1  -0.00102944  0.33672466  0.33375557  1
  Cs  Cs5  1  0.00138470  0.33226729  0.66771760  1
  Cs  Cs6  1  -0.00539193  0.66712977  -0.00366994  1
  Cs  Cs7  1  0.00165392  0.66393730  0.33449419  1
  Cs  Cs8  1  0.00123596  0.66859067  0.66902326  1
  Cs  Cs9  1  0.33272727  0.00090856  0.00103819  1
  Cs  Cs10  1  0.33578477  -0.00091797  0.33172679  1
  Cs  Cs11  1  0.32760828  0.00042149  0.66965440  1
  Cs  Cs12  1  0.33304293  0.33545224  0.00277551  1
  Cs  Cs13  1  0.33244197  0.33632281  0.33070243  1
  Cs  Cs14  1  0.32944113  0.32889980  0.66553525  1
  Cs  Cs15  1  0.33732654  0.66297317  0.00183587  1
  Cs  Cs16  1  0.33108275  0.66582881  0.33084482  1
  Cs  Cs17  1  0.33149121  0.67241004  0.66841995  1
  Cs  Cs18  1  0.66860024  -0.00036139  0.00248458  1
  Cs  Cs19  1  0.66645896  0.00036530  0.33364534  1
  Cs  Cs20  1  0.66452342  0.00309428  0.66270294  1
  Cs  Cs21  1  0.66597336  0.33368212  -0.00265904  1
  Cs  Cs22  1  0.66714860  0.33243863  0.33533633  1
  Cs  Cs23  1  0.66741202  0.33323912  0.66508727  1
  Cs  Cs24  1  0.66775664  0.66433191  -0.01159420  1
  Cs  Cs25  1  0.66615591  0.66749839  0.33590723  1
  Cs  Cs26  1  0.66682835  0.66514476  0.66914972  1
  Sn  Sn27  1  0.83241866  0.50012463  0.16701195  1
  Sn  Sn28  1  0.50038710  0.16662045  0.49993667  1
  Sn  Sn29  1  0.16706222  0.49992255  0.83324275  1
  Sn  Sn30  1  0.83244817  0.50006139  0.49926531  1
  Sn  Sn31  1  0.49939289  0.16621337  0.16683707  1
  Sn  Sn32  1  0.50073342  0.83350580  0.49925021  1
  Sn  Sn33  1  0.83276973  0.16628843  0.83234119  1
  Sn  Sn34  1  0.16720166  0.16629112  0.16720636  1
  Sn  Sn35  1  0.49988321  0.83366234  0.16713678  1
  Sn  Sn36  1  0.50021029  0.50002174  0.49986375  1
  Sn  Sn37  1  0.83310403  0.16628684  0.50090182  1
  Sn  Sn38  1  0.16732062  0.83373481  0.16692693  1
  Sn  Sn39  1  0.83285682  0.83368193  0.50009753  1
  Sn  Sn40  1  0.50075718  0.16647553  0.83323969  1
  Pb  Pb41  1  0.83261498  0.16806374  0.16714863  1
  Pb  Pb42  1  0.50236233  0.50036145  0.16837704  1
  Pb  Pb43  1  0.50021187  0.83604627  0.83319281  1
  Pb  Pb44  1  0.16716735  0.83345273  0.49771039  1
  Pb  Pb45  1  0.83212669  0.83073803  0.16851297  1
  Pb  Pb46  1  0.16669841  0.16668053  0.49708212  1
  Pb  Pb47  1  0.49798032  0.49728919  0.82990878  1
  Pb  Pb48  1  0.83450468  0.49781498  0.83206580  1
  Pb  Pb49  1  0.16691670  0.83085692  0.83695441  1
  Pb  Pb50  1  0.16664882  0.50004730  0.50201874  1
  Pb  Pb51  1  0.16450177  0.50041823  0.16514124  1
  Pb  Pb52  1  0.16671933  0.16765709  0.83608994  1
  Pb  Pb53  1  0.83307418  0.83690438  0.82958965  1
  I  I54  1  0.16974270  0.00042337  0.16666539  1
  I  I55  1  0.16481430  0.00015593  0.50330112  1
  I  I56  1  0.16634995  0.00009216  0.83214020  1
  I  I57  1  0.17060352  0.33096411  0.16526123  1
  I  I58  1  0.16712302  0.33324110  0.49727360  1
  I  I59  1  0.16601892  0.33509435  0.83563769  1
  I  I60  1  0.17117813  0.66937891  0.16640305  1
  I  I61  1  0.16661610  0.66671533  0.49789133  1
  I  I62  1  0.16469866  0.66342208  0.83325323  1
  I  I63  1  0.49635326  0.00093826  0.17131325  1
  I  I64  1  0.50651518  0.00065730  0.49818686  1
  I  I65  1  0.50260558  0.00432357  0.82895472  1
  I  I66  1  0.49676721  0.33029579  0.16779646  1
  I  I67  1  0.50590749  0.33222773  0.49994922  1
  I  I68  1  0.50362195  0.32922604  0.83493759  1
  I  I69  1  0.49533943  0.66953085  0.17289967  1
  I  I70  1  0.50600866  0.66724246  0.49414507  1
  I  I71  1  0.49796402  0.66649561  0.83414558  1
  I  I72  1  0.83520888  -0.00011138  0.16657302  1
  I  I73  1  0.82629107  0.00073985  0.50329238  1
  I  I74  1  0.82978775  0.00483607  0.83132782  1
  I  I75  1  0.83427797  0.33561784  0.17255834  1
  I  I76  1  0.82750344  0.33297301  0.49962274  1
  I  I77  1  0.83005451  0.33010279  0.82839793  1
  I  I78  1  0.83541157  0.66331012  0.17297748  1
  I  I79  1  0.82745300  0.66632289  0.49342747  1
  I  I80  1  0.83615018  0.66667039  0.83404027  1
  I  I81  1  0.16999967  0.16433352  0.00374583  1
  I  I82  1  0.17020515  0.16442775  0.32926303  1
  I  I83  1  0.16835691  0.16835563  0.66676231  1
  I  I84  1  0.16424724  0.49819834  -0.00225843  1
  I  I85  1  0.16673411  0.49963180  0.33319990  1
  I  I86  1  0.16480171  0.49710242  0.66944983  1
  I  I87  1  0.17221399  0.83843117  0.00476075  1
  I  I88  1  0.16810897  0.83657489  0.32991948  1
  I  I89  1  0.16636497  0.83187571  0.66673804  1
  I  I90  1  0.50009689  0.16244642  0.00081308  1
  I  I91  1  0.50056829  0.16589659  0.33398495  1
  I  I92  1  0.50543385  0.16800391  0.66542617  1
  I  I93  1  0.50108249  0.49987430  -0.00012078  1
  I  I94  1  0.50133775  0.49482587  0.33665665  1
  I  I95  1  0.50763167  0.50100489  0.66184383  1
  I  I96  1  0.49480888  0.83791382  0.00336829  1
  I  I97  1  0.49996405  0.83875230  0.33396284  1
  I  I98  1  0.50515718  0.83275162  0.66290009  1
  I  I99  1  0.83061293  0.17104592  -0.00172575  1
  I  I100  1  0.83034732  0.16587952  0.33657265  1
  I  I101  1  0.82526374  0.16934982  0.66513884  1
  I  I102  1  0.83620209  0.49788539  0.00158790  1
  I  I103  1  0.83179918  0.49627423  0.33535847  1
  I  I104  1  0.83026486  0.50114681  0.66287124  1
  I  I105  1  0.83433486  0.83199139  0.00000959  1
  I  I106  1  0.83174981  0.83913721  0.33679014  1
  I  I107  1  0.82625335  0.82621662  0.66142372  1
  I  I108  1  0.00180994  0.16435395  0.16604773  1
  I  I109  1  -0.00344699  0.16796452  0.50381493  1
  I  I110  1  -0.00251064  0.16935988  0.82878721  1
  I  I111  1  -0.00316153  0.49848518  0.17324581  1
  I  I112  1  -0.00356872  0.49920993  0.49696754  1
  I  I113  1  0.00202010  0.49622840  0.83320605  1
  I  I114  1  0.00188392  0.83716469  0.16773864  1
  I  I115  1  -0.00306117  0.83246830  0.49873187  1
  I  I116  1  -0.00011799  0.83546627  0.83341804  1
  I  I117  1  0.33495808  0.16413769  0.16655625  1
  I  I118  1  0.33714155  0.16662774  0.50332379  1
  I  I119  1  0.33631478  0.16820663  0.82974898  1
  I  I120  1  0.33370039  0.49938597  0.16714534  1
  I  I121  1  0.33672282  0.49865878  0.50104151  1
  I  I122  1  0.33081918  0.49723413  0.83462224  1
  I  I123  1  0.33461166  0.83715083  0.17283685  1
  I  I124  1  0.33715966  0.83360615  0.49856192  1
  I  I125  1  0.33356333  0.83552369  0.82693452  1
  I  I126  1  0.66336166  0.16313622  0.16731741  1
  I  I127  1  0.66597430  0.16706108  0.49861427  1
  I  I128  1  0.66603873  0.16824811  0.83430116  1
  I  I129  1  0.66997795  0.49785234  0.16902624  1
  I  I130  1  0.66716335  0.49878118  0.49613157  1
  I  I131  1  0.66650455  0.50055277  0.83577136  1
  I  I132  1  0.66325614  0.83958995  0.17036222  1
  I  I133  1  0.66571871  0.83435095  0.49344133  1
  I  I134  1  0.66670039  0.82887085  0.84040986  1
