# generated using pymatgen
data_Cs27Sn13Pb14I81
_symmetry_space_group_name_H-M   'P 1'
_cell_length_a   18.98249529
_cell_length_b   18.98287837
_cell_length_c   18.96921147
_cell_angle_alpha   89.99950456
_cell_angle_beta   90.00060224
_cell_angle_gamma   89.99914794
_symmetry_Int_Tables_number   1
_chemical_formula_structural   Cs27Sn13Pb14I81
_chemical_formula_sum   'Cs27 Sn13 Pb14 I81'
_cell_volume   6835.41117585
_cell_formula_units_Z   1
loop_
 _symmetry_equiv_pos_site_id
 _symmetry_equiv_pos_as_xyz
  1  'x, y, z'
loop_
 _atom_site_type_symbol
 _atom_site_label
 _atom_site_symmetry_multiplicity
 _atom_site_fract_x
 _atom_site_fract_y
 _atom_site_fract_z
 _atom_site_occupancy
  Cs  Cs0  1  -0.00044891  0.00088464  -0.00103774  1
  Cs  Cs1  1  -0.00005666  0.00188501  0.33471131  1
  Cs  Cs2  1  0.00160747  -0.00165054  0.67012926  1
  Cs  Cs3  1  0.00037497  0.33209846  -0.00018823  1
  Cs  Cs4  1  -0.00148610  0.33386421  0.34201094  1
  Cs  Cs5  1  0.00025097  0.33493651  0.66463198  1
  Cs  Cs6  1  -0.00077749  0.66656069  -0.00043973  1
  Cs  Cs7  1  0.00584609  0.66464168  0.33260095  1
  Cs  Cs8  1  -0.00200154  0.66700995  0.66813004  1
  Cs  Cs9  1  0.33363430  0.00221810  -0.00036423  1
  Cs  Cs10  1  0.33465715  -0.00687777  0.33983114  1
  Cs  Cs11  1  0.33332170  0.00038063  0.66474087  1
  Cs  Cs12  1  0.33384503  0.33232507  -0.00038794  1
  Cs  Cs13  1  0.33139753  0.33925795  0.33836029  1
  Cs  Cs14  1  0.33561469  0.33324953  0.66331915  1
  Cs  Cs15  1  0.33507318  0.66326540  0.00667335  1
  Cs  Cs16  1  0.33172244  0.66798402  0.32845983  1
  Cs  Cs17  1  0.33661965  0.66585822  0.66341892  1
  Cs  Cs18  1  0.66712223  0.00087608  0.00003797  1
  Cs  Cs19  1  0.66576878  0.00182956  0.33435375  1
  Cs  Cs20  1  0.66549859  -0.00154360  0.66859746  1
  Cs  Cs21  1  0.66566996  0.33244330  0.00011119  1
  Cs  Cs22  1  0.66995998  0.33124476  0.34345978  1
  Cs  Cs23  1  0.66475296  0.33683356  0.66221521  1
  Cs  Cs24  1  0.66713171  0.66591105  -0.00000766  1
  Cs  Cs25  1  0.66181077  0.66725625  0.33272931  1
  Cs  Cs26  1  0.66776892  0.66497684  0.66710778  1
  Sn  Sn27  1  0.16614823  0.49998683  0.83378364  1
  Sn  Sn28  1  0.83316769  0.50026326  0.16570880  1
  Sn  Sn29  1  0.16682203  0.16693131  0.83390598  1
  Sn  Sn30  1  0.83322571  0.83325516  0.83370537  1
  Sn  Sn31  1  0.16731911  0.83283790  0.83390504  1
  Sn  Sn32  1  0.83349406  0.83257974  0.16664595  1
  Sn  Sn33  1  0.49982571  0.83383923  0.83399721  1
  Sn  Sn34  1  0.83356786  0.83336643  0.49964009  1
  Sn  Sn35  1  0.49863387  0.16700758  0.16612023  1
  Sn  Sn36  1  0.83310480  0.16711403  0.83361339  1
  Sn  Sn37  1  0.16786179  0.16661695  0.16614040  1
  Sn  Sn38  1  0.83415035  0.49988638  0.83441565  1
  Sn  Sn39  1  0.49998416  0.16586007  0.83404816  1
  Pb  Pb40  1  0.83345380  0.16397250  0.50369257  1
  Pb  Pb41  1  0.50208383  0.83541349  0.16441943  1
  Pb  Pb42  1  0.16436597  0.49735482  0.16451316  1
  Pb  Pb43  1  0.16646685  0.50040373  0.50276074  1
  Pb  Pb44  1  0.50212136  0.83331709  0.50236527  1
  Pb  Pb45  1  0.16461702  0.83551516  0.16441883  1
  Pb  Pb46  1  0.49990329  0.49982461  0.83345513  1
  Pb  Pb47  1  0.49982360  0.16648750  0.49991735  1
  Pb  Pb48  1  0.83343135  0.16703799  0.16516967  1
  Pb  Pb49  1  0.83342771  0.50292073  0.49994392  1
  Pb  Pb50  1  0.16670939  0.16648832  0.49999104  1
  Pb  Pb51  1  0.49991942  0.50052285  0.49953417  1
  Pb  Pb52  1  0.50275680  0.49679557  0.16644895  1
  Pb  Pb53  1  0.16452673  0.83324211  0.50233042  1
  I  I54  1  0.16628748  0.00339030  0.15820670  1
  I  I55  1  0.16467731  -0.00010425  0.50380760  1
  I  I56  1  0.16282499  0.00027545  0.83602390  1
  I  I57  1  0.16773329  0.32953132  0.15782216  1
  I  I58  1  0.16505254  0.33328970  0.50272875  1
  I  I59  1  0.16268843  0.33251146  0.83705840  1
  I  I60  1  0.16645041  0.66659719  0.16486557  1
  I  I61  1  0.16472981  0.66688181  0.50241955  1
  I  I62  1  0.16088187  0.66713188  0.83144366  1
  I  I63  1  0.50003785  0.00339501  0.16182119  1
  I  I64  1  0.50197814  -0.00006262  0.50012380  1
  I  I65  1  0.50219953  0.00050946  0.83617037  1
  I  I66  1  0.49856842  0.32882022  0.15612340  1
  I  I67  1  0.50215955  0.33301583  0.50366640  1
  I  I68  1  0.50087595  0.32980201  0.83673388  1
  I  I69  1  0.50036684  0.66671060  0.16516580  1
  I  I70  1  0.50277017  0.66725235  0.50466937  1
  I  I71  1  0.50215091  0.66968467  0.83157325  1
  I  I72  1  0.83328566  -0.00248612  0.16418625  1
  I  I73  1  0.83322257  -0.00377733  0.50004335  1
  I  I74  1  0.83511239  -0.00061886  0.83341198  1
  I  I75  1  0.83319137  0.33560241  0.15876052  1
  I  I76  1  0.83291620  0.33347388  0.49977526  1
  I  I77  1  0.83602447  0.33341388  0.83898700  1
  I  I78  1  0.83344220  0.66738457  0.15958006  1
  I  I79  1  0.83308928  0.67032533  0.50842549  1
  I  I80  1  0.83570203  0.66762241  0.83300380  1
  I  I81  1  0.16658545  0.16611136  -0.00271333  1
  I  I82  1  0.16945857  0.16627618  0.32990942  1
  I  I83  1  0.16619931  0.16618718  0.67137498  1
  I  I84  1  0.16331951  0.50185336  -0.00418021  1
  I  I85  1  0.16384251  0.49679823  0.33275688  1
  I  I86  1  0.15909027  0.49712016  0.67220035  1
  I  I87  1  0.16243510  0.83273967  -0.00456196  1
  I  I88  1  0.16368131  0.83642759  0.33291168  1
  I  I89  1  0.16361036  0.83696533  0.67198593  1
  I  I90  1  0.49993634  0.16278537  -0.00223630  1
  I  I91  1  0.49756515  0.16720334  0.32991219  1
  I  I92  1  0.50000760  0.16303292  0.67083255  1
  I  I93  1  0.49998580  0.50191291  -0.00040442  1
  I  I94  1  0.50374153  0.49723984  0.33269137  1
  I  I95  1  0.50246235  0.49777406  0.66754838  1
  I  I96  1  0.50366384  0.83588949  -0.00423309  1
  I  I97  1  0.50347902  0.83614435  0.33295799  1
  I  I98  1  0.50189512  0.83985651  0.67163801  1
  I  I99  1  0.83367860  0.16206338  -0.00368117  1
  I  I100  1  0.83309497  0.16681086  0.33331935  1
  I  I101  1  0.83375071  0.16731492  0.67255883  1
  I  I102  1  0.83638898  0.50513189  -0.00216095  1
  I  I103  1  0.83214619  0.50262971  0.33013976  1
  I  I104  1  0.83656080  0.50010593  0.67042380  1
  I  I105  1  0.83345719  0.83305921  -0.00207362  1
  I  I106  1  0.83299803  0.82948103  0.33246352  1
  I  I107  1  0.83345100  0.83437071  0.66954845  1
  I  I108  1  0.00203804  0.16549676  0.15988353  1
  I  I109  1  -0.00014945  0.16640644  0.49946840  1
  I  I110  1  0.00002977  0.16377000  0.83682803  1
  I  I111  1  -0.00369047  0.50259513  0.16223933  1
  I  I112  1  -0.00040525  0.49928179  0.49966575  1
  I  I113  1  -0.00121661  0.50003580  0.83633404  1
  I  I114  1  -0.00385678  0.83280213  0.16248594  1
  I  I115  1  -0.00385586  0.83390439  0.50441266  1
  I  I116  1  -0.00109526  0.83589780  0.83288799  1
  I  I117  1  0.33314362  0.16633028  0.15445880  1
  I  I118  1  0.33328439  0.16589619  0.50608965  1
  I  I119  1  0.33304999  0.16368887  0.83686848  1
  I  I120  1  0.33312510  0.50056148  0.16510391  1
  I  I121  1  0.33302555  0.49895919  0.50362535  1
  I  I122  1  0.33015097  0.49965765  0.83232023  1
  I  I123  1  0.33329795  0.83262191  0.16451328  1
  I  I124  1  0.33333649  0.83429985  0.50283412  1
  I  I125  1  0.33299372  0.83762013  0.83288407  1
  I  I126  1  0.66480440  0.16563896  0.16013567  1
  I  I127  1  0.66684876  0.16665804  0.49959860  1
  I  I128  1  0.66686569  0.16264487  0.83733657  1
  I  I129  1  0.67104003  0.50303774  0.15762781  1
  I  I130  1  0.66741872  0.49896574  0.50382773  1
  I  I131  1  0.67011610  0.50059151  0.83583906  1
  I  I132  1  0.67056619  0.83267598  0.16248032  1
  I  I133  1  0.67055165  0.83392776  0.50398215  1
  I  I134  1  0.66808642  0.83661466  0.83294714  1
