# generated using pymatgen
data_Cs27Sn13Pb14I81
_symmetry_space_group_name_H-M   'P 1'
_cell_length_a   18.98043938
_cell_length_b   18.97536801
_cell_length_c   18.97336057
_cell_angle_alpha   89.99886080
_cell_angle_beta   90.00115800
_cell_angle_gamma   89.99826880
_symmetry_Int_Tables_number   1
_chemical_formula_structural   Cs27Sn13Pb14I81
_chemical_formula_sum   'Cs27 Sn13 Pb14 I81'
_cell_volume   6833.46113800
_cell_formula_units_Z   1
loop_
 _symmetry_equiv_pos_site_id
 _symmetry_equiv_pos_as_xyz
  1  'x, y, z'
loop_
 _atom_site_type_symbol
 _atom_site_label
 _atom_site_symmetry_multiplicity
 _atom_site_fract_x
 _atom_site_fract_y
 _atom_site_fract_z
 _atom_site_occupancy
  Cs  Cs0  1  0.00236283  0.00391717  -0.00021655  1
  Cs  Cs1  1  -0.00143828  -0.00119724  0.33480512  1
  Cs  Cs2  1  0.00093706  0.00044150  0.66582142  1
  Cs  Cs3  1  -0.00231303  0.33107273  -0.00196458  1
  Cs  Cs4  1  0.00172905  0.33232115  0.33537814  1
  Cs  Cs5  1  -0.00028161  0.33268063  0.66746750  1
  Cs  Cs6  1  -0.00109152  0.66330851  0.00553121  1
  Cs  Cs7  1  0.00141055  0.66793599  0.32584779  1
  Cs  Cs8  1  -0.00003670  0.66715355  0.66619935  1
  Cs  Cs9  1  0.33503993  -0.00287531  -0.00075823  1
  Cs  Cs10  1  0.33443874  0.00163598  0.33294222  1
  Cs  Cs11  1  0.33133571  -0.00206166  0.66761343  1
  Cs  Cs12  1  0.33385392  0.33197476  -0.00276304  1
  Cs  Cs13  1  0.34114431  0.33988902  0.33506794  1
  Cs  Cs14  1  0.33312889  0.33537633  0.66616608  1
  Cs  Cs15  1  0.33427523  0.67136884  0.00356179  1
  Cs  Cs16  1  0.33017233  0.65682254  0.32970937  1
  Cs  Cs17  1  0.33316971  0.66749485  0.66684168  1
  Cs  Cs18  1  0.66169503  -0.00076355  -0.00165693  1
  Cs  Cs19  1  0.66801399  0.00121368  0.33318133  1
  Cs  Cs20  1  0.66676879  -0.00181664  0.66615234  1
  Cs  Cs21  1  0.66929343  0.33543394  -0.00024877  1
  Cs  Cs22  1  0.65757003  0.33149507  0.33465949  1
  Cs  Cs23  1  0.66741983  0.33385033  0.66693628  1
  Cs  Cs24  1  0.66609290  0.66517836  0.00399637  1
  Cs  Cs25  1  0.67058454  0.66797386  0.32574377  1
  Cs  Cs26  1  0.66798216  0.66987651  0.66889982  1
  Sn  Sn27  1  0.16769060  0.83377705  0.50043123  1
  Sn  Sn28  1  0.16723704  0.50141212  0.83303121  1
  Sn  Sn29  1  0.49919737  0.49960856  0.83277833  1
  Sn  Sn30  1  0.49883007  0.83305288  0.49983741  1
  Sn  Sn31  1  0.83401337  0.16667187  0.16693445  1
  Sn  Sn32  1  0.16533898  0.83214735  0.83274001  1
  Sn  Sn33  1  0.50100847  0.16740201  0.83258530  1
  Sn  Sn34  1  0.16639074  0.16670631  0.16840446  1
  Sn  Sn35  1  0.83393654  0.16776406  0.49983163  1
  Sn  Sn36  1  0.83351898  0.49951723  0.50003873  1
  Sn  Sn37  1  0.83231455  0.16566189  0.83320492  1
  Sn  Sn38  1  0.83453703  0.83397018  0.83334274  1
  Sn  Sn39  1  0.16642481  0.16630441  0.49891319  1
  Pb  Pb40  1  0.16652409  0.16634749  0.83280544  1
  Pb  Pb41  1  0.16656379  0.49656303  0.16346536  1
  Pb  Pb42  1  0.83347257  0.49664129  0.17015380  1
  Pb  Pb43  1  0.49965247  0.83355809  0.17067311  1
  Pb  Pb44  1  0.49973537  0.16527741  0.50221641  1
  Pb  Pb45  1  0.83406876  0.83353230  0.50126221  1
  Pb  Pb46  1  0.83348165  0.50012342  0.83221100  1
  Pb  Pb47  1  0.83346078  0.83627424  0.16304879  1
  Pb  Pb48  1  0.50004035  0.49987984  0.16351059  1
  Pb  Pb49  1  0.16497854  0.50011099  0.50166696  1
  Pb  Pb50  1  0.50269330  0.50301172  0.50220511  1
  Pb  Pb51  1  0.16670905  0.83565394  0.16700675  1
  Pb  Pb52  1  0.49981150  0.83307215  0.83238059  1
  Pb  Pb53  1  0.49985120  0.16662324  0.16397498  1
  I  I54  1  0.16174102  0.00370537  0.16456179  1
  I  I55  1  0.16410799  0.00054031  0.50358797  1
  I  I56  1  0.16577343  -0.00218827  0.83207918  1
  I  I57  1  0.16128357  0.32861065  0.17032573  1
  I  I58  1  0.16285944  0.33025769  0.49943897  1
  I  I59  1  0.16730928  0.33483398  0.83342657  1
  I  I60  1  0.16742783  0.66653691  0.16864924  1
  I  I61  1  0.16856180  0.66958973  0.50504240  1
  I  I62  1  0.16643215  0.66783781  0.82609516  1
  I  I63  1  0.50024998  0.00043537  0.16159045  1
  I  I64  1  0.50077269  -0.00238218  0.50524106  1
  I  I65  1  0.50165335  0.00221982  0.83225996  1
  I  I66  1  0.49980683  0.33293192  0.16928807  1
  I  I67  1  0.49851469  0.33348365  0.50020080  1
  I  I68  1  0.49967302  0.33275178  0.83240554  1
  I  I69  1  0.50060471  0.66669998  0.16342623  1
  I  I70  1  0.49507765  0.67040652  0.50527409  1
  I  I71  1  0.49956028  0.66448767  0.83016410  1
  I  I72  1  0.83755039  0.00445991  0.17240686  1
  I  I73  1  0.83437829  0.00324428  0.49959610  1
  I  I74  1  0.83338776  0.00149308  0.83062048  1
  I  I75  1  0.83810910  0.32856486  0.15854197  1
  I  I76  1  0.83897898  0.33068713  0.50393159  1
  I  I77  1  0.83317760  0.33017979  0.83438582  1
  I  I78  1  0.83220337  0.66657258  0.16686678  1
  I  I79  1  0.83229489  0.66501559  0.50654101  1
  I  I80  1  0.83377855  0.66902961  0.82790822  1
  I  I81  1  0.16313381  0.16771183  0.00135284  1
  I  I82  1  0.15732727  0.16005997  0.33486086  1
  I  I83  1  0.16307100  0.16536758  0.66419396  1
  I  I84  1  0.16925914  0.50452356  -0.00484571  1
  I  I85  1  0.16465691  0.50264584  0.33344165  1
  I  I86  1  0.16879291  0.49805380  0.66983701  1
  I  I87  1  0.16305631  0.83176053  -0.00340315  1
  I  I88  1  0.16977709  0.83671413  0.33692116  1
  I  I89  1  0.16646905  0.83694096  0.66692349  1
  I  I90  1  0.50297139  0.16902839  -0.00439357  1
  I  I91  1  0.50263260  0.16414361  0.33363852  1
  I  I92  1  0.50410952  0.16907344  0.67027501  1
  I  I93  1  0.49807937  0.49623526  -0.00503009  1
  I  I94  1  0.50102868  0.50089973  0.33380721  1
  I  I95  1  0.49670481  0.49536795  0.67005925  1
  I  I96  1  0.50025470  0.83366442  -0.00027294  1
  I  I97  1  0.49563717  0.83621190  0.33865729  1
  I  I98  1  0.49888405  0.83467886  0.66475288  1
  I  I99  1  0.83471307  0.16189183  -0.00103517  1
  I  I100  1  0.83883036  0.17074538  0.33441306  1
  I  I101  1  0.83410942  0.16662952  0.66673964  1
  I  I102  1  0.83274387  0.49972843  0.00000717  1
  I  I103  1  0.83443020  0.49758153  0.33806146  1
  I  I104  1  0.83388712  0.49310777  0.66464742  1
  I  I105  1  0.83809557  0.83714763  -0.00529806  1
  I  I106  1  0.83250629  0.83302437  0.33330898  1
  I  I107  1  0.83438426  0.83947971  0.66937988  1
  I  I108  1  -0.00066063  0.16596723  0.16395416  1
  I  I109  1  -0.00039981  0.16455092  0.50253041  1
  I  I110  1  -0.00257432  0.16616072  0.83305836  1
  I  I111  1  -0.00002838  0.50168528  0.16312086  1
  I  I112  1  -0.00270975  0.49839613  0.50537246  1
  I  I113  1  0.00228102  0.50002868  0.83105870  1
  I  I114  1  -0.00003751  0.83234202  0.17051239  1
  I  I115  1  0.00289478  0.83597430  0.50417985  1
  I  I116  1  0.00065144  0.83493398  0.82638963  1
  I  I117  1  0.33023067  0.16570012  0.16885225  1
  I  I118  1  0.33024768  0.16348921  0.49850558  1
  I  I119  1  0.33503144  0.16731847  0.83315446  1
  I  I120  1  0.33309686  0.49666570  0.16973727  1
  I  I121  1  0.33333920  0.49758952  0.50050439  1
  I  I122  1  0.33312502  0.49776807  0.83134568  1
  I  I123  1  0.33296892  0.83826222  0.15948812  1
  I  I124  1  0.33143908  0.84047174  0.50866632  1
  I  I125  1  0.33053474  0.83390711  0.83066316  1
  I  I126  1  0.66999915  0.16655542  0.16894798  1
  I  I127  1  0.66972206  0.16816520  0.49885966  1
  I  I128  1  0.66830151  0.16614445  0.83296226  1
  I  I129  1  0.66698473  0.49824384  0.16428120  1
  I  I130  1  0.67019624  0.49329965  0.50406040  1
  I  I131  1  0.66476947  0.49825097  0.83064670  1
  I  I132  1  0.66681562  0.83573956  0.16630514  1
  I  I133  1  0.66537000  0.83399895  0.50445167  1
  I  I134  1  0.66885644  0.83560113  0.82996574  1
