# generated using pymatgen
data_Cs27Sn14Pb13I81
_symmetry_space_group_name_H-M   'P 1'
_cell_length_a   18.97006794
_cell_length_b   18.97581966
_cell_length_c   18.98184807
_cell_angle_alpha   89.99872196
_cell_angle_beta   90.00196012
_cell_angle_gamma   89.99878792
_symmetry_Int_Tables_number   1
_chemical_formula_structural   Cs27Sn14Pb13I81
_chemical_formula_sum   'Cs27 Sn14 Pb13 I81'
_cell_volume   6832.94497242
_cell_formula_units_Z   1
loop_
 _symmetry_equiv_pos_site_id
 _symmetry_equiv_pos_as_xyz
  1  'x, y, z'
loop_
 _atom_site_type_symbol
 _atom_site_label
 _atom_site_symmetry_multiplicity
 _atom_site_fract_x
 _atom_site_fract_y
 _atom_site_fract_z
 _atom_site_occupancy
  Cs  Cs0  1  -0.00101258  -0.00118490  -0.00033609  1
  Cs  Cs1  1  -0.00198602  -0.00028385  0.33547779  1
  Cs  Cs2  1  -0.00419042  -0.00206509  0.66463938  1
  Cs  Cs3  1  0.00126541  0.33417415  0.00553303  1
  Cs  Cs4  1  0.01098257  0.33428503  0.33021179  1
  Cs  Cs5  1  0.00580547  0.33530110  0.66279271  1
  Cs  Cs6  1  -0.00020726  0.66576452  -0.00117891  1
  Cs  Cs7  1  0.00014317  0.66603477  0.33297857  1
  Cs  Cs8  1  0.00132703  0.66816764  0.66821702  1
  Cs  Cs9  1  0.33063110  0.00052020  -0.00061548  1
  Cs  Cs10  1  0.33319272  -0.00278796  0.33123572  1
  Cs  Cs11  1  0.33365719  0.00563735  0.67015058  1
  Cs  Cs12  1  0.32778135  0.32821922  0.00016007  1
  Cs  Cs13  1  0.32559360  0.33138853  0.33439103  1
  Cs  Cs14  1  0.32995478  0.32613738  0.66535099  1
  Cs  Cs15  1  0.33655171  0.66946215  -0.00347462  1
  Cs  Cs16  1  0.33709184  0.66951295  0.33579427  1
  Cs  Cs17  1  0.33323452  0.66646536  0.66557230  1
  Cs  Cs18  1  0.66676910  0.00042622  0.00093941  1
  Cs  Cs19  1  0.66814058  0.00009610  0.33333097  1
  Cs  Cs20  1  0.66904468  0.00314742  0.66510623  1
  Cs  Cs21  1  0.66802393  0.33372332  -0.00090898  1
  Cs  Cs22  1  0.66631933  0.33527983  0.33257240  1
  Cs  Cs23  1  0.66481811  0.33489625  0.66874168  1
  Cs  Cs24  1  0.66653405  0.66602902  0.00007508  1
  Cs  Cs25  1  0.66415031  0.66589986  0.33418785  1
  Cs  Cs26  1  0.66635536  0.66547259  0.66681423  1
  Sn  Sn27  1  0.83227213  0.16618727  0.16624006  1
  Sn  Sn28  1  0.83268710  0.49986987  0.50053378  1
  Sn  Sn29  1  0.83200873  0.83329101  0.83414985  1
  Sn  Sn30  1  0.83299906  0.16705750  0.83392340  1
  Sn  Sn31  1  0.16536204  0.83284512  0.16721964  1
  Sn  Sn32  1  0.49949695  0.83314927  0.50147885  1
  Sn  Sn33  1  0.50008828  0.49850025  0.16641736  1
  Sn  Sn34  1  0.50072880  0.50029427  0.50047088  1
  Sn  Sn35  1  0.50026362  0.50026493  0.83316128  1
  Sn  Sn36  1  0.83395106  0.83367072  0.16607824  1
  Sn  Sn37  1  0.83281984  0.49980322  0.83235274  1
  Sn  Sn38  1  0.50097505  0.16789818  0.16686093  1
  Sn  Sn39  1  0.50122447  0.83296707  0.83199996  1
  Sn  Sn40  1  0.16779435  0.83305060  0.49953260  1
  Pb  Pb41  1  0.50031449  0.16686948  0.49735370  1
  Pb  Pb42  1  0.83199441  0.50001517  0.16661896  1
  Pb  Pb43  1  0.16710181  0.50007946  0.83338642  1
  Pb  Pb44  1  0.16678542  0.83325296  0.83304741  1
  Pb  Pb45  1  0.50062720  0.83329013  0.16633850  1
  Pb  Pb46  1  0.83311857  0.17036934  0.49936221  1
  Pb  Pb47  1  0.17063134  0.50337726  0.16643896  1
  Pb  Pb48  1  0.16251555  0.16653454  0.83352818  1
  Pb  Pb49  1  0.83262870  0.83149953  0.49999237  1
  Pb  Pb50  1  0.16655715  0.16288546  0.50005024  1
  Pb  Pb51  1  0.16732166  0.50234739  0.50013192  1
  Pb  Pb52  1  0.50177901  0.16675360  0.83545399  1
  Pb  Pb53  1  0.16605517  0.16388260  0.16662822  1
  I  I54  1  0.16858387  -0.00390765  0.17062092  1
  I  I55  1  0.17195488  -0.00520585  0.49523340  1
  I  I56  1  0.16930247  -0.00044460  0.83335889  1
  I  I57  1  0.16416065  0.33334691  0.16674431  1
  I  I58  1  0.16628415  0.33352973  0.49980682  1
  I  I59  1  0.16863593  0.33331333  0.83321845  1
  I  I60  1  0.15996084  0.67102371  0.17023043  1
  I  I61  1  0.16849582  0.67012820  0.49553207  1
  I  I62  1  0.16155457  0.66695789  0.83469190  1
  I  I63  1  0.50087506  0.00166020  0.16654569  1
  I  I64  1  0.49551210  -0.00342978  0.50273122  1
  I  I65  1  0.50344607  -0.00302941  0.83073893  1
  I  I66  1  0.50797737  0.33391157  0.16629968  1
  I  I67  1  0.50578358  0.33699188  0.50298553  1
  I  I68  1  0.50504640  0.33653997  0.83099634  1
  I  I69  1  0.50024309  0.66451732  0.16697410  1
  I  I70  1  0.50009566  0.66658651  0.49762570  1
  I  I71  1  0.50728586  0.66671277  0.83559541  1
  I  I72  1  0.83111902  -0.00061690  0.15950952  1
  I  I73  1  0.83439187  -0.00012488  0.50224095  1
  I  I74  1  0.82990623  -0.00111741  0.83849675  1
  I  I75  1  0.82933190  0.33101532  0.16312152  1
  I  I76  1  0.82480027  0.33823201  0.50419015  1
  I  I77  1  0.82780312  0.33416501  0.83393728  1
  I  I78  1  0.83526733  0.66933684  0.16369867  1
  I  I79  1  0.83145184  0.66370488  0.50308104  1
  I  I80  1  0.82959445  0.66704930  0.83410146  1
  I  I81  1  0.17049494  0.16339078  0.00036952  1
  I  I82  1  0.16421795  0.16855239  0.33302850  1
  I  I83  1  0.16675082  0.16525445  0.66677121  1
  I  I84  1  0.16532049  0.50261813  0.00014578  1
  I  I85  1  0.16416753  0.49907023  0.33323079  1
  I  I86  1  0.16820966  0.50344105  0.66662060  1
  I  I87  1  0.16608307  0.83432327  0.00250444  1
  I  I88  1  0.16770467  0.83296092  0.33324815  1
  I  I89  1  0.16737758  0.83169357  0.66398764  1
  I  I90  1  0.50277584  0.16898327  0.00332924  1
  I  I91  1  0.50707261  0.16863720  0.32926977  1
  I  I92  1  0.50095265  0.16766164  0.66690109  1
  I  I93  1  0.50525449  0.50270674  -0.00088257  1
  I  I94  1  0.50522272  0.50239057  0.33398885  1
  I  I95  1  0.50577398  0.50732384  0.66691340  1
  I  I96  1  0.50111143  0.82978862  -0.00237103  1
  I  I97  1  0.49931787  0.82999938  0.33520025  1
  I  I98  1  0.49980538  0.82527331  0.66700209  1
  I  I99  1  0.82861708  0.16665958  0.00024578  1
  I  I100  1  0.82946835  0.16082179  0.32976785  1
  I  I101  1  0.83319397  0.16191445  0.66974085  1
  I  I102  1  0.82861224  0.50102924  -0.00286266  1
  I  I103  1  0.82755584  0.50218940  0.33535142  1
  I  I104  1  0.82552247  0.50118301  0.66788401  1
  I  I105  1  0.83299876  0.83185250  -0.00059074  1
  I  I106  1  0.83357876  0.83645945  0.33082566  1
  I  I107  1  0.83334393  0.83574445  0.66955050  1
  I  I108  1  -0.00358142  0.16460989  0.16192356  1
  I  I109  1  -0.00043571  0.16711982  0.49890522  1
  I  I110  1  -0.00591952  0.16516302  0.84083450  1
  I  I111  1  -0.00000337  0.49752449  0.16716054  1
  I  I112  1  -0.00279756  0.50100672  0.50524567  1
  I  I113  1  -0.00412155  0.50162636  0.82869154  1
  I  I114  1  -0.00164879  0.83900665  0.16675772  1
  I  I115  1  0.00146958  0.83185053  0.49869805  1
  I  I116  1  -0.00359119  0.83323729  0.83412677  1
  I  I117  1  0.33604700  0.16984632  0.16750974  1
  I  I118  1  0.33361837  0.17143690  0.49813581  1
  I  I119  1  0.33361922  0.16609606  0.83505100  1
  I  I120  1  0.33892082  0.49526469  0.16731228  1
  I  I121  1  0.33720033  0.50322568  0.49973928  1
  I  I122  1  0.33769540  0.50760612  0.83328462  1
  I  I123  1  0.33202110  0.83232581  0.16798710  1
  I  I124  1  0.33481533  0.82672410  0.49797917  1
  I  I125  1  0.33677905  0.82740234  0.83377896  1
  I  I126  1  0.66761367  0.16310555  0.16317124  1
  I  I127  1  0.66680337  0.15980401  0.49982733  1
  I  I128  1  0.67002911  0.16597002  0.83616424  1
  I  I129  1  0.66370065  0.50252357  0.16687510  1
  I  I130  1  0.66533050  0.50678039  0.50049931  1
  I  I131  1  0.66668117  0.50169337  0.83263739  1
  I  I132  1  0.66926232  0.83433663  0.16538303  1
  I  I133  1  0.66378782  0.83045130  0.49992930  1
  I  I134  1  0.66726131  0.83176692  0.83440430  1
