# generated using pymatgen
data_Cs27Sn13Pb14I81
_symmetry_space_group_name_H-M   'P 1'
_cell_length_a   18.98013772
_cell_length_b   18.97183970
_cell_length_c   18.97670015
_cell_angle_alpha   89.99976520
_cell_angle_beta   89.99925554
_cell_angle_gamma   89.99728134
_symmetry_Int_Tables_number   1
_chemical_formula_structural   Cs27Sn13Pb14I81
_chemical_formula_sum   'Cs27 Sn13 Pb14 I81'
_cell_volume   6833.28447097
_cell_formula_units_Z   1
loop_
 _symmetry_equiv_pos_site_id
 _symmetry_equiv_pos_as_xyz
  1  'x, y, z'
loop_
 _atom_site_type_symbol
 _atom_site_label
 _atom_site_symmetry_multiplicity
 _atom_site_fract_x
 _atom_site_fract_y
 _atom_site_fract_z
 _atom_site_occupancy
  Cs  Cs0  1  -0.00021144  -0.00055052  -0.00006712  1
  Cs  Cs1  1  -0.00098443  -0.00175689  0.33472435  1
  Cs  Cs2  1  -0.00451471  0.00105471  0.66449632  1
  Cs  Cs3  1  0.00258929  0.33229024  -0.00432292  1
  Cs  Cs4  1  0.00125843  0.33735130  0.33495100  1
  Cs  Cs5  1  -0.00054370  0.33271771  0.66827923  1
  Cs  Cs6  1  -0.00121097  0.66721659  0.00108448  1
  Cs  Cs7  1  0.00112192  0.66652015  0.33268073  1
  Cs  Cs8  1  0.00079319  0.66583958  0.66696217  1
  Cs  Cs9  1  0.33278349  0.00100239  0.00303201  1
  Cs  Cs10  1  0.33170617  0.00244348  0.33153414  1
  Cs  Cs11  1  0.33789489  -0.00174806  0.66418198  1
  Cs  Cs12  1  0.33192281  0.33055221  -0.00204672  1
  Cs  Cs13  1  0.33464266  0.32993754  0.33356835  1
  Cs  Cs14  1  0.33263999  0.33520899  0.66726349  1
  Cs  Cs15  1  0.33181108  0.66859625  -0.00522563  1
  Cs  Cs16  1  0.32946838  0.66719555  0.33750270  1
  Cs  Cs17  1  0.34150295  0.66654191  0.66833989  1
  Cs  Cs18  1  0.66729464  -0.00171101  -0.00030392  1
  Cs  Cs19  1  0.67015898  -0.00007615  0.33321204  1
  Cs  Cs20  1  0.66747736  0.00261943  0.66537368  1
  Cs  Cs21  1  0.66634486  0.33512450  0.00625963  1
  Cs  Cs22  1  0.66418602  0.33707406  0.32983704  1
  Cs  Cs23  1  0.66792739  0.32909880  0.66534882  1
  Cs  Cs24  1  0.66856115  0.66678508  0.00024445  1
  Cs  Cs25  1  0.66522499  0.66213005  0.33297197  1
  Cs  Cs26  1  0.65902099  0.66760231  0.66721883  1
  Sn  Sn27  1  0.16671522  0.83245131  0.16592489  1
  Sn  Sn28  1  0.49932335  0.16678939  0.50048440  1
  Sn  Sn29  1  0.83389108  0.50037581  0.50129105  1
  Sn  Sn30  1  0.16692681  0.16719975  0.50012999  1
  Sn  Sn31  1  0.49991870  0.16677943  0.83331092  1
  Sn  Sn32  1  0.83415887  0.83252656  0.83358960  1
  Sn  Sn33  1  0.16600737  0.49931073  0.49964780  1
  Sn  Sn34  1  0.49990951  0.83289933  0.16697453  1
  Sn  Sn35  1  0.16590795  0.83358039  0.83351783  1
  Sn  Sn36  1  0.83331141  0.50074644  0.83222696  1
  Sn  Sn37  1  0.83395873  0.16622446  0.16654606  1
  Sn  Sn38  1  0.83328315  0.83401435  0.16610371  1
  Sn  Sn39  1  0.16679045  0.50043255  0.16684655  1
  Pb  Pb40  1  0.49947164  0.49770127  0.49997055  1
  Pb  Pb41  1  0.83344985  0.16907263  0.49780062  1
  Pb  Pb42  1  0.49612541  0.50283543  0.16650712  1
  Pb  Pb43  1  0.83174808  0.16644989  0.83533625  1
  Pb  Pb44  1  0.50310246  0.49733131  0.83356713  1
  Pb  Pb45  1  0.16844151  0.16367938  0.83064372  1
  Pb  Pb46  1  0.50046247  0.83512896  0.83517344  1
  Pb  Pb47  1  0.16509401  0.50198145  0.83282675  1
  Pb  Pb48  1  0.16467886  0.16641304  0.16836408  1
  Pb  Pb49  1  0.83524082  0.50060870  0.16641953  1
  Pb  Pb50  1  0.50019344  0.83597393  0.49709613  1
  Pb  Pb51  1  0.83319981  0.83044763  0.50020761  1
  Pb  Pb52  1  0.50185306  0.16492833  0.16691983  1
  Pb  Pb53  1  0.16657931  0.83291746  0.50045272  1
  I  I54  1  0.16774648  -0.00327331  0.16464126  1
  I  I55  1  0.17129783  0.00245260  0.49914633  1
  I  I56  1  0.16017572  -0.00412786  0.84009405  1
  I  I57  1  0.16308581  0.33568833  0.16976113  1
  I  I58  1  0.16656704  0.33417460  0.49382640  1
  I  I59  1  0.16601498  0.33330508  0.83635886  1
  I  I60  1  0.16400755  0.66778753  0.16969949  1
  I  I61  1  0.16106972  0.66364737  0.49689364  1
  I  I62  1  0.16529874  0.67008092  0.83429536  1
  I  I63  1  0.49566057  -0.00309514  0.16672935  1
  I  I64  1  0.49425305  0.00392908  0.50362149  1
  I  I65  1  0.50202766  0.00271828  0.82917085  1
  I  I66  1  0.50220121  0.33312674  0.16707722  1
  I  I67  1  0.49907976  0.32976037  0.50210964  1
  I  I68  1  0.50048389  0.32947677  0.83001503  1
  I  I69  1  0.50743433  0.67090077  0.16527572  1
  I  I70  1  0.49938877  0.66656003  0.49917000  1
  I  I71  1  0.49843948  0.66699169  0.83430329  1
  I  I72  1  0.83483161  -0.00203479  0.16215639  1
  I  I73  1  0.83368616  0.00016198  0.50118104  1
  I  I74  1  0.83562791  -0.00307603  0.83698081  1
  I  I75  1  0.83379482  0.33181632  0.16723399  1
  I  I76  1  0.83538738  0.33681117  0.50370800  1
  I  I77  1  0.83189680  0.33579736  0.83143296  1
  I  I78  1  0.83248001  0.66979440  0.16550611  1
  I  I79  1  0.84113112  0.66261698  0.49784695  1
  I  I80  1  0.83726799  0.66775631  0.83649887  1
  I  I81  1  0.16803379  0.16943770  -0.00003132  1
  I  I82  1  0.17225816  0.16634109  0.33630517  1
  I  I83  1  0.16658213  0.17197848  0.66278748  1
  I  I84  1  0.16446458  0.50319959  0.00236723  1
  I  I85  1  0.16031758  0.50254289  0.33373569  1
  I  I86  1  0.16330759  0.49677455  0.66372830  1
  I  I87  1  0.16588796  0.82800433  0.00151116  1
  I  I88  1  0.16570037  0.83243687  0.33018497  1
  I  I89  1  0.16083967  0.83451211  0.66966164  1
  I  I90  1  0.50286640  0.16444226  -0.00189740  1
  I  I91  1  0.49691416  0.16525949  0.33589630  1
  I  I92  1  0.49749324  0.16564005  0.66595872  1
  I  I93  1  0.50111458  0.49561102  0.00012094  1
  I  I94  1  0.50613734  0.49794626  0.33322901  1
  I  I95  1  0.49600401  0.50330202  0.66669922  1
  I  I96  1  0.49980795  0.83729743  0.00302861  1
  I  I97  1  0.49989164  0.83514279  0.32896145  1
  I  I98  1  0.49924460  0.83300133  0.66684288  1
  I  I99  1  0.83129774  0.16665210  0.00308595  1
  I  I100  1  0.83188826  0.16078551  0.33013783  1
  I  I101  1  0.83373951  0.16463182  0.66656804  1
  I  I102  1  0.83430476  0.50128428  -0.00215141  1
  I  I103  1  0.83588305  0.49894950  0.33522818  1
  I  I104  1  0.83976117  0.50356236  0.66662963  1
  I  I105  1  0.83403517  0.83145856  0.00060024  1
  I  I106  1  0.83470505  0.83668545  0.32989512  1
  I  I107  1  0.83910509  0.83212326  0.67009385  1
  I  I108  1  -0.00297966  0.16086707  0.16770288  1
  I  I109  1  0.00241661  0.16864976  0.49720403  1
  I  I110  1  -0.00007664  0.16764732  0.83307434  1
  I  I111  1  0.00287237  0.50549140  0.16906734  1
  I  I112  1  0.00089221  0.49437269  0.49913362  1
  I  I113  1  -0.00302879  0.50094930  0.83276821  1
  I  I114  1  -0.00000025  0.83322203  0.16265980  1
  I  I115  1  0.00000814  0.83853424  0.49600987  1
  I  I116  1  -0.00075229  0.83045948  0.84189677  1
  I  I117  1  0.33314696  0.16541853  0.16625415  1
  I  I118  1  0.33279787  0.17175499  0.50198787  1
  I  I119  1  0.33620025  0.16469885  0.83341587  1
  I  I120  1  0.32812546  0.50348319  0.17345596  1
  I  I121  1  0.32985821  0.49838605  0.49474740  1
  I  I122  1  0.33313174  0.50170900  0.83301417  1
  I  I123  1  0.33193371  0.82971333  0.16308447  1
  I  I124  1  0.33315471  0.82957972  0.50052118  1
  I  I125  1  0.33088324  0.83499267  0.83773788  1
  I  I126  1  0.66979620  0.16194328  0.16811847  1
  I  I127  1  0.66448682  0.16677299  0.50244902  1
  I  I128  1  0.66409929  0.16440159  0.82671505  1
  I  I129  1  0.66692383  0.49993508  0.16770281  1
  I  I130  1  0.66946213  0.49957679  0.50283942  1
  I  I131  1  0.67133264  0.50730185  0.82848597  1
  I  I132  1  0.66811164  0.83918378  0.16301443  1
  I  I133  1  0.66683033  0.83365329  0.49969779  1
  I  I134  1  0.66984157  0.83069096  0.83834875  1
