# generated using pymatgen
data_Cs27Sn13Pb14I81
_symmetry_space_group_name_H-M   'P 1'
_cell_length_a   18.97448220
_cell_length_b   18.97448758
_cell_length_c   18.98325715
_cell_angle_alpha   89.99679845
_cell_angle_beta   89.99954840
_cell_angle_gamma   90.00310955
_symmetry_Int_Tables_number   1
_chemical_formula_structural   Cs27Sn13Pb14I81
_chemical_formula_sum   'Cs27 Sn13 Pb14 I81'
_cell_volume   6834.56249324
_cell_formula_units_Z   1
loop_
 _symmetry_equiv_pos_site_id
 _symmetry_equiv_pos_as_xyz
  1  'x, y, z'
loop_
 _atom_site_type_symbol
 _atom_site_label
 _atom_site_symmetry_multiplicity
 _atom_site_fract_x
 _atom_site_fract_y
 _atom_site_fract_z
 _atom_site_occupancy
  Cs  Cs0  1  -0.00027916  -0.00227642  0.00262654  1
  Cs  Cs1  1  -0.00036242  -0.00029618  0.33287393  1
  Cs  Cs2  1  0.00194142  0.00050864  0.66524329  1
  Cs  Cs3  1  0.00242058  0.33630285  -0.00301201  1
  Cs  Cs4  1  -0.00134279  0.33068732  0.34060841  1
  Cs  Cs5  1  0.00004199  0.33288406  0.66472552  1
  Cs  Cs6  1  0.00123715  0.66678586  0.00053998  1
  Cs  Cs7  1  -0.00145118  0.66925772  0.33260417  1
  Cs  Cs8  1  -0.00109981  0.66607062  0.66757748  1
  Cs  Cs9  1  0.33488785  0.00083895  -0.00073613  1
  Cs  Cs10  1  0.33150018  0.00021374  0.33458526  1
  Cs  Cs11  1  0.33388738  -0.00188056  0.66702263  1
  Cs  Cs12  1  0.33245842  0.33515093  0.00383979  1
  Cs  Cs13  1  0.33821678  0.33268702  0.33225071  1
  Cs  Cs14  1  0.32953073  0.33393215  0.66455098  1
  Cs  Cs15  1  0.32893761  0.66446295  0.00237450  1
  Cs  Cs16  1  0.33714610  0.66529808  0.33155945  1
  Cs  Cs17  1  0.33555649  0.66895941  0.66604525  1
  Cs  Cs18  1  0.66322996  0.00824910  0.00150998  1
  Cs  Cs19  1  0.66764885  0.00187931  0.32741340  1
  Cs  Cs20  1  0.66300833  -0.00075238  0.67133673  1
  Cs  Cs21  1  0.66453554  0.32681739  0.00011731  1
  Cs  Cs22  1  0.66257676  0.33360128  0.32966734  1
  Cs  Cs23  1  0.66931646  0.33385363  0.66907133  1
  Cs  Cs24  1  0.66977916  0.66748875  -0.00294598  1
  Cs  Cs25  1  0.66602350  0.66513500  0.33571269  1
  Cs  Cs26  1  0.66635440  0.66682693  0.66598510  1
  Sn  Sn27  1  0.16629509  0.16569694  0.83428259  1
  Sn  Sn28  1  0.50050484  0.16648370  0.50062650  1
  Sn  Sn29  1  0.16607545  0.83212843  0.50062727  1
  Sn  Sn30  1  0.16607135  0.16668626  0.16582876  1
  Sn  Sn31  1  0.50010186  0.83289634  0.16639333  1
  Sn  Sn32  1  0.50058276  0.50029120  0.83327372  1
  Sn  Sn33  1  0.83238748  0.50068866  0.83352783  1
  Sn  Sn34  1  0.83408118  0.50089237  0.49985992  1
  Sn  Sn35  1  0.16585861  0.83401853  0.83265512  1
  Sn  Sn36  1  0.83392836  0.83290073  0.50092786  1
  Sn  Sn37  1  0.83366628  0.49987536  0.16657527  1
  Sn  Sn38  1  0.16637575  0.50138191  0.49984553  1
  Sn  Sn39  1  0.83401621  0.83303514  0.83265089  1
  Pb  Pb40  1  0.83570877  0.16617380  0.83321523  1
  Pb  Pb41  1  0.50233172  0.50174692  0.16402425  1
  Pb  Pb42  1  0.83592330  0.16955674  0.16660516  1
  Pb  Pb43  1  0.50002638  0.83171184  0.83520147  1
  Pb  Pb44  1  0.49715109  0.16919004  0.83162455  1
  Pb  Pb45  1  0.49783474  0.16485879  0.16832643  1
  Pb  Pb46  1  0.83161790  0.83184734  0.16634662  1
  Pb  Pb47  1  0.16803068  0.83450473  0.16678817  1
  Pb  Pb48  1  0.50058783  0.49856607  0.50168160  1
  Pb  Pb49  1  0.16779335  0.16619386  0.50030301  1
  Pb  Pb50  1  0.83068967  0.16602776  0.50024900  1
  Pb  Pb51  1  0.50056874  0.83488574  0.49858022  1
  Pb  Pb52  1  0.16440584  0.49797242  0.17003757  1
  Pb  Pb53  1  0.16607036  0.50068516  0.83160247  1
  I  I54  1  0.16787477  0.00243201  0.16785664  1
  I  I55  1  0.16379207  -0.00306393  0.50081910  1
  I  I56  1  0.16219019  -0.00145411  0.83046002  1
  I  I57  1  0.16710237  0.33028393  0.16066607  1
  I  I58  1  0.16324545  0.33552426  0.50096552  1
  I  I59  1  0.16733197  0.33175474  0.83463337  1
  I  I60  1  0.16786472  0.66651915  0.16434371  1
  I  I61  1  0.16345416  0.66748428  0.50580936  1
  I  I62  1  0.16584439  0.66957307  0.83079862  1
  I  I63  1  0.50172353  -0.00271224  0.16632080  1
  I  I64  1  0.49737576  0.00231872  0.49949816  1
  I  I65  1  0.50219805  -0.00005540  0.83387004  1
  I  I66  1  0.50009349  0.33343546  0.16720373  1
  I  I67  1  0.49722696  0.33102083  0.50016726  1
  I  I68  1  0.50628784  0.33691340  0.83265530  1
  I  I69  1  0.49754066  0.66915952  0.16897930  1
  I  I70  1  0.49886183  0.66671621  0.49931562  1
  I  I71  1  0.50011657  0.66391313  0.83198375  1
  I  I72  1  0.83178381  -0.00016160  0.16736803  1
  I  I73  1  0.83789881  -0.00386847  0.50449776  1
  I  I74  1  0.83566026  -0.00372616  0.82749234  1
  I  I75  1  0.83255177  0.33783459  0.16737003  1
  I  I76  1  0.83779655  0.33683635  0.50130348  1
  I  I77  1  0.83109315  0.33673503  0.83222594  1
  I  I78  1  0.83369228  0.66377065  0.16673307  1
  I  I79  1  0.83701607  0.66616972  0.50085175  1
  I  I80  1  0.83547489  0.66639321  0.83242317  1
  I  I81  1  0.16685498  0.16159840  -0.00114215  1
  I  I82  1  0.16898365  0.16745937  0.33189034  1
  I  I83  1  0.16837463  0.16586106  0.66885547  1
  I  I84  1  0.16627583  0.50109607  -0.00002954  1
  I  I85  1  0.16230611  0.50390451  0.33795339  1
  I  I86  1  0.16196069  0.49781671  0.66380236  1
  I  I87  1  0.16368220  0.83541422  -0.00304569  1
  I  I88  1  0.16332895  0.83217615  0.33653433  1
  I  I89  1  0.16381246  0.83578745  0.66666605  1
  I  I90  1  0.50028654  0.16673586  -0.00015180  1
  I  I91  1  0.49665086  0.16793624  0.33589978  1
  I  I92  1  0.49732286  0.16531635  0.66426397  1
  I  I93  1  0.50386374  0.50036038  -0.00370235  1
  I  I94  1  0.50025733  0.49875392  0.33333505  1
  I  I95  1  0.50500993  0.50050073  0.66931095  1
  I  I96  1  0.49979224  0.83249291  0.00251989  1
  I  I97  1  0.49934824  0.83417709  0.33108234  1
  I  I98  1  0.49934273  0.83405459  0.66682818  1
  I  I99  1  0.83100977  0.16631920  -0.00014874  1
  I  I100  1  0.83605808  0.16616826  0.33350996  1
  I  I101  1  0.83574731  0.17229072  0.66668994  1
  I  I102  1  0.82934805  0.50403738  -0.00145673  1
  I  I103  1  0.83863330  0.50377310  0.33486969  1
  I  I104  1  0.83324282  0.50370692  0.66657212  1
  I  I105  1  0.83745584  0.82771368  -0.00326461  1
  I  I106  1  0.83662851  0.82929315  0.33641245  1
  I  I107  1  0.83704551  0.82502115  0.66668668  1
  I  I108  1  0.00370638  0.16422856  0.16485312  1
  I  I109  1  -0.00002669  0.16795162  0.49963808  1
  I  I110  1  0.00376959  0.16814510  0.83459525  1
  I  I111  1  -0.00340219  0.50150531  0.16049239  1
  I  I112  1  -0.00090371  0.50181016  0.50238273  1
  I  I113  1  -0.00310103  0.50054279  0.83438271  1
  I  I114  1  -0.00011751  0.83410836  0.16688867  1
  I  I115  1  0.00016845  0.82992074  0.50304919  1
  I  I116  1  -0.00005584  0.83104163  0.83018702  1
  I  I117  1  0.33015723  0.16700728  0.16351712  1
  I  I118  1  0.33520660  0.16730880  0.50007649  1
  I  I119  1  0.32936505  0.16200429  0.83534892  1
  I  I120  1  0.33320440  0.49956991  0.16614458  1
  I  I121  1  0.33084740  0.50211146  0.50333851  1
  I  I122  1  0.33469190  0.49954590  0.83047663  1
  I  I123  1  0.33565509  0.83406086  0.16711495  1
  I  I124  1  0.33030743  0.83120399  0.50315070  1
  I  I125  1  0.33026482  0.83536724  0.82968173  1
  I  I126  1  0.66654711  0.16622157  0.16841421  1
  I  I127  1  0.66341534  0.16729919  0.49914869  1
  I  I128  1  0.66656150  0.16472355  0.83234204  1
  I  I129  1  0.67025247  0.50125129  0.17294914  1
  I  I130  1  0.67031115  0.50352121  0.49912161  1
  I  I131  1  0.66892045  0.50588801  0.83029527  1
  I  I132  1  0.66416192  0.83251480  0.16792551  1
  I  I133  1  0.67015023  0.82899455  0.50344006  1
  I  I134  1  0.66984106  0.82905694  0.82888343  1
