# generated using pymatgen
data_Cs27Sn13Pb14I81
_symmetry_space_group_name_H-M   'P 1'
_cell_length_a   18.97686078
_cell_length_b   18.97659680
_cell_length_c   18.97626494
_cell_angle_alpha   90.00104341
_cell_angle_beta   89.99822543
_cell_angle_gamma   89.99975390
_symmetry_Int_Tables_number   1
_chemical_formula_structural   Cs27Sn13Pb14I81
_chemical_formula_sum   'Cs27 Sn13 Pb14 I81'
_cell_volume   6833.66109036
_cell_formula_units_Z   1
loop_
 _symmetry_equiv_pos_site_id
 _symmetry_equiv_pos_as_xyz
  1  'x, y, z'
loop_
 _atom_site_type_symbol
 _atom_site_label
 _atom_site_symmetry_multiplicity
 _atom_site_fract_x
 _atom_site_fract_y
 _atom_site_fract_z
 _atom_site_occupancy
  Cs  Cs0  1  0.00259717  -0.00174962  0.00160527  1
  Cs  Cs1  1  -0.00059784  0.00024852  0.33079036  1
  Cs  Cs2  1  -0.00076353  0.00129228  0.67136772  1
  Cs  Cs3  1  -0.00280800  0.33382124  0.00077808  1
  Cs  Cs4  1  -0.00012960  0.33379065  0.33435488  1
  Cs  Cs5  1  0.00879400  0.33210576  0.66369801  1
  Cs  Cs6  1  -0.00124944  0.66872224  -0.00547611  1
  Cs  Cs7  1  0.00245711  0.66652031  0.33161811  1
  Cs  Cs8  1  -0.00095920  0.66725490  0.67498679  1
  Cs  Cs9  1  0.33318188  -0.00191227  0.00109191  1
  Cs  Cs10  1  0.33386363  -0.00258862  0.33142470  1
  Cs  Cs11  1  0.33529828  0.00243118  0.66753559  1
  Cs  Cs12  1  0.33838461  0.33587215  0.00007174  1
  Cs  Cs13  1  0.33309852  0.33353441  0.33372446  1
  Cs  Cs14  1  0.32656077  0.33498054  0.66562469  1
  Cs  Cs15  1  0.33276796  0.66876062  -0.00253902  1
  Cs  Cs16  1  0.33008423  0.67076660  0.33474475  1
  Cs  Cs17  1  0.33370109  0.66091476  0.66537366  1
  Cs  Cs18  1  0.66519181  0.00243394  -0.00003267  1
  Cs  Cs19  1  0.66620921  0.00057932  0.33464861  1
  Cs  Cs20  1  0.66651667  -0.00120898  0.66613357  1
  Cs  Cs21  1  0.66470593  0.33767350  0.00152893  1
  Cs  Cs22  1  0.66714878  0.33279915  0.33222145  1
  Cs  Cs23  1  0.66618383  0.33115220  0.66512489  1
  Cs  Cs24  1  0.66737059  0.65778358  -0.00117043  1
  Cs  Cs25  1  0.66730311  0.66682093  0.33598049  1
  Cs  Cs26  1  0.66820143  0.67004256  0.66588117  1
  Sn  Sn27  1  0.83287894  0.49942305  0.49991435  1
  Sn  Sn28  1  0.50046815  0.16747627  0.50062176  1
  Sn  Sn29  1  0.50082783  0.49891553  0.49967379  1
  Sn  Sn30  1  0.16620990  0.16785404  0.16682375  1
  Sn  Sn31  1  0.16611043  0.83385628  0.50064509  1
  Sn  Sn32  1  0.83251797  0.16686987  0.83331579  1
  Sn  Sn33  1  0.16661312  0.49913421  0.16650032  1
  Sn  Sn34  1  0.83273652  0.16731110  0.50023860  1
  Sn  Sn35  1  0.50036390  0.83393466  0.83432068  1
  Sn  Sn36  1  0.50092764  0.16606517  0.83246177  1
  Sn  Sn37  1  0.83389753  0.16604215  0.16651188  1
  Sn  Sn38  1  0.50153168  0.83326489  0.16574462  1
  Sn  Sn39  1  0.83194650  0.83369157  0.16686608  1
  Pb  Pb40  1  0.83479031  0.49980948  0.16849313  1
  Pb  Pb41  1  0.16713403  0.16674385  0.83644122  1
  Pb  Pb42  1  0.83322261  0.49656281  0.82999614  1
  Pb  Pb43  1  0.49800387  0.50315991  0.16930247  1
  Pb  Pb44  1  0.16662970  0.16487805  0.49798563  1
  Pb  Pb45  1  0.16613045  0.50187882  0.49867914  1
  Pb  Pb46  1  0.83544614  0.83382562  0.49842456  1
  Pb  Pb47  1  0.50043588  0.16556766  0.16678562  1
  Pb  Pb48  1  0.49892270  0.83376331  0.50033216  1
  Pb  Pb49  1  0.83086638  0.83559168  0.83622341  1
  Pb  Pb50  1  0.16956062  0.83369203  0.83024235  1
  Pb  Pb51  1  0.16631989  0.83342362  0.16732968  1
  Pb  Pb52  1  0.50019986  0.49937275  0.83050974  1
  Pb  Pb53  1  0.16659538  0.49981606  0.83672268  1
  I  I54  1  0.16489996  0.00228796  0.16873378  1
  I  I55  1  0.16838476  -0.00231926  0.49504418  1
  I  I56  1  0.16530518  0.00026868  0.83568664  1
  I  I57  1  0.16096156  0.33210802  0.16930567  1
  I  I58  1  0.16728616  0.33316605  0.49943435  1
  I  I59  1  0.16898723  0.33290307  0.82938552  1
  I  I60  1  0.16788859  0.66499730  0.17120588  1
  I  I61  1  0.16901860  0.66917660  0.49453674  1
  I  I62  1  0.16823518  0.66696322  0.83510949  1
  I  I63  1  0.49842140  -0.00237833  0.16884234  1
  I  I64  1  0.50333620  0.00293755  0.50041594  1
  I  I65  1  0.50327955  0.00116020  0.83067748  1
  I  I66  1  0.50077968  0.33339966  0.16473242  1
  I  I67  1  0.50293164  0.33190094  0.50399603  1
  I  I68  1  0.50400454  0.32963897  0.83242360  1
  I  I69  1  0.50352324  0.67109821  0.16309073  1
  I  I70  1  0.50189161  0.66463831  0.49849580  1
  I  I71  1  0.49782620  0.66935584  0.83637249  1
  I  I72  1  0.83577933  0.00154974  0.16963747  1
  I  I73  1  0.82941929  0.00363458  0.50024160  1
  I  I74  1  0.83138426  0.00387368  0.82751907  1
  I  I75  1  0.83607794  0.32991974  0.16583387  1
  I  I76  1  0.82939472  0.33162149  0.49711763  1
  I  I77  1  0.82572057  0.32831084  0.84066295  1
  I  I78  1  0.83164270  0.66916479  0.17034664  1
  I  I79  1  0.82989541  0.66434781  0.49581707  1
  I  I80  1  0.83310113  0.66668845  0.83349443  1
  I  I81  1  0.16274631  0.16809098  0.00445463  1
  I  I82  1  0.16302648  0.16822243  0.33015569  1
  I  I83  1  0.16458121  0.16460495  0.66657261  1
  I  I84  1  0.16658848  0.49697293  0.00479300  1
  I  I85  1  0.16665099  0.49716309  0.33095353  1
  I  I86  1  0.16732024  0.50217546  0.66636715  1
  I  I87  1  0.16596900  0.83290311  -0.00011709  1
  I  I88  1  0.17021218  0.83359851  0.33483873  1
  I  I89  1  0.16727571  0.83315338  0.66274778  1
  I  I90  1  0.50203281  0.16298375  -0.00233409  1
  I  I91  1  0.50268696  0.16797227  0.33595673  1
  I  I92  1  0.50737920  0.16330917  0.66615789  1
  I  I93  1  0.49756472  0.49832944  0.00014525  1
  I  I94  1  0.50329132  0.49449244  0.33702647  1
  I  I95  1  0.50264172  0.50180703  0.66249829  1
  I  I96  1  0.50161407  0.84072802  0.00032076  1
  I  I97  1  0.50075248  0.83411338  0.33127592  1
  I  I98  1  0.49699529  0.83530611  0.66886116  1
  I  I99  1  0.83399765  0.16073282  0.00067531  1
  I  I100  1  0.83315364  0.16646714  0.33349184  1
  I  I101  1  0.82796831  0.17040108  0.66587338  1
  I  I102  1  0.83584093  0.49999249  0.00001936  1
  I  I103  1  0.83016425  0.49407468  0.33635315  1
  I  I104  1  0.82951083  0.49754858  0.66186243  1
  I  I105  1  0.83471292  0.83867246  0.00429345  1
  I  I106  1  0.82808958  0.83951030  0.33036778  1
  I  I107  1  0.83354801  0.83339248  0.66684422  1
  I  I108  1  -0.00165051  0.16389131  0.16790559  1
  I  I109  1  -0.00327561  0.16975248  0.50148712  1
  I  I110  1  -0.00330356  0.16731904  0.83009147  1
  I  I111  1  0.00249970  0.50017257  0.17155728  1
  I  I112  1  -0.00284972  0.49516929  0.49737018  1
  I  I113  1  -0.00032709  0.49939552  0.83001927  1
  I  I114  1  -0.00246686  0.83564452  0.17082737  1
  I  I115  1  0.00262384  0.83352269  0.49405888  1
  I  I116  1  -0.00033259  0.83415200  0.83410046  1
  I  I117  1  0.33149996  0.16739159  0.16789240  1
  I  I118  1  0.33635124  0.16880718  0.50290762  1
  I  I119  1  0.33696156  0.16290010  0.82957569  1
  I  I120  1  0.33037558  0.49427658  0.17013663  1
  I  I121  1  0.33584029  0.49751665  0.49901016  1
  I  I122  1  0.33370036  0.49815525  0.83015753  1
  I  I123  1  0.33557115  0.83422338  0.16556789  1
  I  I124  1  0.33154873  0.83329573  0.49591109  1
  I  I125  1  0.33754104  0.84066256  0.84075522  1
  I  I126  1  0.66962428  0.16325041  0.16790831  1
  I  I127  1  0.66696588  0.16935855  0.49792786  1
  I  I128  1  0.66645283  0.16205046  0.83361936  1
  I  I129  1  0.66660879  0.49871855  0.16656439  1
  I  I130  1  0.66659064  0.49653955  0.49801851  1
  I  I131  1  0.66667591  0.50216939  0.83751761  1
  I  I132  1  0.66689612  0.84059968  0.16609162  1
  I  I133  1  0.66679499  0.83262768  0.49999588  1
  I  I134  1  0.66299016  0.83653844  0.83221144  1
