# generated using pymatgen
data_Cs27Sn14Pb13I81
_symmetry_space_group_name_H-M   'P 1'
_cell_length_a   18.97878897
_cell_length_b   18.97903260
_cell_length_c   18.97196038
_cell_angle_alpha   89.99899253
_cell_angle_beta   90.00109083
_cell_angle_gamma   90.00196526
_symmetry_Int_Tables_number   1
_chemical_formula_structural   Cs27Sn14Pb13I81
_chemical_formula_sum   'Cs27 Sn14 Pb13 I81'
_cell_volume   6833.68218582
_cell_formula_units_Z   1
loop_
 _symmetry_equiv_pos_site_id
 _symmetry_equiv_pos_as_xyz
  1  'x, y, z'
loop_
 _atom_site_type_symbol
 _atom_site_label
 _atom_site_symmetry_multiplicity
 _atom_site_fract_x
 _atom_site_fract_y
 _atom_site_fract_z
 _atom_site_occupancy
  Cs  Cs0  1  -0.00121346  0.00070097  0.00107661  1
  Cs  Cs1  1  -0.00024585  0.00007583  0.33326696  1
  Cs  Cs2  1  -0.00233211  -0.00108887  0.66669026  1
  Cs  Cs3  1  -0.00096521  0.33528232  0.00185582  1
  Cs  Cs4  1  0.00200289  0.33273379  0.33219071  1
  Cs  Cs5  1  0.00185819  0.33155269  0.66653628  1
  Cs  Cs6  1  -0.00209999  0.66377708  -0.00063168  1
  Cs  Cs7  1  0.00255313  0.66796484  0.33318530  1
  Cs  Cs8  1  0.00241397  0.67034767  0.66643959  1
  Cs  Cs9  1  0.34151807  -0.00750276  -0.00494233  1
  Cs  Cs10  1  0.33329236  -0.00109676  0.32951258  1
  Cs  Cs11  1  0.33129728  -0.00004878  0.67354786  1
  Cs  Cs12  1  0.33302934  0.33042542  -0.00563859  1
  Cs  Cs13  1  0.33195517  0.33521653  0.33424505  1
  Cs  Cs14  1  0.33151706  0.33331748  0.66720335  1
  Cs  Cs15  1  0.33397086  0.67571457  -0.00542575  1
  Cs  Cs16  1  0.33214491  0.66378774  0.33279636  1
  Cs  Cs17  1  0.33354602  0.66725234  0.67219421  1
  Cs  Cs18  1  0.66434055  -0.00012182  0.00118556  1
  Cs  Cs19  1  0.66690485  0.00097449  0.33255793  1
  Cs  Cs20  1  0.67103395  -0.00023020  0.66537089  1
  Cs  Cs21  1  0.66741996  0.33489596  -0.00118066  1
  Cs  Cs22  1  0.66573196  0.33358242  0.33445869  1
  Cs  Cs23  1  0.66580687  0.33392574  0.66331780  1
  Cs  Cs24  1  0.66955592  0.66446621  -0.00406426  1
  Cs  Cs25  1  0.66593671  0.66332185  0.33571848  1
  Cs  Cs26  1  0.66539132  0.66616326  0.66478883  1
  Sn  Sn27  1  0.83398254  0.49923767  0.49975114  1
  Sn  Sn28  1  0.83328785  0.83414701  0.83449417  1
  Sn  Sn29  1  0.16667303  0.16708558  0.49896662  1
  Sn  Sn30  1  0.83339556  0.16627846  0.83355788  1
  Sn  Sn31  1  0.83375648  0.16612305  0.16678172  1
  Sn  Sn32  1  0.16671872  0.49926642  0.49932031  1
  Sn  Sn33  1  0.49853453  0.49973374  0.16701475  1
  Sn  Sn34  1  0.83331631  0.83397511  0.16626365  1
  Sn  Sn35  1  0.83365324  0.16753746  0.49964165  1
  Sn  Sn36  1  0.16672267  0.16705911  0.16709177  1
  Sn  Sn37  1  0.49939666  0.49995728  0.49930375  1
  Sn  Sn38  1  0.49946746  0.83360033  0.49937980  1
  Sn  Sn39  1  0.49943986  0.16623512  0.49954955  1
  Sn  Sn40  1  0.16831153  0.49911047  0.16715322  1
  Pb  Pb41  1  0.83351687  0.49968294  0.82995650  1
  Pb  Pb42  1  0.49991476  0.49980907  0.83350204  1
  Pb  Pb43  1  0.16353368  0.83362614  0.83349863  1
  Pb  Pb44  1  0.49953659  0.16854134  0.16842008  1
  Pb  Pb45  1  0.16663492  0.49979135  0.83381871  1
  Pb  Pb46  1  0.16438805  0.16664158  0.83401373  1
  Pb  Pb47  1  0.50285893  0.16685321  0.83048344  1
  Pb  Pb48  1  0.50266708  0.83046260  0.16872814  1
  Pb  Pb49  1  0.16967522  0.83377373  0.49982855  1
  Pb  Pb50  1  0.50303123  0.83342966  0.83065228  1
  Pb  Pb51  1  0.83211146  0.83354851  0.49957940  1
  Pb  Pb52  1  0.16470270  0.83359050  0.16680241  1
  Pb  Pb53  1  0.83356732  0.49953334  0.16883177  1
  I  I54  1  0.16203867  0.00371151  0.17322349  1
  I  I55  1  0.16416160  0.00392988  0.49613055  1
  I  I56  1  0.16780320  0.00045560  0.83091303  1
  I  I57  1  0.16248977  0.33297921  0.17244777  1
  I  I58  1  0.16874967  0.33308838  0.49686497  1
  I  I59  1  0.16294359  0.33310938  0.83209839  1
  I  I60  1  0.16800068  0.66327811  0.17292213  1
  I  I61  1  0.16459281  0.66314166  0.49570126  1
  I  I62  1  0.16373117  0.66656403  0.83163446  1
  I  I63  1  0.49844181  0.00005462  0.16935832  1
  I  I64  1  0.50354592  0.00121062  0.50081792  1
  I  I65  1  0.49819430  0.00013558  0.83161538  1
  I  I66  1  0.50284065  0.33644978  0.17452171  1
  I  I67  1  0.50231424  0.33358336  0.49690044  1
  I  I68  1  0.50401181  0.33321523  0.83065049  1
  I  I69  1  0.49617252  0.66261510  0.17488071  1
  I  I70  1  0.50298686  0.66509499  0.49646462  1
  I  I71  1  0.50373811  0.66671740  0.83009049  1
  I  I72  1  0.83831827  0.00192986  0.16926897  1
  I  I73  1  0.83285300  0.00333303  0.50039507  1
  I  I74  1  0.83355493  0.00113144  0.82989039  1
  I  I75  1  0.83406596  0.33024934  0.16501830  1
  I  I76  1  0.82882844  0.33203827  0.50002398  1
  I  I77  1  0.83363806  0.33001692  0.83539969  1
  I  I78  1  0.83250061  0.66846084  0.16378328  1
  I  I79  1  0.83210613  0.66412649  0.49969029  1
  I  I80  1  0.83259857  0.66935112  0.83748345  1
  I  I81  1  0.15974843  0.17290071  0.00385018  1
  I  I82  1  0.16040968  0.17101736  0.33433135  1
  I  I83  1  0.16661420  0.17127863  0.66307941  1
  I  I84  1  0.16937816  0.49482102  0.00406481  1
  I  I85  1  0.16705931  0.49584254  0.33454717  1
  I  I86  1  0.16698292  0.49557200  0.66266403  1
  I  I87  1  0.16913429  0.83232936  0.00035591  1
  I  I88  1  0.16181628  0.83332207  0.33346158  1
  I  I89  1  0.16445007  0.83247309  0.66625449  1
  I  I90  1  0.50030014  0.16906166  0.00017747  1
  I  I91  1  0.50670545  0.16563026  0.33725966  1
  I  I92  1  0.49947515  0.17032741  0.66125380  1
  I  I93  1  0.49702700  0.49933295  0.00348878  1
  I  I94  1  0.50043651  0.49995479  0.33544626  1
  I  I95  1  0.50088030  0.50005357  0.66225706  1
  I  I96  1  0.49900157  0.83141076  0.00012885  1
  I  I97  1  0.50446974  0.83521876  0.33668830  1
  I  I98  1  0.50295516  0.83000637  0.66253334  1
  I  I99  1  0.83858772  0.16203276  0.00105246  1
  I  I100  1  0.83359041  0.16615650  0.33398908  1
  I  I101  1  0.83239477  0.16605572  0.66509978  1
  I  I102  1  0.83275875  0.49847464  0.00017623  1
  I  I103  1  0.83166609  0.49706652  0.33701897  1
  I  I104  1  0.83184367  0.49668918  0.66153897  1
  I  I105  1  0.83347586  0.84130194  0.00040251  1
  I  I106  1  0.83207626  0.83671912  0.33104673  1
  I  I107  1  0.83100334  0.83636995  0.66835344  1
  I  I108  1  -0.00089081  0.16850431  0.17149388  1
  I  I109  1  -0.00071007  0.17319143  0.50013970  1
  I  I110  1  -0.00390408  0.16249182  0.82701674  1
  I  I111  1  0.00239834  0.49951882  0.17153690  1
  I  I112  1  0.00039481  0.49350805  0.49666114  1
  I  I113  1  -0.00027102  0.50149002  0.83297355  1
  I  I114  1  -0.00372046  0.83261877  0.16472759  1
  I  I115  1  -0.00003561  0.83184130  0.50153263  1
  I  I116  1  -0.00468248  0.83742178  0.83392307  1
  I  I117  1  0.33024296  0.17028469  0.17394085  1
  I  I118  1  0.33285106  0.16994290  0.49467736  1
  I  I119  1  0.33330420  0.16728160  0.83249830  1
  I  I120  1  0.33254476  0.49405419  0.17813417  1
  I  I121  1  0.33333497  0.49697568  0.49575683  1
  I  I122  1  0.33329732  0.49997438  0.82771686  1
  I  I123  1  0.33361794  0.83566046  0.16813546  1
  I  I124  1  0.33757858  0.83266836  0.49860352  1
  I  I125  1  0.33377260  0.83242870  0.83228768  1
  I  I126  1  0.66970682  0.16438817  0.16801922  1
  I  I127  1  0.66746397  0.16943076  0.50078226  1
  I  I128  1  0.67132496  0.16296675  0.83383308  1
  I  I129  1  0.66493186  0.50058216  0.17269401  1
  I  I130  1  0.66627768  0.49767988  0.49691091  1
  I  I131  1  0.66701397  0.50002128  0.83328852  1
  I  I132  1  0.67059462  0.83938339  0.16431550  1
  I  I133  1  0.66426823  0.83213693  0.50021372  1
  I  I134  1  0.67067231  0.83814128  0.83683492  1
