# generated using pymatgen
data_Cs27Sn14Pb13I81
_symmetry_space_group_name_H-M   'P 1'
_cell_length_a   18.95544352
_cell_length_b   18.96042119
_cell_length_c   18.96502331
_cell_angle_alpha   90.00177453
_cell_angle_beta   89.99972574
_cell_angle_gamma   89.99932585
_symmetry_Int_Tables_number   1
_chemical_formula_structural   Cs27Sn14Pb13I81
_chemical_formula_sum   'Cs27 Sn14 Pb13 I81'
_cell_volume   6816.08993057
_cell_formula_units_Z   1
loop_
 _symmetry_equiv_pos_site_id
 _symmetry_equiv_pos_as_xyz
  1  'x, y, z'
loop_
 _atom_site_type_symbol
 _atom_site_label
 _atom_site_symmetry_multiplicity
 _atom_site_fract_x
 _atom_site_fract_y
 _atom_site_fract_z
 _atom_site_occupancy
  Cs  Cs0  1  -0.00012097  0.00010220  0.00043446  1
  Cs  Cs1  1  -0.00066027  0.00034292  0.33238212  1
  Cs  Cs2  1  -0.00304753  0.00329173  0.66889760  1
  Cs  Cs3  1  0.00148525  0.33669218  -0.00040112  1
  Cs  Cs4  1  -0.00108012  0.33355262  0.33314788  1
  Cs  Cs5  1  0.00593831  0.33152302  0.66718271  1
  Cs  Cs6  1  -0.00339714  0.66074855  0.00252759  1
  Cs  Cs7  1  0.00664114  0.66604886  0.33164355  1
  Cs  Cs8  1  -0.00226524  0.66419504  0.66726327  1
  Cs  Cs9  1  0.33290292  0.00045527  -0.00055456  1
  Cs  Cs10  1  0.33382983  -0.00189983  0.33460439  1
  Cs  Cs11  1  0.33352670  -0.00241021  0.66794472  1
  Cs  Cs12  1  0.33487358  0.33081037  -0.00376437  1
  Cs  Cs13  1  0.33466256  0.33210344  0.33272452  1
  Cs  Cs14  1  0.32894520  0.33516944  0.67090706  1
  Cs  Cs15  1  0.33596204  0.66995701  0.00248531  1
  Cs  Cs16  1  0.32667037  0.66945844  0.33517680  1
  Cs  Cs17  1  0.33427931  0.66795068  0.66244462  1
  Cs  Cs18  1  0.66709679  -0.00127975  0.00051603  1
  Cs  Cs19  1  0.66738597  0.00228942  0.33419045  1
  Cs  Cs20  1  0.66840350  -0.00057325  0.66391764  1
  Cs  Cs21  1  0.66469689  0.33456387  0.00214440  1
  Cs  Cs22  1  0.66690472  0.33120018  0.33442182  1
  Cs  Cs23  1  0.66645572  0.33319713  0.66288198  1
  Cs  Cs24  1  0.66780216  0.66718089  -0.00091749  1
  Cs  Cs25  1  0.66688447  0.66615801  0.33323682  1
  Cs  Cs26  1  0.66628295  0.66748485  0.66775616  1
  Sn  Sn27  1  0.83404867  0.16618159  0.16560408  1
  Sn  Sn28  1  0.50082791  0.83268003  0.16635769  1
  Sn  Sn29  1  0.16675002  0.83287065  0.83365536  1
  Sn  Sn30  1  0.16593378  0.16644272  0.16751545  1
  Sn  Sn31  1  0.83323199  0.83230311  0.49887448  1
  Sn  Sn32  1  0.83233895  0.16697493  0.83445027  1
  Sn  Sn33  1  0.50056644  0.50017516  0.49976083  1
  Sn  Sn34  1  0.49923300  0.83345026  0.83389677  1
  Sn  Sn35  1  0.50131768  0.16631381  0.83322045  1
  Sn  Sn36  1  0.50035017  0.50035793  0.83324005  1
  Sn  Sn37  1  0.83291934  0.50106473  0.49983932  1
  Sn  Sn38  1  0.50013554  0.50107525  0.16704619  1
  Sn  Sn39  1  0.83264966  0.83379741  0.16755141  1
  Sn  Sn40  1  0.16694190  0.16621037  0.49889314  1
  Pb  Pb41  1  0.83286207  0.83459134  0.83386305  1
  Pb  Pb42  1  0.83146068  0.49997569  0.16856054  1
  Pb  Pb43  1  0.50166997  0.83157180  0.49973979  1
  Pb  Pb44  1  0.16355069  0.83539079  0.50231913  1
  Pb  Pb45  1  0.16925970  0.50350731  0.83357908  1
  Pb  Pb46  1  0.83464049  0.16690324  0.49970566  1
  Pb  Pb47  1  0.50031201  0.16612984  0.16521628  1
  Pb  Pb48  1  0.83114341  0.49698440  0.83100270  1
  Pb  Pb49  1  0.16661236  0.49808286  0.49990122  1
  Pb  Pb50  1  0.16659029  0.16526480  0.83394958  1
  Pb  Pb51  1  0.49756397  0.16895617  0.50294713  1
  Pb  Pb52  1  0.16990754  0.49715400  0.16647319  1
  Pb  Pb53  1  0.16643264  0.83509944  0.16492380  1
  I  I54  1  0.16749858  0.00315691  0.16870042  1
  I  I55  1  0.16513126  0.00310879  0.49715664  1
  I  I56  1  0.17320033  -0.00222547  0.83316097  1
  I  I57  1  0.16141703  0.32899385  0.16915583  1
  I  I58  1  0.16468525  0.33007694  0.49850718  1
  I  I59  1  0.16775107  0.33322187  0.83248506  1
  I  I60  1  0.16478116  0.66692862  0.16504011  1
  I  I61  1  0.16784164  0.66689686  0.50181606  1
  I  I62  1  0.17058608  0.67124446  0.83294830  1
  I  I63  1  0.50082249  -0.00278414  0.16112229  1
  I  I64  1  0.50099872  0.00000791  0.50053200  1
  I  I65  1  0.49922094  -0.00067422  0.83873343  1
  I  I66  1  0.49966892  0.33551745  0.16542212  1
  I  I67  1  0.50678656  0.33718248  0.49824855  1
  I  I68  1  0.50458925  0.33335497  0.83379383  1
  I  I69  1  0.50571486  0.66753232  0.16092267  1
  I  I70  1  0.50192742  0.66332249  0.50481009  1
  I  I71  1  0.49520203  0.66706236  0.83400111  1
  I  I72  1  0.83060669  -0.00022967  0.16864035  1
  I  I73  1  0.83500000  -0.00205338  0.49975415  1
  I  I74  1  0.82847475  0.00268800  0.83191808  1
  I  I75  1  0.83500246  0.33049149  0.16463615  1
  I  I76  1  0.82976600  0.33554048  0.50055946  1
  I  I77  1  0.82912280  0.32891193  0.83762383  1
  I  I78  1  0.83023769  0.66952197  0.16788278  1
  I  I79  1  0.82889156  0.66697974  0.49657719  1
  I  I80  1  0.83364383  0.66654138  0.83455127  1
  I  I81  1  0.16592563  0.16470114  0.00236189  1
  I  I82  1  0.16085294  0.16646597  0.33240061  1
  I  I83  1  0.16616975  0.16604736  0.66532315  1
  I  I84  1  0.16660290  0.49619567  -0.00001350  1
  I  I85  1  0.17010878  0.50143702  0.33325097  1
  I  I86  1  0.16840869  0.49592433  0.66672716  1
  I  I87  1  0.16838989  0.83794273  -0.00279666  1
  I  I88  1  0.16909238  0.83392569  0.33323831  1
  I  I89  1  0.17320997  0.83674045  0.66994887  1
  I  I90  1  0.49889153  0.17042048  -0.00301553  1
  I  I91  1  0.50146416  0.16747971  0.33335573  1
  I  I92  1  0.50451680  0.16498543  0.67120643  1
  I  I93  1  0.49904378  0.50003238  -0.00032185  1
  I  I94  1  0.50426077  0.50299769  0.33315611  1
  I  I95  1  0.50395091  0.49915406  0.66716100  1
  I  I96  1  0.50180078  0.82943316  -0.00022581  1
  I  I97  1  0.50233880  0.82993173  0.33032725  1
  I  I98  1  0.49807291  0.83311693  0.66948276  1
  I  I99  1  0.83479173  0.16049955  0.00084285  1
  I  I100  1  0.83556728  0.16549525  0.33060455  1
  I  I101  1  0.83122190  0.16586489  0.66874010  1
  I  I102  1  0.83198046  0.50179368  0.00005338  1
  I  I103  1  0.82601251  0.49803952  0.33640790  1
  I  I104  1  0.82737107  0.50466310  0.66315231  1
  I  I105  1  0.83162141  0.83711727  0.00278578  1
  I  I106  1  0.82732930  0.83687530  0.33210005  1
  I  I107  1  0.83314538  0.83222082  0.66483849  1
  I  I108  1  -0.00143361  0.16069216  0.16477680  1
  I  I109  1  0.00226165  0.16780966  0.50196377  1
  I  I110  1  -0.00235744  0.16296172  0.83311766  1
  I  I111  1  -0.00022938  0.50199087  0.16892512  1
  I  I112  1  -0.00303177  0.50214035  0.49965427  1
  I  I113  1  -0.00032165  0.49924556  0.83070522  1
  I  I114  1  -0.00304807  0.83700287  0.16853851  1
  I  I115  1  -0.00440458  0.82799427  0.49569113  1
  I  I116  1  0.00150811  0.83931905  0.83194172  1
  I  I117  1  0.33150599  0.16750127  0.16810555  1
  I  I118  1  0.33011343  0.16766905  0.49494671  1
  I  I119  1  0.33617954  0.16867286  0.83348963  1
  I  I120  1  0.33842631  0.50477923  0.16852887  1
  I  I121  1  0.33671037  0.49785197  0.50135506  1
  I  I122  1  0.33817604  0.49284267  0.83102120  1
  I  I123  1  0.33633457  0.83134051  0.16356311  1
  I  I124  1  0.33333974  0.83284693  0.49864672  1
  I  I125  1  0.33588160  0.83626893  0.83819497  1
  I  I126  1  0.66922925  0.16555322  0.16410291  1
  I  I127  1  0.66658923  0.16609192  0.49901095  1
  I  I128  1  0.66620831  0.16453974  0.83827078  1
  I  I129  1  0.66305864  0.49881460  0.16398154  1
  I  I130  1  0.66595974  0.50214436  0.50094428  1
  I  I131  1  0.66259344  0.50515042  0.83546402  1
  I  I132  1  0.66644377  0.83560426  0.16409530  1
  I  I133  1  0.66976468  0.83371112  0.50136863  1
  I  I134  1  0.66352030  0.83182004  0.83452237  1
