# generated using pymatgen
data_Cs27Sn14Pb13I81
_symmetry_space_group_name_H-M   'P 1'
_cell_length_a   18.97837522
_cell_length_b   18.97969525
_cell_length_c   18.96781838
_cell_angle_alpha   89.99885192
_cell_angle_beta   90.00107683
_cell_angle_gamma   89.99877857
_symmetry_Int_Tables_number   1
_chemical_formula_structural   Cs27Sn14Pb13I81
_chemical_formula_sum   'Cs27 Sn14 Pb13 I81'
_cell_volume   6832.27983617
_cell_formula_units_Z   1
loop_
 _symmetry_equiv_pos_site_id
 _symmetry_equiv_pos_as_xyz
  1  'x, y, z'
loop_
 _atom_site_type_symbol
 _atom_site_label
 _atom_site_symmetry_multiplicity
 _atom_site_fract_x
 _atom_site_fract_y
 _atom_site_fract_z
 _atom_site_occupancy
  Cs  Cs0  1  0.00059530  0.00096000  0.00173414  1
  Cs  Cs1  1  0.00093050  -0.00022372  0.33181236  1
  Cs  Cs2  1  0.00294691  0.00178956  0.66644945  1
  Cs  Cs3  1  -0.00142155  0.33229439  -0.00173721  1
  Cs  Cs4  1  0.00250720  0.33261128  0.33589246  1
  Cs  Cs5  1  -0.00072169  0.33398863  0.66892329  1
  Cs  Cs6  1  -0.00316082  0.66619918  -0.00254504  1
  Cs  Cs7  1  0.00005805  0.66817814  0.33720524  1
  Cs  Cs8  1  0.00033814  0.66350918  0.67051947  1
  Cs  Cs9  1  0.33324217  -0.00017338  0.00065946  1
  Cs  Cs10  1  0.32988316  0.00066938  0.33020608  1
  Cs  Cs11  1  0.33732251  -0.00293284  0.66705657  1
  Cs  Cs12  1  0.33423731  0.33330167  0.00166014  1
  Cs  Cs13  1  0.33232499  0.34177630  0.33076218  1
  Cs  Cs14  1  0.33426439  0.33159566  0.66644258  1
  Cs  Cs15  1  0.33423215  0.66704793  0.00023319  1
  Cs  Cs16  1  0.33342566  0.65790860  0.33201788  1
  Cs  Cs17  1  0.33512275  0.67250717  0.66690969  1
  Cs  Cs18  1  0.66614857  0.00103590  0.00177817  1
  Cs  Cs19  1  0.66784135  -0.00314042  0.33650480  1
  Cs  Cs20  1  0.65663537  0.00054339  0.65913214  1
  Cs  Cs21  1  0.66903904  0.33414668  -0.00143529  1
  Cs  Cs22  1  0.66444802  0.33383753  0.33934661  1
  Cs  Cs23  1  0.66625870  0.33039392  0.66319289  1
  Cs  Cs24  1  0.67168657  0.66334024  0.00029370  1
  Cs  Cs25  1  0.66576485  0.67035902  0.34162556  1
  Cs  Cs26  1  0.66528108  0.66803887  0.66074721  1
  Sn  Sn27  1  0.50026915  0.49989867  0.83364502  1
  Sn  Sn28  1  0.50023966  0.16618957  0.16640671  1
  Sn  Sn29  1  0.16721277  0.49917325  0.83391658  1
  Sn  Sn30  1  0.16662071  0.16634775  0.16659297  1
  Sn  Sn31  1  0.16664041  0.16595696  0.49997214  1
  Sn  Sn32  1  0.83284060  0.49970473  0.83393197  1
  Sn  Sn33  1  0.83350595  0.49904835  0.16677333  1
  Sn  Sn34  1  0.83346103  0.16587253  0.83372572  1
  Sn  Sn35  1  0.16729834  0.83353644  0.16726863  1
  Sn  Sn36  1  0.49939560  0.83354831  0.16604126  1
  Sn  Sn37  1  0.83290278  0.83453858  0.83305497  1
  Sn  Sn38  1  0.16633020  0.83396037  0.49895144  1
  Sn  Sn39  1  0.16641462  0.16727409  0.83338520  1
  Sn  Sn40  1  0.83313607  0.16775316  0.16621376  1
  Pb  Pb41  1  0.49669085  0.83347337  0.49656658  1
  Pb  Pb42  1  0.49639196  0.16667842  0.49624635  1
  Pb  Pb43  1  0.50014494  0.16806323  0.83526963  1
  Pb  Pb44  1  0.83544631  0.16655437  0.49994495  1
  Pb  Pb45  1  0.16545579  0.83397081  0.83393887  1
  Pb  Pb46  1  0.16429783  0.50016433  0.16444214  1
  Pb  Pb47  1  0.50291163  0.50010517  0.16518207  1
  Pb  Pb48  1  0.83360954  0.83359952  0.16552888  1
  Pb  Pb49  1  0.16659380  0.50002808  0.50315740  1
  Pb  Pb50  1  0.49982680  0.49985605  0.50340210  1
  Pb  Pb51  1  0.50297506  0.83128253  0.83591803  1
  Pb  Pb52  1  0.83622739  0.83376959  0.50345000  1
  Pb  Pb53  1  0.83356619  0.49979754  0.50015827  1
  I  I54  1  0.16504734  0.00147035  0.16484632  1
  I  I55  1  0.16501294  0.00091573  0.50108440  1
  I  I56  1  0.16107725  0.00331024  0.83418613  1
  I  I57  1  0.16944528  0.33006926  0.16893122  1
  I  I58  1  0.16611503  0.33005763  0.49703101  1
  I  I59  1  0.16179461  0.33210416  0.83369957  1
  I  I60  1  0.17001701  0.66938342  0.16954787  1
  I  I61  1  0.16661730  0.66959596  0.49585189  1
  I  I62  1  0.16412898  0.66449974  0.83349232  1
  I  I63  1  0.50035873  0.00083799  0.16454116  1
  I  I64  1  0.50252036  0.00009015  0.50548964  1
  I  I65  1  0.50000687  -0.00001145  0.83261005  1
  I  I66  1  0.49621989  0.33051995  0.16488687  1
  I  I67  1  0.49766095  0.33303227  0.49702971  1
  I  I68  1  0.50317077  0.33601515  0.83718334  1
  I  I69  1  0.49514889  0.66907434  0.16415115  1
  I  I70  1  0.49754460  0.66688588  0.49778568  1
  I  I71  1  0.49800128  0.66329399  0.83653911  1
  I  I72  1  0.83447765  0.00317479  0.16135639  1
  I  I73  1  0.83296327  0.00016239  0.49974798  1
  I  I74  1  0.84148608  0.00165290  0.83954139  1
  I  I75  1  0.83420417  0.33187935  0.15763638  1
  I  I76  1  0.83645235  0.33310504  0.50347735  1
  I  I77  1  0.83550749  0.33307265  0.83815433  1
  I  I78  1  0.83412545  0.66462557  0.15965233  1
  I  I79  1  0.83618701  0.66680869  0.49924843  1
  I  I80  1  0.83511475  0.66529681  0.83834138  1
  I  I81  1  0.16540650  0.16630186  0.00047391  1
  I  I82  1  0.16578781  0.16114248  0.33189968  1
  I  I83  1  0.16047752  0.16757302  0.66793416  1
  I  I84  1  0.16684446  0.49670992  -0.00376766  1
  I  I85  1  0.16504014  0.49789751  0.33305714  1
  I  I86  1  0.16236590  0.49651653  0.67148560  1
  I  I87  1  0.16883916  0.83691409  0.00287345  1
  I  I88  1  0.16884040  0.84211848  0.33195708  1
  I  I89  1  0.16273004  0.83566154  0.66501671  1
  I  I90  1  0.49494547  0.16368073  0.00339438  1
  I  I91  1  0.50301218  0.16308404  0.32807310  1
  I  I92  1  0.50051394  0.16924839  0.66664101  1
  I  I93  1  0.49857076  0.49967176  -0.00276869  1
  I  I94  1  0.50111236  0.50028240  0.33293841  1
  I  I95  1  0.50286186  0.49944074  0.67172384  1
  I  I96  1  0.49146327  0.83779634  0.00347276  1
  I  I97  1  0.50203441  0.83725250  0.32867437  1
  I  I98  1  0.49997725  0.83076040  0.66671734  1
  I  I99  1  0.83864078  0.16785248  -0.00013552  1
  I  I100  1  0.83432631  0.17099443  0.32950978  1
  I  I101  1  0.83904432  0.16927803  0.67043653  1
  I  I102  1  0.83389622  0.49925649  -0.00154205  1
  I  I103  1  0.83393918  0.49492245  0.33000796  1
  I  I104  1  0.83451855  0.49927803  0.67107412  1
  I  I105  1  0.83697774  0.83200432  -0.00250144  1
  I  I106  1  0.83123973  0.83224571  0.33326955  1
  I  I107  1  0.83605847  0.83068399  0.67163451  1
  I  I108  1  0.00066204  0.16599872  0.16538629  1
  I  I109  1  0.00372169  0.16313892  0.49618564  1
  I  I110  1  0.00032739  0.17095275  0.83748676  1
  I  I111  1  -0.00335757  0.49675267  0.15914026  1
  I  I112  1  0.00033247  0.50066755  0.50238496  1
  I  I113  1  -0.00068081  0.49959688  0.83620760  1
  I  I114  1  0.00286362  0.83695924  0.16866477  1
  I  I115  1  0.00392621  0.83743106  0.49153410  1
  I  I116  1  -0.00236480  0.82852613  0.83594107  1
  I  I117  1  0.33201443  0.16153644  0.16586193  1
  I  I118  1  0.32833690  0.16207987  0.50401575  1
  I  I119  1  0.33011150  0.17143911  0.83435249  1
  I  I120  1  0.33326933  0.49809369  0.16419801  1
  I  I121  1  0.33287985  0.49937612  0.49998817  1
  I  I122  1  0.33250087  0.49488145  0.83332565  1
  I  I123  1  0.33205777  0.84135821  0.16851197  1
  I  I124  1  0.32899931  0.83876501  0.50278330  1
  I  I125  1  0.33336996  0.83161769  0.83127106  1
  I  I126  1  0.66761948  0.16667403  0.15909115  1
  I  I127  1  0.66636892  0.16777218  0.50119729  1
  I  I128  1  0.66990342  0.16842618  0.83939405  1
  I  I129  1  0.67052884  0.49626543  0.15788632  1
  I  I130  1  0.66675349  0.50076857  0.50094131  1
  I  I131  1  0.66820768  0.50023270  0.83916267  1
  I  I132  1  0.66476767  0.83622122  0.16164047  1
  I  I133  1  0.66642305  0.83154327  0.49972180  1
  I  I134  1  0.67094961  0.83372525  0.83765903  1
