# generated using pymatgen
data_Cs27Sn13Pb14I81
_symmetry_space_group_name_H-M   'P 1'
_cell_length_a   18.97611650
_cell_length_b   18.97395128
_cell_length_c   18.98174410
_cell_angle_alpha   90.00038963
_cell_angle_beta   90.00055811
_cell_angle_gamma   89.99816441
_symmetry_Int_Tables_number   1
_chemical_formula_structural   Cs27Sn13Pb14I81
_chemical_formula_sum   'Cs27 Sn13 Pb14 I81'
_cell_volume   6834.41321804
_cell_formula_units_Z   1
loop_
 _symmetry_equiv_pos_site_id
 _symmetry_equiv_pos_as_xyz
  1  'x, y, z'
loop_
 _atom_site_type_symbol
 _atom_site_label
 _atom_site_symmetry_multiplicity
 _atom_site_fract_x
 _atom_site_fract_y
 _atom_site_fract_z
 _atom_site_occupancy
  Cs  Cs0  1  0.00005421  -0.00275163  -0.00182431  1
  Cs  Cs1  1  0.00355166  -0.00252315  0.33622524  1
  Cs  Cs2  1  0.00302777  0.00164716  0.66607451  1
  Cs  Cs3  1  -0.00155519  0.33497067  0.00317111  1
  Cs  Cs4  1  0.00057251  0.33465186  0.33173799  1
  Cs  Cs5  1  0.00038091  0.33315052  0.66605887  1
  Cs  Cs6  1  -0.00145014  0.66624108  0.00041029  1
  Cs  Cs7  1  -0.00005077  0.66603515  0.33279127  1
  Cs  Cs8  1  -0.00309076  0.66522189  0.66726523  1
  Cs  Cs9  1  0.33892058  -0.00543123  -0.00343381  1
  Cs  Cs10  1  0.33178391  -0.00885353  0.33122619  1
  Cs  Cs11  1  0.32429163  -0.00303134  0.67370595  1
  Cs  Cs12  1  0.33532787  0.33224600  -0.00082331  1
  Cs  Cs13  1  0.33212164  0.33494761  0.33457116  1
  Cs  Cs14  1  0.33349311  0.33240154  0.66629869  1
  Cs  Cs15  1  0.33460493  0.67087458  0.00010103  1
  Cs  Cs16  1  0.33352709  0.66742958  0.33135814  1
  Cs  Cs17  1  0.33855441  0.66744940  0.66995642  1
  Cs  Cs18  1  0.66286111  0.00388004  0.00360686  1
  Cs  Cs19  1  0.66327232  0.00038561  0.33240915  1
  Cs  Cs20  1  0.66939589  -0.00169458  0.66418415  1
  Cs  Cs21  1  0.66566669  0.32943572  0.00231978  1
  Cs  Cs22  1  0.66648165  0.33281434  0.33297401  1
  Cs  Cs23  1  0.66651972  0.33425701  0.66589277  1
  Cs  Cs24  1  0.66921714  0.66591849  -0.00312021  1
  Cs  Cs25  1  0.66637369  0.66642611  0.33638098  1
  Cs  Cs26  1  0.66722378  0.66749725  0.66627778  1
  Sn  Sn27  1  0.16680785  0.49978286  0.50029032  1
  Sn  Sn28  1  0.83334085  0.49894195  0.50067265  1
  Sn  Sn29  1  0.49945498  0.49969356  0.16715284  1
  Sn  Sn30  1  0.16773041  0.49906826  0.16635673  1
  Sn  Sn31  1  0.83266109  0.16779521  0.50042180  1
  Sn  Sn32  1  0.83323542  0.83337529  0.16638941  1
  Sn  Sn33  1  0.50004043  0.49912217  0.49905103  1
  Sn  Sn34  1  0.49982516  0.16706964  0.50018633  1
  Sn  Sn35  1  0.83339578  0.83363540  0.83433765  1
  Sn  Sn36  1  0.83343991  0.16709088  0.83285233  1
  Sn  Sn37  1  0.83399399  0.49925657  0.83274514  1
  Sn  Sn38  1  0.16696758  0.16696338  0.16641693  1
  Sn  Sn39  1  0.16604068  0.49967131  0.83351361  1
  Pb  Pb40  1  0.50280953  0.83036720  0.16674642  1
  Pb  Pb41  1  0.83337473  0.83370644  0.50028001  1
  Pb  Pb42  1  0.16479123  0.83286122  0.16646174  1
  Pb  Pb43  1  0.16451390  0.16905296  0.83579082  1
  Pb  Pb44  1  0.16424836  0.83050322  0.83335122  1
  Pb  Pb45  1  0.50299574  0.83362327  0.83313412  1
  Pb  Pb46  1  0.49723504  0.16865766  0.16918177  1
  Pb  Pb47  1  0.50218937  0.16680715  0.83037024  1
  Pb  Pb48  1  0.49991327  0.83378779  0.50022208  1
  Pb  Pb49  1  0.50031010  0.49983341  0.83314348  1
  Pb  Pb50  1  0.83499838  0.16439483  0.16746803  1
  Pb  Pb51  1  0.16684257  0.16835012  0.49838679  1
  Pb  Pb52  1  0.83319185  0.50105724  0.16687863  1
  Pb  Pb53  1  0.16669807  0.82998411  0.50021836  1
  I  I54  1  0.16225745  0.00253514  0.16909780  1
  I  I55  1  0.16562586  0.00044796  0.49663386  1
  I  I56  1  0.16493881  0.00020217  0.83497443  1
  I  I57  1  0.16726311  0.33590488  0.16741524  1
  I  I58  1  0.16531262  0.33732045  0.50124554  1
  I  I59  1  0.15999968  0.33753851  0.83104689  1
  I  I60  1  0.16892850  0.66263261  0.16747903  1
  I  I61  1  0.16434793  0.66064181  0.49631170  1
  I  I62  1  0.16069024  0.66178885  0.83518879  1
  I  I63  1  0.49912236  0.00010590  0.16851069  1
  I  I64  1  0.50926234  0.00367358  0.49957335  1
  I  I65  1  0.50111503  0.00030499  0.83227744  1
  I  I66  1  0.50079569  0.33700213  0.16869858  1
  I  I67  1  0.50242120  0.33524401  0.49636977  1
  I  I68  1  0.50335087  0.33367260  0.83580999  1
  I  I69  1  0.49321759  0.66214820  0.17350803  1
  I  I70  1  0.50115469  0.66248906  0.49659851  1
  I  I71  1  0.50226260  0.66611136  0.83124080  1
  I  I72  1  0.83620264  -0.00307974  0.16256460  1
  I  I73  1  0.82854888  0.00344924  0.50223783  1
  I  I74  1  0.83174009  0.00042464  0.83277980  1
  I  I75  1  0.83243713  0.33340941  0.16419818  1
  I  I76  1  0.83297399  0.33467568  0.50683941  1
  I  I77  1  0.83738665  0.33432686  0.82807315  1
  I  I78  1  0.83482968  0.66864567  0.16271697  1
  I  I79  1  0.83335624  0.66320039  0.50246332  1
  I  I80  1  0.83726310  0.66531211  0.83340543  1
  I  I81  1  0.16302518  0.17480944  0.00333777  1
  I  I82  1  0.16288833  0.17443000  0.33076434  1
  I  I83  1  0.16774579  0.16760851  0.66666203  1
  I  I84  1  0.16441801  0.49655262  0.00023240  1
  I  I85  1  0.16596096  0.49640299  0.33344575  1
  I  I86  1  0.16434229  0.50088349  0.66628329  1
  I  I87  1  0.16540642  0.82992590  -0.00004944  1
  I  I88  1  0.16227944  0.83152915  0.33309100  1
  I  I89  1  0.16353156  0.83406098  0.66689206  1
  I  I90  1  0.50170497  0.16845155  0.00024164  1
  I  I91  1  0.50936756  0.17095088  0.33695770  1
  I  I92  1  0.50152752  0.17647470  0.66222741  1
  I  I93  1  0.49743272  0.50138843  0.00265263  1
  I  I94  1  0.49813065  0.49710529  0.33447204  1
  I  I95  1  0.49837808  0.49700572  0.66324023  1
  I  I96  1  0.49927697  0.83078106  0.00017805  1
  I  I97  1  0.50409511  0.83375609  0.33329504  1
  I  I98  1  0.50329876  0.82840375  0.66655750  1
  I  I99  1  0.83647935  0.16991666  -0.00262091  1
  I  I100  1  0.83125905  0.17144811  0.33661498  1
  I  I101  1  0.83033597  0.16639742  0.66631691  1
  I  I102  1  0.83635783  0.49919063  -0.00272685  1
  I  I103  1  0.83533375  0.49775584  0.33630467  1
  I  I104  1  0.83606372  0.50194039  0.66652180  1
  I  I105  1  0.83482209  0.83042420  -0.00116883  1
  I  I106  1  0.83385578  0.83110150  0.33124890  1
  I  I107  1  0.83331643  0.83138853  0.66963874  1
  I  I108  1  0.00243889  0.17528566  0.16852850  1
  I  I109  1  -0.00306266  0.17056453  0.50251023  1
  I  I110  1  -0.00404029  0.16506759  0.82626692  1
  I  I111  1  0.00253234  0.49870625  0.16889125  1
  I  I112  1  -0.00062533  0.49691080  0.50020848  1
  I  I113  1  -0.00117949  0.50060964  0.83079553  1
  I  I114  1  -0.00302121  0.82953463  0.16299424  1
  I  I115  1  -0.00046740  0.83311710  0.49873713  1
  I  I116  1  -0.00418868  0.83395891  0.83699588  1
  I  I117  1  0.32954836  0.17103027  0.16876774  1
  I  I118  1  0.33588936  0.17395436  0.49652621  1
  I  I119  1  0.33302101  0.16885562  0.83254215  1
  I  I120  1  0.33235397  0.49647768  0.17059989  1
  I  I121  1  0.33341981  0.49625998  0.49882705  1
  I  I122  1  0.33034752  0.49970546  0.83091942  1
  I  I123  1  0.33339595  0.83429044  0.16791690  1
  I  I124  1  0.33337540  0.83376448  0.49838594  1
  I  I125  1  0.33303198  0.83149468  0.83269989  1
  I  I126  1  0.66665617  0.16699743  0.16485578  1
  I  I127  1  0.66802451  0.17546181  0.50309260  1
  I  I128  1  0.67127439  0.17071948  0.83400670  1
  I  I129  1  0.66455130  0.50292032  0.17039773  1
  I  I130  1  0.66735649  0.49731662  0.49965430  1
  I  I131  1  0.67042961  0.50140175  0.83038338  1
  I  I132  1  0.67054924  0.83241887  0.16222579  1
  I  I133  1  0.66702437  0.82721128  0.50035072  1
  I  I134  1  0.67180153  0.82770280  0.83623324  1
