# generated using pymatgen
data_Cs27Sn13Pb14I81
_symmetry_space_group_name_H-M   'P 1'
_cell_length_a   18.98029385
_cell_length_b   18.96865607
_cell_length_c   18.98381648
_cell_angle_alpha   90.00020010
_cell_angle_beta   89.99953246
_cell_angle_gamma   89.99932063
_symmetry_Int_Tables_number   1
_chemical_formula_structural   Cs27Sn13Pb14I81
_chemical_formula_sum   'Cs27 Sn13 Pb14 I81'
_cell_volume   6834.75609347
_cell_formula_units_Z   1
loop_
 _symmetry_equiv_pos_site_id
 _symmetry_equiv_pos_as_xyz
  1  'x, y, z'
loop_
 _atom_site_type_symbol
 _atom_site_label
 _atom_site_symmetry_multiplicity
 _atom_site_fract_x
 _atom_site_fract_y
 _atom_site_fract_z
 _atom_site_occupancy
  Cs  Cs0  1  -0.00141034  0.00557302  0.00034929  1
  Cs  Cs1  1  0.00221567  0.00480279  0.33344447  1
  Cs  Cs2  1  0.00116737  0.00644347  0.66632624  1
  Cs  Cs3  1  0.00244314  0.32610381  -0.00471699  1
  Cs  Cs4  1  -0.00219774  0.33398870  0.33103913  1
  Cs  Cs5  1  0.00075289  0.32983183  0.67555214  1
  Cs  Cs6  1  -0.00049951  0.66699755  0.00133206  1
  Cs  Cs7  1  -0.00024557  0.66642404  0.33376572  1
  Cs  Cs8  1  -0.00171537  0.66577558  0.66422425  1
  Cs  Cs9  1  0.33615253  -0.00195808  0.00038841  1
  Cs  Cs10  1  0.33166004  -0.00145447  0.33454532  1
  Cs  Cs11  1  0.33325660  -0.00145733  0.66439429  1
  Cs  Cs12  1  0.33224272  0.33402911  -0.00345143  1
  Cs  Cs13  1  0.33568635  0.33469891  0.33619635  1
  Cs  Cs14  1  0.33515426  0.33356277  0.66846682  1
  Cs  Cs15  1  0.33341707  0.66705892  0.00167420  1
  Cs  Cs16  1  0.33065999  0.66684115  0.33217413  1
  Cs  Cs17  1  0.33161374  0.66708973  0.66711844  1
  Cs  Cs18  1  0.66420862  -0.00226505  0.00017623  1
  Cs  Cs19  1  0.66678831  -0.00047299  0.33209724  1
  Cs  Cs20  1  0.66663207  -0.00006853  0.66802414  1
  Cs  Cs21  1  0.66509182  0.33427343  -0.00164818  1
  Cs  Cs22  1  0.66676865  0.33438992  0.33797275  1
  Cs  Cs23  1  0.66495546  0.33338996  0.66270055  1
  Cs  Cs24  1  0.66780470  0.66725967  0.00063833  1
  Cs  Cs25  1  0.66900192  0.66650653  0.33254698  1
  Cs  Cs26  1  0.66987585  0.66651057  0.66698441  1
  Sn  Sn27  1  0.83376157  0.83294952  0.16759392  1
  Sn  Sn28  1  0.50009199  0.16551254  0.83424727  1
  Sn  Sn29  1  0.49990148  0.16611945  0.16615407  1
  Sn  Sn30  1  0.16559814  0.50062831  0.16742655  1
  Sn  Sn31  1  0.83445878  0.50067286  0.16702887  1
  Sn  Sn32  1  0.50080173  0.83287519  0.49975050  1
  Sn  Sn33  1  0.16623506  0.83288297  0.16582986  1
  Sn  Sn34  1  0.16565574  0.50023011  0.49931139  1
  Sn  Sn35  1  0.83298177  0.83318772  0.49902033  1
  Sn  Sn36  1  0.83477390  0.50089891  0.49915512  1
  Sn  Sn37  1  0.49917564  0.83333411  0.83336985  1
  Sn  Sn38  1  0.16681874  0.83297630  0.83421047  1
  Sn  Sn39  1  0.49999489  0.83384007  0.16683975  1
  Pb  Pb40  1  0.50007501  0.50013483  0.16660088  1
  Pb  Pb41  1  0.16659956  0.17085704  0.49972423  1
  Pb  Pb42  1  0.83346188  0.16675901  0.49973291  1
  Pb  Pb43  1  0.83348422  0.50013474  0.83371353  1
  Pb  Pb44  1  0.83000090  0.16644493  0.83348243  1
  Pb  Pb45  1  0.50005769  0.50065962  0.83333717  1
  Pb  Pb46  1  0.16654753  0.50241611  0.83388214  1
  Pb  Pb47  1  0.83361962  0.83341632  0.83342085  1
  Pb  Pb48  1  0.49998647  0.16376039  0.49982678  1
  Pb  Pb49  1  0.83076148  0.16688894  0.16673320  1
  Pb  Pb50  1  0.16588085  0.83229650  0.49977417  1
  Pb  Pb51  1  0.50020753  0.50281687  0.49992341  1
  Pb  Pb52  1  0.16931726  0.16695734  0.16694203  1
  Pb  Pb53  1  0.16946321  0.16328368  0.83352652  1
  I  I54  1  0.16458816  -0.00368786  0.16265792  1
  I  I55  1  0.16713048  -0.00038088  0.50047071  1
  I  I56  1  0.16816126  -0.00484637  0.83903823  1
  I  I57  1  0.16350744  0.33692422  0.17160558  1
  I  I58  1  0.16184386  0.33916777  0.49260635  1
  I  I59  1  0.16837424  0.33323007  0.83257958  1
  I  I60  1  0.16921887  0.66797944  0.16654111  1
  I  I61  1  0.16642284  0.66438258  0.49845069  1
  I  I62  1  0.17512966  0.67042454  0.83539559  1
  I  I63  1  0.50044154  -0.00264274  0.16575204  1
  I  I64  1  0.50497688  -0.00477273  0.49985931  1
  I  I65  1  0.49625209  -0.00207862  0.83472362  1
  I  I66  1  0.49990132  0.33060234  0.16067819  1
  I  I67  1  0.50002523  0.33341197  0.50094765  1
  I  I68  1  0.50103944  0.33007209  0.83918573  1
  I  I69  1  0.49978110  0.67035879  0.16580184  1
  I  I70  1  0.50118172  0.67116420  0.49907206  1
  I  I71  1  0.49673125  0.67115535  0.83501395  1
  I  I72  1  0.83519245  -0.00375919  0.17032272  1
  I  I73  1  0.82795782  -0.00385866  0.49606425  1
  I  I74  1  0.83611086  -0.00062835  0.83284135  1
  I  I75  1  0.83593556  0.33696445  0.17136549  1
  I  I76  1  0.83616145  0.33730183  0.49461253  1
  I  I77  1  0.83147520  0.33336323  0.83327189  1
  I  I78  1  0.83120978  0.66805559  0.17022205  1
  I  I79  1  0.83202207  0.66730375  0.49598242  1
  I  I80  1  0.82890805  0.66713215  0.83306054  1
  I  I81  1  0.16510289  0.17185749  0.00020097  1
  I  I82  1  0.17083882  0.16003864  0.33301454  1
  I  I83  1  0.16941628  0.16546181  0.66683610  1
  I  I84  1  0.16351613  0.50272617  0.00367713  1
  I  I85  1  0.16391462  0.50722799  0.33213838  1
  I  I86  1  0.16311404  0.50240226  0.66384068  1
  I  I87  1  0.17098184  0.82766590  0.00166266  1
  I  I88  1  0.17067739  0.83122884  0.33021856  1
  I  I89  1  0.17173783  0.83165175  0.66857770  1
  I  I90  1  0.50046167  0.15725818  0.00037316  1
  I  I91  1  0.50028343  0.16241525  0.33030273  1
  I  I92  1  0.49971565  0.16207488  0.66966071  1
  I  I93  1  0.50049991  0.50395633  0.00029874  1
  I  I94  1  0.49889225  0.49854568  0.33317889  1
  I  I95  1  0.50000781  0.50015796  0.66643507  1
  I  I96  1  0.49955770  0.83699427  0.00084264  1
  I  I97  1  0.50011929  0.83661366  0.33231639  1
  I  I98  1  0.49935209  0.83629296  0.66691941  1
  I  I99  1  0.83468476  0.16688046  0.00039558  1
  I  I100  1  0.82892883  0.16581877  0.33307751  1
  I  I101  1  0.83095114  0.16636705  0.66652455  1
  I  I102  1  0.83564146  0.50607311  0.00409783  1
  I  I103  1  0.83684553  0.50523318  0.33284215  1
  I  I104  1  0.83612292  0.50572989  0.66287193  1
  I  I105  1  0.83018778  0.82878581  0.00359028  1
  I  I106  1  0.82859331  0.82913353  0.33246545  1
  I  I107  1  0.82913615  0.82837736  0.66344787  1
  I  I108  1  0.00002543  0.16377232  0.16731307  1
  I  I109  1  -0.00006104  0.15882348  0.50021150  1
  I  I110  1  0.00034013  0.16630061  0.83200916  1
  I  I111  1  0.00003594  0.51001722  0.17162827  1
  I  I112  1  -0.00075738  0.50865395  0.49499449  1
  I  I113  1  0.00016387  0.50288691  0.83239989  1
  I  I114  1  -0.00000513  0.82767106  0.16639788  1
  I  I115  1  -0.00294011  0.83013870  0.49742992  1
  I  I116  1  0.00292825  0.83000643  0.83664804  1
  I  I117  1  0.33725345  0.16150066  0.16275908  1
  I  I118  1  0.33368622  0.16614057  0.49958408  1
  I  I119  1  0.33729127  0.16479392  0.83834519  1
  I  I120  1  0.33031924  0.50411634  0.17040478  1
  I  I121  1  0.33055199  0.50179689  0.49538457  1
  I  I122  1  0.33318301  0.49887400  0.83286103  1
  I  I123  1  0.33362707  0.83298864  0.16606205  1
  I  I124  1  0.33553013  0.83241662  0.49830328  1
  I  I125  1  0.33440942  0.83610929  0.83610604  1
  I  I126  1  0.66288378  0.16113024  0.16239600  1
  I  I127  1  0.66643071  0.17176286  0.50077816  1
  I  I128  1  0.66188620  0.15815307  0.83768355  1
  I  I129  1  0.66978714  0.50355986  0.17114188  1
  I  I130  1  0.67002210  0.50168221  0.49516860  1
  I  I131  1  0.66670405  0.50160624  0.83367517  1
  I  I132  1  0.66641378  0.83316807  0.16675915  1
  I  I133  1  0.66669909  0.82840783  0.49742604  1
  I  I134  1  0.66343544  0.83740450  0.83532465  1
