# generated using pymatgen
data_Cs27Sn14Pb13I81
_symmetry_space_group_name_H-M   'P 1'
_cell_length_a   18.95785021
_cell_length_b   18.96197255
_cell_length_c   18.96098987
_cell_angle_alpha   89.99884115
_cell_angle_beta   89.99990516
_cell_angle_gamma   89.99854187
_symmetry_Int_Tables_number   1
_chemical_formula_structural   Cs27Sn14Pb13I81
_chemical_formula_sum   'Cs27 Sn14 Pb13 I81'
_cell_volume   6816.06317371
_cell_formula_units_Z   1
loop_
 _symmetry_equiv_pos_site_id
 _symmetry_equiv_pos_as_xyz
  1  'x, y, z'
loop_
 _atom_site_type_symbol
 _atom_site_label
 _atom_site_symmetry_multiplicity
 _atom_site_fract_x
 _atom_site_fract_y
 _atom_site_fract_z
 _atom_site_occupancy
  Cs  Cs0  1  -0.00054957  0.00041501  0.00443153  1
  Cs  Cs1  1  -0.00209848  0.00217632  0.33372999  1
  Cs  Cs2  1  0.00169438  -0.00174233  0.66354179  1
  Cs  Cs3  1  0.01082995  0.33576780  0.00063788  1
  Cs  Cs4  1  -0.00291533  0.33207656  0.33182174  1
  Cs  Cs5  1  -0.00017141  0.33488723  0.66760870  1
  Cs  Cs6  1  -0.00367013  0.66451669  -0.00280399  1
  Cs  Cs7  1  0.00089817  0.66597291  0.33726202  1
  Cs  Cs8  1  -0.00147831  0.66646792  0.66621871  1
  Cs  Cs9  1  0.33409295  0.00078383  -0.00136037  1
  Cs  Cs10  1  0.33305602  -0.00268736  0.33587069  1
  Cs  Cs11  1  0.33344691  -0.00099788  0.66680427  1
  Cs  Cs12  1  0.32557438  0.33288808  0.00078334  1
  Cs  Cs13  1  0.33435526  0.33722802  0.33228542  1
  Cs  Cs14  1  0.33555605  0.33180168  0.66698090  1
  Cs  Cs15  1  0.33314061  0.66686497  0.00439623  1
  Cs  Cs16  1  0.33417265  0.66506605  0.33180312  1
  Cs  Cs17  1  0.33412489  0.67129415  0.66406602  1
  Cs  Cs18  1  0.66645853  -0.00261075  0.00063839  1
  Cs  Cs19  1  0.66915027  0.00172579  0.33050952  1
  Cs  Cs20  1  0.66455857  0.00261686  0.66713212  1
  Cs  Cs21  1  0.66534667  0.33173448  -0.00479270  1
  Cs  Cs22  1  0.66851827  0.33446780  0.33504731  1
  Cs  Cs23  1  0.66475481  0.33146794  0.66567716  1
  Cs  Cs24  1  0.67024435  0.67054997  0.00090444  1
  Cs  Cs25  1  0.66541404  0.66413507  0.33081161  1
  Cs  Cs26  1  0.66769612  0.66549251  0.66779300  1
  Sn  Sn27  1  0.16621715  0.49871673  0.50033071  1
  Sn  Sn28  1  0.50063370  0.16671111  0.83369303  1
  Sn  Sn29  1  0.49973309  0.50034486  0.83358585  1
  Sn  Sn30  1  0.83315696  0.49970678  0.16670849  1
  Sn  Sn31  1  0.50000879  0.16681870  0.16677130  1
  Sn  Sn32  1  0.49934375  0.83300669  0.83276633  1
  Sn  Sn33  1  0.83352659  0.16665983  0.83350273  1
  Sn  Sn34  1  0.49920324  0.16587382  0.49948374  1
  Sn  Sn35  1  0.16660357  0.83340547  0.16548683  1
  Sn  Sn36  1  0.83382617  0.50066002  0.49950229  1
  Sn  Sn37  1  0.16712798  0.83332912  0.83470263  1
  Sn  Sn38  1  0.83164905  0.83272816  0.50013561  1
  Sn  Sn39  1  0.16755348  0.16800645  0.50005299  1
  Sn  Sn40  1  0.50143654  0.83401624  0.50033547  1
  Pb  Pb41  1  0.16922829  0.50269682  0.83094104  1
  Pb  Pb42  1  0.16465847  0.50204812  0.16899515  1
  Pb  Pb43  1  0.83557530  0.83166204  0.16937681  1
  Pb  Pb44  1  0.83146816  0.16897342  0.16364700  1
  Pb  Pb45  1  0.50030831  0.50014857  0.50130306  1
  Pb  Pb46  1  0.83303120  0.83537061  0.83142993  1
  Pb  Pb47  1  0.83174948  0.49785336  0.83289790  1
  Pb  Pb48  1  0.49878816  0.83497432  0.16677977  1
  Pb  Pb49  1  0.16889667  0.16483725  0.16949758  1
  Pb  Pb50  1  0.16706728  0.16469665  0.83147844  1
  Pb  Pb51  1  0.83299310  0.16695437  0.50132767  1
  Pb  Pb52  1  0.50189014  0.49757245  0.16360189  1
  Pb  Pb53  1  0.16704858  0.83330573  0.50020644  1
  I  I54  1  0.16683000  -0.00296000  0.16566693  1
  I  I55  1  0.16815124  0.00184070  0.50074825  1
  I  I56  1  0.17257075  -0.00320546  0.83223251  1
  I  I57  1  0.16670272  0.33335863  0.16632102  1
  I  I58  1  0.16714951  0.33302298  0.50066391  1
  I  I59  1  0.16742431  0.33334683  0.83307195  1
  I  I60  1  0.16875616  0.66983921  0.16585565  1
  I  I61  1  0.16548282  0.66487863  0.50037804  1
  I  I62  1  0.17130507  0.67063496  0.83332480  1
  I  I63  1  0.49975561  0.00303455  0.16349339  1
  I  I64  1  0.49885939  0.00034717  0.50503169  1
  I  I65  1  0.49971793  0.00018753  0.83134028  1
  I  I66  1  0.50052505  0.32951960  0.16876574  1
  I  I67  1  0.49927719  0.33053094  0.50222030  1
  I  I68  1  0.50589975  0.33182931  0.83123107  1
  I  I69  1  0.49936609  0.66662540  0.16696566  1
  I  I70  1  0.49982753  0.66935373  0.50529846  1
  I  I71  1  0.49599600  0.66809226  0.82674381  1
  I  I72  1  0.83390713  0.00011267  0.16783884  1
  I  I73  1  0.83341157  -0.00206404  0.50298511  1
  I  I74  1  0.82687229  0.00298299  0.83033478  1
  I  I75  1  0.83219569  0.33647588  0.17521589  1
  I  I76  1  0.83406975  0.33582953  0.49830367  1
  I  I77  1  0.82552697  0.33017205  0.82989198  1
  I  I78  1  0.83235867  0.66372617  0.16769740  1
  I  I79  1  0.83452391  0.66636834  0.49819655  1
  I  I80  1  0.83188628  0.66670629  0.83385962  1
  I  I81  1  0.16708489  0.16676435  -0.00002523  1
  I  I82  1  0.17084658  0.16658114  0.33762551  1
  I  I83  1  0.17202242  0.16662060  0.66337838  1
  I  I84  1  0.16558605  0.49943461  -0.00016196  1
  I  I85  1  0.16699832  0.49978800  0.33718081  1
  I  I86  1  0.16018657  0.49879074  0.66296166  1
  I  I87  1  0.17326097  0.83425555  -0.00114384  1
  I  I88  1  0.16671698  0.83344950  0.33208068  1
  I  I89  1  0.16906426  0.83388247  0.66848952  1
  I  I90  1  0.50573658  0.16596849  -0.00156146  1
  I  I91  1  0.49545604  0.16159278  0.33489005  1
  I  I92  1  0.50018340  0.16568960  0.66673077  1
  I  I93  1  0.50253800  0.50112885  -0.00435014  1
  I  I94  1  0.49844048  0.49989538  0.33335849  1
  I  I95  1  0.50184620  0.49617302  0.66917574  1
  I  I96  1  0.49749276  0.83475508  -0.00315562  1
  I  I97  1  0.50073917  0.83785702  0.33647908  1
  I  I98  1  0.49730214  0.83765026  0.66684702  1
  I  I99  1  0.82630418  0.16641447  -0.00398957  1
  I  I100  1  0.83246199  0.16511972  0.33338541  1
  I  I101  1  0.82659785  0.16796451  0.66893229  1
  I  I102  1  0.82982871  0.49842461  0.00182073  1
  I  I103  1  0.83612700  0.50320144  0.33522768  1
  I  I104  1  0.83591972  0.50284022  0.66369752  1
  I  I105  1  0.83175941  0.83236955  -0.00008149  1
  I  I106  1  0.82991308  0.83340833  0.33765183  1
  I  I107  1  0.83459568  0.82771642  0.66330286  1
  I  I108  1  0.00014420  0.16612480  0.16676504  1
  I  I109  1  0.00197787  0.16573704  0.50291444  1
  I  I110  1  -0.00185901  0.16524679  0.82936937  1
  I  I111  1  -0.00320983  0.49970669  0.16792928  1
  I  I112  1  -0.00063892  0.50130262  0.49739210  1
  I  I113  1  0.00016555  0.49940099  0.83414914  1
  I  I114  1  0.00340260  0.83378306  0.16259749  1
  I  I115  1  -0.00167304  0.83273180  0.50038530  1
  I  I116  1  0.00228881  0.83555475  0.83358436  1
  I  I117  1  0.33696372  0.16683466  0.16111515  1
  I  I118  1  0.33498469  0.16540048  0.50287506  1
  I  I119  1  0.33690524  0.16743710  0.83351454  1
  I  I120  1  0.33329862  0.50017811  0.16779830  1
  I  I121  1  0.33145364  0.49980526  0.50270468  1
  I  I122  1  0.33720508  0.49396022  0.83115546  1
  I  I123  1  0.33089829  0.83360911  0.16853930  1
  I  I124  1  0.33596648  0.83473945  0.50185103  1
  I  I125  1  0.33514228  0.83578385  0.82953056  1
  I  I126  1  0.66322578  0.16549924  0.17152703  1
  I  I127  1  0.66345279  0.16573653  0.50045561  1
  I  I128  1  0.66398555  0.16523288  0.83007821  1
  I  I129  1  0.66951575  0.50045884  0.17500385  1
  I  I130  1  0.66914003  0.50092677  0.49847119  1
  I  I131  1  0.66354313  0.50305788  0.83036533  1
  I  I132  1  0.66677735  0.83338473  0.16521179  1
  I  I133  1  0.66539144  0.83378098  0.50579702  1
  I  I134  1  0.66326926  0.83282480  0.83015584  1
