# generated using pymatgen
data_Cs27Sn14Pb13I81
_symmetry_space_group_name_H-M   'P 1'
_cell_length_a   18.97439895
_cell_length_b   18.96719369
_cell_length_c   18.98761850
_cell_angle_alpha   89.99982790
_cell_angle_beta   90.00010532
_cell_angle_gamma   90.00089464
_symmetry_Int_Tables_number   1
_chemical_formula_structural   Cs27Sn14Pb13I81
_chemical_formula_sum   'Cs27 Sn14 Pb13 I81'
_cell_volume   6833.47490787
_cell_formula_units_Z   1
loop_
 _symmetry_equiv_pos_site_id
 _symmetry_equiv_pos_as_xyz
  1  'x, y, z'
loop_
 _atom_site_type_symbol
 _atom_site_label
 _atom_site_symmetry_multiplicity
 _atom_site_fract_x
 _atom_site_fract_y
 _atom_site_fract_z
 _atom_site_occupancy
  Cs  Cs0  1  -0.00308601  -0.00062116  -0.00183384  1
  Cs  Cs1  1  -0.00270664  0.00142100  0.33413601  1
  Cs  Cs2  1  -0.00111960  0.00014004  0.66749130  1
  Cs  Cs3  1  0.00000034  0.33273419  -0.00067726  1
  Cs  Cs4  1  -0.00001845  0.33210315  0.33489023  1
  Cs  Cs5  1  0.00319085  0.33075399  0.66577426  1
  Cs  Cs6  1  0.00152567  0.66798244  0.00257135  1
  Cs  Cs7  1  0.00062192  0.66623733  0.32848068  1
  Cs  Cs8  1  0.00160273  0.66924216  0.66987906  1
  Cs  Cs9  1  0.33659823  0.00102733  -0.00056689  1
  Cs  Cs10  1  0.33556602  0.00039994  0.33490306  1
  Cs  Cs11  1  0.33427135  0.00043504  0.66572983  1
  Cs  Cs12  1  0.33391304  0.33271943  0.00032061  1
  Cs  Cs13  1  0.33406619  0.33149707  0.33172809  1
  Cs  Cs14  1  0.33082927  0.33203343  0.66703115  1
  Cs  Cs15  1  0.33003703  0.66501656  0.00217847  1
  Cs  Cs16  1  0.32975631  0.66731134  0.33060509  1
  Cs  Cs17  1  0.33378083  0.66644051  0.66695702  1
  Cs  Cs18  1  0.66637123  -0.00035343  0.00208360  1
  Cs  Cs19  1  0.66700305  -0.00010901  0.33281068  1
  Cs  Cs20  1  0.66566023  0.00007840  0.66527097  1
  Cs  Cs21  1  0.66545408  0.34179024  -0.00071146  1
  Cs  Cs22  1  0.66612276  0.33828252  0.33285758  1
  Cs  Cs23  1  0.66798163  0.34067154  0.66720990  1
  Cs  Cs24  1  0.66818829  0.66284413  -0.00233990  1
  Cs  Cs25  1  0.66904310  0.66727451  0.33630528  1
  Cs  Cs26  1  0.66568883  0.65984372  0.66603227  1
  Sn  Sn27  1  0.16673270  0.49909401  0.83236526  1
  Sn  Sn28  1  0.16675380  0.16702986  0.50000535  1
  Sn  Sn29  1  0.50054416  0.16632447  0.50092912  1
  Sn  Sn30  1  0.50007459  0.83413964  0.83298406  1
  Sn  Sn31  1  0.16672669  0.49941489  0.50070644  1
  Sn  Sn32  1  0.50090511  0.83367425  0.16697753  1
  Sn  Sn33  1  0.83254750  0.83422396  0.49956740  1
  Sn  Sn34  1  0.83354634  0.16627575  0.16729483  1
  Sn  Sn35  1  0.16743552  0.16682635  0.83334632  1
  Sn  Sn36  1  0.83213493  0.83455626  0.16747574  1
  Sn  Sn37  1  0.83274321  0.16608826  0.49939775  1
  Sn  Sn38  1  0.16596739  0.16600727  0.16664186  1
  Sn  Sn39  1  0.49982508  0.16599019  0.83242579  1
  Sn  Sn40  1  0.50084974  0.83409067  0.50006424  1
  Pb  Pb41  1  0.83253973  0.16673007  0.83321243  1
  Pb  Pb42  1  0.16609062  0.83632311  0.16673040  1
  Pb  Pb43  1  0.49737989  0.49989483  0.49982574  1
  Pb  Pb44  1  0.50003863  0.50398771  0.16696321  1
  Pb  Pb45  1  0.49759439  0.49948453  0.83315632  1
  Pb  Pb46  1  0.16656839  0.49682423  0.16677759  1
  Pb  Pb47  1  0.16903439  0.83400501  0.83335024  1
  Pb  Pb48  1  0.50082486  0.16560028  0.16669751  1
  Pb  Pb49  1  0.83342050  0.49991171  0.16695184  1
  Pb  Pb50  1  0.83619953  0.50016025  0.50001781  1
  Pb  Pb51  1  0.83038247  0.83355848  0.83299517  1
  Pb  Pb52  1  0.16633024  0.83373317  0.49995140  1
  Pb  Pb53  1  0.83701011  0.49994110  0.83314337  1
  I  I54  1  0.16589221  0.00442861  0.16776873  1
  I  I55  1  0.16717338  0.00372284  0.50095359  1
  I  I56  1  0.16842249  0.00386232  0.83149112  1
  I  I57  1  0.16132852  0.32852042  0.16701797  1
  I  I58  1  0.16644252  0.33076788  0.50079048  1
  I  I59  1  0.17246032  0.33113889  0.83253929  1
  I  I60  1  0.16728811  0.66673676  0.16594514  1
  I  I61  1  0.16741410  0.66419793  0.50579398  1
  I  I62  1  0.16775423  0.66399936  0.82767381  1
  I  I63  1  0.50009193  -0.00265843  0.16652944  1
  I  I64  1  0.49752384  0.00057032  0.50075615  1
  I  I65  1  0.49297224  0.00075373  0.83207401  1
  I  I66  1  0.49970257  0.33297171  0.16597492  1
  I  I67  1  0.50239961  0.32945085  0.50527213  1
  I  I68  1  0.49806761  0.32966419  0.82834128  1
  I  I69  1  0.50525994  0.67266230  0.16686009  1
  I  I70  1  0.50359431  0.67031620  0.50032267  1
  I  I71  1  0.49959673  0.66978667  0.83324806  1
  I  I72  1  0.83419000  0.00020345  0.17124231  1
  I  I73  1  0.83497892  0.00103866  0.49600017  1
  I  I74  1  0.84050912  0.00021160  0.83355544  1
  I  I75  1  0.83881939  0.32951604  0.17105703  1
  I  I76  1  0.83100825  0.32959493  0.49588359  1
  I  I77  1  0.82723466  0.33287087  0.83419571  1
  I  I78  1  0.82860326  0.67050198  0.17121799  1
  I  I79  1  0.82911343  0.67022668  0.49586523  1
  I  I80  1  0.83316854  0.66702400  0.83345381  1
  I  I81  1  0.16742135  0.16967289  -0.00054248  1
  I  I82  1  0.16676774  0.16995635  0.33439675  1
  I  I83  1  0.16734318  0.17077482  0.66616178  1
  I  I84  1  0.16805783  0.49619622  -0.00294885  1
  I  I85  1  0.16672743  0.49638069  0.33627209  1
  I  I86  1  0.16692382  0.49072672  0.66649478  1
  I  I87  1  0.16701870  0.83275947  0.00004633  1
  I  I88  1  0.17281582  0.83147675  0.33344424  1
  I  I89  1  0.16553885  0.83635768  0.66653131  1
  I  I90  1  0.49493866  0.16184646  -0.00238817  1
  I  I91  1  0.49584072  0.16258903  0.33633269  1
  I  I92  1  0.49536545  0.15823468  0.66586444  1
  I  I93  1  0.49673225  0.49825333  -0.00016616  1
  I  I94  1  0.49560518  0.49739214  0.33364393  1
  I  I95  1  0.50148285  0.50554438  0.66651840  1
  I  I96  1  0.50213586  0.83863712  -0.00008582  1
  I  I97  1  0.50326478  0.83817936  0.33421068  1
  I  I98  1  0.50224421  0.83803128  0.66576303  1
  I  I99  1  0.83788217  0.16159824  0.00309060  1
  I  I100  1  0.83784864  0.16232840  0.33423938  1
  I  I101  1  0.83670100  0.16194435  0.66313487  1
  I  I102  1  0.83497552  0.50011217  0.00018114  1
  I  I103  1  0.83712114  0.50007796  0.33360790  1
  I  I104  1  0.83101338  0.50066260  0.66625980  1
  I  I105  1  0.83043998  0.83812168  0.00322001  1
  I  I106  1  0.82499879  0.83798315  0.33376620  1
  I  I107  1  0.83150524  0.83853541  0.66308700  1
  I  I108  1  -0.00008568  0.16158127  0.16969093  1
  I  I109  1  0.00020734  0.16680174  0.49951685  1
  I  I110  1  0.00296657  0.17166790  0.83130990  1
  I  I111  1  0.00026313  0.50639024  0.16547579  1
  I  I112  1  0.00394513  0.49457980  0.50435299  1
  I  I113  1  0.00511705  0.49242715  0.82885176  1
  I  I114  1  -0.00348585  0.83438445  0.17262518  1
  I  I115  1  -0.00321065  0.83630047  0.49417115  1
  I  I116  1  -0.00006401  0.83186904  0.83372430  1
  I  I117  1  0.33120164  0.16581895  0.16880016  1
  I  I118  1  0.33327675  0.16628379  0.50033824  1
  I  I119  1  0.33291704  0.16628405  0.83070001  1
  I  I120  1  0.33292209  0.50053147  0.16691312  1
  I  I121  1  0.32955498  0.49559574  0.50436802  1
  I  I122  1  0.32986340  0.49800241  0.82848042  1
  I  I123  1  0.33631130  0.83432653  0.16753850  1
  I  I124  1  0.33655355  0.83656008  0.49978585  1
  I  I125  1  0.33734375  0.83512882  0.83230605  1
  I  I126  1  0.66954327  0.16309517  0.16992701  1
  I  I127  1  0.66645307  0.16037841  0.49973282  1
  I  I128  1  0.66311740  0.16011804  0.83053777  1
  I  I129  1  0.66679946  0.49274214  0.16553980  1
  I  I130  1  0.66671917  0.49763750  0.49925384  1
  I  I131  1  0.66631869  0.49949783  0.83498550  1
  I  I132  1  0.66686885  0.84102326  0.16730685  1
  I  I133  1  0.66604460  0.84159838  0.49906878  1
  I  I134  1  0.66227439  0.84183458  0.83366656  1
