# generated using pymatgen
data_Cs27Sn13Pb14I81
_symmetry_space_group_name_H-M   'P 1'
_cell_length_a   18.99226100
_cell_length_b   18.97950807
_cell_length_c   19.00507061
_cell_angle_alpha   89.99995723
_cell_angle_beta   90.00033944
_cell_angle_gamma   89.99880391
_symmetry_Int_Tables_number   1
_chemical_formula_structural   Cs27Sn13Pb14I81
_chemical_formula_sum   'Cs27 Sn13 Pb14 I81'
_cell_volume   6850.63941460
_cell_formula_units_Z   1
loop_
 _symmetry_equiv_pos_site_id
 _symmetry_equiv_pos_as_xyz
  1  'x, y, z'
loop_
 _atom_site_type_symbol
 _atom_site_label
 _atom_site_symmetry_multiplicity
 _atom_site_fract_x
 _atom_site_fract_y
 _atom_site_fract_z
 _atom_site_occupancy
  Cs  Cs0  1  0.00070552  0.00856005  0.00135671  1
  Cs  Cs1  1  0.00279662  0.00516758  0.33329662  1
  Cs  Cs2  1  0.00881230  0.00591479  0.66621297  1
  Cs  Cs3  1  0.00026224  0.33255807  0.00078827  1
  Cs  Cs4  1  0.00027229  0.33187644  0.33210707  1
  Cs  Cs5  1  -0.00176667  0.33617742  0.66757661  1
  Cs  Cs6  1  -0.00256864  0.66473231  0.00044444  1
  Cs  Cs7  1  -0.00156558  0.66633505  0.33399955  1
  Cs  Cs8  1  -0.00108043  0.66519583  0.66600009  1
  Cs  Cs9  1  0.33284038  0.00045926  -0.00468852  1
  Cs  Cs10  1  0.33208684  -0.00055068  0.33314231  1
  Cs  Cs11  1  0.32532612  0.00365527  0.67445405  1
  Cs  Cs12  1  0.33413804  0.33475878  -0.00055415  1
  Cs  Cs13  1  0.33720955  0.33260065  0.33525275  1
  Cs  Cs14  1  0.34489160  0.32811049  0.66487976  1
  Cs  Cs15  1  0.33465552  0.66647184  -0.00022581  1
  Cs  Cs16  1  0.33311531  0.66652020  0.33194469  1
  Cs  Cs17  1  0.33146839  0.66948084  0.67098244  1
  Cs  Cs18  1  0.66638852  -0.00074336  0.00056624  1
  Cs  Cs19  1  0.66683242  -0.00339173  0.33147091  1
  Cs  Cs20  1  0.66539528  0.00571573  0.66708126  1
  Cs  Cs21  1  0.66530664  0.33279219  -0.00190045  1
  Cs  Cs22  1  0.66250891  0.33141814  0.33657306  1
  Cs  Cs23  1  0.65897853  0.32437346  0.66460325  1
  Cs  Cs24  1  0.66826144  0.66709429  0.00079128  1
  Cs  Cs25  1  0.66822539  0.66892085  0.33269637  1
  Cs  Cs26  1  0.67054178  0.66769684  0.66603267  1
  Sn  Sn27  1  0.50014145  0.16534333  0.16673926  1
  Sn  Sn28  1  0.83372380  0.83321149  0.83304782  1
  Sn  Sn29  1  0.83308686  0.83326825  0.50023979  1
  Sn  Sn30  1  0.49992396  0.83408466  0.16741723  1
  Sn  Sn31  1  0.83363601  0.50066289  0.83313193  1
  Sn  Sn32  1  0.16605967  0.50037431  0.83318087  1
  Sn  Sn33  1  0.83415725  0.83284021  0.16666992  1
  Sn  Sn34  1  0.50004632  0.83284669  0.49983051  1
  Sn  Sn35  1  0.83385625  0.50054695  0.16698253  1
  Sn  Sn36  1  0.83380902  0.50042326  0.49985709  1
  Sn  Sn37  1  0.16585028  0.50120613  0.16689511  1
  Sn  Sn38  1  0.16628275  0.50047549  0.50001427  1
  Sn  Sn39  1  0.16601430  0.83247975  0.16660000  1
  Pb  Pb40  1  0.83138364  0.16704066  0.16683748  1
  Pb  Pb41  1  0.16621543  0.83158397  0.49817351  1
  Pb  Pb42  1  0.50242484  0.83308591  0.83312650  1
  Pb  Pb43  1  0.50045758  0.50296809  0.49998728  1
  Pb  Pb44  1  0.83349036  0.16696968  0.83337230  1
  Pb  Pb45  1  0.16634811  0.17071159  0.83351734  1
  Pb  Pb46  1  0.16347681  0.83123351  0.83622046  1
  Pb  Pb47  1  0.83350431  0.16634716  0.49979459  1
  Pb  Pb48  1  0.50034882  0.50093672  0.16670379  1
  Pb  Pb49  1  0.16902734  0.16731007  0.16675368  1
  Pb  Pb50  1  0.49997182  0.16235710  0.49774679  1
  Pb  Pb51  1  0.50012443  0.16622320  0.83632397  1
  Pb  Pb52  1  0.16658663  0.17047346  0.49975859  1
  Pb  Pb53  1  0.50087190  0.50044775  0.83309334  1
  I  I54  1  0.16280194  -0.00328409  0.16774813  1
  I  I55  1  0.16615860  -0.00036073  0.49750644  1
  I  I56  1  0.16591329  -0.00021095  0.83479209  1
  I  I57  1  0.16281345  0.33745136  0.16598271  1
  I  I58  1  0.15924423  0.33925908  0.49582347  1
  I  I59  1  0.15816998  0.33904911  0.83816621  1
  I  I60  1  0.16828488  0.66590427  0.16691931  1
  I  I61  1  0.16483802  0.66316799  0.50082542  1
  I  I62  1  0.16510002  0.66301257  0.83156493  1
  I  I63  1  0.50144700  -0.00252516  0.17116998  1
  I  I64  1  0.50903552  -0.00529135  0.49647709  1
  I  I65  1  0.50254177  -0.00051464  0.83142827  1
  I  I66  1  0.49998147  0.33158901  0.16522605  1
  I  I67  1  0.49982762  0.33312270  0.49901517  1
  I  I68  1  0.50153654  0.33329159  0.83519965  1
  I  I69  1  0.50046506  0.67021769  0.17001802  1
  I  I70  1  0.50267618  0.67036960  0.49048093  1
  I  I71  1  0.49729038  0.66697698  0.83784164  1
  I  I72  1  0.83572821  -0.00389269  0.16669595  1
  I  I73  1  0.82749271  -0.00420347  0.49827641  1
  I  I74  1  0.83032781  -0.00353833  0.83542149  1
  I  I75  1  0.83707235  0.33724966  0.16580423  1
  I  I76  1  0.83844929  0.33743008  0.49941609  1
  I  I77  1  0.83828532  0.33765489  0.83513012  1
  I  I78  1  0.83147562  0.66710090  0.16651114  1
  I  I79  1  0.83286592  0.66652558  0.49907393  1
  I  I80  1  0.83609402  0.66604728  0.83437383  1
  I  I81  1  0.16799630  0.16807749  0.00033905  1
  I  I82  1  0.16673088  0.16893124  0.33291953  1
  I  I83  1  0.16801555  0.16417570  0.66674464  1
  I  I84  1  0.16079257  0.50355150  0.00088598  1
  I  I85  1  0.16058140  0.50397447  0.33250995  1
  I  I86  1  0.15811931  0.50014493  0.66657652  1
  I  I87  1  0.16929164  0.82737439  0.00434647  1
  I  I88  1  0.16368197  0.82711853  0.32989620  1
  I  I89  1  0.16871680  0.83219901  0.66682516  1
  I  I90  1  0.50069521  0.15954231  0.00414961  1
  I  I91  1  0.50040912  0.16645598  0.33014195  1
  I  I92  1  0.50029137  0.16783509  0.66641781  1
  I  I93  1  0.49998883  0.50064473  0.00023059  1
  I  I94  1  0.49918431  0.49700460  0.33318727  1
  I  I95  1  0.49892928  0.50133143  0.66647390  1
  I  I96  1  0.50080543  0.83685785  0.00353428  1
  I  I97  1  0.50568408  0.83589671  0.33187439  1
  I  I98  1  0.50575085  0.82923003  0.66349267  1
  I  I99  1  0.83133581  0.16676120  0.00020625  1
  I  I100  1  0.83266646  0.16807528  0.33319283  1
  I  I101  1  0.83132819  0.16708766  0.66662727  1
  I  I102  1  0.83877931  0.50632520  0.00058054  1
  I  I103  1  0.83936475  0.50644105  0.33302619  1
  I  I104  1  0.84104976  0.50804728  0.66640909  1
  I  I105  1  0.83225836  0.82664160  0.00125459  1
  I  I106  1  0.83084185  0.82682561  0.33259999  1
  I  I107  1  0.82625525  0.82450197  0.66602549  1
  I  I108  1  0.00013362  0.16434135  0.16589390  1
  I  I109  1  0.00002716  0.16064613  0.49874158  1
  I  I110  1  -0.00004507  0.16339874  0.83535368  1
  I  I111  1  -0.00044730  0.50709229  0.16652027  1
  I  I112  1  -0.00122265  0.50614597  0.49960634  1
  I  I113  1  -0.00099245  0.50447195  0.83402070  1
  I  I114  1  -0.00104724  0.82679901  0.16693302  1
  I  I115  1  -0.00348817  0.82994500  0.49889952  1
  I  I116  1  -0.00442165  0.82963135  0.83159214  1
  I  I117  1  0.33664353  0.16222726  0.16739153  1
  I  I118  1  0.33354592  0.16843584  0.49831211  1
  I  I119  1  0.33321171  0.16793784  0.83370254  1
  I  I120  1  0.33014226  0.50281322  0.16615024  1
  I  I121  1  0.33036894  0.50088988  0.49800264  1
  I  I122  1  0.33003159  0.49938700  0.83570578  1
  I  I123  1  0.33333073  0.83236117  0.17238035  1
  I  I124  1  0.33546135  0.83081729  0.49193182  1
  I  I125  1  0.33282006  0.83199092  0.83376730  1
  I  I126  1  0.66374677  0.16191563  0.16711401  1
  I  I127  1  0.66650223  0.17348860  0.49979147  1
  I  I128  1  0.66679402  0.17050227  0.83355237  1
  I  I129  1  0.67029157  0.50309579  0.16615283  1
  I  I130  1  0.67045760  0.50204943  0.49863511  1
  I  I131  1  0.67110503  0.50431442  0.83571432  1
  I  I132  1  0.66776715  0.83319333  0.16701335  1
  I  I133  1  0.66823695  0.82685268  0.49393106  1
  I  I134  1  0.67072626  0.82525097  0.83893270  1
