# generated using pymatgen
data_Cs27Sn14Pb13I81
_symmetry_space_group_name_H-M   'P 1'
_cell_length_a   18.98270795
_cell_length_b   18.96844951
_cell_length_c   18.97773794
_cell_angle_alpha   90.00412240
_cell_angle_beta   90.00001925
_cell_angle_gamma   89.99806982
_symmetry_Int_Tables_number   1
_chemical_formula_structural   Cs27Sn14Pb13I81
_chemical_formula_sum   'Cs27 Sn14 Pb13 I81'
_cell_volume   6833.36223017
_cell_formula_units_Z   1
loop_
 _symmetry_equiv_pos_site_id
 _symmetry_equiv_pos_as_xyz
  1  'x, y, z'
loop_
 _atom_site_type_symbol
 _atom_site_label
 _atom_site_symmetry_multiplicity
 _atom_site_fract_x
 _atom_site_fract_y
 _atom_site_fract_z
 _atom_site_occupancy
  Cs  Cs0  1  0.00727395  -0.00027366  0.00188062  1
  Cs  Cs1  1  -0.00087189  -0.00196611  0.33335686  1
  Cs  Cs2  1  -0.00384241  -0.00016782  0.66443896  1
  Cs  Cs3  1  0.00127474  0.33434635  0.00061655  1
  Cs  Cs4  1  0.00147607  0.33435737  0.33469466  1
  Cs  Cs5  1  -0.00154903  0.33479688  0.66463119  1
  Cs  Cs6  1  -0.00318272  0.66608652  -0.00147840  1
  Cs  Cs7  1  0.00110611  0.66595306  0.33432010  1
  Cs  Cs8  1  0.00047168  0.66475717  0.66814898  1
  Cs  Cs9  1  0.32957751  0.00125611  0.00120745  1
  Cs  Cs10  1  0.33325221  0.00101790  0.33125652  1
  Cs  Cs11  1  0.33142120  -0.00053290  0.66828133  1
  Cs  Cs12  1  0.33232269  0.33067196  -0.00121323  1
  Cs  Cs13  1  0.33406829  0.33343074  0.33517031  1
  Cs  Cs14  1  0.33365450  0.33423366  0.66479270  1
  Cs  Cs15  1  0.33447294  0.66816568  -0.00252909  1
  Cs  Cs16  1  0.33653811  0.66715674  0.33780439  1
  Cs  Cs17  1  0.33418798  0.66697734  0.66591525  1
  Cs  Cs18  1  0.66534148  -0.00268633  0.00164211  1
  Cs  Cs19  1  0.66764069  0.00017416  0.33257899  1
  Cs  Cs20  1  0.67110208  0.00258269  0.66562889  1
  Cs  Cs21  1  0.66615456  0.33261823  0.00162444  1
  Cs  Cs22  1  0.66408741  0.33357601  0.32933619  1
  Cs  Cs23  1  0.66934693  0.32986933  0.66853241  1
  Cs  Cs24  1  0.66776681  0.66780979  0.00049444  1
  Cs  Cs25  1  0.66186596  0.66729797  0.33098909  1
  Cs  Cs26  1  0.66533864  0.66781240  0.66835876  1
  Sn  Sn27  1  0.50039023  0.50035772  0.83352537  1
  Sn  Sn28  1  0.50066710  0.16588117  0.16725292  1
  Sn  Sn29  1  0.83318117  0.50023568  0.50035354  1
  Sn  Sn30  1  0.16725719  0.16705971  0.50006273  1
  Sn  Sn31  1  0.83259453  0.83282274  0.83424546  1
  Sn  Sn32  1  0.83303633  0.16592543  0.16629043  1
  Sn  Sn33  1  0.16605834  0.49948503  0.49992926  1
  Sn  Sn34  1  0.49943528  0.16663741  0.49952363  1
  Sn  Sn35  1  0.50092897  0.83285673  0.83411373  1
  Sn  Sn36  1  0.16666085  0.49999999  0.83339988  1
  Sn  Sn37  1  0.83279559  0.83412900  0.16583354  1
  Sn  Sn38  1  0.50058412  0.83410262  0.16585250  1
  Sn  Sn39  1  0.83293923  0.50045858  0.83257311  1
  Sn  Sn40  1  0.16706598  0.50042389  0.16683486  1
  Pb  Pb41  1  0.50033412  0.49808345  0.50254262  1
  Pb  Pb42  1  0.83333020  0.16617089  0.83623287  1
  Pb  Pb43  1  0.16638523  0.83136161  0.83327397  1
  Pb  Pb44  1  0.16636772  0.16913848  0.83023410  1
  Pb  Pb45  1  0.83469917  0.50046787  0.16655640  1
  Pb  Pb46  1  0.16663455  0.83318825  0.50006223  1
  Pb  Pb47  1  0.83329676  0.16894195  0.49747282  1
  Pb  Pb48  1  0.16686968  0.16865089  0.16856695  1
  Pb  Pb49  1  0.16689022  0.83077000  0.16672870  1
  Pb  Pb50  1  0.49768426  0.50014429  0.16435430  1
  Pb  Pb51  1  0.50015387  0.16571066  0.83371665  1
  Pb  Pb52  1  0.50014678  0.83629112  0.50044238  1
  Pb  Pb53  1  0.83312873  0.83050035  0.49987672  1
  I  I54  1  0.16606671  0.00005371  0.16906919  1
  I  I55  1  0.17144168  0.00342558  0.49815335  1
  I  I56  1  0.16724784  -0.00008868  0.83194795  1
  I  I57  1  0.16569764  0.33673319  0.16403486  1
  I  I58  1  0.16692518  0.33488375  0.50043198  1
  I  I59  1  0.16695902  0.33813633  0.83621287  1
  I  I60  1  0.16554758  0.66253748  0.16874263  1
  I  I61  1  0.16230507  0.66251833  0.50060852  1
  I  I62  1  0.16667204  0.66250088  0.83028308  1
  I  I63  1  0.50350062  -0.00015400  0.16498585  1
  I  I64  1  0.49372028  0.00424313  0.50035022  1
  I  I65  1  0.50643648  -0.00348035  0.83364583  1
  I  I66  1  0.50306185  0.33076270  0.16912325  1
  I  I67  1  0.49834838  0.33035071  0.49444176  1
  I  I68  1  0.49922986  0.33606626  0.83303609  1
  I  I69  1  0.50407561  0.66940610  0.16418751  1
  I  I70  1  0.49894527  0.66656898  0.49705025  1
  I  I71  1  0.49995514  0.66652769  0.83857935  1
  I  I72  1  0.82962837  -0.00072217  0.16229636  1
  I  I73  1  0.83456070  0.00015866  0.50310791  1
  I  I74  1  0.82603328  -0.00358418  0.83422565  1
  I  I75  1  0.83016422  0.33146435  0.16758827  1
  I  I76  1  0.83566276  0.33686873  0.50532909  1
  I  I77  1  0.83367742  0.33674227  0.83053187  1
  I  I78  1  0.82994264  0.66936781  0.16538380  1
  I  I79  1  0.84105022  0.66244435  0.49968184  1
  I  I80  1  0.83344959  0.66574973  0.83583779  1
  I  I81  1  0.16745902  0.16939015  0.00022400  1
  I  I82  1  0.16801295  0.17541698  0.33621233  1
  I  I83  1  0.17324438  0.17227096  0.66221807  1
  I  I84  1  0.16581219  0.50117912  -0.00099483  1
  I  I85  1  0.16082808  0.49626261  0.33453863  1
  I  I86  1  0.16543759  0.49604148  0.66670338  1
  I  I87  1  0.16678503  0.83126479  0.00003585  1
  I  I88  1  0.16631421  0.82818932  0.33309945  1
  I  I89  1  0.16745829  0.83196443  0.66689787  1
  I  I90  1  0.50463715  0.16688531  0.00308613  1
  I  I91  1  0.49969070  0.16258810  0.33223279  1
  I  I92  1  0.49459739  0.16887550  0.66426610  1
  I  I93  1  0.50098352  0.49895587  -0.00367494  1
  I  I94  1  0.49934904  0.50220865  0.33323988  1
  I  I95  1  0.49568499  0.50460365  0.67054263  1
  I  I96  1  0.50417996  0.83406075  0.00016510  1
  I  I97  1  0.50422322  0.83453421  0.33011316  1
  I  I98  1  0.50325956  0.82903947  0.67018264  1
  I  I99  1  0.82599864  0.16949014  0.00405729  1
  I  I100  1  0.83209054  0.16258318  0.32976912  1
  I  I101  1  0.83346844  0.16485258  0.66649261  1
  I  I102  1  0.83492915  0.50085176  -0.00282457  1
  I  I103  1  0.84018080  0.49870110  0.33531488  1
  I  I104  1  0.83833961  0.50408032  0.66797926  1
  I  I105  1  0.82874505  0.82962305  -0.00022899  1
  I  I106  1  0.82942545  0.83594219  0.32990875  1
  I  I107  1  0.82943092  0.83039476  0.67003306  1
  I  I108  1  -0.00240271  0.16383055  0.16699489  1
  I  I109  1  0.00231389  0.17096077  0.49909651  1
  I  I110  1  -0.00021608  0.16633600  0.83443172  1
  I  I111  1  0.00261011  0.49910665  0.16315842  1
  I  I112  1  0.00101281  0.49458110  0.50433222  1
  I  I113  1  -0.00036714  0.50350832  0.83235790  1
  I  I114  1  -0.00327517  0.83661991  0.16215286  1
  I  I115  1  -0.00034718  0.83791021  0.49950479  1
  I  I116  1  -0.00354699  0.82859945  0.83793827  1
  I  I117  1  0.33622735  0.16356833  0.16829463  1
  I  I118  1  0.33333104  0.17364170  0.49433537  1
  I  I119  1  0.33344062  0.16706074  0.83773618  1
  I  I120  1  0.32995502  0.49923746  0.16765285  1
  I  I121  1  0.33067676  0.49752347  0.50072929  1
  I  I122  1  0.33331290  0.50344874  0.83368176  1
  I  I123  1  0.33680338  0.83713867  0.16190287  1
  I  I124  1  0.33366534  0.82810433  0.49991152  1
  I  I125  1  0.33659684  0.82931634  0.83742988  1
  I  I126  1  0.66579326  0.16469666  0.17274170  1
  I  I127  1  0.66428348  0.16809751  0.49808869  1
  I  I128  1  0.66662614  0.17446754  0.82730024  1
  I  I129  1  0.66641946  0.49872083  0.16753356  1
  I  I130  1  0.66918062  0.49875486  0.50452945  1
  I  I131  1  0.66730840  0.50381671  0.82868890  1
  I  I132  1  0.66655269  0.83645620  0.16256106  1
  I  I133  1  0.66663452  0.83252577  0.50013137  1
  I  I134  1  0.66672670  0.82312269  0.83799417  1
