# generated using pymatgen
data_Cs27Sn13Pb14I81
_symmetry_space_group_name_H-M   'P 1'
_cell_length_a   18.97469752
_cell_length_b   18.97936131
_cell_length_c   18.97845994
_cell_angle_alpha   89.99970359
_cell_angle_beta   90.00070700
_cell_angle_gamma   90.00089812
_symmetry_Int_Tables_number   1
_chemical_formula_structural   Cs27Sn13Pb14I81
_chemical_formula_sum   'Cs27 Sn13 Pb14 I81'
_cell_volume   6834.66798647
_cell_formula_units_Z   1
loop_
 _symmetry_equiv_pos_site_id
 _symmetry_equiv_pos_as_xyz
  1  'x, y, z'
loop_
 _atom_site_type_symbol
 _atom_site_label
 _atom_site_symmetry_multiplicity
 _atom_site_fract_x
 _atom_site_fract_y
 _atom_site_fract_z
 _atom_site_occupancy
  Cs  Cs0  1  0.00134486  -0.00133027  0.00094651  1
  Cs  Cs1  1  -0.00106664  -0.00137387  0.33272504  1
  Cs  Cs2  1  -0.00158523  0.00178876  0.66613852  1
  Cs  Cs3  1  0.00078567  0.33740633  -0.00102489  1
  Cs  Cs4  1  0.00137382  0.33212600  0.33429397  1
  Cs  Cs5  1  -0.00073615  0.33147596  0.66688635  1
  Cs  Cs6  1  0.00810640  0.66310286  0.00490972  1
  Cs  Cs7  1  0.00115176  0.66902410  0.33129745  1
  Cs  Cs8  1  -0.00103082  0.66719225  0.66696954  1
  Cs  Cs9  1  0.33296427  -0.00092302  -0.00449294  1
  Cs  Cs10  1  0.33482254  0.00449738  0.33754026  1
  Cs  Cs11  1  0.33989650  -0.00046243  0.66787822  1
  Cs  Cs12  1  0.33368431  0.33221260  0.00027236  1
  Cs  Cs13  1  0.33265926  0.33160563  0.33510410  1
  Cs  Cs14  1  0.33275454  0.33118591  0.66461440  1
  Cs  Cs15  1  0.32740250  0.66883953  0.00043750  1
  Cs  Cs16  1  0.33506401  0.66555782  0.33246868  1
  Cs  Cs17  1  0.33390686  0.66906827  0.66821156  1
  Cs  Cs18  1  0.66633139  0.00439363  0.00099893  1
  Cs  Cs19  1  0.66549700  0.00024805  0.32983286  1
  Cs  Cs20  1  0.66668145  -0.00322499  0.66850937  1
  Cs  Cs21  1  0.66685648  0.33251390  0.00234560  1
  Cs  Cs22  1  0.66601994  0.33375849  0.32972295  1
  Cs  Cs23  1  0.66945611  0.33548007  0.66862768  1
  Cs  Cs24  1  0.66762904  0.66307401  0.00346598  1
  Cs  Cs25  1  0.66478532  0.66681503  0.33421969  1
  Cs  Cs26  1  0.66722786  0.66758464  0.66525825  1
  Sn  Sn27  1  0.16631385  0.83283793  0.50035525  1
  Sn  Sn28  1  0.16647998  0.50110048  0.50027927  1
  Sn  Sn29  1  0.49985277  0.50013648  0.83325908  1
  Sn  Sn30  1  0.83397975  0.83339266  0.50057547  1
  Sn  Sn31  1  0.83423945  0.16588665  0.83259386  1
  Sn  Sn32  1  0.83307024  0.16637238  0.50050877  1
  Sn  Sn33  1  0.83365632  0.50015771  0.49999187  1
  Sn  Sn34  1  0.49975902  0.50089219  0.16653635  1
  Sn  Sn35  1  0.50000526  0.83301399  0.16651095  1
  Sn  Sn36  1  0.83370391  0.83330158  0.83347627  1
  Sn  Sn37  1  0.49996990  0.50002596  0.50036280  1
  Sn  Sn38  1  0.16594730  0.16656112  0.83392771  1
  Sn  Sn39  1  0.16632215  0.16652859  0.16559696  1
  Pb  Pb40  1  0.16438178  0.83539442  0.83093320  1
  Pb  Pb41  1  0.50271050  0.83085265  0.83575421  1
  Pb  Pb42  1  0.50364294  0.16921285  0.50020008  1
  Pb  Pb43  1  0.49765380  0.16670277  0.16658567  1
  Pb  Pb44  1  0.50074537  0.16857834  0.83315478  1
  Pb  Pb45  1  0.83176851  0.83328895  0.16639187  1
  Pb  Pb46  1  0.50038414  0.83149200  0.49878340  1
  Pb  Pb47  1  0.83563665  0.16664172  0.16602804  1
  Pb  Pb48  1  0.16486619  0.16623494  0.50072569  1
  Pb  Pb49  1  0.16899769  0.83549565  0.16918558  1
  Pb  Pb50  1  0.83215043  0.50023513  0.83182329  1
  Pb  Pb51  1  0.16873092  0.49806720  0.83082226  1
  Pb  Pb52  1  0.83159033  0.50010439  0.16938858  1
  Pb  Pb53  1  0.16897990  0.49826981  0.16909386  1
  I  I54  1  0.16868806  0.00313849  0.16576071  1
  I  I55  1  0.16121111  -0.00238136  0.49860362  1
  I  I56  1  0.16590604  0.00345875  0.83476048  1
  I  I57  1  0.16841511  0.33051058  0.16598007  1
  I  I58  1  0.16705048  0.33577478  0.49952957  1
  I  I59  1  0.16027151  0.33010113  0.83439076  1
  I  I60  1  0.16616054  0.66668445  0.16662533  1
  I  I61  1  0.16231871  0.66601821  0.49930421  1
  I  I62  1  0.16625654  0.66672047  0.83372139  1
  I  I63  1  0.50011965  -0.00253256  0.16825935  1
  I  I64  1  0.49835942  -0.00018668  0.49691924  1
  I  I65  1  0.49842163  -0.00023076  0.83552461  1
  I  I66  1  0.49950293  0.33658646  0.16832073  1
  I  I67  1  0.49787950  0.33798141  0.49669097  1
  I  I68  1  0.50224046  0.33674197  0.83435745  1
  I  I69  1  0.50116073  0.66527610  0.16881257  1
  I  I70  1  0.50444708  0.66300674  0.50113403  1
  I  I71  1  0.50229147  0.66302980  0.82888784  1
  I  I72  1  0.82922057  0.00004002  0.17260839  1
  I  I73  1  0.83961665  -0.00046270  0.50367153  1
  I  I74  1  0.83599835  0.00064304  0.82399972  1
  I  I75  1  0.83012572  0.33329519  0.16780791  1
  I  I76  1  0.83281782  0.33357062  0.50373940  1
  I  I77  1  0.83512664  0.33056570  0.82819213  1
  I  I78  1  0.83437700  0.66668490  0.16620884  1
  I  I79  1  0.83268491  0.66676141  0.50379823  1
  I  I80  1  0.82876194  0.66923462  0.82697789  1
  I  I81  1  0.16173190  0.16714274  -0.00092890  1
  I  I82  1  0.16686228  0.16763143  0.33220150  1
  I  I83  1  0.16350605  0.16845477  0.66898597  1
  I  I84  1  0.16860399  0.49987414  -0.00007065  1
  I  I85  1  0.16778404  0.49994620  0.33743868  1
  I  I86  1  0.16862102  0.50036498  0.66244631  1
  I  I87  1  0.16596817  0.83309276  -0.00009448  1
  I  I88  1  0.16007935  0.83165773  0.33716729  1
  I  I89  1  0.16618253  0.83071518  0.66278716  1
  I  I90  1  0.50438900  0.17043343  -0.00007339  1
  I  I91  1  0.49878311  0.16899330  0.33345321  1
  I  I92  1  0.49370845  0.16866373  0.66658248  1
  I  I93  1  0.50142794  0.50280690  0.00041275  1
  I  I94  1  0.50088891  0.50371030  0.33410359  1
  I  I95  1  0.50111305  0.49788961  0.66536408  1
  I  I96  1  0.50126604  0.82728416  0.00327265  1
  I  I97  1  0.50163302  0.82718118  0.33107556  1
  I  I98  1  0.49843206  0.83202418  0.66673085  1
  I  I99  1  0.83387704  0.16160943  -0.00363706  1
  I  I100  1  0.83449709  0.16699913  0.33646829  1
  I  I101  1  0.83936696  0.16733427  0.66634992  1
  I  I102  1  0.82945084  0.49876643  -0.00016980  1
  I  I103  1  0.83121570  0.49957721  0.33848961  1
  I  I104  1  0.83010717  0.49937076  0.66295743  1
  I  I105  1  0.82915817  0.84050052  -0.00322162  1
  I  I106  1  0.83555033  0.83342088  0.33702399  1
  I  I107  1  0.83561849  0.83420812  0.66504284  1
  I  I108  1  0.00322477  0.16636595  0.16737681  1
  I  I109  1  -0.00313866  0.17166222  0.50111347  1
  I  I110  1  -0.00100302  0.16430009  0.83203185  1
  I  I111  1  0.00051311  0.49875245  0.16795825  1
  I  I112  1  -0.00054163  0.49959952  0.50093619  1
  I  I113  1  0.00008213  0.50037290  0.83101579  1
  I  I114  1  0.00030635  0.83509088  0.16660318  1
  I  I115  1  -0.00119352  0.82844950  0.50250646  1
  I  I116  1  -0.00377023  0.83426663  0.83047038  1
  I  I117  1  0.32996617  0.16770248  0.16250224  1
  I  I118  1  0.33319048  0.16706791  0.49975676  1
  I  I119  1  0.33070805  0.16948153  0.83716908  1
  I  I120  1  0.33712975  0.50279163  0.16987863  1
  I  I121  1  0.33345865  0.50403386  0.49920389  1
  I  I122  1  0.33683160  0.49795996  0.83067832  1
  I  I123  1  0.33662443  0.82768777  0.16854066  1
  I  I124  1  0.33098953  0.82917563  0.49720748  1
  I  I125  1  0.33332872  0.83484473  0.83203344  1
  I  I126  1  0.66660176  0.16746328  0.16728510  1
  I  I127  1  0.67185550  0.16523019  0.50560556  1
  I  I128  1  0.67027050  0.16426555  0.82791579  1
  I  I129  1  0.66291543  0.50189626  0.16916799  1
  I  I130  1  0.66679874  0.49939256  0.49980664  1
  I  I131  1  0.66391596  0.49798763  0.83063517  1
  I  I132  1  0.66379866  0.82899618  0.17004691  1
  I  I133  1  0.66994687  0.83267210  0.50227744  1
  I  I134  1  0.67041453  0.84039119  0.82452857  1
