# generated using pymatgen
data_Cs27Sn14Pb13I81
_symmetry_space_group_name_H-M   'P 1'
_cell_length_a   18.97061737
_cell_length_b   18.98382243
_cell_length_c   18.97218641
_cell_angle_alpha   90.00007764
_cell_angle_beta   90.00159760
_cell_angle_gamma   89.99894940
_symmetry_Int_Tables_number   1
_chemical_formula_structural   Cs27Sn14Pb13I81
_chemical_formula_sum   'Cs27 Sn14 Pb13 I81'
_cell_volume   6832.54515640
_cell_formula_units_Z   1
loop_
 _symmetry_equiv_pos_site_id
 _symmetry_equiv_pos_as_xyz
  1  'x, y, z'
loop_
 _atom_site_type_symbol
 _atom_site_label
 _atom_site_symmetry_multiplicity
 _atom_site_fract_x
 _atom_site_fract_y
 _atom_site_fract_z
 _atom_site_occupancy
  Cs  Cs0  1  -0.00756320  -0.00067927  0.00219001  1
  Cs  Cs1  1  -0.00168304  0.00035925  0.33437806  1
  Cs  Cs2  1  0.00537996  -0.00490973  0.66223077  1
  Cs  Cs3  1  0.00220182  0.33375988  0.00082960  1
  Cs  Cs4  1  0.00048448  0.33411353  0.33368196  1
  Cs  Cs5  1  0.00085618  0.33499052  0.66516746  1
  Cs  Cs6  1  -0.00030600  0.66685611  0.00000909  1
  Cs  Cs7  1  -0.00097280  0.66470713  0.33318902  1
  Cs  Cs8  1  0.00101499  0.66680177  0.66747278  1
  Cs  Cs9  1  0.33424018  0.00110028  0.00155875  1
  Cs  Cs10  1  0.33427002  0.00048424  0.33296970  1
  Cs  Cs11  1  0.33215341  -0.00301860  0.66723865  1
  Cs  Cs12  1  0.33094865  0.33227929  0.00259356  1
  Cs  Cs13  1  0.33459985  0.33271679  0.33144025  1
  Cs  Cs14  1  0.33282672  0.33257222  0.66755187  1
  Cs  Cs15  1  0.33373794  0.66754266  0.00317082  1
  Cs  Cs16  1  0.33688255  0.66629775  0.33042035  1
  Cs  Cs17  1  0.33363870  0.67029968  0.66921105  1
  Cs  Cs18  1  0.67360319  0.00162001  -0.00512498  1
  Cs  Cs19  1  0.66687108  -0.00086176  0.33339722  1
  Cs  Cs20  1  0.66356270  0.00210047  0.66746740  1
  Cs  Cs21  1  0.66720869  0.33153388  -0.01180797  1
  Cs  Cs22  1  0.66529004  0.33336399  0.33461355  1
  Cs  Cs23  1  0.66583706  0.33294387  0.67110089  1
  Cs  Cs24  1  0.66825452  0.66597714  -0.01021031  1
  Cs  Cs25  1  0.66515044  0.66764180  0.33467164  1
  Cs  Cs26  1  0.66582274  0.66504960  0.66893840  1
  Sn  Sn27  1  0.50005353  0.83444712  0.16706036  1
  Sn  Sn28  1  0.16590761  0.50005289  0.16712344  1
  Sn  Sn29  1  0.83392986  0.49992261  0.49883335  1
  Sn  Sn30  1  0.83324801  0.49968141  0.16737176  1
  Sn  Sn31  1  0.83236180  0.83309434  0.49942431  1
  Sn  Sn32  1  0.16666368  0.49932203  0.83361197  1
  Sn  Sn33  1  0.50082626  0.83421167  0.49893456  1
  Sn  Sn34  1  0.83253066  0.16691216  0.49961716  1
  Sn  Sn35  1  0.16691253  0.16627956  0.16607385  1
  Sn  Sn36  1  0.16641745  0.16690535  0.83434983  1
  Sn  Sn37  1  0.16688722  0.83365922  0.16716881  1
  Sn  Sn38  1  0.16657713  0.50005031  0.49966384  1
  Sn  Sn39  1  0.50005734  0.16585327  0.16725859  1
  Sn  Sn40  1  0.50065884  0.16604138  0.49897372  1
  Pb  Pb41  1  0.49751320  0.16644815  0.83355744  1
  Pb  Pb42  1  0.83275659  0.16902696  0.16837582  1
  Pb  Pb43  1  0.83237699  0.83098374  0.16833272  1
  Pb  Pb44  1  0.16669428  0.83367283  0.83681129  1
  Pb  Pb45  1  0.16731944  0.83070029  0.49754039  1
  Pb  Pb46  1  0.83590637  0.49988240  0.83299263  1
  Pb  Pb47  1  0.83692940  0.16658717  0.82966790  1
  Pb  Pb48  1  0.50088974  0.49970803  0.16647404  1
  Pb  Pb49  1  0.16719708  0.16836733  0.49948699  1
  Pb  Pb50  1  0.83352933  0.83344021  0.82956508  1
  Pb  Pb51  1  0.49985453  0.83374346  0.83392549  1
  Pb  Pb52  1  0.49652106  0.49992193  0.83348336  1
  Pb  Pb53  1  0.50037044  0.49995287  0.50001846  1
  I  I54  1  0.17175436  0.00071541  0.16274167  1
  I  I55  1  0.16304476  -0.00011237  0.50114580  1
  I  I56  1  0.16785462  0.00311325  0.83557479  1
  I  I57  1  0.16720036  0.33352309  0.16614890  1
  I  I58  1  0.16301261  0.33638172  0.49617806  1
  I  I59  1  0.16680631  0.33401739  0.83806815  1
  I  I60  1  0.16727189  0.66588505  0.16766694  1
  I  I61  1  0.16270309  0.66268421  0.50042856  1
  I  I62  1  0.16580499  0.66361679  0.83280168  1
  I  I63  1  0.48925667  0.00032227  0.17255930  1
  I  I64  1  0.50734841  0.00021756  0.49615099  1
  I  I65  1  0.49540497  0.00019839  0.83148982  1
  I  I66  1  0.49466221  0.33009660  0.17270082  1
  I  I67  1  0.50152032  0.33028828  0.49536052  1
  I  I68  1  0.50209511  0.33298327  0.83242497  1
  I  I69  1  0.49466062  0.66958450  0.17300182  1
  I  I70  1  0.50175443  0.66965734  0.49500649  1
  I  I71  1  0.49823265  0.66689181  0.83268660  1
  I  I72  1  0.83775990  0.00006068  0.16867166  1
  I  I73  1  0.82952575  0.00007351  0.50016796  1
  I  I74  1  0.83656850  0.00025509  0.83492975  1
  I  I75  1  0.83940823  0.33677383  0.17417782  1
  I  I76  1  0.83451051  0.33387270  0.49595871  1
  I  I77  1  0.83104744  0.33326719  0.83098624  1
  I  I78  1  0.83962873  0.66320517  0.17374391  1
  I  I79  1  0.83403440  0.66613228  0.49558166  1
  I  I80  1  0.83576423  0.66639412  0.83251535  1
  I  I81  1  0.17301312  0.17261963  0.00193905  1
  I  I82  1  0.16769201  0.16824935  0.33036400  1
  I  I83  1  0.16557127  0.17322617  0.66822673  1
  I  I84  1  0.16343769  0.49914333  0.00140079  1
  I  I85  1  0.16203740  0.49935483  0.33243822  1
  I  I86  1  0.16301567  0.49468503  0.66621756  1
  I  I87  1  0.17314832  0.82789044  0.00493869  1
  I  I88  1  0.16786289  0.83432484  0.32957903  1
  I  I89  1  0.16621401  0.83261370  0.66632826  1
  I  I90  1  0.49649958  0.16364999  0.00359222  1
  I  I91  1  0.49656955  0.16321084  0.33329005  1
  I  I92  1  0.50271961  0.16356935  0.66326085  1
  I  I93  1  0.50164772  0.50060228  0.00046204  1
  I  I94  1  0.49408197  0.49957933  0.33329474  1
  I  I95  1  0.49951433  0.50018037  0.66628875  1
  I  I96  1  0.49302312  0.83602329  0.00403983  1
  I  I97  1  0.49908449  0.83720054  0.33350744  1
  I  I98  1  0.50401819  0.83659681  0.66300916  1
  I  I99  1  0.83042368  0.16915098  0.00006913  1
  I  I100  1  0.83556332  0.16580152  0.33669820  1
  I  I101  1  0.82758023  0.17023776  0.66142808  1
  I  I102  1  0.83725642  0.50043814  0.00293758  1
  I  I103  1  0.84326748  0.49978758  0.33452649  1
  I  I104  1  0.83749244  0.50056900  0.66289381  1
  I  I105  1  0.83338273  0.83065762  0.00039414  1
  I  I106  1  0.83288588  0.83436156  0.33665924  1
  I  I107  1  0.82861512  0.82983701  0.66090182  1
  I  I108  1  0.00300570  0.16548672  0.16447039  1
  I  I109  1  -0.00216629  0.16528477  0.50051992  1
  I  I110  1  0.00459441  0.17220759  0.83964461  1
  I  I111  1  0.00200550  0.49996099  0.16775323  1
  I  I112  1  -0.00011244  0.49935678  0.49930674  1
  I  I113  1  0.00394858  0.49557131  0.83330479  1
  I  I114  1  0.00251703  0.83467959  0.16760126  1
  I  I115  1  -0.00228943  0.83567905  0.49899475  1
  I  I116  1  0.00046823  0.83331351  0.83262970  1
  I  I117  1  0.33240698  0.16867620  0.16912020  1
  I  I118  1  0.33593011  0.16347489  0.49933986  1
  I  I119  1  0.32964255  0.17253823  0.83229281  1
  I  I120  1  0.32999901  0.50003760  0.16723646  1
  I  I121  1  0.33029529  0.49911177  0.49895337  1
  I  I122  1  0.32806870  0.49597722  0.83319261  1
  I  I123  1  0.33306020  0.83125501  0.17236570  1
  I  I124  1  0.33617337  0.83728641  0.49842771  1
  I  I125  1  0.33299835  0.83141506  0.82615914  1
  I  I126  1  0.66366581  0.16293673  0.17110583  1
  I  I127  1  0.66621076  0.16810559  0.49365959  1
  I  I128  1  0.66680559  0.16633223  0.83587903  1
  I  I129  1  0.66981712  0.50059616  0.17586855  1
  I  I130  1  0.67000422  0.50035587  0.49352177  1
  I  I131  1  0.66704121  0.50093135  0.83381727  1
  I  I132  1  0.66349342  0.83698521  0.17062090  1
  I  I133  1  0.66631211  0.83176029  0.49343940  1
  I  I134  1  0.66664840  0.83251226  0.83917285  1
