# generated using pymatgen
data_Cs27Sn14Pb13I81
_symmetry_space_group_name_H-M   'P 1'
_cell_length_a   18.98089957
_cell_length_b   18.97401681
_cell_length_c   18.97401680
_cell_angle_alpha   90.00221012
_cell_angle_beta   89.99884997
_cell_angle_gamma   89.99884992
_symmetry_Int_Tables_number   1
_chemical_formula_structural   Cs27Sn14Pb13I81
_chemical_formula_sum   'Cs27 Sn14 Pb13 I81'
_cell_volume   6833.37654343
_cell_formula_units_Z   1
loop_
 _symmetry_equiv_pos_site_id
 _symmetry_equiv_pos_as_xyz
  1  'x, y, z'
loop_
 _atom_site_type_symbol
 _atom_site_label
 _atom_site_symmetry_multiplicity
 _atom_site_fract_x
 _atom_site_fract_y
 _atom_site_fract_z
 _atom_site_occupancy
  Cs  Cs0  1  0.00053518  -0.00105923  -0.00158637  1
  Cs  Cs1  1  -0.00063789  0.00031440  0.33420379  1
  Cs  Cs2  1  0.00021470  -0.00000857  0.66665824  1
  Cs  Cs3  1  -0.00078385  0.33645274  0.00311938  1
  Cs  Cs4  1  0.00004732  0.33254889  0.33318677  1
  Cs  Cs5  1  0.00053506  0.33174703  0.66560740  1
  Cs  Cs6  1  0.00004731  0.66652024  -0.00078461  1
  Cs  Cs7  1  0.00062591  0.66717796  0.33384451  1
  Cs  Cs8  1  -0.00063781  0.66753725  0.66698126  1
  Cs  Cs9  1  0.33355071  -0.00066539  -0.00216342  1
  Cs  Cs10  1  0.33335493  -0.00180936  0.33256975  1
  Cs  Cs11  1  0.33021618  0.00245118  0.66911788  1
  Cs  Cs12  1  0.33640845  0.33373958  0.00040629  1
  Cs  Cs13  1  0.33106036  0.33720619  0.33566777  1
  Cs  Cs14  1  0.33355061  0.33117010  0.66600124  1
  Cs  Cs15  1  0.33106043  0.66900100  0.00387287  1
  Cs  Cs16  1  0.34297745  0.66600643  0.33267314  1
  Cs  Cs17  1  0.33335488  0.66590298  0.66485725  1
  Cs  Cs18  1  0.66565084  0.00064117  0.00210283  1
  Cs  Cs19  1  0.66542037  -0.00084928  0.32888305  1
  Cs  Cs20  1  0.67130123  0.00146792  0.66813445  1
  Cs  Cs21  1  0.66266604  0.33925714  0.00592391  1
  Cs  Cs22  1  0.66878329  0.33183496  0.32907739  1
  Cs  Cs23  1  0.66565110  0.33543614  0.66730786  1
  Cs  Cs24  1  0.66878301  0.66241078  -0.00149816  1
  Cs  Cs25  1  0.65222085  0.67003745  0.33670420  1
  Cs  Cs26  1  0.66542023  0.66221641  0.66581707  1
  Sn  Sn27  1  0.50028898  0.83344637  0.83290653  1
  Sn  Sn28  1  0.16643348  0.83311112  0.83382380  1
  Sn  Sn29  1  0.16540962  0.83424939  0.16616575  1
  Sn  Sn30  1  0.16540957  0.49949909  0.50091607  1
  Sn  Sn31  1  0.16643347  0.16715713  0.49977776  1
  Sn  Sn32  1  0.16562116  0.16718226  0.83384893  1
  Sn  Sn33  1  0.83382274  0.16677584  0.83344253  1
  Sn  Sn34  1  0.83442499  0.83299499  0.16606003  1
  Sn  Sn35  1  0.83442503  0.49939342  0.49966173  1
  Sn  Sn36  1  0.50028893  0.16623987  0.50011299  1
  Sn  Sn37  1  0.83335239  0.83400497  0.83401905  1
  Sn  Sn38  1  0.83335246  0.16735235  0.50067160  1
  Sn  Sn39  1  0.16634932  0.16584373  0.16639011  1
  Sn  Sn40  1  0.16634932  0.49972343  0.83251037  1
  Pb  Pb41  1  0.49998235  0.83638786  0.50305460  1
  Pb  Pb42  1  0.83357290  0.50367325  0.17033982  1
  Pb  Pb43  1  0.49983990  0.49713593  0.50031569  1
  Pb  Pb44  1  0.49677090  0.50250554  0.83317620  1
  Pb  Pb45  1  0.16676253  0.83303439  0.49970104  1
  Pb  Pb46  1  0.16656218  0.50039975  0.16706640  1
  Pb  Pb47  1  0.83535824  0.16511259  0.16616021  1
  Pb  Pb48  1  0.50058623  0.16527670  0.83194335  1
  Pb  Pb49  1  0.50002132  0.49980877  0.16647550  1
  Pb  Pb50  1  0.49983983  0.83364908  0.16380266  1
  Pb  Pb51  1  0.49677089  0.16650950  0.16917228  1
  Pb  Pb52  1  0.83335859  0.83332808  0.49999468  1
  Pb  Pb53  1  0.83535821  0.49949362  0.83177927  1
  I  I54  1  0.16352616  -0.00015442  0.16432484  1
  I  I55  1  0.16529174  0.00343545  0.50252620  1
  I  I56  1  0.16684495  0.00023093  0.83287217  1
  I  I57  1  0.16722875  0.33031867  0.16503318  1
  I  I58  1  0.16691584  0.33184386  0.50292114  1
  I  I59  1  0.16199936  0.33189890  0.83203030  1
  I  I60  1  0.16311875  0.67004281  0.16206219  1
  I  I61  1  0.16116835  0.66362584  0.50415782  1
  I  I62  1  0.16671725  0.66772831  0.83308730  1
  I  I63  1  0.50104658  -0.00003634  0.16921752  1
  I  I64  1  0.49834477  0.00410904  0.49979576  1
  I  I65  1  0.49430362  -0.00276096  0.83150481  1
  I  I66  1  0.49851893  0.33273549  0.16539482  1
  I  I67  1  0.49771997  0.32952986  0.50284344  1
  I  I68  1  0.49945955  0.33324768  0.83159602  1
  I  I69  1  0.49660016  0.66738238  0.16904761  1
  I  I70  1  0.49989148  0.66655137  0.49909515  1
  I  I71  1  0.50162650  0.67088923  0.83324762  1
  I  I72  1  0.83611497  -0.00297246  0.16746233  1
  I  I73  1  0.83579618  0.00339425  0.50184574  1
  I  I74  1  0.83832832  0.00000630  0.82984930  1
  I  I75  1  0.83434058  0.33341122  0.16448193  1
  I  I76  1  0.83475708  0.33146473  0.50611097  1
  I  I77  1  0.83907825  0.33000106  0.82931660  1
  I  I78  1  0.84214964  0.67154556  0.15891023  1
  I  I79  1  0.84030912  0.66397809  0.50068004  1
  I  I80  1  0.83479681  0.66964866  0.83533455  1
  I  I81  1  0.16199923  0.16536352  -0.00143442  1
  I  I82  1  0.16671747  0.16642054  0.33439498  1
  I  I83  1  0.16684491  0.16620562  0.66689762  1
  I  I84  1  0.16722859  0.49836651  -0.00301467  1
  I  I85  1  0.16311905  0.49539557  0.33670946  1
  I  I86  1  0.16352614  0.49765816  0.66651223  1
  I  I87  1  0.16691557  0.83625455  -0.00148945  1
  I  I88  1  0.16116830  0.83749117  0.33029254  1
  I  I89  1  0.16529189  0.83585941  0.67010212  1
  I  I90  1  0.49945963  0.16492999  -0.00008563  1
  I  I91  1  0.50162632  0.16658109  0.33755592  1
  I  I92  1  0.49430383  0.16483732  0.66390571  1
  I  I93  1  0.49851900  0.49872794  -0.00059785  1
  I  I94  1  0.49660011  0.50238073  0.33404902  1
  I  I95  1  0.50104627  0.50255135  0.66663036  1
  I  I96  1  0.49771977  0.83617622  -0.00380343  1
  I  I97  1  0.49989190  0.83242876  0.33321805  1
  I  I98  1  0.49834466  0.83312953  0.67077570  1
  I  I99  1  0.83907833  0.16265014  -0.00333229  1
  I  I100  1  0.83479668  0.16866761  0.33631528  1
  I  I101  1  0.83832820  0.16318278  0.66667291  1
  I  I102  1  0.83434072  0.49781462  0.00007789  1
  I  I103  1  0.84214916  0.49224441  0.33821224  1
  I  I104  1  0.83611532  0.50079520  0.66369423  1
  I  I105  1  0.83475759  0.83944477  -0.00186863  1
  I  I106  1  0.84030869  0.83401284  0.33064475  1
  I  I107  1  0.83579619  0.83517910  0.67006089  1
  I  I108  1  0.00363374  0.16436480  0.17122789  1
  I  I109  1  0.00066150  0.17058580  0.50116250  1
  I  I110  1  0.00122712  0.16099775  0.82766442  1
  I  I111  1  0.00019552  0.49892771  0.16559493  1
  I  I112  1  0.00117384  0.49171847  0.50390176  1
  I  I113  1  0.00363370  0.50456111  0.83103150  1
  I  I114  1  0.00117380  0.83723543  0.15838563  1
  I  I115  1  0.00013323  0.83680367  0.50347025  1
  I  I116  1  0.00066156  0.83449593  0.83725214  1
  I  I117  1  0.32803188  0.15980412  0.16468341  1
  I  I118  1  0.33116763  0.16946109  0.50057483  1
  I  I119  1  0.32967313  0.16526220  0.83192896  1
  I  I120  1  0.33245156  0.50276052  0.16942693  1
  I  I121  1  0.32989099  0.49615071  0.50339474  1
  I  I122  1  0.32803190  0.49801700  0.82647089  1
  I  I123  1  0.32989097  0.83672801  0.16281751  1
  I  I124  1  0.33303485  0.83320579  0.49987225  1
  I  I125  1  0.33116761  0.83390811  0.83612783  1
  I  I126  1  0.66693029  0.16443185  0.16768847  1
  I  I127  1  0.66826184  0.16939709  0.50663615  1
  I  I128  1  0.67015228  0.15976198  0.82642877  1
  I  I129  1  0.66729632  0.50141426  0.16808071  1
  I  I130  1  0.66966660  0.49728483  0.49999693  1
  I  I131  1  0.66693030  0.50102178  0.83109834  1
  I  I132  1  0.66966660  0.83332983  0.16395080  1
  I  I133  1  0.66688976  0.83258044  0.49924768  1
  I  I134  1  0.66826189  0.83996966  0.83606397  1
