# generated using pymatgen
data_Cs27Sn14Pb13I81
_symmetry_space_group_name_H-M   'P 1'
_cell_length_a   18.96405635
_cell_length_b   18.95507620
_cell_length_c   18.96080282
_cell_angle_alpha   90.00009589
_cell_angle_beta   89.99815537
_cell_angle_gamma   90.00032912
_symmetry_Int_Tables_number   1
_chemical_formula_structural   Cs27Sn14Pb13I81
_chemical_formula_sum   'Cs27 Sn14 Pb13 I81'
_cell_volume   6815.74750644
_cell_formula_units_Z   1
loop_
 _symmetry_equiv_pos_site_id
 _symmetry_equiv_pos_as_xyz
  1  'x, y, z'
loop_
 _atom_site_type_symbol
 _atom_site_label
 _atom_site_symmetry_multiplicity
 _atom_site_fract_x
 _atom_site_fract_y
 _atom_site_fract_z
 _atom_site_occupancy
  Cs  Cs0  1  0.00052304  0.00206244  -0.00039869  1
  Cs  Cs1  1  -0.00071893  -0.00402414  0.33328246  1
  Cs  Cs2  1  0.00457820  0.00204271  0.66742588  1
  Cs  Cs3  1  -0.00168957  0.33176903  -0.00202744  1
  Cs  Cs4  1  0.00094044  0.33245433  0.33356652  1
  Cs  Cs5  1  0.00066733  0.33320556  0.66815317  1
  Cs  Cs6  1  -0.00199917  0.66541836  0.00434549  1
  Cs  Cs7  1  -0.00116014  0.67617218  0.33421340  1
  Cs  Cs8  1  -0.00175590  0.66492854  0.66223247  1
  Cs  Cs9  1  0.33619110  -0.00154237  -0.00324833  1
  Cs  Cs10  1  0.33514801  0.00288037  0.33490209  1
  Cs  Cs11  1  0.33382095  -0.00430033  0.66820370  1
  Cs  Cs12  1  0.33308895  0.33540349  0.00231718  1
  Cs  Cs13  1  0.33420158  0.33343916  0.33338138  1
  Cs  Cs14  1  0.33201063  0.33315811  0.66392961  1
  Cs  Cs15  1  0.33227181  0.66624775  0.00068822  1
  Cs  Cs16  1  0.33129616  0.66472957  0.32867320  1
  Cs  Cs17  1  0.33170541  0.67133755  0.67016393  1
  Cs  Cs18  1  0.66590752  0.00004817  0.00131402  1
  Cs  Cs19  1  0.66607205  0.00085426  0.33196977  1
  Cs  Cs20  1  0.66292785  0.00097430  0.66855584  1
  Cs  Cs21  1  0.66860185  0.33288808  -0.00022146  1
  Cs  Cs22  1  0.66497208  0.33311840  0.33553739  1
  Cs  Cs23  1  0.66697005  0.33411685  0.66413905  1
  Cs  Cs24  1  0.66645102  0.66676718  -0.00240443  1
  Cs  Cs25  1  0.66893447  0.66599114  0.33689359  1
  Cs  Cs26  1  0.66829770  0.66510118  0.66803242  1
  Sn  Sn27  1  0.83379290  0.83293267  0.83332497  1
  Sn  Sn28  1  0.16575281  0.16736378  0.49915264  1
  Sn  Sn29  1  0.16654813  0.49959669  0.50029006  1
  Sn  Sn30  1  0.83340104  0.50082907  0.83398603  1
  Sn  Sn31  1  0.49996005  0.16631667  0.16578024  1
  Sn  Sn32  1  0.83405744  0.16677170  0.49926158  1
  Sn  Sn33  1  0.49993660  0.16791192  0.83402614  1
  Sn  Sn34  1  0.50017559  0.83363182  0.16785546  1
  Sn  Sn35  1  0.16659177  0.16681363  0.16726109  1
  Sn  Sn36  1  0.50010823  0.83292286  0.49874031  1
  Sn  Sn37  1  0.83349202  0.16743653  0.16760781  1
  Sn  Sn38  1  0.49988391  0.49885099  0.83339625  1
  Sn  Sn39  1  0.16651070  0.49972323  0.83273284  1
  Sn  Sn40  1  0.83326208  0.49938161  0.16659191  1
  Pb  Pb41  1  0.83530440  0.49820232  0.49985548  1
  Pb  Pb42  1  0.50133364  0.83304822  0.83386381  1
  Pb  Pb43  1  0.16932524  0.16847596  0.83323338  1
  Pb  Pb44  1  0.16328453  0.83015830  0.83348846  1
  Pb  Pb45  1  0.50219719  0.49971741  0.16504598  1
  Pb  Pb46  1  0.49955487  0.16569157  0.49981269  1
  Pb  Pb47  1  0.83136128  0.83642599  0.50241315  1
  Pb  Pb48  1  0.16880198  0.83364384  0.49985840  1
  Pb  Pb49  1  0.83165910  0.16714685  0.83333896  1
  Pb  Pb50  1  0.16946169  0.83658665  0.16651126  1
  Pb  Pb51  1  0.83135042  0.83376847  0.16513440  1
  Pb  Pb52  1  0.16403195  0.49814799  0.16691458  1
  Pb  Pb53  1  0.49744285  0.50266963  0.50254451  1
  I  I54  1  0.16117437  0.00513898  0.17241508  1
  I  I55  1  0.16406701  0.00357150  0.49565944  1
  I  I56  1  0.16740389  0.00031401  0.83255457  1
  I  I57  1  0.17164109  0.32974756  0.16762315  1
  I  I58  1  0.16412650  0.33229091  0.50102296  1
  I  I59  1  0.16165464  0.33665397  0.83237206  1
  I  I60  1  0.16692914  0.66639716  0.16664793  1
  I  I61  1  0.16837911  0.66381724  0.50595651  1
  I  I62  1  0.17332102  0.66172105  0.82782306  1
  I  I63  1  0.50184755  0.00190984  0.16414208  1
  I  I64  1  0.49923718  -0.00200395  0.50186955  1
  I  I65  1  0.50258446  0.00222981  0.83426265  1
  I  I66  1  0.49903496  0.33011793  0.16374207  1
  I  I67  1  0.50113582  0.33346862  0.49924922  1
  I  I68  1  0.50265596  0.33339228  0.83853846  1
  I  I69  1  0.50233863  0.66886925  0.16803285  1
  I  I70  1  0.49977737  0.67015884  0.49548617  1
  I  I71  1  0.49925377  0.66383063  0.83293291  1
  I  I72  1  0.83404194  0.00346669  0.16812675  1
  I  I73  1  0.83838741  0.00441590  0.49538286  1
  I  I74  1  0.82832427  -0.00137358  0.83328669  1
  I  I75  1  0.83120548  0.33204920  0.16331911  1
  I  I76  1  0.83316831  0.32996123  0.50082305  1
  I  I77  1  0.83431021  0.33619970  0.83485132  1
  I  I78  1  0.83171444  0.66422858  0.16268233  1
  I  I79  1  0.83415829  0.66664306  0.49821813  1
  I  I80  1  0.83019939  0.66453342  0.83822011  1
  I  I81  1  0.16416787  0.16809512  0.00271811  1
  I  I82  1  0.16864942  0.17276731  0.33343058  1
  I  I83  1  0.16301878  0.16899380  0.66400425  1
  I  I84  1  0.16800979  0.49855852  -0.00267123  1
  I  I85  1  0.16636411  0.49654460  0.33576806  1
  I  I86  1  0.16519371  0.49369047  0.66726244  1
  I  I87  1  0.17009900  0.83377844  -0.00004582  1
  I  I88  1  0.16452787  0.82776296  0.33321763  1
  I  I89  1  0.17079320  0.83855658  0.66672573  1
  I  I90  1  0.50072043  0.16415347  0.00111297  1
  I  I91  1  0.50044719  0.16363027  0.33042447  1
  I  I92  1  0.50132025  0.16796690  0.66891428  1
  I  I93  1  0.49621715  0.50045682  -0.00342985  1
  I  I94  1  0.50017024  0.49821618  0.33334282  1
  I  I95  1  0.50555703  0.49527465  0.67086890  1
  I  I96  1  0.50201136  0.83628663  0.00236128  1
  I  I97  1  0.50064176  0.84106468  0.33233346  1
  I  I98  1  0.50115281  0.83452826  0.66525023  1
  I  I99  1  0.83471131  0.16767457  0.00274751  1
  I  I100  1  0.83100891  0.17183212  0.33189689  1
  I  I101  1  0.83573682  0.16651068  0.66453158  1
  I  I102  1  0.83481365  0.49762678  -0.00101674  1
  I  I103  1  0.83349459  0.49637000  0.33076461  1
  I  I104  1  0.83167687  0.50187383  0.66960254  1
  I  I105  1  0.82930906  0.83307151  -0.00271301  1
  I  I106  1  0.83297463  0.83081688  0.33333870  1
  I  I107  1  0.82944766  0.82745784  0.67001281  1
  I  I108  1  -0.00069253  0.17199974  0.17030507  1
  I  I109  1  0.00038153  0.16979336  0.49402633  1
  I  I110  1  0.00006090  0.16663072  0.83526558  1
  I  I111  1  -0.00379897  0.49413155  0.16009294  1
  I  I112  1  0.00316416  0.49718349  0.50620319  1
  I  I113  1  -0.00058477  0.50392336  0.83322567  1
  I  I114  1  -0.00030431  0.83348521  0.16486690  1
  I  I115  1  -0.00013654  0.83235873  0.50185382  1
  I  I116  1  -0.00445964  0.83105597  0.83361224  1
  I  I117  1  0.33383684  0.16265834  0.16689061  1
  I  I118  1  0.33066601  0.16924962  0.49731506  1
  I  I119  1  0.33728119  0.17035250  0.83668905  1
  I  I120  1  0.33327552  0.49953977  0.16504587  1
  I  I121  1  0.32960669  0.49247431  0.50426307  1
  I  I122  1  0.33353283  0.49455902  0.82919478  1
  I  I123  1  0.33773510  0.83714425  0.16849405  1
  I  I124  1  0.33669193  0.83639807  0.49864599  1
  I  I125  1  0.33346205  0.83308308  0.83294314  1
  I  I126  1  0.66673709  0.16624434  0.16613679  1
  I  I127  1  0.66863402  0.16493450  0.49775921  1
  I  I128  1  0.66367693  0.17030670  0.83639202  1
  I  I129  1  0.67015289  0.49461202  0.16057463  1
  I  I130  1  0.66674846  0.49894926  0.50147918  1
  I  I131  1  0.66715446  0.50040276  0.83826459  1
  I  I132  1  0.66348751  0.83998722  0.16832997  1
  I  I133  1  0.66366434  0.83562759  0.49711224  1
  I  I134  1  0.66888168  0.82819662  0.83338088  1
