# generated using pymatgen
data_Cs27Sn14Pb13I81
_symmetry_space_group_name_H-M   'P 1'
_cell_length_a   18.96964921
_cell_length_b   18.98115845
_cell_length_c   18.97634895
_cell_angle_alpha   89.99890373
_cell_angle_beta   90.00150700
_cell_angle_gamma   89.99964508
_symmetry_Int_Tables_number   1
_chemical_formula_structural   Cs27Sn14Pb13I81
_chemical_formula_sum   'Cs27 Sn14 Pb13 I81'
_cell_volume   6832.73649113
_cell_formula_units_Z   1
loop_
 _symmetry_equiv_pos_site_id
 _symmetry_equiv_pos_as_xyz
  1  'x, y, z'
loop_
 _atom_site_type_symbol
 _atom_site_label
 _atom_site_symmetry_multiplicity
 _atom_site_fract_x
 _atom_site_fract_y
 _atom_site_fract_z
 _atom_site_occupancy
  Cs  Cs0  1  0.00145831  -0.00027910  -0.00269319  1
  Cs  Cs1  1  0.00132308  0.00277155  0.33549759  1
  Cs  Cs2  1  0.00026372  0.00012806  0.66596346  1
  Cs  Cs3  1  0.00131053  0.33393760  0.00105652  1
  Cs  Cs4  1  -0.00085025  0.33315797  0.33307233  1
  Cs  Cs5  1  -0.00067034  0.33374564  0.66548990  1
  Cs  Cs6  1  0.00075427  0.66585625  -0.00082912  1
  Cs  Cs7  1  -0.00081064  0.66560968  0.33519782  1
  Cs  Cs8  1  0.00164644  0.66493461  0.66299571  1
  Cs  Cs9  1  0.32922145  -0.00063162  0.00147673  1
  Cs  Cs10  1  0.33263059  -0.00237006  0.33577771  1
  Cs  Cs11  1  0.33679726  -0.00116108  0.66278419  1
  Cs  Cs12  1  0.33126261  0.33521800  0.00209093  1
  Cs  Cs13  1  0.33439717  0.33181400  0.33013349  1
  Cs  Cs14  1  0.34041611  0.33505493  0.66931622  1
  Cs  Cs15  1  0.33234584  0.66503740  -0.00256789  1
  Cs  Cs16  1  0.33317991  0.67015907  0.33515059  1
  Cs  Cs17  1  0.33889127  0.66632842  0.66728044  1
  Cs  Cs18  1  0.66684047  -0.00845930  -0.00703259  1
  Cs  Cs19  1  0.66555555  -0.00084026  0.33163728  1
  Cs  Cs20  1  0.66207278  0.00416343  0.67788628  1
  Cs  Cs21  1  0.66819403  0.33201337  0.00222295  1
  Cs  Cs22  1  0.66831706  0.33444196  0.33364850  1
  Cs  Cs23  1  0.66112194  0.32991313  0.66697406  1
  Cs  Cs24  1  0.66732696  0.67651274  0.00276629  1
  Cs  Cs25  1  0.66757889  0.66589506  0.33025948  1
  Cs  Cs26  1  0.66026431  0.66571757  0.66789377  1
  Sn  Sn27  1  0.16632214  0.16637863  0.83167159  1
  Sn  Sn28  1  0.16660569  0.50100994  0.16777486  1
  Sn  Sn29  1  0.16647913  0.49876486  0.49929918  1
  Sn  Sn30  1  0.83332677  0.49984664  0.83323770  1
  Sn  Sn31  1  0.83381840  0.16650282  0.49950079  1
  Sn  Sn32  1  0.83326106  0.49939829  0.16639795  1
  Sn  Sn33  1  0.50022350  0.49932539  0.16681740  1
  Sn  Sn34  1  0.16604068  0.83388288  0.83338526  1
  Sn  Sn35  1  0.50168927  0.16695390  0.16667715  1
  Sn  Sn36  1  0.83231927  0.16677006  0.16688857  1
  Sn  Sn37  1  0.16584301  0.83207456  0.16624703  1
  Sn  Sn38  1  0.83389419  0.49983427  0.50039421  1
  Sn  Sn39  1  0.83303700  0.83379029  0.50023625  1
  Sn  Sn40  1  0.16619405  0.16811548  0.50119695  1
  Pb  Pb41  1  0.50413400  0.83354005  0.49976012  1
  Pb  Pb42  1  0.50368889  0.49982508  0.83689015  1
  Pb  Pb43  1  0.50029448  0.16676093  0.49767762  1
  Pb  Pb44  1  0.83566381  0.83382633  0.16816876  1
  Pb  Pb45  1  0.16549966  0.83310445  0.50024498  1
  Pb  Pb46  1  0.16606871  0.16705847  0.16728546  1
  Pb  Pb47  1  0.83572456  0.83070246  0.83040591  1
  Pb  Pb48  1  0.83512612  0.16844807  0.83346602  1
  Pb  Pb49  1  0.16539470  0.49982562  0.83270426  1
  Pb  Pb50  1  0.49662607  0.83324727  0.83343295  1
  Pb  Pb51  1  0.50007706  0.49994584  0.49753248  1
  Pb  Pb52  1  0.49668093  0.16691335  0.83686055  1
  Pb  Pb53  1  0.49718309  0.83344858  0.16679968  1
  I  I54  1  0.16657221  -0.00152619  0.16593917  1
  I  I55  1  0.16192954  0.00252659  0.49939494  1
  I  I56  1  0.16480105  0.00024868  0.83583673  1
  I  I57  1  0.16623874  0.33621368  0.16675656  1
  I  I58  1  0.15799019  0.33373736  0.49858137  1
  I  I59  1  0.16434733  0.33113227  0.83379486  1
  I  I60  1  0.16609010  0.66471132  0.16663024  1
  I  I61  1  0.16130439  0.66374616  0.49795265  1
  I  I62  1  0.16381033  0.66845818  0.83568394  1
  I  I63  1  0.50297669  0.00306451  0.16777001  1
  I  I64  1  0.49661447  0.00031685  0.49486547  1
  I  I65  1  0.50398574  0.00024909  0.83635006  1
  I  I66  1  0.49802412  0.33414581  0.16753058  1
  I  I67  1  0.50239214  0.33343952  0.50118144  1
  I  I68  1  0.49620941  0.33340035  0.83136155  1
  I  I69  1  0.50354169  0.66338577  0.16705102  1
  I  I70  1  0.49789641  0.66643998  0.49746984  1
  I  I71  1  0.49784729  0.66633232  0.83500723  1
  I  I72  1  0.83152475  0.00312207  0.17233211  1
  I  I73  1  0.84000413  0.00163614  0.49293514  1
  I  I74  1  0.83313938  -0.00004825  0.83362905  1
  I  I75  1  0.83536587  0.33451074  0.17073993  1
  I  I76  1  0.83865769  0.33374449  0.49763260  1
  I  I77  1  0.83805594  0.33625923  0.83119582  1
  I  I78  1  0.83141837  0.66333984  0.16775312  1
  I  I79  1  0.83906421  0.66470047  0.49896327  1
  I  I80  1  0.83694821  0.66289578  0.83613969  1
  I  I81  1  0.16690291  0.16580423  -0.00131404  1
  I  I82  1  0.16518401  0.16724709  0.33582588  1
  I  I83  1  0.15902498  0.16634744  0.66524854  1
  I  I84  1  0.16526742  0.50007434  0.00289312  1
  I  I85  1  0.16173582  0.49984807  0.33263799  1
  I  I86  1  0.15969106  0.49959708  0.66366107  1
  I  I87  1  0.16591036  0.83397956  0.00059310  1
  I  I88  1  0.16572433  0.83216390  0.33118649  1
  I  I89  1  0.16325979  0.83437743  0.66874507  1
  I  I90  1  0.50453025  0.17231647  0.00470294  1
  I  I91  1  0.49843805  0.17181936  0.32978446  1
  I  I92  1  0.50224016  0.16522848  0.66683527  1
  I  I93  1  0.49593347  0.49505654  0.00493987  1
  I  I94  1  0.50370057  0.49576458  0.32946850  1
  I  I95  1  0.49903535  0.50164413  0.66675487  1
  I  I96  1  0.50362355  0.83301855  0.00038404  1
  I  I97  1  0.49487481  0.83335139  0.33291460  1
  I  I98  1  0.49714989  0.83275394  0.66667294  1
  I  I99  1  0.83269556  0.17286927  0.00305242  1
  I  I100  1  0.83643085  0.17146398  0.33357592  1
  I  I101  1  0.83736313  0.16795972  0.66345108  1
  I  I102  1  0.83518777  0.49444694  0.00194531  1
  I  I103  1  0.83436256  0.49945769  0.33314412  1
  I  I104  1  0.84162686  0.50065904  0.66496640  1
  I  I105  1  0.83286661  0.83277788  -0.00017038  1
  I  I106  1  0.83794607  0.82883120  0.33598864  1
  I  I107  1  0.83826130  0.83385854  0.66264881  1
  I  I108  1  -0.00265498  0.17034253  0.16804809  1
  I  I109  1  -0.00053179  0.16791672  0.49673275  1
  I  I110  1  0.00314731  0.16392464  0.83537006  1
  I  I111  1  -0.00046516  0.49947495  0.16759364  1
  I  I112  1  -0.00068827  0.49945921  0.49484949  1
  I  I113  1  -0.00241302  0.49970653  0.83808317  1
  I  I114  1  0.00361359  0.82913451  0.16368770  1
  I  I115  1  -0.00238405  0.83218959  0.49891004  1
  I  I116  1  0.00334288  0.83723499  0.83855350  1
  I  I117  1  0.33471514  0.17033841  0.16554782  1
  I  I118  1  0.32986157  0.17053166  0.50179304  1
  I  I119  1  0.32851099  0.16374975  0.82860899  1
  I  I120  1  0.33210798  0.49879780  0.17086832  1
  I  I121  1  0.32982550  0.49611012  0.49572615  1
  I  I122  1  0.33335522  0.50085389  0.83357350  1
  I  I123  1  0.32894739  0.83043232  0.16391245  1
  I  I124  1  0.33302711  0.83342908  0.49999991  1
  I  I125  1  0.32838781  0.83554895  0.83741662  1
  I  I126  1  0.66836141  0.17650499  0.17358869  1
  I  I127  1  0.67053960  0.16885924  0.49685637  1
  I  I128  1  0.66677366  0.16837513  0.83063249  1
  I  I129  1  0.66820915  0.49451845  0.16750917  1
  I  I130  1  0.67066486  0.49949621  0.49930094  1
  I  I131  1  0.67163769  0.49852729  0.82933437  1
  I  I132  1  0.66699726  0.83078008  0.16901171  1
  I  I133  1  0.67222255  0.83063684  0.49682262  1
  I  I134  1  0.66711519  0.83226302  0.83224968  1
