# generated using pymatgen
data_Cs27Sn13Pb14I81
_symmetry_space_group_name_H-M   'P 1'
_cell_length_a   18.98171053
_cell_length_b   18.97573047
_cell_length_c   18.97118165
_cell_angle_alpha   90.00063992
_cell_angle_beta   89.99918277
_cell_angle_gamma   90.00015741
_symmetry_Int_Tables_number   1
_chemical_formula_structural   Cs27Sn13Pb14I81
_chemical_formula_sum   'Cs27 Sn13 Pb14 I81'
_cell_volume   6833.26450035
_cell_formula_units_Z   1
loop_
 _symmetry_equiv_pos_site_id
 _symmetry_equiv_pos_as_xyz
  1  'x, y, z'
loop_
 _atom_site_type_symbol
 _atom_site_label
 _atom_site_symmetry_multiplicity
 _atom_site_fract_x
 _atom_site_fract_y
 _atom_site_fract_z
 _atom_site_occupancy
  Cs  Cs0  1  -0.00126594  -0.00744656  -0.00114560  1
  Cs  Cs1  1  0.00321359  0.00143267  0.33222979  1
  Cs  Cs2  1  -0.00187244  0.00066192  0.66895287  1
  Cs  Cs3  1  0.00037281  0.33234772  0.00055400  1
  Cs  Cs4  1  0.00025139  0.33348849  0.33465714  1
  Cs  Cs5  1  -0.00093439  0.33266785  0.66480224  1
  Cs  Cs6  1  -0.00050057  0.67436204  -0.00071002  1
  Cs  Cs7  1  -0.00171947  0.66468525  0.33238857  1
  Cs  Cs8  1  0.00244989  0.66622537  0.66780147  1
  Cs  Cs9  1  0.33306523  0.00215749  0.00846185  1
  Cs  Cs10  1  0.33314669  -0.00489298  0.32664705  1
  Cs  Cs11  1  0.33604415  -0.00037721  0.66532804  1
  Cs  Cs12  1  0.33516460  0.33437944  0.00059994  1
  Cs  Cs13  1  0.32990955  0.33103566  0.33307890  1
  Cs  Cs14  1  0.33340664  0.33365404  0.66700805  1
  Cs  Cs15  1  0.33363408  0.66303821  -0.00680858  1
  Cs  Cs16  1  0.33307443  0.67583845  0.33490282  1
  Cs  Cs17  1  0.33169785  0.66851489  0.66974629  1
  Cs  Cs18  1  0.66875330  -0.00245871  -0.00396458  1
  Cs  Cs19  1  0.66380859  -0.00055425  0.33380814  1
  Cs  Cs20  1  0.66598536  0.00138712  0.66808443  1
  Cs  Cs21  1  0.66482496  0.33631389  0.00233155  1
  Cs  Cs22  1  0.66878039  0.33332909  0.33457893  1
  Cs  Cs23  1  0.66738371  0.33154277  0.66588145  1
  Cs  Cs24  1  0.66681018  0.66405084  0.00989168  1
  Cs  Cs25  1  0.66707396  0.66789924  0.32813248  1
  Cs  Cs26  1  0.66540762  0.66493966  0.66445436  1
  Sn  Sn27  1  0.83335269  0.49993320  0.83291908  1
  Sn  Sn28  1  0.49969956  0.49942758  0.49990339  1
  Sn  Sn29  1  0.83319986  0.50024966  0.50091209  1
  Sn  Sn30  1  0.16748058  0.16682157  0.83263716  1
  Sn  Sn31  1  0.49896171  0.16587449  0.83256712  1
  Sn  Sn32  1  0.16705618  0.16707645  0.50083109  1
  Sn  Sn33  1  0.83338651  0.16633314  0.49909522  1
  Sn  Sn34  1  0.16697476  0.49935048  0.49902174  1
  Sn  Sn35  1  0.83355480  0.83344241  0.50033690  1
  Sn  Sn36  1  0.49952224  0.16736384  0.50041958  1
  Sn  Sn37  1  0.50019522  0.83407193  0.83309871  1
  Sn  Sn38  1  0.16670082  0.50000413  0.16751402  1
  Sn  Sn39  1  0.83327663  0.16667685  0.16734199  1
  Pb  Pb40  1  0.16465861  0.49796903  0.83271600  1
  Pb  Pb41  1  0.83106894  0.83031264  0.83105919  1
  Pb  Pb42  1  0.50008176  0.83331641  0.16313906  1
  Pb  Pb43  1  0.16466809  0.16794328  0.16668593  1
  Pb  Pb44  1  0.50202900  0.49928378  0.83132701  1
  Pb  Pb45  1  0.83516422  0.49836848  0.16719548  1
  Pb  Pb46  1  0.50233748  0.16681604  0.16686114  1
  Pb  Pb47  1  0.16428892  0.83366391  0.50018615  1
  Pb  Pb48  1  0.49693907  0.49965569  0.17040688  1
  Pb  Pb49  1  0.83335368  0.83635437  0.16952324  1
  Pb  Pb50  1  0.16913621  0.83678399  0.83291882  1
  Pb  Pb51  1  0.16658626  0.82977299  0.16665931  1
  Pb  Pb52  1  0.50199260  0.83361029  0.50121850  1
  Pb  Pb53  1  0.83303828  0.16798490  0.83311577  1
  I  I54  1  0.16537883  0.00019733  0.16676119  1
  I  I55  1  0.16592409  0.00389230  0.50428687  1
  I  I56  1  0.16457511  0.00497926  0.82638318  1
  I  I57  1  0.16472294  0.33571649  0.17015133  1
  I  I58  1  0.16270493  0.33302153  0.50018803  1
  I  I59  1  0.17223676  0.33003781  0.83076663  1
  I  I60  1  0.16444874  0.66180204  0.17463975  1
  I  I61  1  0.16643452  0.66311524  0.49586930  1
  I  I62  1  0.16710980  0.66648428  0.83374773  1
  I  I63  1  0.49952358  0.00036585  0.17238404  1
  I  I64  1  0.50143858  0.00350261  0.50259432  1
  I  I65  1  0.49823728  0.00208844  0.82587437  1
  I  I66  1  0.50119700  0.33326611  0.16087366  1
  I  I67  1  0.50420267  0.33235018  0.50566724  1
  I  I68  1  0.49783397  0.33013217  0.83044416  1
  I  I69  1  0.50124026  0.66630007  0.16696159  1
  I  I70  1  0.50052422  0.66378838  0.50188292  1
  I  I71  1  0.50271766  0.66820589  0.83070671  1
  I  I72  1  0.83456116  0.00432774  0.17086149  1
  I  I73  1  0.83282225  0.00163565  0.49593798  1
  I  I74  1  0.83499625  0.00007917  0.83292503  1
  I  I75  1  0.83391738  0.33067900  0.17304373  1
  I  I76  1  0.83338996  0.33318061  0.50004741  1
  I  I77  1  0.83199233  0.33564989  0.82648719  1
  I  I78  1  0.83449865  0.66658963  0.16658013  1
  I  I79  1  0.83322447  0.66512440  0.50554995  1
  I  I80  1  0.83324776  0.66259899  0.82692446  1
  I  I81  1  0.16974085  0.16951338  -0.00262632  1
  I  I82  1  0.16745233  0.16927679  0.33694891  1
  I  I83  1  0.16474597  0.17260191  0.66485191  1
  I  I84  1  0.16364128  0.49727265  0.00166831  1
  I  I85  1  0.16378375  0.49302954  0.33615390  1
  I  I86  1  0.16693745  0.49758441  0.66300956  1
  I  I87  1  0.16571125  0.83331869  -0.00031342  1
  I  I88  1  0.16751258  0.83829239  0.33372743  1
  I  I89  1  0.16573806  0.82791195  0.66651109  1
  I  I90  1  0.49699785  0.16260845  -0.00335632  1
  I  I91  1  0.49871402  0.17141421  0.33726355  1
  I  I92  1  0.50188798  0.16696463  0.66532515  1
  I  I93  1  0.50127412  0.50036523  -0.00009351  1
  I  I94  1  0.50733065  0.49337902  0.33874056  1
  I  I95  1  0.49686576  0.49808158  0.66286547  1
  I  I96  1  0.50120572  0.84062395  -0.00484179  1
  I  I97  1  0.50117566  0.83316239  0.33353821  1
  I  I98  1  0.50154648  0.83586197  0.66892561  1
  I  I99  1  0.83368293  0.17109284  0.00163333  1
  I  I100  1  0.83368755  0.16938104  0.33650060  1
  I  I101  1  0.83332536  0.16641901  0.66312108  1
  I  I102  1  0.83421998  0.49592271  -0.00209904  1
  I  I103  1  0.83192862  0.50069269  0.33737616  1
  I  I104  1  0.83524594  0.49688283  0.66381325  1
  I  I105  1  0.83234343  0.83326721  -0.00016078  1
  I  I106  1  0.83175742  0.82723988  0.33769804  1
  I  I107  1  0.83285493  0.83877021  0.66318599  1
  I  I108  1  -0.00295106  0.16944097  0.17218024  1
  I  I109  1  -0.00016193  0.16981691  0.50029088  1
  I  I110  1  0.00198597  0.17102814  0.82934665  1
  I  I111  1  0.00263505  0.49673070  0.17358461  1
  I  I112  1  -0.00037136  0.49675000  0.49991930  1
  I  I113  1  -0.00297253  0.49660794  0.82644310  1
  I  I114  1  -0.00030239  0.83433019  0.16550984  1
  I  I115  1  -0.00378528  0.83343628  0.50075472  1
  I  I116  1  -0.00022968  0.83376287  0.83345138  1
  I  I117  1  0.33313535  0.16750986  0.16840956  1
  I  I118  1  0.33333302  0.17491204  0.50595859  1
  I  I119  1  0.33371716  0.16469971  0.82477194  1
  I  I120  1  0.32922469  0.49682250  0.16988494  1
  I  I121  1  0.33301285  0.49207518  0.49625619  1
  I  I122  1  0.33339268  0.50208284  0.83322603  1
  I  I123  1  0.33332958  0.83542834  0.16951490  1
  I  I124  1  0.33353367  0.83229793  0.50114037  1
  I  I125  1  0.33695372  0.83175342  0.82989819  1
  I  I126  1  0.67010814  0.16876587  0.17203617  1
  I  I127  1  0.66687108  0.16959233  0.50054928  1
  I  I128  1  0.66400708  0.16459115  0.82934679  1
  I  I129  1  0.66676912  0.49949304  0.16622245  1
  I  I130  1  0.66739984  0.49647359  0.50592312  1
  I  I131  1  0.66974419  0.49678441  0.82639307  1
  I  I132  1  0.66699477  0.83202807  0.16742355  1
  I  I133  1  0.66983102  0.83356533  0.50191901  1
  I  I134  1  0.66371534  0.84249384  0.83043404  1
