# generated using pymatgen
data_Cs27Sn13Pb14I81
_symmetry_space_group_name_H-M   'P 1'
_cell_length_a   18.97535259
_cell_length_b   18.97513791
_cell_length_c   18.97934554
_cell_angle_alpha   90.00017221
_cell_angle_beta   90.00290271
_cell_angle_gamma   89.99964018
_symmetry_Int_Tables_number   1
_chemical_formula_structural   Cs27Sn13Pb14I81
_chemical_formula_sum   'Cs27 Sn13 Pb14 I81'
_cell_volume   6833.70186031
_cell_formula_units_Z   1
loop_
 _symmetry_equiv_pos_site_id
 _symmetry_equiv_pos_as_xyz
  1  'x, y, z'
loop_
 _atom_site_type_symbol
 _atom_site_label
 _atom_site_symmetry_multiplicity
 _atom_site_fract_x
 _atom_site_fract_y
 _atom_site_fract_z
 _atom_site_occupancy
  Cs  Cs0  1  0.00130527  0.00147945  0.00130406  1
  Cs  Cs1  1  -0.00215139  -0.00288518  0.32947455  1
  Cs  Cs2  1  -0.00004405  0.00030832  0.66740697  1
  Cs  Cs3  1  0.00105898  0.33098493  0.00180383  1
  Cs  Cs4  1  0.00093668  0.33877310  0.33259132  1
  Cs  Cs5  1  0.00073862  0.33221158  0.66413956  1
  Cs  Cs6  1  0.00175610  0.66672292  0.00176372  1
  Cs  Cs7  1  0.00016641  0.66530472  0.33371464  1
  Cs  Cs8  1  -0.00819999  0.66719118  0.66479687  1
  Cs  Cs9  1  0.33220247  -0.00288923  0.00017772  1
  Cs  Cs10  1  0.33738219  -0.00111127  0.33552964  1
  Cs  Cs11  1  0.33081820  0.00390680  0.66428830  1
  Cs  Cs12  1  0.33009911  0.33692597  -0.00352656  1
  Cs  Cs13  1  0.33424243  0.33649081  0.33833103  1
  Cs  Cs14  1  0.33226077  0.32783023  0.66537429  1
  Cs  Cs15  1  0.33445573  0.66717893  -0.00064853  1
  Cs  Cs16  1  0.33298902  0.66597333  0.33299331  1
  Cs  Cs17  1  0.33568910  0.66760513  0.66782453  1
  Cs  Cs18  1  0.66378819  0.00047904  0.00263460  1
  Cs  Cs19  1  0.66437403  0.00427156  0.33049804  1
  Cs  Cs20  1  0.67019967  -0.00012988  0.66686009  1
  Cs  Cs21  1  0.66781927  0.33290474  -0.00025897  1
  Cs  Cs22  1  0.66497091  0.32933937  0.33140602  1
  Cs  Cs23  1  0.66698956  0.33458542  0.66900946  1
  Cs  Cs24  1  0.66332801  0.66609681  -0.00617718  1
  Cs  Cs25  1  0.66617127  0.66613682  0.33458844  1
  Cs  Cs26  1  0.67231172  0.66545493  0.67161356  1
  Sn  Sn27  1  0.83212586  0.50122368  0.16643920  1
  Sn  Sn28  1  0.50027400  0.50097348  0.49975831  1
  Sn  Sn29  1  0.49989730  0.83244654  0.50017265  1
  Sn  Sn30  1  0.50074498  0.16629123  0.83361863  1
  Sn  Sn31  1  0.50083424  0.50024585  0.16699427  1
  Sn  Sn32  1  0.16702715  0.83314361  0.49994529  1
  Sn  Sn33  1  0.83353690  0.16669378  0.50042620  1
  Sn  Sn34  1  0.83257601  0.16650356  0.83271917  1
  Sn  Sn35  1  0.83330346  0.83220316  0.16648994  1
  Sn  Sn36  1  0.16627733  0.83415404  0.16692479  1
  Sn  Sn37  1  0.16625475  0.50110894  0.83268584  1
  Sn  Sn38  1  0.16638446  0.83215149  0.83305391  1
  Sn  Sn39  1  0.16734145  0.16613054  0.16740219  1
  Pb  Pb40  1  0.16853027  0.50259233  0.50277631  1
  Pb  Pb41  1  0.83469674  0.16669583  0.16650894  1
  Pb  Pb42  1  0.16632780  0.16620403  0.83460339  1
  Pb  Pb43  1  0.16450394  0.16434600  0.49714070  1
  Pb  Pb44  1  0.83084111  0.49792877  0.49780108  1
  Pb  Pb45  1  0.49703568  0.16929845  0.16468774  1
  Pb  Pb46  1  0.49839259  0.49845551  0.83292834  1
  Pb  Pb47  1  0.49789139  0.83552527  0.83064538  1
  Pb  Pb48  1  0.49979590  0.83138643  0.16827107  1
  Pb  Pb49  1  0.83553312  0.83543779  0.83602688  1
  Pb  Pb50  1  0.83573036  0.49793153  0.83566410  1
  Pb  Pb51  1  0.50180818  0.16654954  0.50177773  1
  Pb  Pb52  1  0.16693975  0.50076859  0.16570440  1
  Pb  Pb53  1  0.83305161  0.83478516  0.49784996  1
  I  I54  1  0.16025208  -0.00186662  0.16354959  1
  I  I55  1  0.17300374  -0.00385582  0.50465188  1
  I  I56  1  0.16665367  -0.00288625  0.83310517  1
  I  I57  1  0.16533261  0.33192712  0.16185968  1
  I  I58  1  0.16776877  0.33337618  0.50010184  1
  I  I59  1  0.16720082  0.33481135  0.83790465  1
  I  I60  1  0.16529045  0.66985668  0.16765539  1
  I  I61  1  0.16731236  0.67076926  0.49346098  1
  I  I62  1  0.16864206  0.66785481  0.83765357  1
  I  I63  1  0.50221695  -0.00005692  0.16774345  1
  I  I64  1  0.49603803  -0.00259913  0.50139982  1
  I  I65  1  0.50163232  0.00322505  0.83273568  1
  I  I66  1  0.50438129  0.33705171  0.17249610  1
  I  I67  1  0.50185545  0.33578334  0.49675477  1
  I  I68  1  0.49985788  0.33063567  0.83235332  1
  I  I69  1  0.49855584  0.66344405  0.16748053  1
  I  I70  1  0.49465420  0.66679612  0.49512488  1
  I  I71  1  0.49895911  0.66679969  0.83475473  1
  I  I72  1  0.83779718  -0.00222044  0.16674798  1
  I  I73  1  0.83218409  0.00258290  0.50116004  1
  I  I74  1  0.83235190  0.00335083  0.83211473  1
  I  I75  1  0.83209278  0.33550865  0.16634398  1
  I  I76  1  0.83226391  0.33013738  0.50175956  1
  I  I77  1  0.83281435  0.33000883  0.83250944  1
  I  I78  1  0.83759552  0.66703045  0.16818279  1
  I  I79  1  0.83498792  0.66670399  0.49956519  1
  I  I80  1  0.83315732  0.66679093  0.83287774  1
  I  I81  1  0.16423778  0.16196384  0.00237963  1
  I  I82  1  0.16427849  0.16274642  0.32946050  1
  I  I83  1  0.16771653  0.16622580  0.66646993  1
  I  I84  1  0.16880769  0.50369645  -0.00205499  1
  I  I85  1  0.16550298  0.49920637  0.33352597  1
  I  I86  1  0.16901197  0.50219717  0.67042152  1
  I  I87  1  0.16178251  0.83425298  0.00066258  1
  I  I88  1  0.16642666  0.83876644  0.33264687  1
  I  I89  1  0.17244630  0.82979600  0.66661396  1
  I  I90  1  0.50610718  0.16794930  -0.00291895  1
  I  I91  1  0.50126179  0.16562578  0.33337581  1
  I  I92  1  0.49938718  0.16871421  0.66952585  1
  I  I93  1  0.50167071  0.49779109  0.00237741  1
  I  I94  1  0.50215665  0.50262019  0.33312778  1
  I  I95  1  0.49666522  0.50208579  0.66400149  1
  I  I96  1  0.49887465  0.83294208  -0.00006777  1
  I  I97  1  0.49428194  0.83293173  0.33618761  1
  I  I98  1  0.49488014  0.82767289  0.66270580  1
  I  I99  1  0.83228871  0.16704364  -0.00208604  1
  I  I100  1  0.83508236  0.16587664  0.33486851  1
  I  I101  1  0.83044352  0.16570975  0.66728873  1
  I  I102  1  0.82795810  0.50139236  0.00366122  1
  I  I103  1  0.83473697  0.50054063  0.32976832  1
  I  I104  1  0.83296257  0.50004925  0.66672790  1
  I  I105  1  0.83925682  0.83233420  0.00397039  1
  I  I106  1  0.83992426  0.83274901  0.33001608  1
  I  I107  1  0.83474673  0.83408338  0.66671825  1
  I  I108  1  0.00248419  0.16644682  0.16364658  1
  I  I109  1  -0.00305183  0.16527552  0.50681717  1
  I  I110  1  -0.00218383  0.16640636  0.83211092  1
  I  I111  1  -0.00187836  0.49976329  0.16393951  1
  I  I112  1  -0.00012568  0.49959917  0.49893060  1
  I  I113  1  0.00346077  0.50198319  0.83643186  1
  I  I114  1  0.00122992  0.83228474  0.16845160  1
  I  I115  1  0.00279972  0.83638480  0.50092644  1
  I  I116  1  0.00391571  0.83233810  0.82927923  1
  I  I117  1  0.32950183  0.16046983  0.16383408  1
  I  I118  1  0.33332273  0.16793746  0.50132731  1
  I  I119  1  0.33479057  0.16747928  0.83517278  1
  I  I120  1  0.33560286  0.49908424  0.16860901  1
  I  I121  1  0.33646604  0.49996171  0.49269739  1
  I  I122  1  0.33057592  0.50082708  0.83739520  1
  I  I123  1  0.33019450  0.83578594  0.16491575  1
  I  I124  1  0.33254063  0.83098596  0.49750163  1
  I  I125  1  0.32957924  0.83251428  0.83960977  1
  I  I126  1  0.66655032  0.16457001  0.16735840  1
  I  I127  1  0.66951751  0.16426722  0.49999381  1
  I  I128  1  0.66724398  0.16821958  0.83039608  1
  I  I129  1  0.66686099  0.50385516  0.17003158  1
  I  I130  1  0.66291266  0.50664633  0.49944411  1
  I  I131  1  0.66679240  0.49908292  0.83292024  1
  I  I132  1  0.66905003  0.83248916  0.16949486  1
  I  I133  1  0.66402757  0.83164302  0.49731146  1
  I  I134  1  0.66675599  0.83346001  0.83350104  1
