# generated using pymatgen
data_Cs27Sn13Pb14I81
_symmetry_space_group_name_H-M   'P 1'
_cell_length_a   18.97735617
_cell_length_b   18.97369139
_cell_length_c   18.97841366
_cell_angle_alpha   90.00014753
_cell_angle_beta   90.00085445
_cell_angle_gamma   89.99979606
_symmetry_Int_Tables_number   1
_chemical_formula_structural   Cs27Sn13Pb14I81
_chemical_formula_sum   'Cs27 Sn13 Pb14 I81'
_cell_volume   6833.56688143
_cell_formula_units_Z   1
loop_
 _symmetry_equiv_pos_site_id
 _symmetry_equiv_pos_as_xyz
  1  'x, y, z'
loop_
 _atom_site_type_symbol
 _atom_site_label
 _atom_site_symmetry_multiplicity
 _atom_site_fract_x
 _atom_site_fract_y
 _atom_site_fract_z
 _atom_site_occupancy
  Cs  Cs0  1  -0.00120083  -0.00029128  0.00089551  1
  Cs  Cs1  1  0.00282397  0.00189134  0.33406694  1
  Cs  Cs2  1  0.00008635  0.00528382  0.66401959  1
  Cs  Cs3  1  0.00191742  0.33438875  0.00254478  1
  Cs  Cs4  1  -0.00009662  0.33326438  0.33214406  1
  Cs  Cs5  1  0.00150033  0.32686194  0.66707960  1
  Cs  Cs6  1  -0.00200872  0.66611525  -0.00109508  1
  Cs  Cs7  1  0.00074374  0.66526453  0.33325231  1
  Cs  Cs8  1  -0.00157671  0.66742305  0.66714267  1
  Cs  Cs9  1  0.33826310  -0.00092372  0.00436268  1
  Cs  Cs10  1  0.33163652  -0.00192958  0.33178660  1
  Cs  Cs11  1  0.33154997  0.00021075  0.66375429  1
  Cs  Cs12  1  0.33583590  0.33125850  -0.00855019  1
  Cs  Cs13  1  0.33491385  0.33497447  0.33346014  1
  Cs  Cs14  1  0.33325870  0.33672014  0.67544828  1
  Cs  Cs15  1  0.33307942  0.66890736  -0.00197144  1
  Cs  Cs16  1  0.33191946  0.66825844  0.33263325  1
  Cs  Cs17  1  0.33456202  0.66441104  0.66753802  1
  Cs  Cs18  1  0.66496381  0.00094693  -0.00054005  1
  Cs  Cs19  1  0.66603905  0.00065766  0.33505107  1
  Cs  Cs20  1  0.66846780  -0.00141841  0.66578245  1
  Cs  Cs21  1  0.65931817  0.33122214  0.00311087  1
  Cs  Cs22  1  0.66475050  0.33815974  0.33230026  1
  Cs  Cs23  1  0.66492533  0.33023913  0.66633915  1
  Cs  Cs24  1  0.67109196  0.66695551  0.00219512  1
  Cs  Cs25  1  0.66777234  0.66312789  0.33479026  1
  Cs  Cs26  1  0.66791703  0.66936307  0.66531269  1
  Sn  Sn27  1  0.50034470  0.83322181  0.83238171  1
  Sn  Sn28  1  0.16573646  0.50015557  0.49965015  1
  Sn  Sn29  1  0.83370240  0.16606251  0.16684784  1
  Sn  Sn30  1  0.50064086  0.83419417  0.50061157  1
  Sn  Sn31  1  0.49986423  0.16607056  0.49996600  1
  Sn  Sn32  1  0.83453406  0.50044520  0.50134534  1
  Sn  Sn33  1  0.83358718  0.83434041  0.16718803  1
  Sn  Sn34  1  0.83357890  0.83301425  0.83298486  1
  Sn  Sn35  1  0.16622432  0.83369552  0.83311890  1
  Sn  Sn36  1  0.83314824  0.83297284  0.49982565  1
  Sn  Sn37  1  0.83335405  0.49997670  0.83226853  1
  Sn  Sn38  1  0.16659606  0.49923236  0.16695531  1
  Sn  Sn39  1  0.16624043  0.16757409  0.16666811  1
  Pb  Pb40  1  0.83208077  0.16705457  0.49779475  1
  Pb  Pb41  1  0.49612577  0.50011946  0.16636589  1
  Pb  Pb42  1  0.50355605  0.50283173  0.83321662  1
  Pb  Pb43  1  0.83331029  0.16677807  0.83583279  1
  Pb  Pb44  1  0.16653461  0.16370132  0.83609135  1
  Pb  Pb45  1  0.16436633  0.83315472  0.16476890  1
  Pb  Pb46  1  0.16643516  0.83154851  0.50181281  1
  Pb  Pb47  1  0.83451769  0.49987227  0.16671197  1
  Pb  Pb48  1  0.16442931  0.50168365  0.83325012  1
  Pb  Pb49  1  0.50017570  0.50071365  0.50011251  1
  Pb  Pb50  1  0.16920757  0.16955236  0.49809967  1
  Pb  Pb51  1  0.49979522  0.16661332  0.16887902  1
  Pb  Pb52  1  0.50014628  0.16374964  0.83055659  1
  Pb  Pb53  1  0.50291667  0.83303002  0.16723701  1
  I  I54  1  0.16402027  0.00215959  0.16430169  1
  I  I55  1  0.16499805  -0.00010040  0.49963238  1
  I  I56  1  0.16277962  -0.00451646  0.83345192  1
  I  I57  1  0.15870817  0.33341891  0.17140954  1
  I  I58  1  0.16084159  0.33739436  0.49851338  1
  I  I59  1  0.16521483  0.33348715  0.83212355  1
  I  I60  1  0.16463139  0.66425296  0.16945554  1
  I  I61  1  0.16650529  0.66369442  0.49332970  1
  I  I62  1  0.16775728  0.66975555  0.83590406  1
  I  I63  1  0.49579668  -0.00031794  0.16505691  1
  I  I64  1  0.50623140  -0.00201203  0.50347421  1
  I  I65  1  0.50405692  -0.00454599  0.83307715  1
  I  I66  1  0.50703064  0.33313989  0.17050990  1
  I  I67  1  0.50091322  0.33126527  0.49611793  1
  I  I68  1  0.50052788  0.33335273  0.83268369  1
  I  I69  1  0.50071153  0.66701074  0.16936636  1
  I  I70  1  0.50212313  0.67011685  0.50437688  1
  I  I71  1  0.49779002  0.67105982  0.82579265  1
  I  I72  1  0.83879068  -0.00105144  0.16628578  1
  I  I73  1  0.83066955  -0.00316373  0.50254481  1
  I  I74  1  0.83273863  -0.00394227  0.83126042  1
  I  I75  1  0.83604750  0.33114411  0.16743479  1
  I  I76  1  0.83511376  0.33649448  0.50255787  1
  I  I77  1  0.83570576  0.33645635  0.82904077  1
  I  I78  1  0.83432806  0.66932014  0.16577473  1
  I  I79  1  0.83099623  0.66788746  0.49839551  1
  I  I80  1  0.83312860  0.66858359  0.83509994  1
  I  I81  1  0.16235289  0.17343061  0.00410771  1
  I  I82  1  0.16235034  0.16614100  0.33014860  1
  I  I83  1  0.16779261  0.16754539  0.66654199  1
  I  I84  1  0.16398539  0.49788269  0.00240294  1
  I  I85  1  0.16007553  0.49816026  0.33361897  1
  I  I86  1  0.16528669  0.50323297  0.66409911  1
  I  I87  1  0.16642147  0.83146061  -0.00316519  1
  I  I88  1  0.16678426  0.83400071  0.33329711  1
  I  I89  1  0.16263739  0.83023399  0.66969090  1
  I  I90  1  0.49992943  0.16594436  0.00002295  1
  I  I91  1  0.50068308  0.15884297  0.33647356  1
  I  I92  1  0.50153012  0.16520985  0.66283773  1
  I  I93  1  0.50134398  0.50139917  -0.00037011  1
  I  I94  1  0.50531247  0.50233152  0.33367398  1
  I  I95  1  0.49410428  0.49692522  0.66652072  1
  I  I96  1  0.50041226  0.83188683  -0.00301544  1
  I  I97  1  0.50413013  0.83644645  0.33692087  1
  I  I98  1  0.50554366  0.83692422  0.66629576  1
  I  I99  1  0.83688814  0.16229918  0.00386544  1
  I  I100  1  0.83648724  0.16201146  0.33006628  1
  I  I101  1  0.83178971  0.16461973  0.66634884  1
  I  I102  1  0.83538633  0.50560507  -0.00209148  1
  I  I103  1  0.83476832  0.50385631  0.33601053  1
  I  I104  1  0.83838594  0.50998205  0.66569144  1
  I  I105  1  0.83367956  0.83222099  -0.00084394  1
  I  I106  1  0.82882007  0.83230046  0.33430535  1
  I  I107  1  0.83165570  0.82782395  0.66657784  1
  I  I108  1  -0.00036693  0.16586909  0.16767755  1
  I  I109  1  0.00008896  0.16440596  0.49990775  1
  I  I110  1  -0.00016822  0.16290554  0.83063733  1
  I  I111  1  0.00231011  0.49953739  0.16814469  1
  I  I112  1  -0.00130408  0.50653480  0.49903858  1
  I  I113  1  -0.00331799  0.50862911  0.83280655  1
  I  I114  1  -0.00390584  0.83390181  0.16678980  1
  I  I115  1  -0.00332157  0.83051572  0.50066720  1
  I  I116  1  -0.00165956  0.82856811  0.83472233  1
  I  I117  1  0.33026606  0.17076359  0.16801844  1
  I  I118  1  0.33667281  0.15894891  0.49688693  1
  I  I119  1  0.33334667  0.16590987  0.83574437  1
  I  I120  1  0.32783719  0.49558933  0.17386000  1
  I  I121  1  0.33061741  0.50063533  0.49405667  1
  I  I122  1  0.33324459  0.50214281  0.83365244  1
  I  I123  1  0.33312698  0.83349425  0.16557998  1
  I  I124  1  0.33590886  0.83513103  0.50448921  1
  I  I125  1  0.33379886  0.83392532  0.82926648  1
  I  I126  1  0.66949792  0.16164487  0.16686175  1
  I  I127  1  0.66429519  0.16566639  0.49759173  1
  I  I128  1  0.66681619  0.16597325  0.83675491  1
  I  I129  1  0.66715273  0.49961078  0.16717659  1
  I  I130  1  0.67005394  0.50197927  0.50323767  1
  I  I131  1  0.67158243  0.50586998  0.82758943  1
  I  I132  1  0.67132987  0.83839973  0.16227569  1
  I  I133  1  0.66799848  0.83197561  0.50374312  1
  I  I134  1  0.66780209  0.82970785  0.83242250  1
