# generated using pymatgen
data_Cs27Sn13Pb14I81
_symmetry_space_group_name_H-M   'P 1'
_cell_length_a   18.97297488
_cell_length_b   18.97696019
_cell_length_c   18.98165830
_cell_angle_alpha   89.99959982
_cell_angle_beta   89.99933003
_cell_angle_gamma   90.00244523
_symmetry_Int_Tables_number   1
_chemical_formula_structural   Cs27Sn13Pb14I81
_chemical_formula_sum   'Cs27 Sn13 Pb14 I81'
_cell_volume   6834.33446545
_cell_formula_units_Z   1
loop_
 _symmetry_equiv_pos_site_id
 _symmetry_equiv_pos_as_xyz
  1  'x, y, z'
loop_
 _atom_site_type_symbol
 _atom_site_label
 _atom_site_symmetry_multiplicity
 _atom_site_fract_x
 _atom_site_fract_y
 _atom_site_fract_z
 _atom_site_occupancy
  Cs  Cs0  1  0.00140582  -0.00008610  -0.00203973  1
  Cs  Cs1  1  0.00175554  0.00104104  0.33260912  1
  Cs  Cs2  1  -0.00030835  0.00061387  0.67041622  1
  Cs  Cs3  1  0.00041072  0.33243347  0.00290013  1
  Cs  Cs4  1  0.00172986  0.33133813  0.33471642  1
  Cs  Cs5  1  0.00186583  0.33145992  0.66158006  1
  Cs  Cs6  1  -0.00027667  0.66760891  -0.00195827  1
  Cs  Cs7  1  -0.00257249  0.66656114  0.33246349  1
  Cs  Cs8  1  -0.00110550  0.66784301  0.67065546  1
  Cs  Cs9  1  0.33146493  0.00128003  0.00146912  1
  Cs  Cs10  1  0.33305456  -0.00222455  0.33294636  1
  Cs  Cs11  1  0.33369134  -0.00150544  0.66550430  1
  Cs  Cs12  1  0.33849457  0.33860566  -0.00226100  1
  Cs  Cs13  1  0.32815217  0.33704562  0.33447490  1
  Cs  Cs14  1  0.33230461  0.33454327  0.66716836  1
  Cs  Cs15  1  0.33463176  0.65837396  -0.00026670  1
  Cs  Cs16  1  0.33396694  0.66808370  0.33151364  1
  Cs  Cs17  1  0.33311332  0.66759857  0.66799848  1
  Cs  Cs18  1  0.66436468  0.00907802  -0.00066279  1
  Cs  Cs19  1  0.66596968  -0.00095899  0.33202478  1
  Cs  Cs20  1  0.66629658  -0.00020035  0.66782441  1
  Cs  Cs21  1  0.66051150  0.32652241  -0.00242155  1
  Cs  Cs22  1  0.66959824  0.33196774  0.33317084  1
  Cs  Cs23  1  0.66560038  0.33340465  0.66807886  1
  Cs  Cs24  1  0.66786428  0.66548747  0.00194892  1
  Cs  Cs25  1  0.66775026  0.66758769  0.33561284  1
  Cs  Cs26  1  0.66752690  0.66734464  0.66418754  1
  Sn  Sn27  1  0.83324987  0.50053991  0.16663911  1
  Sn  Sn28  1  0.83336747  0.49976420  0.83327487  1
  Sn  Sn29  1  0.50061121  0.50016278  0.49981855  1
  Sn  Sn30  1  0.50011966  0.83323977  0.83338831  1
  Sn  Sn31  1  0.83370530  0.83300159  0.49949991  1
  Sn  Sn32  1  0.16670795  0.16669779  0.83417839  1
  Sn  Sn33  1  0.16682804  0.16607996  0.16572186  1
  Sn  Sn34  1  0.50004472  0.16665666  0.49957800  1
  Sn  Sn35  1  0.16589188  0.83363186  0.16715861  1
  Sn  Sn36  1  0.16614489  0.83323378  0.49957674  1
  Sn  Sn37  1  0.50014731  0.83319940  0.50081637  1
  Sn  Sn38  1  0.83256535  0.50083874  0.50001860  1
  Sn  Sn39  1  0.83397484  0.83307017  0.16710617  1
  Pb  Pb40  1  0.49680354  0.16681759  0.16932440  1
  Pb  Pb41  1  0.83123235  0.16610702  0.50000678  1
  Pb  Pb42  1  0.83130073  0.83226908  0.83393157  1
  Pb  Pb43  1  0.83529248  0.16606476  0.16681349  1
  Pb  Pb44  1  0.16616182  0.50315090  0.50005383  1
  Pb  Pb45  1  0.50224087  0.50211563  0.83096061  1
  Pb  Pb46  1  0.16437106  0.49736340  0.83322742  1
  Pb  Pb47  1  0.49776006  0.16468761  0.83113438  1
  Pb  Pb48  1  0.50028410  0.83332745  0.16664580  1
  Pb  Pb49  1  0.16445692  0.50073991  0.16671723  1
  Pb  Pb50  1  0.50310606  0.49998964  0.16939976  1
  Pb  Pb51  1  0.16869105  0.16415118  0.49969155  1
  Pb  Pb52  1  0.16861708  0.83426810  0.83412530  1
  Pb  Pb53  1  0.83544557  0.16948852  0.83322455  1
  I  I54  1  0.16091893  -0.00147335  0.16769956  1
  I  I55  1  0.16665596  -0.00402417  0.49872857  1
  I  I56  1  0.16698777  0.00218656  0.83380390  1
  I  I57  1  0.16548195  0.33073380  0.16355873  1
  I  I58  1  0.16724356  0.33325263  0.49972333  1
  I  I59  1  0.16695776  0.32942086  0.83874882  1
  I  I60  1  0.16498000  0.67025677  0.17221893  1
  I  I61  1  0.17101208  0.67132624  0.49438132  1
  I  I62  1  0.16752842  0.66673814  0.83299859  1
  I  I63  1  0.50503689  -0.00020244  0.16945239  1
  I  I64  1  0.49930714  -0.00170531  0.50359963  1
  I  I65  1  0.50162540  -0.00311162  0.82605617  1
  I  I66  1  0.50018558  0.33341374  0.16826627  1
  I  I67  1  0.50507380  0.33416752  0.49869083  1
  I  I68  1  0.49996545  0.33344915  0.83141061  1
  I  I69  1  0.49422558  0.66687631  0.16758551  1
  I  I70  1  0.50168632  0.66763813  0.50357269  1
  I  I71  1  0.49827879  0.66986158  0.82675487  1
  I  I72  1  0.83501157  -0.00367370  0.17302944  1
  I  I73  1  0.83245437  -0.00394652  0.49501857  1
  I  I74  1  0.83257450  -0.00007294  0.83280078  1
  I  I75  1  0.83467840  0.33642164  0.16915637  1
  I  I76  1  0.82909229  0.33679847  0.49933549  1
  I  I77  1  0.83312353  0.33780336  0.83195464  1
  I  I78  1  0.83888109  0.66752219  0.16858523  1
  I  I79  1  0.82894648  0.66720365  0.49894994  1
  I  I80  1  0.83311674  0.66412008  0.83198982  1
  I  I81  1  0.16461670  0.15894307  0.00099692  1
  I  I82  1  0.16765932  0.16394060  0.33092270  1
  I  I83  1  0.16810969  0.16563329  0.66833952  1
  I  I84  1  0.16424890  0.50481579  0.00009216  1
  I  I85  1  0.16569997  0.49434118  0.33350033  1
  I  I86  1  0.16385607  0.49904413  0.66639576  1
  I  I87  1  0.16242631  0.83620465  0.00322776  1
  I  I88  1  0.16769661  0.83880849  0.33362438  1
  I  I89  1  0.16498178  0.83478081  0.66385871  1
  I  I90  1  0.50134674  0.16438141  -0.00014043  1
  I  I91  1  0.49950253  0.16229654  0.33746691  1
  I  I92  1  0.49737778  0.16763415  0.66315270  1
  I  I93  1  0.50105032  0.50185982  -0.00020626  1
  I  I94  1  0.50436520  0.50432617  0.33788708  1
  I  I95  1  0.50608155  0.49895778  0.66270824  1
  I  I96  1  0.50001992  0.83388839  -0.00248928  1
  I  I97  1  0.49983082  0.83300556  0.33699873  1
  I  I98  1  0.49979189  0.83334708  0.66378568  1
  I  I99  1  0.83134487  0.16633763  0.00010363  1
  I  I100  1  0.83546183  0.17125034  0.33348652  1
  I  I101  1  0.83702429  0.16625336  0.66648131  1
  I  I102  1  0.83716578  0.50580633  0.00081921  1
  I  I103  1  0.82927128  0.50498485  0.33421357  1
  I  I104  1  0.82935785  0.50422661  0.66501724  1
  I  I105  1  0.83749501  0.82807929  0.00313437  1
  I  I106  1  0.83229063  0.82622120  0.33438874  1
  I  I107  1  0.83511791  0.82917984  0.66346573  1
  I  I108  1  0.00331468  0.16503157  0.16521851  1
  I  I109  1  0.00037674  0.16739635  0.50003622  1
  I  I110  1  0.00337615  0.16421810  0.83549473  1
  I  I111  1  -0.00389579  0.50120801  0.17110364  1
  I  I112  1  -0.00386717  0.50375777  0.49957348  1
  I  I113  1  -0.00395525  0.50250416  0.82948724  1
  I  I114  1  -0.00026167  0.83326411  0.17473746  1
  I  I115  1  -0.00074441  0.82896017  0.49539822  1
  I  I116  1  -0.00009509  0.83346716  0.83002572  1
  I  I117  1  0.32890135  0.15808806  0.16404893  1
  I  I118  1  0.33660273  0.16626779  0.49985110  1
  I  I119  1  0.33013451  0.16541209  0.83716572  1
  I  I120  1  0.33335523  0.50027985  0.16769712  1
  I  I121  1  0.33626864  0.50061289  0.50078338  1
  I  I122  1  0.33370494  0.50006514  0.83205871  1
  I  I123  1  0.33039441  0.83902445  0.17141679  1
  I  I124  1  0.33387030  0.83408191  0.49993199  1
  I  I125  1  0.33628197  0.83449622  0.82631221  1
  I  I126  1  0.66659150  0.16611399  0.16703598  1
  I  I127  1  0.66323372  0.16212141  0.50106134  1
  I  I128  1  0.66627772  0.16655919  0.83269345  1
  I  I129  1  0.67136902  0.50794357  0.16597486  1
  I  I130  1  0.66747443  0.50520469  0.49963670  1
  I  I131  1  0.67020027  0.50098103  0.83483758  1
  I  I132  1  0.67000581  0.82763477  0.17112555  1
  I  I133  1  0.66680171  0.83207835  0.49975554  1
  I  I134  1  0.66367803  0.83219310  0.82654858  1
