# generated using pymatgen
data_Cs27Sn14Pb13I81
_symmetry_space_group_name_H-M   'P 1'
_cell_length_a   18.97936007
_cell_length_b   18.96895111
_cell_length_c   18.97980981
_cell_angle_alpha   90.00091228
_cell_angle_beta   90.00085834
_cell_angle_gamma   89.99753896
_symmetry_Int_Tables_number   1
_chemical_formula_structural   Cs27Sn14Pb13I81
_chemical_formula_sum   'Cs27 Sn14 Pb13 I81'
_cell_volume   6833.08366207
_cell_formula_units_Z   1
loop_
 _symmetry_equiv_pos_site_id
 _symmetry_equiv_pos_as_xyz
  1  'x, y, z'
loop_
 _atom_site_type_symbol
 _atom_site_label
 _atom_site_symmetry_multiplicity
 _atom_site_fract_x
 _atom_site_fract_y
 _atom_site_fract_z
 _atom_site_occupancy
  Cs  Cs0  1  -0.00016301  0.00092672  -0.00090016  1
  Cs  Cs1  1  -0.00250770  0.00890807  0.33278113  1
  Cs  Cs2  1  -0.00179600  -0.00270436  0.66875988  1
  Cs  Cs3  1  -0.00206244  0.33204239  0.00345059  1
  Cs  Cs4  1  -0.00204763  0.32728345  0.33289868  1
  Cs  Cs5  1  0.00004793  0.33215327  0.66353242  1
  Cs  Cs6  1  0.00061314  0.66640252  -0.00101026  1
  Cs  Cs7  1  0.00327052  0.66581562  0.33701511  1
  Cs  Cs8  1  0.00127514  0.66847060  0.66560600  1
  Cs  Cs9  1  0.33174051  0.00138306  -0.00122013  1
  Cs  Cs10  1  0.33840039  0.00138712  0.33444674  1
  Cs  Cs11  1  0.33673344  0.00512497  0.66740448  1
  Cs  Cs12  1  0.33552555  0.33053649  0.00119932  1
  Cs  Cs13  1  0.33281016  0.33668527  0.33075399  1
  Cs  Cs14  1  0.33631027  0.32810184  0.66921034  1
  Cs  Cs15  1  0.33109692  0.66660973  0.00066751  1
  Cs  Cs16  1  0.33298122  0.66537367  0.33351952  1
  Cs  Cs17  1  0.32998272  0.66683120  0.66513728  1
  Cs  Cs18  1  0.66917359  -0.00529230  0.00138154  1
  Cs  Cs19  1  0.66388637  0.00041804  0.33187758  1
  Cs  Cs20  1  0.66766730  0.00110281  0.66512898  1
  Cs  Cs21  1  0.66468004  0.33861351  -0.00191906  1
  Cs  Cs22  1  0.66760694  0.33187323  0.33267208  1
  Cs  Cs23  1  0.66431823  0.33216126  0.66990176  1
  Cs  Cs24  1  0.67000907  0.66600552  -0.00051471  1
  Cs  Cs25  1  0.66489149  0.66863523  0.33172486  1
  Cs  Cs26  1  0.66877061  0.66567077  0.66789086  1
  Sn  Sn27  1  0.49977466  0.50036683  0.49967386  1
  Sn  Sn28  1  0.16603085  0.83345442  0.49977648  1
  Sn  Sn29  1  0.83347237  0.83384165  0.83253615  1
  Sn  Sn30  1  0.16713639  0.50086224  0.16670819  1
  Sn  Sn31  1  0.49938222  0.49960612  0.16726535  1
  Sn  Sn32  1  0.16672545  0.50025771  0.50013607  1
  Sn  Sn33  1  0.83347129  0.50096293  0.49991769  1
  Sn  Sn34  1  0.50002709  0.16730472  0.16645515  1
  Sn  Sn35  1  0.16694640  0.83264764  0.83309033  1
  Sn  Sn36  1  0.83400516  0.83238664  0.50031201  1
  Sn  Sn37  1  0.83347587  0.16625487  0.83339765  1
  Sn  Sn38  1  0.49971383  0.83262335  0.83313101  1
  Sn  Sn39  1  0.16666324  0.50019322  0.83323610  1
  Sn  Sn40  1  0.16636932  0.83291964  0.16718269  1
  Pb  Pb41  1  0.16679457  0.16624637  0.50009370  1
  Pb  Pb42  1  0.50008819  0.16981673  0.49786241  1
  Pb  Pb43  1  0.83598126  0.50064986  0.83116581  1
  Pb  Pb44  1  0.83042795  0.16667527  0.16389279  1
  Pb  Pb45  1  0.16480638  0.16652394  0.83334849  1
  Pb  Pb46  1  0.83378392  0.50040592  0.16958963  1
  Pb  Pb47  1  0.16836076  0.16684027  0.16661225  1
  Pb  Pb48  1  0.49984932  0.83126741  0.50192216  1
  Pb  Pb49  1  0.49760386  0.50193441  0.83354983  1
  Pb  Pb50  1  0.83325074  0.16611786  0.50189606  1
  Pb  Pb51  1  0.83643209  0.83302812  0.16744829  1
  Pb  Pb52  1  0.50239281  0.16400071  0.83556437  1
  Pb  Pb53  1  0.49761620  0.83225315  0.16470034  1
  I  I54  1  0.16753753  -0.00328644  0.16503935  1
  I  I55  1  0.16082842  -0.00433964  0.50082741  1
  I  I56  1  0.16824795  -0.00402031  0.83362220  1
  I  I57  1  0.16840811  0.33713366  0.16690600  1
  I  I58  1  0.16555731  0.33765332  0.49952897  1
  I  I59  1  0.16537787  0.33665592  0.83302743  1
  I  I60  1  0.17253324  0.66585674  0.16639555  1
  I  I61  1  0.16594394  0.66623262  0.50035343  1
  I  I62  1  0.16463829  0.66775146  0.83351150  1
  I  I63  1  0.49866117  0.00147794  0.16303694  1
  I  I64  1  0.50024673  -0.00029725  0.49910614  1
  I  I65  1  0.49354689  -0.00398848  0.83464250  1
  I  I66  1  0.49375155  0.33534021  0.16990000  1
  I  I67  1  0.49896828  0.33840646  0.50074700  1
  I  I68  1  0.50060629  0.33362604  0.83136608  1
  I  I69  1  0.49693054  0.66340424  0.17046568  1
  I  I70  1  0.49905616  0.66313238  0.49307046  1
  I  I71  1  0.50492849  0.66979222  0.83541120  1
  I  I72  1  0.83286889  -0.00025873  0.17091459  1
  I  I73  1  0.83934984  -0.00378892  0.50262826  1
  I  I74  1  0.83520190  -0.00266422  0.82812293  1
  I  I75  1  0.83856616  0.33362281  0.16635875  1
  I  I76  1  0.83500000  0.33655450  0.50081159  1
  I  I77  1  0.83491116  0.33173226  0.83204120  1
  I  I78  1  0.82681962  0.66670470  0.16043543  1
  I  I79  1  0.83513283  0.66711955  0.50650524  1
  I  I80  1  0.83234827  0.67001425  0.83141073  1
  I  I81  1  0.16597988  0.16657012  -0.00004996  1
  I  I82  1  0.16598740  0.16561657  0.33328661  1
  I  I83  1  0.16772272  0.16869705  0.66678464  1
  I  I84  1  0.17153339  0.50683571  0.00034811  1
  I  I85  1  0.16842640  0.50637585  0.33367754  1
  I  I86  1  0.16597036  0.50646831  0.66590579  1
  I  I87  1  0.16726472  0.82741398  -0.00081375  1
  I  I88  1  0.16288948  0.82580196  0.33416806  1
  I  I89  1  0.16485507  0.82645627  0.66688150  1
  I  I90  1  0.49963992  0.17533973  0.00299360  1
  I  I91  1  0.49944280  0.16564826  0.32993647  1
  I  I92  1  0.50062001  0.16759295  0.66699196  1
  I  I93  1  0.49483909  0.49715950  0.00270462  1
  I  I94  1  0.49498639  0.49717775  0.33332549  1
  I  I95  1  0.49912754  0.50334497  0.66409755  1
  I  I96  1  0.50049483  0.83190351  -0.00324454  1
  I  I97  1  0.50076629  0.83604925  0.33330523  1
  I  I98  1  0.49573379  0.83114398  0.66979995  1
  I  I99  1  0.83511975  0.15899077  -0.00382481  1
  I  I100  1  0.83303118  0.16634050  0.33332487  1
  I  I101  1  0.83290271  0.16409862  0.66961036  1
  I  I102  1  0.83314445  0.49950383  -0.00024506  1
  I  I103  1  0.83750659  0.50614620  0.33776748  1
  I  I104  1  0.83264692  0.50124842  0.66314468  1
  I  I105  1  0.83394570  0.83780922  -0.00309819  1
  I  I106  1  0.83696944  0.82800579  0.33709868  1
  I  I107  1  0.83825913  0.83316305  0.66709785  1
  I  I108  1  -0.00012555  0.16715681  0.16639072  1
  I  I109  1  -0.00009706  0.17207402  0.49875211  1
  I  I110  1  -0.00285854  0.16023140  0.83286348  1
  I  I111  1  0.00377659  0.50510612  0.16579906  1
  I  I112  1  0.00106804  0.50452406  0.50117956  1
  I  I113  1  0.00405997  0.50542395  0.83466723  1
  I  I114  1  0.00457910  0.82617110  0.16161692  1
  I  I115  1  0.00062933  0.82433688  0.50573725  1
  I  I116  1  0.00064674  0.83369101  0.83249316  1
  I  I117  1  0.33607453  0.16890663  0.16509453  1
  I  I118  1  0.33353458  0.16450370  0.50167532  1
  I  I119  1  0.33360527  0.16560338  0.83413015  1
  I  I120  1  0.33242308  0.50017477  0.17144835  1
  I  I121  1  0.33214404  0.50445681  0.49831110  1
  I  I122  1  0.32956333  0.50634282  0.82928862  1
  I  I123  1  0.32946610  0.83143598  0.16700019  1
  I  I124  1  0.33001984  0.82874052  0.50061241  1
  I  I125  1  0.33162806  0.82783792  0.83386909  1
  I  I126  1  0.66272005  0.17345660  0.16702389  1
  I  I127  1  0.66668491  0.16649143  0.49996029  1
  I  I128  1  0.67009075  0.16161884  0.83316199  1
  I  I129  1  0.66363985  0.49524472  0.17043873  1
  I  I130  1  0.66674576  0.50410482  0.49561389  1
  I  I131  1  0.66678311  0.50106457  0.83328647  1
  I  I132  1  0.66652085  0.83392997  0.16527531  1
  I  I133  1  0.66939670  0.82885812  0.50602635  1
  I  I134  1  0.66771026  0.83808192  0.82926132  1
