# generated using pymatgen
data_Cs27Sn14Pb13I81
_symmetry_space_group_name_H-M   'P 1'
_cell_length_a   18.98097542
_cell_length_b   18.97099166
_cell_length_c   18.97300812
_cell_angle_alpha   89.99992460
_cell_angle_beta   90.00027705
_cell_angle_gamma   90.00053881
_symmetry_Int_Tables_number   1
_chemical_formula_structural   Cs27Sn14Pb13I81
_chemical_formula_sum   'Cs27 Sn14 Pb13 I81'
_cell_volume   6831.95114978
_cell_formula_units_Z   1
loop_
 _symmetry_equiv_pos_site_id
 _symmetry_equiv_pos_as_xyz
  1  'x, y, z'
loop_
 _atom_site_type_symbol
 _atom_site_label
 _atom_site_symmetry_multiplicity
 _atom_site_fract_x
 _atom_site_fract_y
 _atom_site_fract_z
 _atom_site_occupancy
  Cs  Cs0  1  0.00122042  0.00080854  0.00164478  1
  Cs  Cs1  1  -0.00051526  -0.00167979  0.33158410  1
  Cs  Cs2  1  0.00078431  -0.00022599  0.66610026  1
  Cs  Cs3  1  0.00002610  0.33060055  0.00028349  1
  Cs  Cs4  1  -0.00145971  0.33418524  0.33440108  1
  Cs  Cs5  1  0.00041169  0.33385343  0.66444080  1
  Cs  Cs6  1  0.00197891  0.66673166  -0.00724376  1
  Cs  Cs7  1  -0.00197766  0.67041678  0.33280931  1
  Cs  Cs8  1  0.00051402  0.66753174  0.67463986  1
  Cs  Cs9  1  0.33185863  0.00147822  0.00202146  1
  Cs  Cs10  1  0.33189891  -0.00069104  0.33308036  1
  Cs  Cs11  1  0.33705302  -0.00101767  0.66379665  1
  Cs  Cs12  1  0.33429159  0.33447735  0.00198845  1
  Cs  Cs13  1  0.33186888  0.34165306  0.34047362  1
  Cs  Cs14  1  0.33183397  0.33664922  0.65450734  1
  Cs  Cs15  1  0.33214661  0.65755025  -0.00460436  1
  Cs  Cs16  1  0.33376608  0.66074304  0.33326219  1
  Cs  Cs17  1  0.34164064  0.66209452  0.67443426  1
  Cs  Cs18  1  0.66656216  0.00244980  0.00239391  1
  Cs  Cs19  1  0.66801285  -0.00089338  0.33154469  1
  Cs  Cs20  1  0.66365147  -0.00081416  0.66600025  1
  Cs  Cs21  1  0.66643047  0.33018505  0.00046822  1
  Cs  Cs22  1  0.66951582  0.33433329  0.33281829  1
  Cs  Cs23  1  0.66762041  0.33268322  0.66724774  1
  Cs  Cs24  1  0.66577987  0.66433610  -0.00571206  1
  Cs  Cs25  1  0.66860884  0.66836292  0.33352700  1
  Cs  Cs26  1  0.66040453  0.66760152  0.67487148  1
  Sn  Sn27  1  0.83368557  0.50038988  0.16703542  1
  Sn  Sn28  1  0.83351983  0.16613818  0.83331206  1
  Sn  Sn29  1  0.83348197  0.16660334  0.16687638  1
  Sn  Sn30  1  0.16731721  0.16629700  0.83359324  1
  Sn  Sn31  1  0.83338346  0.83292201  0.16682902  1
  Sn  Sn32  1  0.49962538  0.83377412  0.16668520  1
  Sn  Sn33  1  0.83410933  0.83273779  0.49976886  1
  Sn  Sn34  1  0.83355336  0.50114396  0.49948454  1
  Sn  Sn35  1  0.83344026  0.16618638  0.49975841  1
  Sn  Sn36  1  0.49937837  0.16613251  0.16663928  1
  Sn  Sn37  1  0.16705061  0.16644105  0.16658064  1
  Sn  Sn38  1  0.16697707  0.83376643  0.16727241  1
  Sn  Sn39  1  0.16618831  0.83314682  0.49956091  1
  Sn  Sn40  1  0.49922856  0.16649922  0.83392816  1
  Pb  Pb41  1  0.50005399  0.83331393  0.49748771  1
  Pb  Pb42  1  0.16689659  0.83557308  0.83352781  1
  Pb  Pb43  1  0.16449248  0.16483501  0.49927634  1
  Pb  Pb44  1  0.50008502  0.49586039  0.83364063  1
  Pb  Pb45  1  0.49974386  0.83602258  0.83683987  1
  Pb  Pb46  1  0.50272279  0.49971323  0.16675912  1
  Pb  Pb47  1  0.50337980  0.50038936  0.49969204  1
  Pb  Pb48  1  0.83324967  0.83599465  0.83350155  1
  Pb  Pb49  1  0.16366709  0.50432162  0.49986107  1
  Pb  Pb50  1  0.83344553  0.49712115  0.83335229  1
  Pb  Pb51  1  0.16651708  0.49611099  0.83330342  1
  Pb  Pb52  1  0.50247193  0.16659007  0.49884800  1
  Pb  Pb53  1  0.16378811  0.50020450  0.16674297  1
  I  I54  1  0.16198976  0.00070210  0.16628494  1
  I  I55  1  0.15915399  -0.00288988  0.49780356  1
  I  I56  1  0.16431954  0.00407377  0.83615669  1
  I  I57  1  0.16589971  0.32979356  0.16122380  1
  I  I58  1  0.16557996  0.33342958  0.50098736  1
  I  I59  1  0.16418329  0.32757870  0.84088338  1
  I  I60  1  0.16659972  0.67037273  0.17189005  1
  I  I61  1  0.16012062  0.67196986  0.49023024  1
  I  I62  1  0.16574028  0.66680271  0.83400571  1
  I  I63  1  0.50521702  0.00108883  0.16349228  1
  I  I64  1  0.50373607  0.00008637  0.50315638  1
  I  I65  1  0.50204461  0.00431458  0.83467762  1
  I  I66  1  0.50157758  0.32954321  0.16144074  1
  I  I67  1  0.50105283  0.33310620  0.49885800  1
  I  I68  1  0.50303550  0.32781351  0.84232002  1
  I  I69  1  0.50064289  0.66988669  0.16976333  1
  I  I70  1  0.50176754  0.66702185  0.49737670  1
  I  I71  1  0.50071747  0.66658707  0.83362374  1
  I  I72  1  0.83305907  0.00072341  0.16835169  1
  I  I73  1  0.83644181  -0.00006409  0.49689967  1
  I  I74  1  0.83347752  0.00452233  0.83439148  1
  I  I75  1  0.83284670  0.33146349  0.16862505  1
  I  I76  1  0.83172968  0.33244574  0.49695499  1
  I  I77  1  0.83298122  0.32846296  0.83436739  1
  I  I78  1  0.83283811  0.66781839  0.17497176  1
  I  I79  1  0.83764093  0.66768226  0.48884234  1
  I  I80  1  0.83327164  0.66674829  0.83390110  1
  I  I81  1  0.16126794  0.16126588  0.00155773  1
  I  I82  1  0.16572359  0.16427619  0.32985355  1
  I  I83  1  0.16496924  0.16519274  0.66893675  1
  I  I84  1  0.16312413  0.50482051  0.00025278  1
  I  I85  1  0.16854695  0.49274644  0.33333052  1
  I  I86  1  0.16277968  0.49872222  0.66641260  1
  I  I87  1  0.16396853  0.83654969  0.00383355  1
  I  I88  1  0.16404191  0.84070364  0.33160469  1
  I  I89  1  0.15766039  0.83599524  0.66371989  1
  I  I90  1  0.50556597  0.16273805  0.00130152  1
  I  I91  1  0.50156513  0.16222596  0.32932100  1
  I  I92  1  0.50148061  0.16767480  0.66933144  1
  I  I93  1  0.50359369  0.50274803  0.00035112  1
  I  I94  1  0.49831766  0.49583831  0.33292226  1
  I  I95  1  0.50250396  0.49911852  0.66680458  1
  I  I96  1  0.50260183  0.83642855  0.00506886  1
  I  I97  1  0.50219906  0.84194891  0.32920534  1
  I  I98  1  0.50099187  0.83422197  0.66681591  1
  I  I99  1  0.83308082  0.16690687  0.00143618  1
  I  I100  1  0.83308603  0.16676689  0.33213409  1
  I  I101  1  0.83338188  0.16715718  0.66648824  1
  I  I102  1  0.83284095  0.49983916  0.00316638  1
  I  I103  1  0.83315432  0.49431449  0.33272808  1
  I  I104  1  0.83407204  0.49872621  0.66346373  1
  I  I105  1  0.83426209  0.83355513  0.00402339  1
  I  I106  1  0.83351843  0.83779992  0.33206252  1
  I  I107  1  0.83892648  0.83404782  0.66334390  1
  I  I108  1  -0.00102414  0.16467438  0.16412939  1
  I  I109  1  -0.00414171  0.16866141  0.49986634  1
  I  I110  1  -0.00053232  0.16643618  0.83721624  1
  I  I111  1  -0.00440904  0.49735613  0.17102318  1
  I  I112  1  -0.00441639  0.49468658  0.49474590  1
  I  I113  1  -0.00043319  0.49791754  0.83390592  1
  I  I114  1  -0.00077866  0.83763196  0.17127650  1
  I  I115  1  -0.00169156  0.83519557  0.49121968  1
  I  I116  1  -0.00008532  0.83644928  0.83731636  1
  I  I117  1  0.33305410  0.15778170  0.15746471  1
  I  I118  1  0.33311401  0.16485354  0.50124115  1
  I  I119  1  0.33320464  0.16514660  0.84367462  1
  I  I120  1  0.33325453  0.49956191  0.16547446  1
  I  I121  1  0.33298656  0.49943538  0.50097568  1
  I  I122  1  0.33340640  0.50022741  0.83408158  1
  I  I123  1  0.33264511  0.84399102  0.17095951  1
  I  I124  1  0.33023645  0.83738892  0.49512184  1
  I  I125  1  0.33330611  0.83708724  0.83103889  1
  I  I126  1  0.66805350  0.16463250  0.16445133  1
  I  I127  1  0.67142744  0.16429605  0.49951951  1
  I  I128  1  0.66729364  0.16674912  0.83683993  1
  I  I129  1  0.67106257  0.49833008  0.17108487  1
  I  I130  1  0.67190909  0.50027905  0.49428749  1
  I  I131  1  0.66704428  0.49814981  0.83290090  1
  I  I132  1  0.66801779  0.83748917  0.17064341  1
  I  I133  1  0.67052124  0.83442983  0.49531732  1
  I  I134  1  0.66670378  0.83611536  0.83233597  1
