# generated using pymatgen
data_Cs27Sn14Pb13I81
_symmetry_space_group_name_H-M   'P 1'
_cell_length_a   18.97514371
_cell_length_b   18.98145703
_cell_length_c   18.97168630
_cell_angle_alpha   90.00195704
_cell_angle_beta   89.99965663
_cell_angle_gamma   89.99994656
_symmetry_Int_Tables_number   1
_chemical_formula_structural   Cs27Sn14Pb13I81
_chemical_formula_sum   'Cs27 Sn14 Pb13 I81'
_cell_volume   6833.14371258
_cell_formula_units_Z   1
loop_
 _symmetry_equiv_pos_site_id
 _symmetry_equiv_pos_as_xyz
  1  'x, y, z'
loop_
 _atom_site_type_symbol
 _atom_site_label
 _atom_site_symmetry_multiplicity
 _atom_site_fract_x
 _atom_site_fract_y
 _atom_site_fract_z
 _atom_site_occupancy
  Cs  Cs0  1  -0.00137502  0.00033858  0.00134397  1
  Cs  Cs1  1  0.00154098  -0.00124909  0.33110367  1
  Cs  Cs2  1  -0.00396974  0.00185652  0.67001462  1
  Cs  Cs3  1  -0.00044914  0.33575541  -0.00574054  1
  Cs  Cs4  1  -0.00182947  0.33220252  0.33436003  1
  Cs  Cs5  1  0.00942562  0.33457192  0.67175116  1
  Cs  Cs6  1  -0.00163856  0.66460137  -0.00169425  1
  Cs  Cs7  1  0.00535721  0.67036209  0.33423992  1
  Cs  Cs8  1  -0.00318846  0.66441223  0.66796826  1
  Cs  Cs9  1  0.33481844  -0.00292709  0.00121022  1
  Cs  Cs10  1  0.33106006  -0.00159718  0.33174999  1
  Cs  Cs11  1  0.33494794  0.00112307  0.66724190  1
  Cs  Cs12  1  0.33542643  0.33359962  0.00083463  1
  Cs  Cs13  1  0.33367571  0.33297073  0.33349690  1
  Cs  Cs14  1  0.32954303  0.33432050  0.66618446  1
  Cs  Cs15  1  0.33513342  0.67096576  0.00081992  1
  Cs  Cs16  1  0.32873325  0.67012390  0.33344417  1
  Cs  Cs17  1  0.33425198  0.66469318  0.66717179  1
  Cs  Cs18  1  0.66536797  0.00111118  -0.00002929  1
  Cs  Cs19  1  0.66694379  0.00256567  0.33364217  1
  Cs  Cs20  1  0.66735381  -0.00256304  0.66569947  1
  Cs  Cs21  1  0.66659837  0.33539549  0.00222383  1
  Cs  Cs22  1  0.66690199  0.33340098  0.33313254  1
  Cs  Cs23  1  0.66459264  0.33254695  0.66189559  1
  Cs  Cs24  1  0.66727657  0.66297425  0.00118314  1
  Cs  Cs25  1  0.66713376  0.66315019  0.33498508  1
  Cs  Cs26  1  0.66724358  0.67021523  0.66411340  1
  Sn  Sn27  1  0.83316494  0.16626045  0.16715251  1
  Sn  Sn28  1  0.50051848  0.49924981  0.50060137  1
  Sn  Sn29  1  0.50020716  0.49999155  0.83255928  1
  Sn  Sn30  1  0.50019911  0.16600668  0.16679954  1
  Sn  Sn31  1  0.16726360  0.83354988  0.83307684  1
  Sn  Sn32  1  0.50017071  0.16682822  0.83328270  1
  Sn  Sn33  1  0.49927182  0.83325558  0.83415741  1
  Sn  Sn34  1  0.50138036  0.83399366  0.16632822  1
  Sn  Sn35  1  0.83183828  0.83379874  0.16681441  1
  Sn  Sn36  1  0.83281105  0.16771787  0.49946981  1
  Sn  Sn37  1  0.83296882  0.49880608  0.49985420  1
  Sn  Sn38  1  0.16676303  0.49894758  0.16665731  1
  Sn  Sn39  1  0.50049899  0.16737182  0.49974693  1
  Sn  Sn40  1  0.16657285  0.16795603  0.16648166  1
  Pb  Pb41  1  0.16938989  0.50200983  0.83565060  1
  Pb  Pb42  1  0.83056824  0.49965367  0.83008542  1
  Pb  Pb43  1  0.83563379  0.49960968  0.16865937  1
  Pb  Pb44  1  0.83243236  0.83337527  0.83596085  1
  Pb  Pb45  1  0.16693945  0.49986126  0.49822219  1
  Pb  Pb46  1  0.49977237  0.83360919  0.49973555  1
  Pb  Pb47  1  0.16656383  0.16640971  0.49805116  1
  Pb  Pb48  1  0.83095393  0.16695784  0.83312935  1
  Pb  Pb49  1  0.49869195  0.50020858  0.16734296  1
  Pb  Pb50  1  0.16666721  0.83381971  0.16524294  1
  Pb  Pb51  1  0.16933018  0.16470802  0.83608793  1
  Pb  Pb52  1  0.16658956  0.83362569  0.50401114  1
  Pb  Pb53  1  0.83321553  0.83394452  0.49733526  1
  I  I54  1  0.16739173  0.00278106  0.16567120  1
  I  I55  1  0.16779129  0.00030896  0.49528697  1
  I  I56  1  0.17367792  -0.00290653  0.83657630  1
  I  I57  1  0.16888759  0.33187302  0.16740143  1
  I  I58  1  0.16750781  0.33313764  0.50173315  1
  I  I59  1  0.16761830  0.33325303  0.83287548  1
  I  I60  1  0.16787238  0.66520032  0.16590146  1
  I  I61  1  0.16730254  0.66643063  0.49370630  1
  I  I62  1  0.17375267  0.66961927  0.83767162  1
  I  I63  1  0.49825889  0.00118068  0.16397586  1
  I  I64  1  0.50451061  0.00350226  0.50175104  1
  I  I65  1  0.49610540  0.00013334  0.83496158  1
  I  I66  1  0.50199378  0.33024153  0.16415269  1
  I  I67  1  0.50364557  0.33242152  0.50182666  1
  I  I68  1  0.50155656  0.33275967  0.83425684  1
  I  I69  1  0.50154910  0.66932920  0.16301226  1
  I  I70  1  0.50388018  0.66374814  0.50281792  1
  I  I71  1  0.49576469  0.66711575  0.83405290  1
  I  I72  1  0.83447956  0.00147751  0.17187649  1
  I  I73  1  0.82758205  0.00373545  0.49803870  1
  I  I74  1  0.83166365  0.00010967  0.82841282  1
  I  I75  1  0.82932249  0.32991594  0.16893922  1
  I  I76  1  0.82640217  0.33213866  0.49181474  1
  I  I77  1  0.83229886  0.33327514  0.84074135  1
  I  I78  1  0.83005711  0.66906972  0.16683698  1
  I  I79  1  0.82824960  0.66385844  0.49942652  1
  I  I80  1  0.83140166  0.66661113  0.83420167  1
  I  I81  1  0.16602931  0.16976867  0.00436353  1
  I  I82  1  0.17219231  0.16849500  0.32944103  1
  I  I83  1  0.16631493  0.16469904  0.66706262  1
  I  I84  1  0.16774929  0.49546940  0.00337559  1
  I  I85  1  0.17017716  0.49770880  0.33023871  1
  I  I86  1  0.16481801  0.50252862  0.66692625  1
  I  I87  1  0.17104984  0.83359119  -0.00216066  1
  I  I88  1  0.16720797  0.83236657  0.33273177  1
  I  I89  1  0.17626160  0.83266580  0.67176021  1
  I  I90  1  0.49923111  0.16572084  0.00084637  1
  I  I91  1  0.50043431  0.16708952  0.33259315  1
  I  I92  1  0.50490119  0.16621695  0.66634988  1
  I  I93  1  0.49642615  0.49839085  -0.00205962  1
  I  I94  1  0.50254788  0.49640714  0.33609149  1
  I  I95  1  0.50317231  0.49762825  0.66654373  1
  I  I96  1  0.49927094  0.83643995  0.00035661  1
  I  I97  1  0.50347998  0.83643958  0.32999142  1
  I  I98  1  0.49510358  0.83561183  0.66971638  1
  I  I99  1  0.83267794  0.16132725  0.00353898  1
  I  I100  1  0.82785431  0.16662245  0.33238068  1
  I  I101  1  0.82774396  0.16977665  0.66317868  1
  I  I102  1  0.83349688  0.50074649  0.00021245  1
  I  I103  1  0.82479649  0.49856275  0.33629384  1
  I  I104  1  0.83280197  0.49424853  0.66201141  1
  I  I105  1  0.83185573  0.84023305  0.00407041  1
  I  I106  1  0.82727908  0.83520560  0.32920266  1
  I  I107  1  0.83424817  0.83337706  0.66663316  1
  I  I108  1  -0.00094881  0.16491740  0.17283696  1
  I  I109  1  -0.00359189  0.17017763  0.49391073  1
  I  I110  1  0.00020051  0.16386861  0.83297738  1
  I  I111  1  0.00320202  0.49746346  0.16876758  1
  I  I112  1  -0.00296341  0.49603204  0.49598796  1
  I  I113  1  0.00024772  0.50307419  0.83279839  1
  I  I114  1  -0.00221187  0.83660068  0.16621033  1
  I  I115  1  -0.00035438  0.83248296  0.49774436  1
  I  I116  1  0.00227602  0.83303413  0.83585875  1
  I  I117  1  0.33494548  0.16611855  0.16635929  1
  I  I118  1  0.33711765  0.17068490  0.49963312  1
  I  I119  1  0.33797122  0.16860621  0.83254319  1
  I  I120  1  0.33114956  0.49627986  0.16777648  1
  I  I121  1  0.33685340  0.49548312  0.50324265  1
  I  I122  1  0.33761971  0.49736480  0.82701688  1
  I  I123  1  0.33619485  0.83625956  0.16459416  1
  I  I124  1  0.33378136  0.83285462  0.49266923  1
  I  I125  1  0.33603294  0.83360833  0.84100389  1
  I  I126  1  0.66573911  0.16133881  0.16711501  1
  I  I127  1  0.66536848  0.17072393  0.49480378  1
  I  I128  1  0.66210996  0.16330817  0.83832859  1
  I  I129  1  0.66658787  0.49950896  0.16448122  1
  I  I130  1  0.66542951  0.49595150  0.50236596  1
  I  I131  1  0.66200484  0.50290168  0.83567128  1
  I  I132  1  0.66531973  0.84089717  0.16120367  1
  I  I133  1  0.66639775  0.83228693  0.50459843  1
  I  I134  1  0.66262047  0.83406498  0.83504616  1
