# generated using pymatgen
data_Cs27Sn14Pb13I81
_symmetry_space_group_name_H-M   'P 1'
_cell_length_a   18.96307891
_cell_length_b   18.96228796
_cell_length_c   18.95975990
_cell_angle_alpha   90.00104609
_cell_angle_beta   89.99915224
_cell_angle_gamma   89.99815896
_symmetry_Int_Tables_number   1
_chemical_formula_structural   Cs27Sn14Pb13I81
_chemical_formula_sum   'Cs27 Sn14 Pb13 I81'
_cell_volume   6817.61421765
_cell_formula_units_Z   1
loop_
 _symmetry_equiv_pos_site_id
 _symmetry_equiv_pos_as_xyz
  1  'x, y, z'
loop_
 _atom_site_type_symbol
 _atom_site_label
 _atom_site_symmetry_multiplicity
 _atom_site_fract_x
 _atom_site_fract_y
 _atom_site_fract_z
 _atom_site_occupancy
  Cs  Cs0  1  -0.00218627  -0.00315110  0.00251320  1
  Cs  Cs1  1  0.00075380  0.00119107  0.33342511  1
  Cs  Cs2  1  -0.00049584  0.00108703  0.66660702  1
  Cs  Cs3  1  -0.00026241  0.33453042  -0.00173034  1
  Cs  Cs4  1  -0.00130080  0.33267052  0.33327385  1
  Cs  Cs5  1  0.00283962  0.33042857  0.67211435  1
  Cs  Cs6  1  0.00057194  0.66857230  0.00137698  1
  Cs  Cs7  1  0.00063223  0.66592694  0.33252060  1
  Cs  Cs8  1  -0.00139684  0.66803038  0.66663849  1
  Cs  Cs9  1  0.33696703  -0.00027312  0.00312395  1
  Cs  Cs10  1  0.33485718  -0.00054344  0.33303832  1
  Cs  Cs11  1  0.33060696  -0.00093177  0.66411371  1
  Cs  Cs12  1  0.33689143  0.33433459  -0.00558980  1
  Cs  Cs13  1  0.33286798  0.33447611  0.33393258  1
  Cs  Cs14  1  0.33189865  0.33256404  0.67087130  1
  Cs  Cs15  1  0.33163192  0.66615079  -0.00000867  1
  Cs  Cs16  1  0.33356233  0.66714046  0.33404284  1
  Cs  Cs17  1  0.33417014  0.66703955  0.66617121  1
  Cs  Cs18  1  0.66644673  0.00327555  -0.00030632  1
  Cs  Cs19  1  0.66487539  0.00050053  0.33383067  1
  Cs  Cs20  1  0.67023438  -0.00125531  0.66543667  1
  Cs  Cs21  1  0.66254648  0.33276927  -0.00769014  1
  Cs  Cs22  1  0.66848361  0.33431662  0.33431572  1
  Cs  Cs23  1  0.66598386  0.33514889  0.66917239  1
  Cs  Cs24  1  0.67020956  0.66470663  -0.00358193  1
  Cs  Cs25  1  0.66578889  0.66477952  0.33494116  1
  Cs  Cs26  1  0.66834925  0.66620573  0.66712856  1
  Sn  Sn27  1  0.83433085  0.83404228  0.49849900  1
  Sn  Sn28  1  0.83367538  0.83404206  0.16813694  1
  Sn  Sn29  1  0.16588933  0.83257504  0.49978190  1
  Sn  Sn30  1  0.16730489  0.50054065  0.49925093  1
  Sn  Sn31  1  0.49939544  0.50015785  0.16745652  1
  Sn  Sn32  1  0.50058501  0.16759167  0.49953314  1
  Sn  Sn33  1  0.83389507  0.16609656  0.16757657  1
  Sn  Sn34  1  0.83259823  0.16608873  0.49907251  1
  Sn  Sn35  1  0.16773146  0.83338768  0.83340953  1
  Sn  Sn36  1  0.16765753  0.49972815  0.16762847  1
  Sn  Sn37  1  0.49899336  0.49889870  0.49905804  1
  Sn  Sn38  1  0.16629891  0.16679754  0.16694147  1
  Sn  Sn39  1  0.49938736  0.83356684  0.83336745  1
  Sn  Sn40  1  0.16637712  0.83347412  0.16699859  1
  Pb  Pb41  1  0.49977639  0.16381843  0.82981517  1
  Pb  Pb42  1  0.16654160  0.50222609  0.83329115  1
  Pb  Pb43  1  0.50019309  0.83299130  0.50129149  1
  Pb  Pb44  1  0.83369155  0.49991275  0.83326055  1
  Pb  Pb45  1  0.16669712  0.16353870  0.83714794  1
  Pb  Pb46  1  0.83348187  0.16643049  0.83358927  1
  Pb  Pb47  1  0.49969551  0.50217529  0.83271325  1
  Pb  Pb48  1  0.83401702  0.49962425  0.50011378  1
  Pb  Pb49  1  0.83353086  0.49960371  0.16657354  1
  Pb  Pb50  1  0.83379947  0.83344969  0.83344770  1
  Pb  Pb51  1  0.16635540  0.16692454  0.49841493  1
  Pb  Pb52  1  0.50036110  0.16905425  0.16842864  1
  Pb  Pb53  1  0.50063562  0.83118748  0.16500210  1
  I  I54  1  0.16206741  -0.00111843  0.16649960  1
  I  I55  1  0.16666473  -0.00293709  0.49958986  1
  I  I56  1  0.16973928  -0.00474589  0.83022632  1
  I  I57  1  0.16560959  0.33395475  0.17340637  1
  I  I58  1  0.16746941  0.33592773  0.49434017  1
  I  I59  1  0.16592083  0.33322845  0.83231792  1
  I  I60  1  0.16640869  0.66749347  0.16667692  1
  I  I61  1  0.16736007  0.66763235  0.49608418  1
  I  I62  1  0.16985992  0.67056607  0.83723390  1
  I  I63  1  0.49730255  -0.00000002  0.16677930  1
  I  I64  1  0.50096839  0.00186680  0.50209323  1
  I  I65  1  0.49556009  -0.00389205  0.83392525  1
  I  I66  1  0.49592707  0.33699241  0.16868277  1
  I  I67  1  0.50022867  0.33405329  0.49526792  1
  I  I68  1  0.50142957  0.33335853  0.83527422  1
  I  I69  1  0.49581195  0.66331768  0.17288426  1
  I  I70  1  0.49880261  0.66408182  0.49810782  1
  I  I71  1  0.49598317  0.66981805  0.83126401  1
  I  I72  1  0.84136544  -0.00070873  0.17013740  1
  I  I73  1  0.83281660  -0.00068613  0.49686856  1
  I  I74  1  0.83297853  -0.00035822  0.83274714  1
  I  I75  1  0.83737698  0.33007107  0.17233837  1
  I  I76  1  0.83214080  0.33018355  0.49448420  1
  I  I77  1  0.83253584  0.33284775  0.83352314  1
  I  I78  1  0.83653281  0.66982875  0.16996026  1
  I  I79  1  0.83408642  0.66983671  0.49643318  1
  I  I80  1  0.83215779  0.66755082  0.83334082  1
  I  I81  1  0.16080861  0.16830363  0.00554712  1
  I  I82  1  0.16568904  0.16238703  0.33021484  1
  I  I83  1  0.16638740  0.16678945  0.66648225  1
  I  I84  1  0.16984282  0.50078011  0.00374765  1
  I  I85  1  0.17095682  0.50565084  0.33292973  1
  I  I86  1  0.17032990  0.50433801  0.66303586  1
  I  I87  1  0.16613593  0.83305304  0.00162477  1
  I  I88  1  0.16216411  0.83203498  0.33304319  1
  I  I89  1  0.16675963  0.82851269  0.66519815  1
  I  I90  1  0.50060144  0.16806987  0.00017746  1
  I  I91  1  0.50133139  0.16607552  0.33648382  1
  I  I92  1  0.50536436  0.17324529  0.66173427  1
  I  I93  1  0.49608512  0.50172083  0.00277863  1
  I  I94  1  0.49545228  0.49846433  0.33414213  1
  I  I95  1  0.49619164  0.49739854  0.66296468  1
  I  I96  1  0.49539732  0.83082440  -0.00260257  1
  I  I97  1  0.49822553  0.83427003  0.33341421  1
  I  I98  1  0.49555794  0.83207811  0.66893212  1
  I  I99  1  0.83799407  0.16155544  0.00401749  1
  I  I100  1  0.83358447  0.16161722  0.33332290  1
  I  I101  1  0.82945896  0.16210216  0.66291881  1
  I  I102  1  0.83290905  0.50175325  0.00082091  1
  I  I103  1  0.83220680  0.50114538  0.33331992  1
  I  I104  1  0.83241511  0.50199717  0.66581355  1
  I  I105  1  0.83658498  0.83638963  0.00344567  1
  I  I106  1  0.84063567  0.83696429  0.33341781  1
  I  I107  1  0.83605034  0.83646356  0.66332766  1
  I  I108  1  0.00006663  0.16661354  0.17278723  1
  I  I109  1  -0.00256324  0.16495570  0.49739698  1
  I  I110  1  0.00021163  0.16535833  0.82733224  1
  I  I111  1  0.00358125  0.50114072  0.17110971  1
  I  I112  1  0.00351237  0.50243270  0.49466228  1
  I  I113  1  0.00070234  0.50274072  0.83309593  1
  I  I114  1  0.00133916  0.83178905  0.16491957  1
  I  I115  1  0.00093501  0.83308027  0.50133737  1
  I  I116  1  0.00319045  0.83248306  0.83385657  1
  I  I117  1  0.33062630  0.16290559  0.16874572  1
  I  I118  1  0.33518213  0.16662639  0.49824043  1
  I  I119  1  0.33322217  0.16703725  0.83304253  1
  I  I120  1  0.33181662  0.50130485  0.17086271  1
  I  I121  1  0.33275278  0.50125260  0.49558570  1
  I  I122  1  0.33314228  0.50026525  0.83382916  1
  I  I123  1  0.33008253  0.83537289  0.16900988  1
  I  I124  1  0.33037673  0.83300237  0.49779156  1
  I  I125  1  0.33175293  0.83243823  0.83292681  1
  I  I126  1  0.66962074  0.16176544  0.16934369  1
  I  I127  1  0.66759040  0.16519370  0.49421229  1
  I  I128  1  0.66651012  0.16387938  0.83822670  1
  I  I129  1  0.66395401  0.50155857  0.17115731  1
  I  I130  1  0.66389109  0.50023672  0.49613876  1
  I  I131  1  0.66608987  0.50413237  0.83430404  1
  I  I132  1  0.66984538  0.83656997  0.16962705  1
  I  I133  1  0.66937931  0.83403816  0.49784584  1
  I  I134  1  0.66453932  0.83206223  0.83238978  1
