# generated using pymatgen
data_Cs27Sn13Pb14I81
_symmetry_space_group_name_H-M   'P 1'
_cell_length_a   18.98148708
_cell_length_b   18.97713864
_cell_length_c   18.97593855
_cell_angle_alpha   90.00022461
_cell_angle_beta   89.99743970
_cell_angle_gamma   89.99846668
_symmetry_Int_Tables_number   1
_chemical_formula_structural   Cs27Sn13Pb14I81
_chemical_formula_sum   'Cs27 Sn13 Pb14 I81'
_cell_volume   6835.40463801
_cell_formula_units_Z   1
loop_
 _symmetry_equiv_pos_site_id
 _symmetry_equiv_pos_as_xyz
  1  'x, y, z'
loop_
 _atom_site_type_symbol
 _atom_site_label
 _atom_site_symmetry_multiplicity
 _atom_site_fract_x
 _atom_site_fract_y
 _atom_site_fract_z
 _atom_site_occupancy
  Cs  Cs0  1  0.00078391  -0.00151702  -0.00132413  1
  Cs  Cs1  1  0.00170301  -0.00056223  0.33305657  1
  Cs  Cs2  1  -0.00067821  0.00054978  0.66762527  1
  Cs  Cs3  1  0.00053199  0.33180841  -0.00328954  1
  Cs  Cs4  1  -0.00042898  0.33640446  0.33506897  1
  Cs  Cs5  1  0.00081484  0.33429246  0.66640006  1
  Cs  Cs6  1  -0.00073042  0.66895035  0.00120801  1
  Cs  Cs7  1  -0.00335474  0.66376101  0.33111427  1
  Cs  Cs8  1  0.00148030  0.66617283  0.66618930  1
  Cs  Cs9  1  0.33085059  0.00057763  0.00771280  1
  Cs  Cs10  1  0.33219660  0.00090305  0.32952539  1
  Cs  Cs11  1  0.33268608  -0.00056974  0.66502851  1
  Cs  Cs12  1  0.33534873  0.33595752  0.00309630  1
  Cs  Cs13  1  0.33378600  0.33070965  0.33280220  1
  Cs  Cs14  1  0.33220024  0.33444335  0.66611715  1
  Cs  Cs15  1  0.34123104  0.66230271  -0.00245665  1
  Cs  Cs16  1  0.33470302  0.67079139  0.33260603  1
  Cs  Cs17  1  0.33437952  0.66647039  0.67043187  1
  Cs  Cs18  1  0.66772794  -0.00038230  -0.00017285  1
  Cs  Cs19  1  0.66582027  -0.00110017  0.33537720  1
  Cs  Cs20  1  0.66769348  0.00074413  0.66621570  1
  Cs  Cs21  1  0.66559631  0.33399694  0.00126042  1
  Cs  Cs22  1  0.66697712  0.33541239  0.33299031  1
  Cs  Cs23  1  0.66781726  0.32939057  0.66496829  1
  Cs  Cs24  1  0.66145083  0.66387673  0.00552053  1
  Cs  Cs25  1  0.66868917  0.66520012  0.32559694  1
  Cs  Cs26  1  0.66458004  0.67043072  0.66757821  1
  Sn  Sn27  1  0.83389800  0.83202584  0.83242859  1
  Sn  Sn28  1  0.83430349  0.83388756  0.50083900  1
  Sn  Sn29  1  0.16655241  0.16610650  0.50081329  1
  Sn  Sn30  1  0.49842259  0.16623988  0.83252909  1
  Sn  Sn31  1  0.16797500  0.16601627  0.83257932  1
  Sn  Sn32  1  0.16613846  0.83416483  0.83250560  1
  Sn  Sn33  1  0.49971970  0.16754037  0.50095069  1
  Sn  Sn34  1  0.50010231  0.49967034  0.50043443  1
  Sn  Sn35  1  0.83336889  0.50141039  0.83280122  1
  Sn  Sn36  1  0.83376544  0.16642966  0.16799868  1
  Sn  Sn37  1  0.16557910  0.83403665  0.50099114  1
  Sn  Sn38  1  0.83374178  0.16609773  0.49887816  1
  Sn  Sn39  1  0.16641367  0.49999917  0.16669173  1
  Pb  Pb40  1  0.16470939  0.16805740  0.16677306  1
  Pb  Pb41  1  0.50248694  0.16657090  0.16704259  1
  Pb  Pb42  1  0.49973229  0.83617462  0.83329325  1
  Pb  Pb43  1  0.83364947  0.16592852  0.83258948  1
  Pb  Pb44  1  0.50258627  0.49729358  0.83113703  1
  Pb  Pb45  1  0.49998616  0.83358560  0.16653087  1
  Pb  Pb46  1  0.83352403  0.83546159  0.16667985  1
  Pb  Pb47  1  0.16842598  0.50049180  0.49869973  1
  Pb  Pb48  1  0.83499139  0.49762194  0.16401457  1
  Pb  Pb49  1  0.16654351  0.83094239  0.16643575  1
  Pb  Pb50  1  0.49999139  0.83393250  0.49996049  1
  Pb  Pb51  1  0.49764458  0.49957739  0.16957685  1
  Pb  Pb52  1  0.83156745  0.50058570  0.50164120  1
  Pb  Pb53  1  0.16534149  0.50019402  0.83474515  1
  I  I54  1  0.16593252  0.00001525  0.16637993  1
  I  I55  1  0.16739455  0.00109459  0.50326859  1
  I  I56  1  0.16343376  0.00048379  0.82956293  1
  I  I57  1  0.16489079  0.33546412  0.16662955  1
  I  I58  1  0.16422163  0.32997021  0.50302465  1
  I  I59  1  0.16703900  0.33019450  0.82996807  1
  I  I60  1  0.16542425  0.66364861  0.16796359  1
  I  I61  1  0.16346846  0.67010222  0.50284682  1
  I  I62  1  0.16297915  0.66990399  0.82940752  1
  I  I63  1  0.49924906  0.00076660  0.16868442  1
  I  I64  1  0.50129387  0.00364659  0.50417900  1
  I  I65  1  0.50269746  0.00412198  0.82495123  1
  I  I66  1  0.50054155  0.33301741  0.16460469  1
  I  I67  1  0.50019519  0.33085844  0.50356828  1
  I  I68  1  0.49635804  0.32932890  0.83090787  1
  I  I69  1  0.50021447  0.66608243  0.16866667  1
  I  I70  1  0.49935455  0.66449617  0.49885512  1
  I  I71  1  0.49785384  0.66659823  0.83236167  1
  I  I72  1  0.83439812  0.00338386  0.16597595  1
  I  I73  1  0.83181146  0.00088051  0.50233239  1
  I  I74  1  0.83418610  -0.00249248  0.83227440  1
  I  I75  1  0.83403632  0.32990973  0.17126559  1
  I  I76  1  0.83526504  0.33021814  0.49900777  1
  I  I77  1  0.83334624  0.33436418  0.83382984  1
  I  I78  1  0.83383056  0.66661193  0.16914107  1
  I  I79  1  0.83714689  0.66995588  0.50318708  1
  I  I80  1  0.83991989  0.66839255  0.82720914  1
  I  I81  1  0.16825200  0.16380571  -0.00319289  1
  I  I82  1  0.16912719  0.16346615  0.33689325  1
  I  I83  1  0.16495187  0.16423182  0.66593156  1
  I  I84  1  0.16427180  0.49801121  0.00229007  1
  I  I85  1  0.16665571  0.49834629  0.33118085  1
  I  I86  1  0.16676748  0.49915833  0.66662062  1
  I  I87  1  0.16138854  0.83855747  -0.00369040  1
  I  I88  1  0.16350592  0.83741570  0.33695263  1
  I  I89  1  0.16195319  0.83750567  0.66640258  1
  I  I90  1  0.49761900  0.16550600  -0.00309067  1
  I  I91  1  0.49762254  0.16966386  0.33721041  1
  I  I92  1  0.50210273  0.17028528  0.66538918  1
  I  I93  1  0.50050057  0.49894669  -0.00018584  1
  I  I94  1  0.50140234  0.49259394  0.33727941  1
  I  I95  1  0.49823949  0.49692326  0.66355865  1
  I  I96  1  0.50034355  0.83515304  -0.00069811  1
  I  I97  1  0.49949335  0.83507373  0.33409329  1
  I  I98  1  0.50093109  0.83095094  0.66651635  1
  I  I99  1  0.83364085  0.16774869  0.00114066  1
  I  I100  1  0.83329551  0.16231984  0.33607202  1
  I  I101  1  0.83252698  0.16592731  0.66362564  1
  I  I102  1  0.83408532  0.50295939  -0.00377195  1
  I  I103  1  0.83233718  0.50167506  0.33346073  1
  I  I104  1  0.83480664  0.49761187  0.66937376  1
  I  I105  1  0.83806096  0.83289148  -0.00344909  1
  I  I106  1  0.83721549  0.83617541  0.33695783  1
  I  I107  1  0.83702837  0.83638063  0.66621528  1
  I  I108  1  -0.00291029  0.16781574  0.16993886  1
  I  I109  1  0.00018843  0.16263151  0.50053515  1
  I  I110  1  0.00256883  0.16652662  0.83098109  1
  I  I111  1  0.00231654  0.49901237  0.16894958  1
  I  I112  1  -0.00000385  0.49676230  0.49933585  1
  I  I113  1  -0.00253968  0.49735721  0.83263479  1
  I  I114  1  0.00001669  0.83322586  0.16652991  1
  I  I115  1  -0.00007981  0.84154941  0.50410174  1
  I  I116  1  0.00013936  0.83635540  0.82946573  1
  I  I117  1  0.33312479  0.16793119  0.16834253  1
  I  I118  1  0.33270043  0.16700502  0.50486095  1
  I  I119  1  0.33207941  0.16270979  0.82531170  1
  I  I120  1  0.33022532  0.49826546  0.16445141  1
  I  I121  1  0.33606700  0.49444952  0.49939460  1
  I  I122  1  0.33351354  0.50211785  0.83482306  1
  I  I123  1  0.33268003  0.83417659  0.16829394  1
  I  I124  1  0.32992735  0.83567852  0.50377462  1
  I  I125  1  0.32970634  0.83491785  0.82781960  1
  I  I126  1  0.67037091  0.16721601  0.16896940  1
  I  I127  1  0.66703847  0.16674649  0.50094241  1
  I  I128  1  0.66505933  0.16764778  0.83021324  1
  I  I129  1  0.66670158  0.49944570  0.16606958  1
  I  I130  1  0.66393511  0.49368970  0.50178755  1
  I  I131  1  0.67032299  0.50370826  0.83317634  1
  I  I132  1  0.66732321  0.83336537  0.16723341  1
  I  I133  1  0.66997082  0.83775442  0.50459969  1
  I  I134  1  0.66993158  0.83257663  0.82851569  1
