# generated using pymatgen
data_Cs27Sn13Pb14I81
_symmetry_space_group_name_H-M   'P 1'
_cell_length_a   18.97383776
_cell_length_b   18.97655204
_cell_length_c   18.97941559
_cell_angle_alpha   89.99903093
_cell_angle_beta   90.00083052
_cell_angle_gamma   89.99966055
_symmetry_Int_Tables_number   1
_chemical_formula_structural   Cs27Sn13Pb14I81
_chemical_formula_sum   'Cs27 Sn13 Pb14 I81'
_cell_volume   6833.69079179
_cell_formula_units_Z   1
loop_
 _symmetry_equiv_pos_site_id
 _symmetry_equiv_pos_as_xyz
  1  'x, y, z'
loop_
 _atom_site_type_symbol
 _atom_site_label
 _atom_site_symmetry_multiplicity
 _atom_site_fract_x
 _atom_site_fract_y
 _atom_site_fract_z
 _atom_site_occupancy
  Cs  Cs0  1  -0.01182535  0.00228954  0.00006483  1
  Cs  Cs1  1  0.00183030  -0.00869828  0.33442506  1
  Cs  Cs2  1  0.00030289  0.00086207  0.66462452  1
  Cs  Cs3  1  -0.00301746  0.33049771  0.00075762  1
  Cs  Cs4  1  -0.00331764  0.33487305  0.33041469  1
  Cs  Cs5  1  0.00580033  0.33199027  0.66869827  1
  Cs  Cs6  1  0.00232281  0.66829537  0.00488454  1
  Cs  Cs7  1  -0.00331782  0.67354947  0.32836351  1
  Cs  Cs8  1  -0.00094911  0.66647283  0.66547576  1
  Cs  Cs9  1  0.33548739  -0.00023010  0.00059150  1
  Cs  Cs10  1  0.33280475  0.00045444  0.33362694  1
  Cs  Cs11  1  0.33338459  0.00090306  0.66527656  1
  Cs  Cs12  1  0.33363203  0.33359502  -0.00013082  1
  Cs  Cs13  1  0.33442909  0.33395741  0.33096187  1
  Cs  Cs14  1  0.33092252  0.33336280  0.66744772  1
  Cs  Cs15  1  0.33226257  0.66667232  -0.00146182  1
  Cs  Cs16  1  0.33157757  0.66506689  0.32845081  1
  Cs  Cs17  1  0.33376005  0.66502690  0.66952532  1
  Cs  Cs18  1  0.66782405  0.00089117  0.00033102  1
  Cs  Cs19  1  0.66491393  0.00262827  0.33345489  1
  Cs  Cs20  1  0.66530886  -0.00087055  0.66637906  1
  Cs  Cs21  1  0.66787461  0.33170821  0.00178748  1
  Cs  Cs22  1  0.66885732  0.33728112  0.33523449  1
  Cs  Cs23  1  0.66558652  0.33500652  0.66404138  1
  Cs  Cs24  1  0.66656796  0.66830095  -0.00223134  1
  Cs  Cs25  1  0.67192732  0.65708611  0.33748054  1
  Cs  Cs26  1  0.66881459  0.66602144  0.66578777  1
  Sn  Sn27  1  0.50053704  0.16625059  0.49996169  1
  Sn  Sn28  1  0.83317521  0.16639556  0.50025060  1
  Sn  Sn29  1  0.49967344  0.83334252  0.49969638  1
  Sn  Sn30  1  0.16639810  0.50082912  0.83267995  1
  Sn  Sn31  1  0.49905872  0.16601505  0.16684418  1
  Sn  Sn32  1  0.83372195  0.49993318  0.83336139  1
  Sn  Sn33  1  0.16724108  0.83341868  0.83337160  1
  Sn  Sn34  1  0.16673205  0.50033712  0.49986526  1
  Sn  Sn35  1  0.49970624  0.16658381  0.83319836  1
  Sn  Sn36  1  0.50002611  0.83364245  0.16707832  1
  Sn  Sn37  1  0.49914413  0.83349005  0.83316638  1
  Sn  Sn38  1  0.50018780  0.49997463  0.83322567  1
  Sn  Sn39  1  0.16717209  0.16635382  0.16649070  1
  Pb  Pb40  1  0.83260511  0.16652123  0.16939729  1
  Pb  Pb41  1  0.16831876  0.16619095  0.83517761  1
  Pb  Pb42  1  0.16874461  0.83588717  0.16368921  1
  Pb  Pb43  1  0.83326183  0.83127171  0.83318646  1
  Pb  Pb44  1  0.83336313  0.50004046  0.16395799  1
  Pb  Pb45  1  0.16672306  0.49813850  0.16604911  1
  Pb  Pb46  1  0.49831883  0.49995397  0.50203251  1
  Pb  Pb47  1  0.83048119  0.16868494  0.83104359  1
  Pb  Pb48  1  0.83068228  0.83546152  0.50028437  1
  Pb  Pb49  1  0.82957301  0.83341876  0.16674270  1
  Pb  Pb50  1  0.16924113  0.83103499  0.50202058  1
  Pb  Pb51  1  0.16718007  0.16815093  0.49785759  1
  Pb  Pb52  1  0.83642907  0.49801248  0.50213983  1
  Pb  Pb53  1  0.50015076  0.50002885  0.16405185  1
  I  I54  1  0.17131254  0.00345138  0.16719548  1
  I  I55  1  0.16488459  -0.00007333  0.50106748  1
  I  I56  1  0.17419342  -0.00267451  0.83455403  1
  I  I57  1  0.17467522  0.33028314  0.16481046  1
  I  I58  1  0.16947044  0.33588285  0.50829658  1
  I  I59  1  0.16865229  0.33617173  0.83101181  1
  I  I60  1  0.16836463  0.66706635  0.16751236  1
  I  I61  1  0.16936268  0.66322444  0.50368528  1
  I  I62  1  0.17305436  0.66579629  0.82992443  1
  I  I63  1  0.49639071  0.00090475  0.16225706  1
  I  I64  1  0.50286974  0.00082130  0.50463902  1
  I  I65  1  0.49529634  -0.00030789  0.83317497  1
  I  I66  1  0.49688957  0.32987423  0.16618105  1
  I  I67  1  0.50215531  0.33026970  0.50041022  1
  I  I68  1  0.49956371  0.33324402  0.83307524  1
  I  I69  1  0.49962229  0.66989153  0.16552988  1
  I  I70  1  0.49719220  0.66934317  0.50107716  1
  I  I71  1  0.49928572  0.66695648  0.83352058  1
  I  I72  1  0.83559003  0.00030878  0.16440258  1
  I  I73  1  0.83174310  0.00360254  0.50092587  1
  I  I74  1  0.83368560  0.00019008  0.83340466  1
  I  I75  1  0.83098877  0.33296430  0.16621067  1
  I  I76  1  0.82406630  0.33035449  0.50028743  1
  I  I77  1  0.83419545  0.33660918  0.83250005  1
  I  I78  1  0.83237316  0.66675021  0.16743325  1
  I  I79  1  0.83144831  0.66646450  0.50108862  1
  I  I80  1  0.82728901  0.66325626  0.83158362  1
  I  I81  1  0.17425811  0.16897165  0.00273502  1
  I  I82  1  0.17397462  0.16950747  0.33037003  1
  I  I83  1  0.16783350  0.16647781  0.66681999  1
  I  I84  1  0.16826765  0.50295473  -0.00400513  1
  I  I85  1  0.16925512  0.49604868  0.33574130  1
  I  I86  1  0.16813514  0.50100279  0.66878792  1
  I  I87  1  0.17471606  0.82488289  -0.00407595  1
  I  I88  1  0.16812596  0.83191156  0.33306407  1
  I  I89  1  0.17381664  0.83264824  0.67020577  1
  I  I90  1  0.49519242  0.16531106  -0.00036054  1
  I  I91  1  0.49940815  0.15963340  0.33349485  1
  I  I92  1  0.50399697  0.16457314  0.66687204  1
  I  I93  1  0.49683322  0.49940871  -0.00476617  1
  I  I94  1  0.49781232  0.50001046  0.33352144  1
  I  I95  1  0.50076501  0.49948335  0.67064272  1
  I  I96  1  0.49647113  0.83557565  -0.00106548  1
  I  I97  1  0.50001423  0.84310422  0.33343710  1
  I  I98  1  0.49696134  0.83654765  0.66759766  1
  I  I99  1  0.83276927  0.16842692  -0.00009064  1
  I  I100  1  0.82587803  0.16906569  0.33680109  1
  I  I101  1  0.82742925  0.16733147  0.66354991  1
  I  I102  1  0.83407144  0.49843381  -0.00463656  1
  I  I103  1  0.83380966  0.49837501  0.33385949  1
  I  I104  1  0.82935005  0.49932262  0.67004796  1
  I  I105  1  0.83113261  0.83352090  -0.00028666  1
  I  I106  1  0.83395078  0.83291647  0.33354578  1
  I  I107  1  0.82987099  0.83395659  0.66682672  1
  I  I108  1  0.00238897  0.16979364  0.16619109  1
  I  I109  1  -0.00196134  0.17124167  0.49934071  1
  I  I110  1  -0.00004233  0.16716332  0.83407859  1
  I  I111  1  0.00029453  0.49583407  0.16444365  1
  I  I112  1  0.00382037  0.49616432  0.50782017  1
  I  I113  1  0.00123715  0.50390561  0.82858875  1
  I  I114  1  0.00031907  0.83500046  0.16458806  1
  I  I115  1  0.00032982  0.83486379  0.50240695  1
  I  I116  1  0.00319140  0.82839706  0.83338427  1
  I  I117  1  0.33589138  0.16443970  0.16812362  1
  I  I118  1  0.33702097  0.16419734  0.50213401  1
  I  I119  1  0.33724411  0.17058200  0.82894983  1
  I  I120  1  0.33356557  0.50003603  0.16451147  1
  I  I121  1  0.33085438  0.49748446  0.50762643  1
  I  I122  1  0.33371942  0.50057768  0.82995691  1
  I  I123  1  0.33719196  0.83571223  0.16744418  1
  I  I124  1  0.33756225  0.84116932  0.49974162  1
  I  I125  1  0.33547861  0.82821792  0.83325052  1
  I  I126  1  0.66261624  0.16237645  0.16336535  1
  I  I127  1  0.66389984  0.16399740  0.49931388  1
  I  I128  1  0.66169594  0.16551345  0.83827435  1
  I  I129  1  0.66630821  0.49792785  0.16568024  1
  I  I130  1  0.66654522  0.50127695  0.50188571  1
  I  I131  1  0.66519265  0.49946104  0.83428297  1
  I  I132  1  0.66102430  0.84139429  0.16134932  1
  I  I133  1  0.66177231  0.83398891  0.50387180  1
  I  I134  1  0.66251235  0.83289706  0.83391864  1
