# generated using pymatgen
data_Cs27Sn13Pb14I81
_symmetry_space_group_name_H-M   'P 1'
_cell_length_a   18.99906360
_cell_length_b   18.99582800
_cell_length_c   18.98105041
_cell_angle_alpha   89.99962628
_cell_angle_beta   90.00071766
_cell_angle_gamma   90.00018142
_symmetry_Int_Tables_number   1
_chemical_formula_structural   Cs27Sn13Pb14I81
_chemical_formula_sum   'Cs27 Sn13 Pb14 I81'
_cell_volume   6850.31697891
_cell_formula_units_Z   1
loop_
 _symmetry_equiv_pos_site_id
 _symmetry_equiv_pos_as_xyz
  1  'x, y, z'
loop_
 _atom_site_type_symbol
 _atom_site_label
 _atom_site_symmetry_multiplicity
 _atom_site_fract_x
 _atom_site_fract_y
 _atom_site_fract_z
 _atom_site_occupancy
  Cs  Cs0  1  0.00176848  -0.00661904  0.00032554  1
  Cs  Cs1  1  0.00098907  -0.00075198  0.33345907  1
  Cs  Cs2  1  -0.00242039  0.00217908  0.66507992  1
  Cs  Cs3  1  -0.00228434  0.33393345  0.00210976  1
  Cs  Cs4  1  0.00186864  0.33323973  0.33268608  1
  Cs  Cs5  1  0.00228879  0.33446646  0.66928985  1
  Cs  Cs6  1  -0.00900883  0.67471906  -0.00557170  1
  Cs  Cs7  1  -0.00398308  0.66809256  0.33465263  1
  Cs  Cs8  1  0.00368061  0.66286199  0.66660365  1
  Cs  Cs9  1  0.33082248  -0.00170464  0.00088590  1
  Cs  Cs10  1  0.33383968  -0.00036278  0.33291487  1
  Cs  Cs11  1  0.33523610  0.00065973  0.66675383  1
  Cs  Cs12  1  0.33400848  0.33220323  0.00523466  1
  Cs  Cs13  1  0.33372024  0.33444493  0.33158193  1
  Cs  Cs14  1  0.33136432  0.33556254  0.67061161  1
  Cs  Cs15  1  0.33287523  0.66914279  -0.00671783  1
  Cs  Cs16  1  0.33642123  0.66574264  0.33433238  1
  Cs  Cs17  1  0.33192109  0.66366210  0.67034805  1
  Cs  Cs18  1  0.66761631  -0.00100237  -0.00750202  1
  Cs  Cs19  1  0.66395339  0.00027899  0.33566107  1
  Cs  Cs20  1  0.66793165  0.00774405  0.67076314  1
  Cs  Cs21  1  0.66966836  0.33637595  -0.00300566  1
  Cs  Cs22  1  0.66577092  0.33411205  0.33287711  1
  Cs  Cs23  1  0.66749487  0.32464488  0.67261601  1
  Cs  Cs24  1  0.67453130  0.66528453  -0.00687024  1
  Cs  Cs25  1  0.66581819  0.66564787  0.33371273  1
  Cs  Cs26  1  0.66506843  0.66786073  0.66620321  1
  Sn  Sn27  1  0.16675356  0.50074577  0.16675170  1
  Sn  Sn28  1  0.50111678  0.50021571  0.49954358  1
  Sn  Sn29  1  0.16642535  0.16713654  0.16682758  1
  Sn  Sn30  1  0.49924080  0.50079234  0.16706567  1
  Sn  Sn31  1  0.16707115  0.16624215  0.49979220  1
  Sn  Sn32  1  0.83187568  0.49998815  0.49946919  1
  Sn  Sn33  1  0.50007639  0.83272586  0.16701036  1
  Sn  Sn34  1  0.16723055  0.83388212  0.49931034  1
  Sn  Sn35  1  0.83266022  0.83279180  0.49940154  1
  Sn  Sn36  1  0.50046649  0.16652525  0.16708688  1
  Sn  Sn37  1  0.16693684  0.16671271  0.83386979  1
  Sn  Sn38  1  0.50013555  0.83279988  0.49935016  1
  Sn  Sn39  1  0.83324408  0.16631559  0.16732199  1
  Pb  Pb40  1  0.16678761  0.83571856  0.82993854  1
  Pb  Pb41  1  0.83310254  0.49864385  0.16838258  1
  Pb  Pb42  1  0.16717819  0.50012534  0.49815682  1
  Pb  Pb43  1  0.83332647  0.83346622  0.82937442  1
  Pb  Pb44  1  0.83551703  0.16705424  0.49826185  1
  Pb  Pb45  1  0.83018999  0.83566913  0.16890627  1
  Pb  Pb46  1  0.49780864  0.16723654  0.49849260  1
  Pb  Pb47  1  0.49744432  0.16675986  0.83694674  1
  Pb  Pb48  1  0.49994079  0.49992492  0.83340849  1
  Pb  Pb49  1  0.83632097  0.16663453  0.83675199  1
  Pb  Pb50  1  0.16838835  0.83261019  0.16847632  1
  Pb  Pb51  1  0.49993310  0.83332695  0.83270903  1
  Pb  Pb52  1  0.16666250  0.49799098  0.83767931  1
  Pb  Pb53  1  0.83336573  0.49980543  0.82944729  1
  I  I54  1  0.16778951  0.00316724  0.16547892  1
  I  I55  1  0.16642424  0.00032976  0.49746661  1
  I  I56  1  0.16703468  0.00365002  0.84093013  1
  I  I57  1  0.17154164  0.33153640  0.16941696  1
  I  I58  1  0.16609378  0.33065970  0.50025526  1
  I  I59  1  0.16704339  0.32982240  0.82615911  1
  I  I60  1  0.17264316  0.66386014  0.17196933  1
  I  I61  1  0.16615622  0.66918509  0.49665391  1
  I  I62  1  0.16697602  0.66673044  0.83265414  1
  I  I63  1  0.49875934  0.00012148  0.17202198  1
  I  I64  1  0.50120701  -0.00271784  0.49520350  1
  I  I65  1  0.49978429  0.00015485  0.83244777  1
  I  I66  1  0.49751081  0.33342050  0.17121822  1
  I  I67  1  0.50290352  0.33627446  0.49452138  1
  I  I68  1  0.49927847  0.33320999  0.83090779  1
  I  I69  1  0.49307031  0.66606388  0.17379962  1
  I  I70  1  0.49866209  0.66708024  0.49127607  1
  I  I71  1  0.49839113  0.66666430  0.83769978  1
  I  I72  1  0.83680315  0.00346044  0.16992164  1
  I  I73  1  0.83161811  -0.00254936  0.49785260  1
  I  I74  1  0.83292977  0.00028816  0.83104580  1
  I  I75  1  0.83105683  0.33063744  0.17043008  1
  I  I76  1  0.82988006  0.33585928  0.49704455  1
  I  I77  1  0.83341414  0.33293679  0.83046332  1
  I  I78  1  0.83523563  0.66689691  0.16606677  1
  I  I79  1  0.83548524  0.66711256  0.49765629  1
  I  I80  1  0.83475387  0.66670384  0.83924483  1
  I  I81  1  0.16789016  0.17289608  0.00188414  1
  I  I82  1  0.16675658  0.16639606  0.33221353  1
  I  I83  1  0.16615089  0.16077567  0.66564296  1
  I  I84  1  0.17476497  0.49275010  0.00570648  1
  I  I85  1  0.16863577  0.49181862  0.33053913  1
  I  I86  1  0.16640891  0.49864210  0.66655759  1
  I  I87  1  0.16919007  0.83433649  0.00018991  1
  I  I88  1  0.16527843  0.84056601  0.33669445  1
  I  I89  1  0.16924700  0.83737030  0.66131240  1
  I  I90  1  0.49782638  0.16693360  0.00567082  1
  I  I91  1  0.49636449  0.16651013  0.32997986  1
  I  I92  1  0.49849798  0.16613924  0.66665498  1
  I  I93  1  0.49420152  0.49859042  0.00419797  1
  I  I94  1  0.49953688  0.50035529  0.33290918  1
  I  I95  1  0.50282859  0.50642400  0.66277537  1
  I  I96  1  0.49759959  0.83469710  0.00351816  1
  I  I97  1  0.49922576  0.83351256  0.33401107  1
  I  I98  1  0.49916624  0.82786983  0.66216792  1
  I  I99  1  0.83313029  0.16832438  0.00480633  1
  I  I100  1  0.83641987  0.16672119  0.33045623  1
  I  I101  1  0.83498418  0.16630177  0.66655203  1
  I  I102  1  0.83332032  0.49757256  0.00024719  1
  I  I103  1  0.83224638  0.50341377  0.33634910  1
  I  I104  1  0.82864917  0.50381776  0.66099753  1
  I  I105  1  0.83252362  0.83474818  0.00026239  1
  I  I106  1  0.83623930  0.83039159  0.33696299  1
  I  I107  1  0.83112500  0.83104574  0.66097645  1
  I  I108  1  0.00171237  0.17258657  0.16758217  1
  I  I109  1  0.00363755  0.16298663  0.49637144  1
  I  I110  1  0.00397591  0.16706432  0.83342086  1
  I  I111  1  0.00245005  0.49118584  0.17006331  1
  I  I112  1  -0.00157030  0.50281669  0.49786447  1
  I  I113  1  0.00019741  0.49840819  0.83229373  1
  I  I114  1  -0.00016657  0.83467024  0.16887835  1
  I  I115  1  0.00014541  0.83417151  0.50018651  1
  I  I116  1  0.00012359  0.83454606  0.83445180  1
  I  I117  1  0.33292800  0.16779556  0.16700135  1
  I  I118  1  0.32968593  0.16266262  0.49675884  1
  I  I119  1  0.32973660  0.16651270  0.83373894  1
  I  I120  1  0.33427758  0.49274995  0.17394427  1
  I  I121  1  0.33606555  0.50274914  0.49676819  1
  I  I122  1  0.33311784  0.49948403  0.82732352  1
  I  I123  1  0.33644058  0.83863261  0.17391991  1
  I  I124  1  0.33397083  0.83439161  0.49532623  1
  I  I125  1  0.33326335  0.83458049  0.83126829  1
  I  I126  1  0.66572782  0.16698779  0.17013477  1
  I  I127  1  0.66652907  0.16413085  0.49746782  1
  I  I128  1  0.66680108  0.16625469  0.83338937  1
  I  I129  1  0.66333351  0.49783631  0.16990247  1
  I  I130  1  0.66547966  0.50900251  0.49224286  1
  I  I131  1  0.66665871  0.49886777  0.83919474  1
  I  I132  1  0.66217938  0.83294274  0.17390290  1
  I  I133  1  0.66585024  0.82747316  0.49438053  1
  I  I134  1  0.66663325  0.83477068  0.83341108  1
