# generated using pymatgen
data_Cs27Sn14Pb13I81
_symmetry_space_group_name_H-M   'P 1'
_cell_length_a   18.95919677
_cell_length_b   18.96303644
_cell_length_c   18.95847593
_cell_angle_alpha   89.99957122
_cell_angle_beta   89.99910552
_cell_angle_gamma   89.99836767
_symmetry_Int_Tables_number   1
_chemical_formula_structural   Cs27Sn14Pb13I81
_chemical_formula_sum   'Cs27 Sn14 Pb13 I81'
_cell_volume   6816.02594039
_cell_formula_units_Z   1
loop_
 _symmetry_equiv_pos_site_id
 _symmetry_equiv_pos_as_xyz
  1  'x, y, z'
loop_
 _atom_site_type_symbol
 _atom_site_label
 _atom_site_symmetry_multiplicity
 _atom_site_fract_x
 _atom_site_fract_y
 _atom_site_fract_z
 _atom_site_occupancy
  Cs  Cs0  1  -0.00038888  0.00081130  0.00140463  1
  Cs  Cs1  1  -0.00035316  -0.00131006  0.32951878  1
  Cs  Cs2  1  -0.00156967  0.00065461  0.66836051  1
  Cs  Cs3  1  0.00235143  0.33117437  0.00042416  1
  Cs  Cs4  1  -0.00063150  0.33533945  0.33728737  1
  Cs  Cs5  1  0.00107012  0.33433423  0.66326323  1
  Cs  Cs6  1  -0.00421653  0.66488504  -0.00319348  1
  Cs  Cs7  1  0.00122288  0.66608135  0.33934279  1
  Cs  Cs8  1  -0.00105484  0.66502628  0.66536367  1
  Cs  Cs9  1  0.33148814  0.00179649  -0.00015096  1
  Cs  Cs10  1  0.33255099  -0.00861173  0.33269470  1
  Cs  Cs11  1  0.33518391  0.00040041  0.66737230  1
  Cs  Cs12  1  0.33278750  0.33284469  -0.00146147  1
  Cs  Cs13  1  0.33210004  0.33365718  0.33285361  1
  Cs  Cs14  1  0.33356126  0.33407138  0.66816306  1
  Cs  Cs15  1  0.33546006  0.66502552  0.00042716  1
  Cs  Cs16  1  0.33391831  0.67402815  0.33451905  1
  Cs  Cs17  1  0.33169896  0.66480476  0.66559457  1
  Cs  Cs18  1  0.66912292  0.00107780  -0.00118910  1
  Cs  Cs19  1  0.66733933  -0.00030587  0.33733530  1
  Cs  Cs20  1  0.66640597  0.00125273  0.66422056  1
  Cs  Cs21  1  0.66512433  0.33361785  0.00151965  1
  Cs  Cs22  1  0.66891936  0.33378453  0.33394433  1
  Cs  Cs23  1  0.66498015  0.33097235  0.66356163  1
  Cs  Cs24  1  0.66836595  0.66443143  0.00212558  1
  Cs  Cs25  1  0.66466097  0.66750427  0.32590468  1
  Cs  Cs26  1  0.66829265  0.66657527  0.67087633  1
  Sn  Sn27  1  0.16667474  0.50025520  0.16611078  1
  Sn  Sn28  1  0.50010374  0.50002189  0.50040323  1
  Sn  Sn29  1  0.83238735  0.16616315  0.16590864  1
  Sn  Sn30  1  0.16734035  0.49999654  0.83437614  1
  Sn  Sn31  1  0.83323647  0.16698899  0.83379770  1
  Sn  Sn32  1  0.50020109  0.16666529  0.83403324  1
  Sn  Sn33  1  0.16733317  0.83330037  0.83346689  1
  Sn  Sn34  1  0.49928357  0.49986759  0.83240245  1
  Sn  Sn35  1  0.16658003  0.16666621  0.83239062  1
  Sn  Sn36  1  0.16707061  0.16610188  0.50041016  1
  Sn  Sn37  1  0.50052850  0.16647260  0.16633637  1
  Sn  Sn38  1  0.49925192  0.83345148  0.83353546  1
  Sn  Sn39  1  0.83318399  0.83337766  0.49918968  1
  Sn  Sn40  1  0.83343671  0.83393826  0.16752419  1
  Pb  Pb41  1  0.49794138  0.16778779  0.49975715  1
  Pb  Pb42  1  0.83589651  0.49937980  0.16655360  1
  Pb  Pb43  1  0.83027339  0.50270571  0.50004949  1
  Pb  Pb44  1  0.83324264  0.83527181  0.83369736  1
  Pb  Pb45  1  0.83524604  0.16536600  0.49957494  1
  Pb  Pb46  1  0.49804257  0.49796257  0.16624082  1
  Pb  Pb47  1  0.83317519  0.49660983  0.83322515  1
  Pb  Pb48  1  0.50195265  0.83597033  0.16404028  1
  Pb  Pb49  1  0.16659818  0.16771405  0.16653215  1
  Pb  Pb50  1  0.50197085  0.83095058  0.50250811  1
  Pb  Pb51  1  0.16496676  0.83564779  0.50263776  1
  Pb  Pb52  1  0.16853584  0.49857637  0.50048561  1
  Pb  Pb53  1  0.16439981  0.83057474  0.16400827  1
  I  I54  1  0.16752064  -0.00014113  0.16613000  1
  I  I55  1  0.16740488  0.00354325  0.50533698  1
  I  I56  1  0.16877416  0.00105390  0.82891257  1
  I  I57  1  0.16598385  0.33544848  0.16041813  1
  I  I58  1  0.16595774  0.33062374  0.50578735  1
  I  I59  1  0.16895676  0.33281938  0.83384872  1
  I  I60  1  0.16659526  0.66297503  0.16133058  1
  I  I61  1  0.16578717  0.66682622  0.50058122  1
  I  I62  1  0.17266177  0.66613226  0.83804579  1
  I  I63  1  0.49968231  0.00408531  0.16120899  1
  I  I64  1  0.49997783  -0.00020045  0.50117993  1
  I  I65  1  0.49747596  0.00107777  0.83761797  1
  I  I66  1  0.50532342  0.32993944  0.16032167  1
  I  I67  1  0.49880129  0.33567304  0.50678930  1
  I  I68  1  0.49733531  0.33275956  0.83349755  1
  I  I69  1  0.50128018  0.66676712  0.16571767  1
  I  I70  1  0.49888449  0.66314215  0.50558444  1
  I  I71  1  0.49377257  0.66616401  0.82840174  1
  I  I72  1  0.83104694  0.00124745  0.16536816  1
  I  I73  1  0.83331937  -0.00235170  0.50014014  1
  I  I74  1  0.83390735  0.00345241  0.83455541  1
  I  I75  1  0.83072632  0.32980474  0.16130735  1
  I  I76  1  0.83426237  0.33319134  0.50004876  1
  I  I77  1  0.83390791  0.32835464  0.83915667  1
  I  I78  1  0.83489460  0.66932905  0.16976388  1
  I  I79  1  0.83517626  0.67053851  0.49591545  1
  I  I80  1  0.83347956  0.66679734  0.83353832  1
  I  I81  1  0.16658994  0.16577396  -0.00342278  1
  I  I82  1  0.16585585  0.17094737  0.33515604  1
  I  I83  1  0.16626865  0.16891989  0.66969371  1
  I  I84  1  0.17153189  0.49673047  -0.00263980  1
  I  I85  1  0.16697525  0.49525314  0.33138997  1
  I  I86  1  0.16893177  0.50055386  0.67032405  1
  I  I87  1  0.16796977  0.83974477  -0.00429438  1
  I  I88  1  0.16669084  0.83353312  0.33327652  1
  I  I89  1  0.16742350  0.82929916  0.67104318  1
  I  I90  1  0.49899441  0.16870944  -0.00219277  1
  I  I91  1  0.50359556  0.17052120  0.33067106  1
  I  I92  1  0.50197545  0.16555953  0.67031200  1
  I  I93  1  0.49759870  0.50057482  -0.00351820  1
  I  I94  1  0.49872897  0.49666089  0.33522807  1
  I  I95  1  0.49455726  0.49767293  0.66942179  1
  I  I96  1  0.49843805  0.82885828  -0.00430830  1
  I  I97  1  0.49981168  0.83291348  0.33313646  1
  I  I98  1  0.49918566  0.83887335  0.67093999  1
  I  I99  1  0.83470697  0.16093681  -0.00043806  1
  I  I100  1  0.83056331  0.16471575  0.33024670  1
  I  I101  1  0.83143482  0.16462560  0.66952480  1
  I  I102  1  0.83005386  0.50507831  -0.00022633  1
  I  I103  1  0.83435062  0.49502814  0.33323909  1
  I  I104  1  0.83771084  0.50097858  0.66688851  1
  I  I105  1  0.83381344  0.83663795  0.00210388  1
  I  I106  1  0.83345761  0.83994601  0.33241200  1
  I  I107  1  0.83340688  0.83514465  0.66534677  1
  I  I108  1  -0.00261200  0.16422475  0.16269035  1
  I  I109  1  0.00308642  0.16763789  0.50555297  1
  I  I110  1  0.00077514  0.16564548  0.83378058  1
  I  I111  1  0.00369968  0.49721918  0.15945297  1
  I  I112  1  0.00021152  0.49943498  0.50020905  1
  I  I113  1  0.00339195  0.50059893  0.83714192  1
  I  I114  1  -0.00343171  0.84109234  0.16684446  1
  I  I115  1  -0.00286163  0.83416781  0.49879278  1
  I  I116  1  0.00247986  0.83392864  0.83347464  1
  I  I117  1  0.33560457  0.17034071  0.16216101  1
  I  I118  1  0.33020221  0.16837107  0.50552899  1
  I  I119  1  0.33344933  0.16709162  0.83367921  1
  I  I120  1  0.33037915  0.49599509  0.16303169  1
  I  I121  1  0.33616806  0.49838212  0.50354112  1
  I  I122  1  0.33325971  0.49579371  0.83350546  1
  I  I123  1  0.33333242  0.83447124  0.16767189  1
  I  I124  1  0.33339465  0.83344503  0.49916086  1
  I  I125  1  0.33330195  0.83758413  0.83294241  1
  I  I126  1  0.66700449  0.16465361  0.15811874  1
  I  I127  1  0.66659432  0.16695867  0.50274181  1
  I  I128  1  0.66587540  0.16596069  0.83778295  1
  I  I129  1  0.66648923  0.50102555  0.16629208  1
  I  I130  1  0.66254078  0.49730387  0.50737063  1
  I  I131  1  0.66309487  0.50095654  0.82989056  1
  I  I132  1  0.67000286  0.83405330  0.16730721  1
  I  I133  1  0.66972252  0.83525355  0.49911876  1
  I  I134  1  0.66408169  0.83345693  0.83311733  1
