# generated using pymatgen
data_Cs27Sn13Pb14I81
_symmetry_space_group_name_H-M   'P 1'
_cell_length_a   18.96924630
_cell_length_b   19.00062189
_cell_length_c   19.00929937
_cell_angle_alpha   89.99999995
_cell_angle_beta   90.00000003
_cell_angle_gamma   90.00029097
_symmetry_Int_Tables_number   1
_chemical_formula_structural   Cs27Sn13Pb14I81
_chemical_formula_sum   'Cs27 Sn13 Pb14 I81'
_cell_volume   6851.47379873
_cell_formula_units_Z   1
loop_
 _symmetry_equiv_pos_site_id
 _symmetry_equiv_pos_as_xyz
  1  'x, y, z'
loop_
 _atom_site_type_symbol
 _atom_site_label
 _atom_site_symmetry_multiplicity
 _atom_site_fract_x
 _atom_site_fract_y
 _atom_site_fract_z
 _atom_site_occupancy
  Cs  Cs0  1  -0.00034510  -0.00333676  0.00200955  1
  Cs  Cs1  1  0.00046968  -0.00189043  0.33333331  1
  Cs  Cs2  1  -0.00034514  -0.00333676  0.66465712  1
  Cs  Cs3  1  -0.00000068  0.33481670  -0.00020651  1
  Cs  Cs4  1  -0.00178577  0.33552759  0.33333332  1
  Cs  Cs5  1  -0.00000060  0.33481672  0.66687309  1
  Cs  Cs6  1  0.00087764  0.66726484  0.00157992  1
  Cs  Cs7  1  0.00097931  0.66619393  0.33333337  1
  Cs  Cs8  1  0.00087765  0.66726496  0.66508679  1
  Cs  Cs9  1  0.33944680  0.00838404  0.00157021  1
  Cs  Cs10  1  0.33845500  0.00715757  0.33333329  1
  Cs  Cs11  1  0.33944669  0.00838401  0.66509649  1
  Cs  Cs12  1  0.34008480  0.32633546  -0.00928130  1
  Cs  Cs13  1  0.33983434  0.32530916  0.33333336  1
  Cs  Cs14  1  0.34008478  0.32633530  0.67594788  1
  Cs  Cs15  1  0.33476475  0.66368456  -0.00056806  1
  Cs  Cs16  1  0.33253908  0.66821942  0.33333316  1
  Cs  Cs17  1  0.33476479  0.66368479  0.66723484  1
  Cs  Cs18  1  0.66412518  -0.00370037  -0.00321386  1
  Cs  Cs19  1  0.66562277  -0.00201708  0.33333325  1
  Cs  Cs20  1  0.66412519  -0.00370046  0.66988048  1
  Cs  Cs21  1  0.66735577  0.33441221  0.00133761  1
  Cs  Cs22  1  0.66843202  0.33697786  0.33333336  1
  Cs  Cs23  1  0.66735574  0.33441220  0.66532893  1
  Cs  Cs24  1  0.66216415  0.66936534  -0.00071293  1
  Cs  Cs25  1  0.66362818  0.66548251  0.33333321  1
  Cs  Cs26  1  0.66216404  0.66936543  0.66737954  1
  Sn  Sn27  1  0.83419047  0.16638887  0.49998997  1
  Sn  Sn28  1  0.83453868  0.16726964  0.83333331  1
  Sn  Sn29  1  0.16632221  0.49999798  0.16752788  1
  Sn  Sn30  1  0.83419045  0.16638887  0.16667669  1
  Sn  Sn31  1  0.83404190  0.50063698  0.50010973  1
  Sn  Sn32  1  0.16613873  0.83282322  0.16681182  1
  Sn  Sn33  1  0.83404192  0.50063699  0.16655693  1
  Sn  Sn34  1  0.83409128  0.49991335  0.83333333  1
  Sn  Sn35  1  0.83397786  0.83286826  0.49903348  1
  Sn  Sn36  1  0.16613874  0.83282323  0.49985485  1
  Sn  Sn37  1  0.83397785  0.83286827  0.16763315  1
  Sn  Sn38  1  0.16643871  0.83368073  0.83333334  1
  Sn  Sn39  1  0.16632221  0.49999797  0.49913879  1
  Pb  Pb40  1  0.83445648  0.83286569  0.83333335  1
  Pb  Pb41  1  0.50322656  0.50031849  0.83333332  1
  Pb  Pb42  1  0.16458643  0.16736908  0.49995987  1
  Pb  Pb43  1  0.50382852  0.16682865  0.16680768  1
  Pb  Pb44  1  0.49852874  0.50010322  0.49974513  1
  Pb  Pb45  1  0.16458643  0.16736910  0.16670679  1
  Pb  Pb46  1  0.49852880  0.50010321  0.16692156  1
  Pb  Pb47  1  0.50382850  0.16682864  0.49985899  1
  Pb  Pb48  1  0.16472002  0.50139644  0.83333333  1
  Pb  Pb49  1  0.49896472  0.83300879  0.49979325  1
  Pb  Pb50  1  0.49545299  0.83316294  0.83333339  1
  Pb  Pb51  1  0.49896468  0.83300881  0.16687340  1
  Pb  Pb52  1  0.16361290  0.16393104  0.83333329  1
  Pb  Pb53  1  0.50405279  0.16658902  0.83333334  1
  I  I54  1  0.16090321  -0.00336708  0.16733810  1
  I  I55  1  0.16090318  -0.00336709  0.49932861  1
  I  I56  1  0.16198210  -0.00418781  0.83333326  1
  I  I57  1  0.15956530  0.33721507  0.17256238  1
  I  I58  1  0.15956531  0.33721510  0.49410405  1
  I  I59  1  0.16781165  0.33342265  0.83333360  1
  I  I60  1  0.15729984  0.66708720  0.16735737  1
  I  I61  1  0.15729959  0.66708717  0.49930941  1
  I  I62  1  0.16091293  0.66933710  0.83333317  1
  I  I63  1  0.49988583  -0.00006666  0.16629523  1
  I  I64  1  0.49988550  -0.00006664  0.50037161  1
  I  I65  1  0.50323655  0.00002617  0.83333317  1
  I  I66  1  0.50049631  0.33340251  0.16707737  1
  I  I67  1  0.50049640  0.33340253  0.49958917  1
  I  I68  1  0.49574392  0.33322287  0.83333348  1
  I  I69  1  0.50755225  0.66659573  0.16582791  1
  I  I70  1  0.50755274  0.66659577  0.50083873  1
  I  I71  1  0.50533293  0.66682049  0.83333341  1
  I  I72  1  0.83724418  -0.00084879  0.16912842  1
  I  I73  1  0.83724443  -0.00084877  0.49753830  1
  I  I74  1  0.83529988  0.00209048  0.83333330  1
  I  I75  1  0.83609276  0.33416382  0.16859275  1
  I  I76  1  0.83609270  0.33416379  0.49807385  1
  I  I77  1  0.83361621  0.33369802  0.83333352  1
  I  I78  1  0.83688646  0.66663211  0.16853132  1
  I  I79  1  0.83688635  0.66663211  0.49813533  1
  I  I80  1  0.83558833  0.66403479  0.83333331  1
  I  I81  1  0.16236258  0.16601028  0.00012815  1
  I  I82  1  0.16410169  0.16187019  0.33333333  1
  I  I83  1  0.16236290  0.16601067  0.66653860  1
  I  I84  1  0.15947860  0.50633056  0.00306572  1
  I  I85  1  0.15565546  0.50957736  0.33333335  1
  I  I86  1  0.15947841  0.50633022  0.66360091  1
  I  I87  1  0.15920310  0.82893840  0.00158990  1
  I  I88  1  0.16003717  0.82813828  0.33333332  1
  I  I89  1  0.15920358  0.82893852  0.66507677  1
  I  I90  1  0.50090913  0.16646050  -0.00007711  1
  I  I91  1  0.50034898  0.16581678  0.33333333  1
  I  I92  1  0.50090890  0.16646084  0.66674381  1
  I  I93  1  0.50062316  0.50009583  0.00012766  1
  I  I94  1  0.50741735  0.49961855  0.33333332  1
  I  I95  1  0.50062331  0.50009574  0.66653902  1
  I  I96  1  0.50435614  0.83376774  0.00013047  1
  I  I97  1  0.49938771  0.83413055  0.33333332  1
  I  I98  1  0.50435569  0.83376739  0.66653618  1
  I  I99  1  0.83416117  0.16976274  0.00048539  1
  I  I100  1  0.83367969  0.16869909  0.33333335  1
  I  I101  1  0.83416117  0.16976293  0.66618128  1
  I  I102  1  0.83693121  0.49650405  0.00109521  1
  I  I103  1  0.83567944  0.49712909  0.33333330  1
  I  I104  1  0.83693126  0.49650388  0.66557146  1
  I  I105  1  0.83737743  0.83390467  0.00289091  1
  I  I106  1  0.83934564  0.83456790  0.33333337  1
  I  I107  1  0.83737744  0.83390468  0.66377577  1
  I  I108  1  -0.00440995  0.16619845  0.16711130  1
  I  I109  1  -0.00440996  0.16619851  0.49955551  1
  I  I110  1  -0.00456777  0.17171992  0.83333326  1
  I  I111  1  -0.00186052  0.50108738  0.16757082  1
  I  I112  1  -0.00186057  0.50108731  0.49909578  1
  I  I113  1  -0.00384092  0.49558988  0.83333340  1
  I  I114  1  -0.00114977  0.83306950  0.16742265  1
  I  I115  1  -0.00114978  0.83306941  0.49924414  1
  I  I116  1  0.00207566  0.83382351  0.83333313  1
  I  I117  1  0.33324289  0.16580098  0.16625021  1
  I  I118  1  0.33324293  0.16580112  0.50041637  1
  I  I119  1  0.33350432  0.16550610  0.83333346  1
  I  I120  1  0.32871564  0.50876534  0.17268213  1
  I  I121  1  0.32871563  0.50876555  0.49398463  1
  I  I122  1  0.33283553  0.50232685  0.83333333  1
  I  I123  1  0.32882911  0.82659965  0.16733312  1
  I  I124  1  0.32882912  0.82659937  0.49933333  1
  I  I125  1  0.32747598  0.83018856  0.83333358  1
  I  I126  1  0.67291223  0.16711015  0.16696161  1
  I  I127  1  0.67291223  0.16710989  0.49970520  1
  I  I128  1  0.67224737  0.16917530  0.83333330  1
  I  I129  1  0.67107433  0.49930971  0.16733080  1
  I  I130  1  0.67107433  0.49930950  0.49933590  1
  I  I131  1  0.67241008  0.49652289  0.83333341  1
  I  I132  1  0.67080119  0.83353928  0.17079930  1
  I  I133  1  0.67080117  0.83353964  0.49586758  1
  I  I134  1  0.66684370  0.83440590  0.83333317  1
