# generated using pymatgen
data_Cs27Sn13Pb14I81
_symmetry_space_group_name_H-M   'P 1'
_cell_length_a   18.97262790
_cell_length_b   18.97220853
_cell_length_c   18.98593597
_cell_angle_alpha   90.00145020
_cell_angle_beta   89.99718811
_cell_angle_gamma   89.99820288
_symmetry_Int_Tables_number   1
_chemical_formula_structural   Cs27Sn13Pb14I81
_chemical_formula_sum   'Cs27 Sn13 Pb14 I81'
_cell_volume   6834.03800253
_cell_formula_units_Z   1
loop_
 _symmetry_equiv_pos_site_id
 _symmetry_equiv_pos_as_xyz
  1  'x, y, z'
loop_
 _atom_site_type_symbol
 _atom_site_label
 _atom_site_symmetry_multiplicity
 _atom_site_fract_x
 _atom_site_fract_y
 _atom_site_fract_z
 _atom_site_occupancy
  Cs  Cs0  1  -0.00010676  0.00267196  -0.00116758  1
  Cs  Cs1  1  0.00239462  -0.00535683  0.33011084  1
  Cs  Cs2  1  -0.00146789  0.00035662  0.66955308  1
  Cs  Cs3  1  0.00148454  0.33101691  -0.00122205  1
  Cs  Cs4  1  -0.00172642  0.33741744  0.33627098  1
  Cs  Cs5  1  0.00077830  0.33023559  0.66645921  1
  Cs  Cs6  1  -0.00190082  0.66644072  -0.00157105  1
  Cs  Cs7  1  -0.00070936  0.66609308  0.33358572  1
  Cs  Cs8  1  0.00124172  0.66782443  0.66761502  1
  Cs  Cs9  1  0.33423882  0.00411732  0.01000717  1
  Cs  Cs10  1  0.33929655  -0.00382868  0.32843292  1
  Cs  Cs11  1  0.33612175  -0.00178031  0.66207651  1
  Cs  Cs12  1  0.33256094  0.33286017  0.00024317  1
  Cs  Cs13  1  0.33415374  0.33323301  0.33388982  1
  Cs  Cs14  1  0.33131199  0.33569443  0.66667837  1
  Cs  Cs15  1  0.33670083  0.66517582  -0.00204588  1
  Cs  Cs16  1  0.33106987  0.66901753  0.33472293  1
  Cs  Cs17  1  0.33437896  0.66571626  0.66700262  1
  Cs  Cs18  1  0.66725612  -0.00097215  0.00185056  1
  Cs  Cs19  1  0.66033221  0.00348044  0.33321062  1
  Cs  Cs20  1  0.66559551  0.00348757  0.66337753  1
  Cs  Cs21  1  0.66579937  0.33409834  -0.00056150  1
  Cs  Cs22  1  0.66812107  0.33298156  0.33605089  1
  Cs  Cs23  1  0.66639068  0.32848729  0.66444997  1
  Cs  Cs24  1  0.66685084  0.66718507  -0.00308159  1
  Cs  Cs25  1  0.67165263  0.66334767  0.33176916  1
  Cs  Cs26  1  0.66548428  0.66790135  0.67159024  1
  Sn  Sn27  1  0.83317195  0.83329667  0.50030748  1
  Sn  Sn28  1  0.16738727  0.50014515  0.16655494  1
  Sn  Sn29  1  0.16660259  0.83306348  0.83359958  1
  Sn  Sn30  1  0.83347617  0.83441500  0.16651280  1
  Sn  Sn31  1  0.83413231  0.49991968  0.83299440  1
  Sn  Sn32  1  0.49959315  0.50023515  0.49922602  1
  Sn  Sn33  1  0.83419124  0.83274864  0.83302986  1
  Sn  Sn34  1  0.16563219  0.50064557  0.83339171  1
  Sn  Sn35  1  0.83376347  0.16615314  0.16687117  1
  Sn  Sn36  1  0.49961197  0.16647892  0.83343532  1
  Sn  Sn37  1  0.16730219  0.49935714  0.50005722  1
  Sn  Sn38  1  0.49918626  0.50013060  0.16770621  1
  Sn  Sn39  1  0.16659907  0.16639710  0.49969785  1
  Pb  Pb40  1  0.50260182  0.83039147  0.49996613  1
  Pb  Pb41  1  0.50197474  0.16931598  0.16524423  1
  Pb  Pb42  1  0.49757562  0.16890061  0.50137699  1
  Pb  Pb43  1  0.83358988  0.50149707  0.50288303  1
  Pb  Pb44  1  0.16481221  0.83085562  0.16403991  1
  Pb  Pb45  1  0.83561796  0.16401561  0.49747320  1
  Pb  Pb46  1  0.83193613  0.16623366  0.83463220  1
  Pb  Pb47  1  0.49960662  0.83620802  0.83350863  1
  Pb  Pb48  1  0.16524289  0.83294926  0.50182225  1
  Pb  Pb49  1  0.83360001  0.50021146  0.16462229  1
  Pb  Pb50  1  0.50251333  0.83037506  0.16665213  1
  Pb  Pb51  1  0.16480459  0.16899897  0.16927306  1
  Pb  Pb52  1  0.16860516  0.16625011  0.83189335  1
  Pb  Pb53  1  0.49966920  0.49874609  0.83306142  1
  I  I54  1  0.16643037  -0.00015930  0.16656035  1
  I  I55  1  0.16246523  0.00193640  0.50418543  1
  I  I56  1  0.16111057  -0.00284224  0.83017069  1
  I  I57  1  0.16701352  0.33744396  0.16089040  1
  I  I58  1  0.16905244  0.33578854  0.50265435  1
  I  I59  1  0.16353173  0.33674332  0.83437040  1
  I  I60  1  0.16731580  0.66245631  0.17157768  1
  I  I61  1  0.16888964  0.66315814  0.49911406  1
  I  I62  1  0.16222341  0.66503594  0.83148200  1
  I  I63  1  0.49974414  0.00013399  0.16499339  1
  I  I64  1  0.49920422  0.00014243  0.50211048  1
  I  I65  1  0.50137431  0.00343131  0.83258773  1
  I  I66  1  0.49929127  0.33720952  0.16885152  1
  I  I67  1  0.49987777  0.33709223  0.49737407  1
  I  I68  1  0.50110807  0.33147173  0.83364967  1
  I  I69  1  0.49823309  0.66228997  0.16792716  1
  I  I70  1  0.49233511  0.66228691  0.49869384  1
  I  I71  1  0.50131246  0.66657351  0.83346627  1
  I  I72  1  0.83411000  -0.00113472  0.16343834  1
  I  I73  1  0.83605289  -0.00377991  0.50689965  1
  I  I74  1  0.83696671  -0.00344088  0.83254921  1
  I  I75  1  0.83314377  0.33190561  0.16371853  1
  I  I76  1  0.83174977  0.33347660  0.49960656  1
  I  I77  1  0.83641215  0.33585045  0.83616336  1
  I  I78  1  0.83314600  0.66906377  0.16704197  1
  I  I79  1  0.83517999  0.66934154  0.49536168  1
  I  I80  1  0.83609312  0.66706764  0.83587849  1
  I  I81  1  0.16695136  0.16776671  0.00018707  1
  I  I82  1  0.16500035  0.17314470  0.33688812  1
  I  I83  1  0.16640669  0.17370910  0.66425232  1
  I  I84  1  0.16630065  0.50446588  -0.00068700  1
  I  I85  1  0.17054141  0.49510810  0.33371491  1
  I  I86  1  0.16698662  0.50009287  0.66685972  1
  I  I87  1  0.16058155  0.82844032  -0.00398257  1
  I  I88  1  0.16282997  0.83161238  0.33318763  1
  I  I89  1  0.15959170  0.82730717  0.66985856  1
  I  I90  1  0.49949355  0.16975501  -0.00235653  1
  I  I91  1  0.50104550  0.16684879  0.33331296  1
  I  I92  1  0.50226051  0.16968377  0.66901246  1
  I  I93  1  0.49796064  0.49814387  0.00188945  1
  I  I94  1  0.49342700  0.49961114  0.33338614  1
  I  I95  1  0.49702007  0.49846884  0.66449062  1
  I  I96  1  0.50279007  0.83016253  -0.00004644  1
  I  I97  1  0.50129837  0.83582114  0.33330946  1
  I  I98  1  0.50294552  0.83101129  0.66683824  1
  I  I99  1  0.83311590  0.16286961  0.00235865  1
  I  I100  1  0.83309044  0.16411331  0.32985128  1
  I  I101  1  0.83227517  0.16659525  0.66649504  1
  I  I102  1  0.83586313  0.50468177  -0.00311150  1
  I  I103  1  0.83498643  0.50170484  0.33338225  1
  I  I104  1  0.83616776  0.50516445  0.67068089  1
  I  I105  1  0.83671720  0.83230800  -0.00083488  1
  I  I106  1  0.83329446  0.83619846  0.33291771  1
  I  I107  1  0.83724019  0.82728425  0.66802481  1
  I  I108  1  -0.00299376  0.16469283  0.16413100  1
  I  I109  1  0.00306391  0.17610698  0.50205476  1
  I  I110  1  0.00017332  0.16758625  0.83342494  1
  I  I111  1  0.00260658  0.50033946  0.16878204  1
  I  I112  1  0.00309305  0.49804244  0.49759701  1
  I  I113  1  0.00092533  0.50346753  0.83406757  1
  I  I114  1  -0.00358655  0.83363469  0.16798511  1
  I  I115  1  -0.00295597  0.83025383  0.49872462  1
  I  I116  1  -0.00112353  0.82842283  0.83322862  1
  I  I117  1  0.33324399  0.16637170  0.16574542  1
  I  I118  1  0.32981703  0.16926319  0.50197404  1
  I  I119  1  0.33587092  0.16976296  0.83266619  1
  I  I120  1  0.33246028  0.49893625  0.16423863  1
  I  I121  1  0.33192903  0.49657923  0.50206963  1
  I  I122  1  0.33012049  0.50289569  0.83307731  1
  I  I123  1  0.33307651  0.83459919  0.16487889  1
  I  I124  1  0.33311189  0.83475850  0.50297582  1
  I  I125  1  0.33007778  0.82686814  0.83104754  1
  I  I126  1  0.66985912  0.16456485  0.16566106  1
  I  I127  1  0.66670393  0.16757551  0.50052084  1
  I  I128  1  0.66439125  0.16944942  0.83379299  1
  I  I129  1  0.66476197  0.50013684  0.16931490  1
  I  I130  1  0.66449796  0.50238970  0.49627193  1
  I  I131  1  0.66893339  0.50363100  0.83473427  1
  I  I132  1  0.67107780  0.83411631  0.16292778  1
  I  I133  1  0.67093156  0.83192032  0.50356365  1
  I  I134  1  0.67027887  0.82818023  0.83421574  1
