# generated using pymatgen
data_Cs27Sn13Pb14I81
_symmetry_space_group_name_H-M   'P 1'
_cell_length_a   18.97431300
_cell_length_b   18.97769314
_cell_length_c   18.97831365
_cell_angle_alpha   90.00233782
_cell_angle_beta   90.00167171
_cell_angle_gamma   90.00252833
_symmetry_Int_Tables_number   1
_chemical_formula_structural   Cs27Sn13Pb14I81
_chemical_formula_sum   'Cs27 Sn13 Pb14 I81'
_cell_volume   6833.87608038
_cell_formula_units_Z   1
loop_
 _symmetry_equiv_pos_site_id
 _symmetry_equiv_pos_as_xyz
  1  'x, y, z'
loop_
 _atom_site_type_symbol
 _atom_site_label
 _atom_site_symmetry_multiplicity
 _atom_site_fract_x
 _atom_site_fract_y
 _atom_site_fract_z
 _atom_site_occupancy
  Cs  Cs0  1  0.00306638  -0.00098263  0.00467999  1
  Cs  Cs1  1  -0.00213550  -0.00158944  0.32545402  1
  Cs  Cs2  1  0.00009151  0.00236449  0.66975083  1
  Cs  Cs3  1  0.00048065  0.33062521  0.00115538  1
  Cs  Cs4  1  0.00025236  0.33357589  0.33312837  1
  Cs  Cs5  1  -0.00032904  0.33401686  0.66683595  1
  Cs  Cs6  1  0.00081243  0.66850439  0.00151171  1
  Cs  Cs7  1  -0.00131451  0.66786959  0.33419933  1
  Cs  Cs8  1  -0.00274796  0.66317690  0.66386886  1
  Cs  Cs9  1  0.32772608  -0.00191794  -0.00148966  1
  Cs  Cs10  1  0.33646717  -0.00070901  0.33477363  1
  Cs  Cs11  1  0.33599874  -0.00263473  0.66761508  1
  Cs  Cs12  1  0.33483519  0.33359637  0.00073237  1
  Cs  Cs13  1  0.33385582  0.33579320  0.33565106  1
  Cs  Cs14  1  0.32993636  0.33167730  0.66145853  1
  Cs  Cs15  1  0.33756890  0.66817201  -0.00184465  1
  Cs  Cs16  1  0.33133289  0.66180872  0.33266234  1
  Cs  Cs17  1  0.33293393  0.66960560  0.66773515  1
  Cs  Cs18  1  0.66897774  0.00175871  0.00072447  1
  Cs  Cs19  1  0.66635402  -0.00271213  0.33341303  1
  Cs  Cs20  1  0.66465721  0.00070948  0.66633400  1
  Cs  Cs21  1  0.66499974  0.33402892  -0.00035775  1
  Cs  Cs22  1  0.66382745  0.33172518  0.33154860  1
  Cs  Cs23  1  0.67090743  0.33081969  0.66920807  1
  Cs  Cs24  1  0.66091079  0.66239988  -0.00369455  1
  Cs  Cs25  1  0.67012868  0.66997574  0.33401027  1
  Cs  Cs26  1  0.67109237  0.67014910  0.67001090  1
  Sn  Sn27  1  0.83359248  0.83419758  0.83343655  1
  Sn  Sn28  1  0.16549073  0.16594025  0.49977063  1
  Sn  Sn29  1  0.16687942  0.49986956  0.83333443  1
  Sn  Sn30  1  0.83302828  0.16565084  0.83299103  1
  Sn  Sn31  1  0.83423267  0.16662519  0.50010879  1
  Sn  Sn32  1  0.16646357  0.83361307  0.49989800  1
  Sn  Sn33  1  0.49971331  0.16556046  0.16573616  1
  Sn  Sn34  1  0.50006928  0.16687560  0.83412450  1
  Sn  Sn35  1  0.83390613  0.49979433  0.16666814  1
  Sn  Sn36  1  0.16730634  0.50017501  0.50016822  1
  Sn  Sn37  1  0.49983941  0.83427397  0.16667872  1
  Sn  Sn38  1  0.50043277  0.50030069  0.50074360  1
  Sn  Sn39  1  0.16576255  0.49977096  0.16638509  1
  Pb  Pb40  1  0.50177485  0.83586699  0.83513035  1
  Pb  Pb41  1  0.49829786  0.83058938  0.49845153  1
  Pb  Pb42  1  0.16924498  0.16856593  0.16927014  1
  Pb  Pb43  1  0.16648240  0.16811663  0.83162676  1
  Pb  Pb44  1  0.83352733  0.49811924  0.49842763  1
  Pb  Pb45  1  0.83159341  0.16812746  0.16643391  1
  Pb  Pb46  1  0.49784923  0.49764608  0.83034871  1
  Pb  Pb47  1  0.50015333  0.16790287  0.50025381  1
  Pb  Pb48  1  0.83530437  0.49926646  0.83537818  1
  Pb  Pb49  1  0.16863055  0.83089921  0.16863929  1
  Pb  Pb50  1  0.16450045  0.83101860  0.83130812  1
  Pb  Pb51  1  0.83128176  0.83087524  0.16426089  1
  Pb  Pb52  1  0.49977412  0.49987800  0.16815827  1
  Pb  Pb53  1  0.83562303  0.83631536  0.50166221  1
  I  I54  1  0.16629956  0.00002711  0.16862253  1
  I  I55  1  0.16292600  0.00086001  0.50116247  1
  I  I56  1  0.16856452  0.00007714  0.83026261  1
  I  I57  1  0.16576919  0.33683755  0.16958882  1
  I  I58  1  0.16751921  0.33419832  0.50011796  1
  I  I59  1  0.16501478  0.33624819  0.83019332  1
  I  I60  1  0.16560042  0.66263878  0.16980529  1
  I  I61  1  0.17216487  0.66502339  0.49950832  1
  I  I62  1  0.16509814  0.66290963  0.83115145  1
  I  I63  1  0.50118792  0.00103271  0.16489129  1
  I  I64  1  0.49796216  0.00004828  0.50052619  1
  I  I65  1  0.50046067  0.00394554  0.83248855  1
  I  I66  1  0.50019149  0.33124173  0.16496260  1
  I  I67  1  0.49285782  0.33562219  0.49682306  1
  I  I68  1  0.50689594  0.32992398  0.83983093  1
  I  I69  1  0.49955787  0.66818286  0.16960364  1
  I  I70  1  0.49344457  0.66274065  0.49645376  1
  I  I71  1  0.50119472  0.66657757  0.83482272  1
  I  I72  1  0.83292741  0.00005660  0.16847514  1
  I  I73  1  0.83689284  0.00436159  0.50069025  1
  I  I74  1  0.82923281  0.00163465  0.82844088  1
  I  I75  1  0.83516260  0.33597999  0.16577977  1
  I  I76  1  0.83811254  0.33025159  0.50594408  1
  I  I77  1  0.83084894  0.33021690  0.83031776  1
  I  I78  1  0.83569270  0.66315368  0.16694437  1
  I  I79  1  0.83345118  0.66670651  0.50082710  1
  I  I80  1  0.83573924  0.66830787  0.83519886  1
  I  I81  1  0.16518065  0.16994328  0.00016345  1
  I  I82  1  0.16256558  0.17022399  0.33750740  1
  I  I83  1  0.16753601  0.17101509  0.66328875  1
  I  I84  1  0.16163345  0.49881035  0.00052523  1
  I  I85  1  0.16787191  0.49937633  0.33437158  1
  I  I86  1  0.17111692  0.49909009  0.66515191  1
  I  I87  1  0.16690464  0.83085507  0.00002654  1
  I  I88  1  0.16677009  0.83100066  0.33670734  1
  I  I89  1  0.16763239  0.83063506  0.66322137  1
  I  I90  1  0.50636018  0.16567110  -0.00021248  1
  I  I91  1  0.49951209  0.16622429  0.33141294  1
  I  I92  1  0.50131949  0.17010389  0.66881254  1
  I  I93  1  0.49853317  0.50102447  -0.00015869  1
  I  I94  1  0.49324564  0.49654487  0.33575675  1
  I  I95  1  0.49354488  0.49744040  0.66275114  1
  I  I96  1  0.49968576  0.83170670  0.00305848  1
  I  I97  1  0.50049237  0.83981276  0.33058461  1
  I  I98  1  0.49952293  0.83356917  0.66678348  1
  I  I99  1  0.83017853  0.16561516  -0.00288344  1
  I  I100  1  0.83615364  0.17047948  0.33571030  1
  I  I101  1  0.83107589  0.16548817  0.66707523  1
  I  I102  1  0.83776780  0.49821985  0.00309950  1
  I  I103  1  0.83779272  0.49797902  0.33066641  1
  I  I104  1  0.83410641  0.50065241  0.66680189  1
  I  I105  1  0.83456670  0.84051523  -0.00327593  1
  I  I106  1  0.83302762  0.83336479  0.33322565  1
  I  I107  1  0.83298732  0.83277626  0.66955921  1
  I  I108  1  0.00021108  0.16743535  0.16512580  1
  I  I109  1  0.00045904  0.17074170  0.50625022  1
  I  I110  1  -0.00279214  0.16580731  0.82971505  1
  I  I111  1  0.00123983  0.49913708  0.16946346  1
  I  I112  1  0.00344249  0.50071788  0.50111568  1
  I  I113  1  0.00322220  0.49790310  0.82732609  1
  I  I114  1  0.00006169  0.83309190  0.16682783  1
  I  I115  1  0.00354816  0.82572685  0.49996235  1
  I  I116  1  -0.00313119  0.84057898  0.83384001  1
  I  I117  1  0.33710435  0.16619914  0.16236770  1
  I  I118  1  0.33066888  0.16809749  0.49954929  1
  I  I119  1  0.33567659  0.17015773  0.83547164  1
  I  I120  1  0.33060623  0.49946697  0.16764412  1
  I  I121  1  0.33101941  0.49655801  0.49692412  1
  I  I122  1  0.32980813  0.49861879  0.83752852  1
  I  I123  1  0.33638411  0.83529325  0.16678011  1
  I  I124  1  0.33002735  0.83716449  0.50036007  1
  I  I125  1  0.33324849  0.83341435  0.83325830  1
  I  I126  1  0.66366628  0.16773608  0.16843816  1
  I  I127  1  0.66889973  0.17046524  0.50121818  1
  I  I128  1  0.66738205  0.16468477  0.83037869  1
  I  I129  1  0.66836509  0.49921172  0.16865353  1
  I  I130  1  0.66464987  0.49610299  0.49565817  1
  I  I131  1  0.66672623  0.50132794  0.83400646  1
  I  I132  1  0.66358291  0.83455694  0.16823713  1
  I  I133  1  0.66688018  0.83233645  0.49949605  1
  I  I134  1  0.66974658  0.83288228  0.83276934  1
