# generated using pymatgen
data_Cs27Sn14Pb13I81
_symmetry_space_group_name_H-M   'P 1'
_cell_length_a   18.95794935
_cell_length_b   18.95878852
_cell_length_c   18.96747119
_cell_angle_alpha   90.00088817
_cell_angle_beta   90.00033985
_cell_angle_gamma   89.99814088
_symmetry_Int_Tables_number   1
_chemical_formula_structural   Cs27Sn14Pb13I81
_chemical_formula_sum   'Cs27 Sn14 Pb13 I81'
_cell_volume   6817.28379529
_cell_formula_units_Z   1
loop_
 _symmetry_equiv_pos_site_id
 _symmetry_equiv_pos_as_xyz
  1  'x, y, z'
loop_
 _atom_site_type_symbol
 _atom_site_label
 _atom_site_symmetry_multiplicity
 _atom_site_fract_x
 _atom_site_fract_y
 _atom_site_fract_z
 _atom_site_occupancy
  Cs  Cs0  1  -0.00020552  -0.00054583  -0.00098121  1
  Cs  Cs1  1  -0.00182749  -0.00158117  0.33380239  1
  Cs  Cs2  1  -0.00041384  0.00033997  0.66796903  1
  Cs  Cs3  1  0.00141275  0.33293403  -0.00278240  1
  Cs  Cs4  1  0.00003893  0.33420825  0.33540467  1
  Cs  Cs5  1  -0.00116314  0.33340961  0.66754440  1
  Cs  Cs6  1  0.00043990  0.66749966  0.00152322  1
  Cs  Cs7  1  0.00120361  0.66751113  0.33199798  1
  Cs  Cs8  1  0.00098811  0.66592205  0.66628851  1
  Cs  Cs9  1  0.33276079  -0.00004784  0.00074624  1
  Cs  Cs10  1  0.33643782  0.00423678  0.33765998  1
  Cs  Cs11  1  0.33610252  -0.00127747  0.66043051  1
  Cs  Cs12  1  0.33289073  0.33015705  0.00432684  1
  Cs  Cs13  1  0.33729759  0.32902698  0.33072069  1
  Cs  Cs14  1  0.33055887  0.33225450  0.66543959  1
  Cs  Cs15  1  0.33336134  0.66743822  -0.00076410  1
  Cs  Cs16  1  0.33036130  0.66746110  0.33380343  1
  Cs  Cs17  1  0.33473707  0.66896297  0.66700704  1
  Cs  Cs18  1  0.66808549  -0.00125326  -0.00241007  1
  Cs  Cs19  1  0.66819986  0.00138496  0.33285006  1
  Cs  Cs20  1  0.66652178  -0.00019884  0.66832329  1
  Cs  Cs21  1  0.66428342  0.33829336  -0.00036490  1
  Cs  Cs22  1  0.66328561  0.33264599  0.33296758  1
  Cs  Cs23  1  0.66917992  0.33357560  0.66753084  1
  Cs  Cs24  1  0.66371902  0.66124983  0.00114034  1
  Cs  Cs25  1  0.66888385  0.66570667  0.32973043  1
  Cs  Cs26  1  0.66337917  0.66672653  0.66900982  1
  Sn  Sn27  1  0.83229460  0.16618312  0.83373038  1
  Sn  Sn28  1  0.83347457  0.83300335  0.50103619  1
  Sn  Sn29  1  0.16708638  0.50009898  0.49988318  1
  Sn  Sn30  1  0.16601676  0.83269708  0.83376150  1
  Sn  Sn31  1  0.83347023  0.16655753  0.49998282  1
  Sn  Sn32  1  0.50049583  0.16650935  0.83333109  1
  Sn  Sn33  1  0.16778859  0.83309370  0.16618490  1
  Sn  Sn34  1  0.83358876  0.16710520  0.16608073  1
  Sn  Sn35  1  0.83385537  0.83337794  0.83274728  1
  Sn  Sn36  1  0.49994510  0.50032658  0.50016634  1
  Sn  Sn37  1  0.83297437  0.50036711  0.50018941  1
  Sn  Sn38  1  0.16650272  0.50085507  0.83344950  1
  Sn  Sn39  1  0.49911244  0.83341817  0.16662109  1
  Sn  Sn40  1  0.16647910  0.50044678  0.16661794  1
  Pb  Pb41  1  0.83492034  0.50034456  0.83168974  1
  Pb  Pb42  1  0.49684598  0.49773757  0.83153869  1
  Pb  Pb43  1  0.16493902  0.83172913  0.50005188  1
  Pb  Pb44  1  0.83545102  0.49752072  0.16897562  1
  Pb  Pb45  1  0.16448172  0.16918802  0.49990420  1
  Pb  Pb46  1  0.49983799  0.83478409  0.83482050  1
  Pb  Pb47  1  0.50249023  0.16447345  0.16457491  1
  Pb  Pb48  1  0.49733725  0.50186807  0.16867866  1
  Pb  Pb49  1  0.50255609  0.16864582  0.50202108  1
  Pb  Pb50  1  0.50293461  0.83137260  0.49772310  1
  Pb  Pb51  1  0.83384904  0.83452558  0.16602788  1
  Pb  Pb52  1  0.16475287  0.16585153  0.16679182  1
  Pb  Pb53  1  0.16652840  0.16575862  0.83322992  1
  I  I54  1  0.16765507  -0.00360807  0.16010885  1
  I  I55  1  0.16462731  -0.00026059  0.50027429  1
  I  I56  1  0.16387676  -0.00346674  0.83950867  1
  I  I57  1  0.16367247  0.33631596  0.16668796  1
  I  I58  1  0.16387938  0.33810528  0.50085484  1
  I  I59  1  0.16582364  0.33605343  0.83263050  1
  I  I60  1  0.16847261  0.66677466  0.16654263  1
  I  I61  1  0.16270179  0.66316738  0.49985264  1
  I  I62  1  0.16087687  0.66713615  0.83372263  1
  I  I63  1  0.49308445  -0.00323644  0.16719623  1
  I  I64  1  0.50097234  -0.00004774  0.49972227  1
  I  I65  1  0.50138617  0.00272234  0.83371061  1
  I  I66  1  0.49936714  0.33333787  0.16713431  1
  I  I67  1  0.50055606  0.33674697  0.49969465  1
  I  I68  1  0.50731859  0.33009402  0.83277606  1
  I  I69  1  0.50122629  0.66973506  0.16558898  1
  I  I70  1  0.50167148  0.66328517  0.50084957  1
  I  I71  1  0.50256166  0.66659360  0.83342879  1
  I  I72  1  0.83528463  0.00252963  0.17112376  1
  I  I73  1  0.83378582  0.00010622  0.50032014  1
  I  I74  1  0.83568711  -0.00005790  0.82888502  1
  I  I75  1  0.83498654  0.32955177  0.16556186  1
  I  I76  1  0.83482440  0.33345146  0.50019527  1
  I  I77  1  0.83212432  0.33068772  0.83193316  1
  I  I78  1  0.83195293  0.66657704  0.16769915  1
  I  I79  1  0.83463141  0.66643288  0.50399874  1
  I  I80  1  0.83643643  0.66962147  0.82879581  1
  I  I81  1  0.16328917  0.17233420  -0.00014467  1
  I  I82  1  0.16377486  0.16665395  0.33329760  1
  I  I83  1  0.16467381  0.16769393  0.66681260  1
  I  I84  1  0.16543211  0.50384017  -0.00012729  1
  I  I85  1  0.16445078  0.50418016  0.33358022  1
  I  I86  1  0.16524830  0.50270238  0.66640964  1
  I  I87  1  0.16384159  0.82570680  -0.00044165  1
  I  I88  1  0.16698961  0.82866876  0.33078058  1
  I  I89  1  0.16317729  0.82958865  0.66948306  1
  I  I90  1  0.50614905  0.16726771  -0.00312450  1
  I  I91  1  0.50147210  0.16716350  0.33338371  1
  I  I92  1  0.50516755  0.16571642  0.66974038  1
  I  I93  1  0.49938934  0.49954111  0.00003157  1
  I  I94  1  0.50019017  0.49962136  0.33673844  1
  I  I95  1  0.49945870  0.50012690  0.66346367  1
  I  I96  1  0.50089882  0.83393894  0.00265617  1
  I  I97  1  0.49476851  0.83289905  0.33009202  1
  I  I98  1  0.49809762  0.83373666  0.66659043  1
  I  I99  1  0.83125939  0.16028798  -0.00139651  1
  I  I100  1  0.83591602  0.16655635  0.33438708  1
  I  I101  1  0.83031581  0.16661507  0.66681359  1
  I  I102  1  0.83530510  0.49957320  0.00001136  1
  I  I103  1  0.83607093  0.50118149  0.33755757  1
  I  I104  1  0.83668042  0.49580353  0.66318518  1
  I  I105  1  0.83532210  0.83957814  -0.00286291  1
  I  I106  1  0.83357777  0.83397524  0.33569816  1
  I  I107  1  0.83862669  0.83761736  0.66717430  1
  I  I108  1  -0.00354871  0.16494707  0.16468932  1
  I  I109  1  -0.00442548  0.16862912  0.50347143  1
  I  I110  1  -0.00338593  0.16603332  0.83222225  1
  I  I111  1  0.00365809  0.50651820  0.16878736  1
  I  I112  1  -0.00011197  0.49903884  0.49994451  1
  I  I113  1  0.00322330  0.49877106  0.83093950  1
  I  I114  1  0.00267361  0.83027338  0.16586626  1
  I  I115  1  -0.00357391  0.83199740  0.49883560  1
  I  I116  1  -0.00025100  0.83536333  0.83508586  1
  I  I117  1  0.33351404  0.16871106  0.16448505  1
  I  I118  1  0.33374033  0.16832598  0.50181932  1
  I  I119  1  0.33558246  0.16841137  0.83421789  1
  I  I120  1  0.32903387  0.50051078  0.16845367  1
  I  I121  1  0.33218629  0.50098689  0.50050356  1
  I  I122  1  0.32871296  0.50477109  0.83061589  1
  I  I123  1  0.33156567  0.82880080  0.16063427  1
  I  I124  1  0.33335518  0.83104797  0.50237325  1
  I  I125  1  0.33023782  0.83048761  0.83608711  1
  I  I126  1  0.67057425  0.16412146  0.17021342  1
  I  I127  1  0.67109855  0.16896627  0.49806815  1
  I  I128  1  0.66921978  0.16093450  0.83221258  1
  I  I129  1  0.66662625  0.50122283  0.16877076  1
  I  I130  1  0.66792693  0.49893464  0.50042870  1
  I  I131  1  0.66661857  0.50185807  0.83105121  1
  I  I132  1  0.66524469  0.83666755  0.16809814  1
  I  I133  1  0.67127987  0.83194577  0.50415996  1
  I  I134  1  0.66970837  0.83692547  0.83065321  1
