# generated using pymatgen
data_Cs27Sn13Pb14I81
_symmetry_space_group_name_H-M   'P 1'
_cell_length_a   18.97438804
_cell_length_b   18.97307982
_cell_length_c   18.98342506
_cell_angle_alpha   89.99996516
_cell_angle_beta   89.99971644
_cell_angle_gamma   90.00155326
_symmetry_Int_Tables_number   1
_chemical_formula_structural   Cs27Sn13Pb14I81
_chemical_formula_sum   'Cs27 Sn13 Pb14 I81'
_cell_volume   6834.08197459
_cell_formula_units_Z   1
loop_
 _symmetry_equiv_pos_site_id
 _symmetry_equiv_pos_as_xyz
  1  'x, y, z'
loop_
 _atom_site_type_symbol
 _atom_site_label
 _atom_site_symmetry_multiplicity
 _atom_site_fract_x
 _atom_site_fract_y
 _atom_site_fract_z
 _atom_site_occupancy
  Cs  Cs0  1  0.00366421  -0.00465899  -0.00276097  1
  Cs  Cs1  1  0.00799362  -0.00190799  0.33810652  1
  Cs  Cs2  1  0.00223197  -0.00687156  0.66476303  1
  Cs  Cs3  1  -0.00055958  0.33615717  0.00161005  1
  Cs  Cs4  1  0.00242296  0.33220348  0.33161827  1
  Cs  Cs5  1  0.00017133  0.33333356  0.66670371  1
  Cs  Cs6  1  -0.00804993  0.66916179  0.00335977  1
  Cs  Cs7  1  -0.00171420  0.67119105  0.32741021  1
  Cs  Cs8  1  -0.00095843  0.67315567  0.66896968  1
  Cs  Cs9  1  0.33487314  -0.00371250  -0.00006205  1
  Cs  Cs10  1  0.32789254  -0.00068192  0.33187534  1
  Cs  Cs11  1  0.33246105  -0.00029955  0.66800388  1
  Cs  Cs12  1  0.33301650  0.33331022  -0.00233963  1
  Cs  Cs13  1  0.33086426  0.33433498  0.33387005  1
  Cs  Cs14  1  0.33363854  0.33555065  0.66802150  1
  Cs  Cs15  1  0.33314541  0.66855886  0.00076185  1
  Cs  Cs16  1  0.33674307  0.66516474  0.32876535  1
  Cs  Cs17  1  0.33427554  0.66284299  0.66692603  1
  Cs  Cs18  1  0.66354993  0.00397810  0.00339388  1
  Cs  Cs19  1  0.66646021  0.00029670  0.33305542  1
  Cs  Cs20  1  0.66589079  0.00276144  0.66603604  1
  Cs  Cs21  1  0.66788023  0.33098097  -0.00080092  1
  Cs  Cs22  1  0.66637814  0.33265344  0.33613303  1
  Cs  Cs23  1  0.66628804  0.33219028  0.66521619  1
  Cs  Cs24  1  0.67203358  0.66769947  0.00234691  1
  Cs  Cs25  1  0.66479881  0.67087084  0.33282491  1
  Cs  Cs26  1  0.66720764  0.66558144  0.66569149  1
  Sn  Sn27  1  0.49988897  0.83468036  0.50101378  1
  Sn  Sn28  1  0.83495414  0.49945901  0.50020644  1
  Sn  Sn29  1  0.16541311  0.16758844  0.83304455  1
  Sn  Sn30  1  0.50031339  0.16795808  0.16799661  1
  Sn  Sn31  1  0.50026783  0.49865884  0.16523977  1
  Sn  Sn32  1  0.83496940  0.16694019  0.83301246  1
  Sn  Sn33  1  0.50041720  0.83192670  0.83239646  1
  Sn  Sn34  1  0.83308955  0.16742435  0.49978939  1
  Sn  Sn35  1  0.49990973  0.50089434  0.83445996  1
  Sn  Sn36  1  0.16487854  0.49996058  0.50066255  1
  Sn  Sn37  1  0.16667106  0.49949309  0.83272458  1
  Sn  Sn38  1  0.83318203  0.16681459  0.16724417  1
  Sn  Sn39  1  0.50007985  0.16585119  0.49908061  1
  Pb  Pb40  1  0.49996649  0.16708552  0.83320268  1
  Pb  Pb41  1  0.16854453  0.49990543  0.16601518  1
  Pb  Pb42  1  0.16671631  0.16679363  0.16373284  1
  Pb  Pb43  1  0.16981758  0.82945308  0.50012817  1
  Pb  Pb44  1  0.83123683  0.83373593  0.50002715  1
  Pb  Pb45  1  0.50012656  0.49958414  0.50011878  1
  Pb  Pb46  1  0.16671074  0.16827490  0.50213860  1
  Pb  Pb47  1  0.83013983  0.83664915  0.83325308  1
  Pb  Pb48  1  0.16659342  0.83316399  0.16654008  1
  Pb  Pb49  1  0.50008375  0.83381527  0.16665801  1
  Pb  Pb50  1  0.83311695  0.83718848  0.16693180  1
  Pb  Pb51  1  0.83074911  0.49779350  0.16960177  1
  Pb  Pb52  1  0.83340456  0.49835601  0.83163448  1
  Pb  Pb53  1  0.16883080  0.83224855  0.83329882  1
  I  I54  1  0.16983821  0.00067856  0.16495695  1
  I  I55  1  0.16503385  -0.00005883  0.50119074  1
  I  I56  1  0.16434553  0.00269977  0.83406387  1
  I  I57  1  0.16712053  0.33325547  0.16801663  1
  I  I58  1  0.16954010  0.33616414  0.50283086  1
  I  I59  1  0.17096498  0.33402560  0.82964842  1
  I  I60  1  0.17094136  0.66605021  0.16623357  1
  I  I61  1  0.16302350  0.66156444  0.50796048  1
  I  I62  1  0.17184783  0.66287377  0.82828126  1
  I  I63  1  0.50462430  0.00350090  0.16646967  1
  I  I64  1  0.50628092  0.00159840  0.50111106  1
  I  I65  1  0.50066806  -0.00140719  0.83231370  1
  I  I66  1  0.50311460  0.33244762  0.16666784  1
  I  I67  1  0.50176443  0.33071107  0.49984264  1
  I  I68  1  0.49874998  0.33567681  0.83342147  1
  I  I69  1  0.49773283  0.66390721  0.16720540  1
  I  I70  1  0.49948448  0.66819491  0.50103434  1
  I  I71  1  0.49351599  0.66531623  0.83194610  1
  I  I72  1  0.82336504  0.00567944  0.16795293  1
  I  I73  1  0.82944533  0.00394249  0.50001154  1
  I  I74  1  0.83730725  0.00523040  0.83040031  1
  I  I75  1  0.83001881  0.32956712  0.16437950  1
  I  I76  1  0.82909882  0.33183505  0.50084902  1
  I  I77  1  0.83043238  0.32987051  0.83416063  1
  I  I78  1  0.83196947  0.66633189  0.16788183  1
  I  I79  1  0.83428489  0.66365615  0.50176736  1
  I  I80  1  0.83487921  0.66662602  0.83118511  1
  I  I81  1  0.16494137  0.17316966  -0.00426686  1
  I  I82  1  0.16568204  0.16790271  0.33351403  1
  I  I83  1  0.16535319  0.16966296  0.67000390  1
  I  I84  1  0.17132834  0.49487676  -0.00368777  1
  I  I85  1  0.16597906  0.49903175  0.33619667  1
  I  I86  1  0.17141121  0.49486272  0.66756668  1
  I  I87  1  0.17121089  0.83414768  -0.00063004  1
  I  I88  1  0.16983029  0.83343304  0.33388919  1
  I  I89  1  0.16681358  0.83612070  0.66666798  1
  I  I90  1  0.50303548  0.16748610  0.00190877  1
  I  I91  1  0.50772190  0.16738271  0.33381290  1
  I  I92  1  0.50336454  0.16659794  0.66438218  1
  I  I93  1  0.49422911  0.49880726  -0.00107235  1
  I  I94  1  0.50026715  0.49896680  0.33163473  1
  I  I95  1  0.49863385  0.49993072  0.66891217  1
  I  I96  1  0.49868137  0.83362507  -0.00275406  1
  I  I97  1  0.50086299  0.83319245  0.33608781  1
  I  I98  1  0.50011110  0.83387613  0.66659708  1
  I  I99  1  0.83020901  0.16656873  -0.00004055  1
  I  I100  1  0.82536508  0.17147641  0.33411356  1
  I  I101  1  0.83018829  0.17105816  0.66587707  1
  I  I102  1  0.83459066  0.49808407  0.00015581  1
  I  I103  1  0.83637719  0.49355182  0.33747952  1
  I  I104  1  0.83012287  0.49252254  0.66374029  1
  I  I105  1  0.83092648  0.83321479  -0.00011485  1
  I  I106  1  0.82904748  0.83279135  0.33363415  1
  I  I107  1  0.83278558  0.83614458  0.66666346  1
  I  I108  1  -0.00328913  0.16679761  0.16984335  1
  I  I109  1  -0.00303466  0.17004801  0.49735490  1
  I  I110  1  -0.00038212  0.17345126  0.83357941  1
  I  I111  1  -0.00042316  0.49869419  0.16488184  1
  I  I112  1  -0.00024360  0.49166773  0.50598420  1
  I  I113  1  0.00271203  0.49530809  0.82979154  1
  I  I114  1  -0.00038510  0.83370349  0.16623038  1
  I  I115  1  0.00015288  0.83615778  0.49947672  1
  I  I116  1  -0.00014229  0.83218104  0.83401566  1
  I  I117  1  0.33681708  0.16969954  0.17019319  1
  I  I118  1  0.33636912  0.16516748  0.49756456  1
  I  I119  1  0.33164971  0.16795119  0.83264699  1
  I  I120  1  0.33717756  0.49388503  0.16862447  1
  I  I121  1  0.33176281  0.49977166  0.50171078  1
  I  I122  1  0.33392222  0.49659115  0.83021112  1
  I  I123  1  0.33426561  0.83588614  0.16673813  1
  I  I124  1  0.33786106  0.83925827  0.50404221  1
  I  I125  1  0.33706741  0.83567095  0.82985010  1
  I  I126  1  0.66579708  0.17044634  0.16468701  1
  I  I127  1  0.66655482  0.16932838  0.50212724  1
  I  I128  1  0.66864295  0.16656236  0.83291645  1
  I  I129  1  0.66262574  0.49764502  0.16178730  1
  I  I130  1  0.66845023  0.49762499  0.50039130  1
  I  I131  1  0.66367773  0.50122378  0.83448611  1
  I  I132  1  0.66613916  0.83085219  0.16644276  1
  I  I133  1  0.66294502  0.83234632  0.50359420  1
  I  I134  1  0.66217544  0.82811360  0.82912101  1
