# generated using pymatgen
data_Cs27Sn13Pb14I81
_symmetry_space_group_name_H-M   'P 1'
_cell_length_a   18.97347387
_cell_length_b   18.98350185
_cell_length_c   18.97282943
_cell_angle_alpha   89.99951696
_cell_angle_beta   89.99958396
_cell_angle_gamma   89.99958300
_symmetry_Int_Tables_number   1
_chemical_formula_structural   Cs27Sn13Pb14I81
_chemical_formula_sum   'Cs27 Sn13 Pb14 I81'
_cell_volume   6833.69017326
_cell_formula_units_Z   1
loop_
 _symmetry_equiv_pos_site_id
 _symmetry_equiv_pos_as_xyz
  1  'x, y, z'
loop_
 _atom_site_type_symbol
 _atom_site_label
 _atom_site_symmetry_multiplicity
 _atom_site_fract_x
 _atom_site_fract_y
 _atom_site_fract_z
 _atom_site_occupancy
  Cs  Cs0  1  0.00074625  -0.00047484  -0.00051905  1
  Cs  Cs1  1  -0.00180278  0.00125271  0.34024458  1
  Cs  Cs2  1  0.00091732  -0.00211675  0.66115868  1
  Cs  Cs3  1  0.00171019  0.33585439  -0.00094598  1
  Cs  Cs4  1  -0.00323448  0.33030476  0.33754742  1
  Cs  Cs5  1  0.00005746  0.33272682  0.66606778  1
  Cs  Cs6  1  0.00143558  0.66451064  -0.00040515  1
  Cs  Cs7  1  -0.00064000  0.66801533  0.33959045  1
  Cs  Cs8  1  -0.00130182  0.66943735  0.66385920  1
  Cs  Cs9  1  0.33298754  0.00007305  -0.00052023  1
  Cs  Cs10  1  0.33109876  -0.00107573  0.33443026  1
  Cs  Cs11  1  0.33379942  -0.00015460  0.66670984  1
  Cs  Cs12  1  0.33012761  0.33418711  0.00034780  1
  Cs  Cs13  1  0.33530194  0.33790793  0.33129069  1
  Cs  Cs14  1  0.33429396  0.33156728  0.66869542  1
  Cs  Cs15  1  0.32989804  0.66594268  0.00183136  1
  Cs  Cs16  1  0.33534774  0.66330749  0.33123651  1
  Cs  Cs17  1  0.33408257  0.66815014  0.66758505  1
  Cs  Cs18  1  0.66872773  -0.00099479  0.00414810  1
  Cs  Cs19  1  0.67068536  0.00177311  0.32056478  1
  Cs  Cs20  1  0.66104775  -0.00060377  0.67001180  1
  Cs  Cs21  1  0.66864118  0.33172202  -0.00137731  1
  Cs  Cs22  1  0.66868498  0.33527035  0.33301156  1
  Cs  Cs23  1  0.66524861  0.33461601  0.66696520  1
  Cs  Cs24  1  0.66957344  0.67007513  0.00009742  1
  Cs  Cs25  1  0.66574591  0.66323553  0.33298779  1
  Cs  Cs26  1  0.66692253  0.66579299  0.66586736  1
  Sn  Sn27  1  0.50005204  0.16655535  0.83307497  1
  Sn  Sn28  1  0.50053780  0.50014541  0.83361712  1
  Sn  Sn29  1  0.83346354  0.50008549  0.16585869  1
  Sn  Sn30  1  0.16679649  0.16590921  0.16620720  1
  Sn  Sn31  1  0.49904649  0.83336295  0.83297212  1
  Sn  Sn32  1  0.50003466  0.16560170  0.50009574  1
  Sn  Sn33  1  0.16699455  0.49973103  0.50045434  1
  Sn  Sn34  1  0.83349141  0.16701296  0.83307449  1
  Sn  Sn35  1  0.83259325  0.49937765  0.83411532  1
  Sn  Sn36  1  0.16637473  0.16566729  0.83384115  1
  Sn  Sn37  1  0.16655626  0.83420882  0.16611134  1
  Sn  Sn38  1  0.50011150  0.83458930  0.50023118  1
  Sn  Sn39  1  0.16735184  0.83421432  0.83397432  1
  Pb  Pb40  1  0.82906852  0.83380377  0.50004985  1
  Pb  Pb41  1  0.49784913  0.16674529  0.16618658  1
  Pb  Pb42  1  0.83517074  0.49988876  0.50098905  1
  Pb  Pb43  1  0.16886842  0.16822385  0.50036179  1
  Pb  Pb44  1  0.83343611  0.83355935  0.83313512  1
  Pb  Pb45  1  0.83671889  0.83104799  0.16655631  1
  Pb  Pb46  1  0.50253558  0.49990209  0.16340381  1
  Pb  Pb47  1  0.49859825  0.49986404  0.50222865  1
  Pb  Pb48  1  0.83625216  0.16834695  0.16419943  1
  Pb  Pb49  1  0.16874380  0.83176813  0.50029426  1
  Pb  Pb50  1  0.16452136  0.49986251  0.16903025  1
  Pb  Pb51  1  0.16634773  0.50018659  0.83199017  1
  Pb  Pb52  1  0.82970815  0.16635150  0.50285552  1
  Pb  Pb53  1  0.49791940  0.83336481  0.16629110  1
  I  I54  1  0.16813261  0.00015476  0.16118210  1
  I  I55  1  0.16622538  0.00002170  0.49949398  1
  I  I56  1  0.16983430  0.00049612  0.83673950  1
  I  I57  1  0.16645305  0.33065353  0.16155138  1
  I  I58  1  0.16905290  0.33563145  0.50105200  1
  I  I59  1  0.16947237  0.33053588  0.83583297  1
  I  I60  1  0.16624747  0.66923460  0.16216403  1
  I  I61  1  0.16859869  0.66433882  0.50097137  1
  I  I62  1  0.17032283  0.66929007  0.83572245  1
  I  I63  1  0.50257899  0.00006029  0.16324306  1
  I  I64  1  0.49725855  0.00010035  0.51138150  1
  I  I65  1  0.49843688  0.00033111  0.82867285  1
  I  I66  1  0.49567825  0.33333260  0.16780187  1
  I  I67  1  0.49755184  0.33078439  0.50578822  1
  I  I68  1  0.49995721  0.33241313  0.82943331  1
  I  I69  1  0.49659567  0.66661806  0.16742840  1
  I  I70  1  0.49729430  0.66909825  0.50527598  1
  I  I71  1  0.49944528  0.66723600  0.82933501  1
  I  I72  1  0.83150004  0.00020840  0.16525135  1
  I  I73  1  0.83973876  0.00029189  0.50158067  1
  I  I74  1  0.83099413  0.00317720  0.83281856  1
  I  I75  1  0.83585716  0.33616454  0.16350463  1
  I  I76  1  0.83220769  0.33320507  0.49835101  1
  I  I77  1  0.83054754  0.33326466  0.83683991  1
  I  I78  1  0.83475074  0.66316211  0.15823484  1
  I  I79  1  0.83332716  0.66649005  0.50226867  1
  I  I80  1  0.83047822  0.66373141  0.83655723  1
  I  I81  1  0.16904011  0.16430831  -0.00205285  1
  I  I82  1  0.16876678  0.16453340  0.33089288  1
  I  I83  1  0.16560671  0.16428967  0.67033916  1
  I  I84  1  0.16818480  0.50024083  -0.00022864  1
  I  I85  1  0.16640594  0.50031110  0.33624389  1
  I  I86  1  0.16614340  0.49986770  0.66472058  1
  I  I87  1  0.17262152  0.83582588  -0.00164875  1
  I  I88  1  0.16766249  0.83538972  0.33089704  1
  I  I89  1  0.16860596  0.83617095  0.66987169  1
  I  I90  1  0.50156212  0.16605294  -0.00416140  1
  I  I91  1  0.49647538  0.16224142  0.33615200  1
  I  I92  1  0.49781446  0.16639348  0.66904887  1
  I  I93  1  0.49849515  0.49913358  -0.00512625  1
  I  I94  1  0.49996708  0.50037057  0.33350679  1
  I  I95  1  0.50498452  0.49966912  0.67063768  1
  I  I96  1  0.49828518  0.83418656  -0.00387664  1
  I  I97  1  0.49767668  0.83724590  0.33622541  1
  I  I98  1  0.49393948  0.83409410  0.66883718  1
  I  I99  1  0.82780415  0.16856150  -0.00422301  1
  I  I100  1  0.83352650  0.16909258  0.33313317  1
  I  I101  1  0.83907851  0.17406793  0.67145616  1
  I  I102  1  0.83080271  0.49603881  -0.00198073  1
  I  I103  1  0.83696309  0.50113980  0.33099241  1
  I  I104  1  0.82999986  0.49618983  0.67043234  1
  I  I105  1  0.82838020  0.83433287  -0.00037950  1
  I  I106  1  0.83435720  0.83024577  0.33318627  1
  I  I107  1  0.83984534  0.82984203  0.66712439  1
  I  I108  1  0.00419005  0.16400527  0.16106806  1
  I  I109  1  0.00014989  0.16938390  0.50065285  1
  I  I110  1  0.00078679  0.16852933  0.83902539  1
  I  I111  1  -0.00277756  0.49997005  0.15769092  1
  I  I112  1  0.00297613  0.50031972  0.50225411  1
  I  I113  1  -0.00251094  0.49662015  0.83541555  1
  I  I114  1  0.00476402  0.83627856  0.15870505  1
  I  I115  1  0.00040049  0.83026833  0.50063716  1
  I  I116  1  0.00334529  0.83506374  0.83774381  1
  I  I117  1  0.32975709  0.16453587  0.16010263  1
  I  I118  1  0.33650485  0.16425717  0.50751237  1
  I  I119  1  0.33355838  0.16685049  0.83299590  1
  I  I120  1  0.33293318  0.50021418  0.16692113  1
  I  I121  1  0.33100914  0.49994589  0.50138438  1
  I  I122  1  0.33571328  0.49783868  0.82983477  1
  I  I123  1  0.32983358  0.83554113  0.16406330  1
  I  I124  1  0.33646454  0.83626883  0.50368385  1
  I  I125  1  0.33359009  0.83549466  0.83308012  1
  I  I126  1  0.66693785  0.16817046  0.16675061  1
  I  I127  1  0.66169777  0.16508391  0.50665209  1
  I  I128  1  0.66579196  0.16844765  0.82783280  1
  I  I129  1  0.67035704  0.49942149  0.16622012  1
  I  I130  1  0.66645743  0.50055308  0.49840189  1
  I  I131  1  0.66623463  0.49678333  0.83574180  1
  I  I132  1  0.66673217  0.83191227  0.16701599  1
  I  I133  1  0.66104743  0.83420109  0.50990897  1
  I  I134  1  0.66327651  0.83449855  0.82852615  1
