# generated using pymatgen
data_Cs27Sn14Pb13I81
_symmetry_space_group_name_H-M   'P 1'
_cell_length_a   18.97624800
_cell_length_b   18.97148006
_cell_length_c   18.98043796
_cell_angle_alpha   89.99971421
_cell_angle_beta   89.99837456
_cell_angle_gamma   89.99798911
_symmetry_Int_Tables_number   1
_chemical_formula_structural   Cs27Sn14Pb13I81
_chemical_formula_sum   'Cs27 Sn14 Pb13 I81'
_cell_volume   6833.10021204
_cell_formula_units_Z   1
loop_
 _symmetry_equiv_pos_site_id
 _symmetry_equiv_pos_as_xyz
  1  'x, y, z'
loop_
 _atom_site_type_symbol
 _atom_site_label
 _atom_site_symmetry_multiplicity
 _atom_site_fract_x
 _atom_site_fract_y
 _atom_site_fract_z
 _atom_site_occupancy
  Cs  Cs0  1  0.00173141  -0.00589912  0.00230168  1
  Cs  Cs1  1  0.00542242  0.00484514  0.32908839  1
  Cs  Cs2  1  -0.00051494  0.00085196  0.66789115  1
  Cs  Cs3  1  -0.00388625  0.33431529  0.00082808  1
  Cs  Cs4  1  -0.00032669  0.33147948  0.33143135  1
  Cs  Cs5  1  0.00113379  0.33155925  0.66574403  1
  Cs  Cs6  1  -0.00159849  0.67116545  -0.00198087  1
  Cs  Cs7  1  -0.00312530  0.66473474  0.33654133  1
  Cs  Cs8  1  -0.00558528  0.67045152  0.66647243  1
  Cs  Cs9  1  0.33277356  -0.00448931  0.00488197  1
  Cs  Cs10  1  0.33134364  -0.00290093  0.32587104  1
  Cs  Cs11  1  0.33406449  0.00243743  0.66717820  1
  Cs  Cs12  1  0.33596761  0.33699038  -0.00406356  1
  Cs  Cs13  1  0.33117389  0.33519324  0.33608813  1
  Cs  Cs14  1  0.33390149  0.33368799  0.66699276  1
  Cs  Cs15  1  0.33200801  0.66467506  0.00016824  1
  Cs  Cs16  1  0.33445537  0.66610620  0.33394585  1
  Cs  Cs17  1  0.33339790  0.66465675  0.66582344  1
  Cs  Cs18  1  0.66434879  0.00361190  0.00322891  1
  Cs  Cs19  1  0.66425183  -0.00448450  0.33092257  1
  Cs  Cs20  1  0.66660335  0.00129310  0.66594774  1
  Cs  Cs21  1  0.66733827  0.33220178  0.00048437  1
  Cs  Cs22  1  0.66926431  0.33322759  0.33126590  1
  Cs  Cs23  1  0.66438951  0.33129588  0.66768952  1
  Cs  Cs24  1  0.66994784  0.66455700  -0.00200964  1
  Cs  Cs25  1  0.66954083  0.67098590  0.33746210  1
  Cs  Cs26  1  0.67210317  0.67034005  0.66378766  1
  Sn  Sn27  1  0.16720170  0.83267492  0.50048789  1
  Sn  Sn28  1  0.49969153  0.49983060  0.16694983  1
  Sn  Sn29  1  0.16710855  0.49989565  0.16643858  1
  Sn  Sn30  1  0.16703472  0.16717108  0.83352430  1
  Sn  Sn31  1  0.49978877  0.83307795  0.83298428  1
  Sn  Sn32  1  0.49969312  0.49930041  0.50019986  1
  Sn  Sn33  1  0.16682911  0.49946119  0.83311319  1
  Sn  Sn34  1  0.49967690  0.50044630  0.83280591  1
  Sn  Sn35  1  0.83316280  0.83322753  0.16673710  1
  Sn  Sn36  1  0.83334775  0.16686927  0.83271736  1
  Sn  Sn37  1  0.49955048  0.16643507  0.83271638  1
  Sn  Sn38  1  0.16717396  0.50104830  0.50048564  1
  Sn  Sn39  1  0.83217027  0.16686868  0.50041112  1
  Sn  Sn40  1  0.50053899  0.16720302  0.50013896  1
  Pb  Pb41  1  0.49830204  0.83358934  0.50173491  1
  Pb  Pb42  1  0.16754612  0.16721704  0.50158942  1
  Pb  Pb43  1  0.83317252  0.49761320  0.50020139  1
  Pb  Pb44  1  0.83332421  0.49789502  0.83306463  1
  Pb  Pb45  1  0.16523977  0.83013216  0.16904769  1
  Pb  Pb46  1  0.83326695  0.50175899  0.16668457  1
  Pb  Pb47  1  0.49967505  0.16914426  0.16698232  1
  Pb  Pb48  1  0.50141576  0.83002092  0.16417212  1
  Pb  Pb49  1  0.16857782  0.83281780  0.83161951  1
  Pb  Pb50  1  0.16706489  0.16967211  0.16295446  1
  Pb  Pb51  1  0.83062161  0.83643426  0.83464675  1
  Pb  Pb52  1  0.83320596  0.16480220  0.16673558  1
  Pb  Pb53  1  0.83589318  0.83682608  0.49836571  1
  I  I54  1  0.16434193  -0.00026446  0.16777804  1
  I  I55  1  0.16541532  -0.00143593  0.50315866  1
  I  I56  1  0.16751670  0.00267295  0.82928736  1
  I  I57  1  0.16949786  0.33773293  0.17351437  1
  I  I58  1  0.16764580  0.33654584  0.49849394  1
  I  I59  1  0.17131169  0.33423938  0.83100647  1
  I  I60  1  0.17094033  0.66222164  0.16061919  1
  I  I61  1  0.17262359  0.66416730  0.50146191  1
  I  I62  1  0.17246532  0.66305739  0.83546586  1
  I  I63  1  0.50227835  -0.00026212  0.16606222  1
  I  I64  1  0.50249933  0.00305630  0.50668719  1
  I  I65  1  0.50061970  0.00171637  0.82772941  1
  I  I66  1  0.49690948  0.33732912  0.16172689  1
  I  I67  1  0.49779406  0.33409960  0.50486119  1
  I  I68  1  0.49928528  0.33354297  0.83303444  1
  I  I69  1  0.49558094  0.66200215  0.16715468  1
  I  I70  1  0.49678057  0.66335288  0.50085011  1
  I  I71  1  0.49399160  0.66484774  0.83436490  1
  I  I72  1  0.83331969  -0.00271774  0.16599017  1
  I  I73  1  0.82811987  0.00438318  0.50512558  1
  I  I74  1  0.83448922  0.00449202  0.82933714  1
  I  I75  1  0.83385896  0.33327560  0.16643496  1
  I  I76  1  0.83423114  0.32974987  0.50379224  1
  I  I77  1  0.82927169  0.32970587  0.83076137  1
  I  I78  1  0.83307610  0.66925418  0.16626007  1
  I  I79  1  0.83141638  0.66693321  0.49805547  1
  I  I80  1  0.83307948  0.66699640  0.83551894  1
  I  I81  1  0.16710487  0.17049360  -0.00537178  1
  I  I82  1  0.16480082  0.16658988  0.33340252  1
  I  I83  1  0.16697951  0.17211340  0.66974880  1
  I  I84  1  0.17345079  0.49440454  -0.00096121  1
  I  I85  1  0.17293487  0.50492049  0.33406751  1
  I  I86  1  0.17348995  0.49879847  0.66692169  1
  I  I87  1  0.16591877  0.83385284  -0.00004035  1
  I  I88  1  0.16737290  0.83005951  0.33685878  1
  I  I89  1  0.16684380  0.82723012  0.66403726  1
  I  I90  1  0.50135187  0.16767719  -0.00373322  1
  I  I91  1  0.50566707  0.17127521  0.33688516  1
  I  I92  1  0.50075212  0.17154628  0.66781328  1
  I  I93  1  0.49442641  0.50004444  -0.00132342  1
  I  I94  1  0.49359695  0.49498913  0.33443138  1
  I  I95  1  0.49329302  0.49770987  0.66702694  1
  I  I96  1  0.49940208  0.83590439  -0.00379923  1
  I  I97  1  0.50039067  0.83402598  0.33334634  1
  I  I98  1  0.49955250  0.82959866  0.66967840  1
  I  I99  1  0.83179934  0.16672342  -0.00328088  1
  I  I100  1  0.82879495  0.16642178  0.33642774  1
  I  I101  1  0.83205308  0.16693704  0.66745557  1
  I  I102  1  0.83261359  0.49738060  -0.00017112  1
  I  I103  1  0.83360334  0.49711691  0.33347516  1
  I  I104  1  0.83441981  0.50352403  0.66665347  1
  I  I105  1  0.83444071  0.83387095  0.00218594  1
  I  I106  1  0.83210857  0.83351574  0.33095639  1
  I  I107  1  0.83359795  0.83217853  0.66659690  1
  I  I108  1  0.00013319  0.16919042  0.16791744  1
  I  I109  1  -0.00158064  0.16595120  0.50476852  1
  I  I110  1  0.00033016  0.17215465  0.82883133  1
  I  I111  1  0.00329510  0.50052996  0.16653269  1
  I  I112  1  0.00342997  0.50225019  0.49945693  1
  I  I113  1  0.00353414  0.49517444  0.83418981  1
  I  I114  1  -0.00233973  0.83264676  0.16541455  1
  I  I115  1  0.00352018  0.82640854  0.50111573  1
  I  I116  1  -0.00001133  0.83353945  0.83391922  1
  I  I117  1  0.33332765  0.16120574  0.16893271  1
  I  I118  1  0.33635833  0.16900286  0.50559527  1
  I  I119  1  0.33444718  0.16908755  0.82833408  1
  I  I120  1  0.33350064  0.50015226  0.16575503  1
  I  I121  1  0.33377665  0.49747929  0.50029589  1
  I  I122  1  0.33394870  0.49536540  0.83347392  1
  I  I123  1  0.33332514  0.83534155  0.16666644  1
  I  I124  1  0.33057310  0.83309367  0.50060024  1
  I  I125  1  0.33644415  0.83761678  0.83323045  1
  I  I126  1  0.66643252  0.16977797  0.16179703  1
  I  I127  1  0.66525130  0.17222074  0.50898506  1
  I  I128  1  0.66535905  0.16688244  0.82964480  1
  I  I129  1  0.66333532  0.50026825  0.16520841  1
  I  I130  1  0.66298166  0.49793778  0.50045413  1
  I  I131  1  0.66283026  0.49923727  0.83422701  1
  I  I132  1  0.66894689  0.83236204  0.16694721  1
  I  I133  1  0.66658874  0.83079093  0.49970777  1
  I  I134  1  0.66274184  0.83041162  0.83268527  1
