# generated using pymatgen
data_Cs27Sn14Pb13I81
_symmetry_space_group_name_H-M   'P 1'
_cell_length_a   18.96599431
_cell_length_b   18.97380771
_cell_length_c   18.98670618
_cell_angle_alpha   89.99906411
_cell_angle_beta   90.00029689
_cell_angle_gamma   89.99770206
_symmetry_Int_Tables_number   1
_chemical_formula_structural   Cs27Sn14Pb13I81
_chemical_formula_sum   'Cs27 Sn14 Pb13 I81'
_cell_volume   6832.50156821
_cell_formula_units_Z   1
loop_
 _symmetry_equiv_pos_site_id
 _symmetry_equiv_pos_as_xyz
  1  'x, y, z'
loop_
 _atom_site_type_symbol
 _atom_site_label
 _atom_site_symmetry_multiplicity
 _atom_site_fract_x
 _atom_site_fract_y
 _atom_site_fract_z
 _atom_site_occupancy
  Cs  Cs0  1  0.00111847  -0.00106276  -0.00147362  1
  Cs  Cs1  1  -0.00105450  -0.00059534  0.33302436  1
  Cs  Cs2  1  -0.00423279  -0.00718048  0.67105359  1
  Cs  Cs3  1  0.00198918  0.33519509  0.00447367  1
  Cs  Cs4  1  0.00443011  0.33474422  0.33095822  1
  Cs  Cs5  1  0.00145877  0.33518962  0.66457152  1
  Cs  Cs6  1  0.00359314  0.66545775  -0.00151552  1
  Cs  Cs7  1  0.00092456  0.66587706  0.33295886  1
  Cs  Cs8  1  0.00181250  0.67095213  0.66921791  1
  Cs  Cs9  1  0.33140059  0.00111368  -0.00051537  1
  Cs  Cs10  1  0.33231486  -0.00243291  0.33291271  1
  Cs  Cs11  1  0.33394017  0.00803594  0.66729222  1
  Cs  Cs12  1  0.32708953  0.33015294  -0.00122698  1
  Cs  Cs13  1  0.32528398  0.33099968  0.33627957  1
  Cs  Cs14  1  0.32902284  0.32628762  0.66492207  1
  Cs  Cs15  1  0.33815028  0.66773345  -0.00274675  1
  Cs  Cs16  1  0.33605577  0.67009980  0.33526344  1
  Cs  Cs17  1  0.33397752  0.66494226  0.66577803  1
  Cs  Cs18  1  0.66668147  0.00188993  0.00364706  1
  Cs  Cs19  1  0.66752823  0.00033004  0.33122852  1
  Cs  Cs20  1  0.66932654  0.00229503  0.66628276  1
  Cs  Cs21  1  0.66791068  0.33435819  -0.00085089  1
  Cs  Cs22  1  0.66773236  0.33424692  0.33332576  1
  Cs  Cs23  1  0.66574522  0.33346278  0.66759009  1
  Cs  Cs24  1  0.66323051  0.66334902  0.00066432  1
  Cs  Cs25  1  0.66457773  0.66565329  0.33397970  1
  Cs  Cs26  1  0.66643161  0.66530293  0.66598622  1
  Sn  Sn27  1  0.83410213  0.83332923  0.16664993  1
  Sn  Sn28  1  0.83304080  0.16771137  0.49976055  1
  Sn  Sn29  1  0.50054699  0.16823284  0.16701952  1
  Sn  Sn30  1  0.83285660  0.16785997  0.83358003  1
  Sn  Sn31  1  0.49950696  0.83324898  0.50141645  1
  Sn  Sn32  1  0.49999752  0.49809241  0.16699498  1
  Sn  Sn33  1  0.50040016  0.50007607  0.83270884  1
  Sn  Sn34  1  0.83263429  0.49927195  0.50071865  1
  Sn  Sn35  1  0.83258122  0.16609322  0.16673766  1
  Sn  Sn36  1  0.50051725  0.50004523  0.50024970  1
  Sn  Sn37  1  0.16557737  0.83302182  0.16721156  1
  Sn  Sn38  1  0.50062822  0.83333733  0.83175902  1
  Sn  Sn39  1  0.16771740  0.83334915  0.49956571  1
  Sn  Sn40  1  0.83268787  0.49922582  0.83242150  1
  Pb  Pb41  1  0.16685875  0.49997617  0.83312551  1
  Pb  Pb42  1  0.83083122  0.83247455  0.83601048  1
  Pb  Pb43  1  0.16257000  0.16672268  0.83326154  1
  Pb  Pb44  1  0.83269713  0.83262346  0.49832849  1
  Pb  Pb45  1  0.50012513  0.83343706  0.16684206  1
  Pb  Pb46  1  0.16277022  0.16334818  0.50006527  1
  Pb  Pb47  1  0.17065247  0.50306028  0.16675644  1
  Pb  Pb48  1  0.16626148  0.16438876  0.16679481  1
  Pb  Pb49  1  0.16999375  0.83322711  0.83305995  1
  Pb  Pb50  1  0.16662869  0.50221114  0.50009689  1
  Pb  Pb51  1  0.50175278  0.16731541  0.83553620  1
  Pb  Pb52  1  0.83207962  0.49981713  0.16673234  1
  Pb  Pb53  1  0.50177927  0.16692518  0.49777159  1
  I  I54  1  0.16825201  -0.00350135  0.17097485  1
  I  I55  1  0.17313254  -0.00436561  0.49472318  1
  I  I56  1  0.16731727  -0.00034227  0.83378276  1
  I  I57  1  0.16449641  0.33339332  0.16596824  1
  I  I58  1  0.16913964  0.33317038  0.50051762  1
  I  I59  1  0.17263785  0.33333407  0.83363096  1
  I  I60  1  0.15996807  0.67080765  0.17080947  1
  I  I61  1  0.16600886  0.67014576  0.49507030  1
  I  I62  1  0.16054692  0.66691504  0.83456452  1
  I  I63  1  0.50205182  0.00186471  0.16654832  1
  I  I64  1  0.49803440  -0.00276965  0.50164286  1
  I  I65  1  0.50111257  -0.00216823  0.83150482  1
  I  I66  1  0.50885172  0.33368681  0.16611652  1
  I  I67  1  0.50391706  0.33651788  0.50236698  1
  I  I68  1  0.50345556  0.33667857  0.83133000  1
  I  I69  1  0.50065019  0.66448406  0.16634512  1
  I  I70  1  0.50245298  0.66616752  0.49756068  1
  I  I71  1  0.50536470  0.66557210  0.83612768  1
  I  I72  1  0.83004529  0.00102921  0.16743174  1
  I  I73  1  0.83356639  0.00210445  0.50116575  1
  I  I74  1  0.83189922  0.00222219  0.83114668  1
  I  I75  1  0.82944805  0.33061024  0.16640561  1
  I  I76  1  0.82650757  0.33398324  0.49895702  1
  I  I77  1  0.82633699  0.33384289  0.83450352  1
  I  I78  1  0.83440541  0.66882031  0.16764049  1
  I  I79  1  0.83182970  0.66378788  0.50290192  1
  I  I80  1  0.83087920  0.66354590  0.82936580  1
  I  I81  1  0.16652654  0.16306789  0.00028280  1
  I  I82  1  0.16477523  0.16761844  0.33341110  1
  I  I83  1  0.16866775  0.16419751  0.66642537  1
  I  I84  1  0.16526104  0.50278855  0.00013025  1
  I  I85  1  0.16499203  0.49914973  0.33334556  1
  I  I86  1  0.16912372  0.50377350  0.66650321  1
  I  I87  1  0.16365931  0.83420296  0.00269121  1
  I  I88  1  0.16967891  0.83330592  0.33335778  1
  I  I89  1  0.16712175  0.83230851  0.66366098  1
  I  I90  1  0.50681026  0.16785287  0.00339251  1
  I  I91  1  0.50760219  0.16829350  0.32998172  1
  I  I92  1  0.50152653  0.16657833  0.66662655  1
  I  I93  1  0.50516159  0.50289178  -0.00054767  1
  I  I94  1  0.50546616  0.50274195  0.33417879  1
  I  I95  1  0.50571303  0.50777541  0.66640102  1
  I  I96  1  0.50151315  0.82963741  -0.00159992  1
  I  I97  1  0.49968467  0.82989779  0.33551919  1
  I  I98  1  0.49587969  0.82523550  0.66563549  1
  I  I99  1  0.82838092  0.16582214  0.00052457  1
  I  I100  1  0.82872964  0.16536045  0.33282123  1
  I  I101  1  0.83309390  0.17026906  0.66657965  1
  I  I102  1  0.82792947  0.49803374  -0.00238099  1
  I  I103  1  0.82823979  0.49851152  0.33584836  1
  I  I104  1  0.82516625  0.49273392  0.66644340  1
  I  I105  1  0.83634140  0.83766573  0.00376181  1
  I  I106  1  0.83143910  0.83731131  0.33052577  1
  I  I107  1  0.83621444  0.83693845  0.66673648  1
  I  I108  1  -0.00377102  0.16389408  0.16630057  1
  I  I109  1  -0.00540110  0.17247477  0.49626346  1
  I  I110  1  -0.00590790  0.17117754  0.83675555  1
  I  I111  1  0.00005305  0.49850172  0.16635755  1
  I  I112  1  -0.00363256  0.49731112  0.50394655  1
  I  I113  1  -0.00394079  0.49594325  0.82923902  1
  I  I114  1  -0.00075547  0.83927173  0.17216175  1
  I  I115  1  0.00156372  0.83451551  0.49593911  1
  I  I116  1  -0.00032362  0.83399793  0.83183452  1
  I  I117  1  0.33623740  0.16896747  0.16634116  1
  I  I118  1  0.33334141  0.16872686  0.49775846  1
  I  I119  1  0.33364677  0.16594386  0.83613515  1
  I  I120  1  0.33900844  0.49591210  0.16653217  1
  I  I121  1  0.33700061  0.50362917  0.49966189  1
  I  I122  1  0.33745907  0.50670084  0.83409627  1
  I  I123  1  0.33172508  0.83234496  0.16804057  1
  I  I124  1  0.33483974  0.82678505  0.49616284  1
  I  I125  1  0.33800514  0.82625299  0.83615282  1
  I  I126  1  0.66794285  0.16252556  0.16665490  1
  I  I127  1  0.67008929  0.16459823  0.50083599  1
  I  I128  1  0.67004741  0.16738338  0.83224929  1
  I  I129  1  0.66375159  0.50282240  0.16672396  1
  I  I130  1  0.66602472  0.50311415  0.50028113  1
  I  I131  1  0.66620752  0.50052502  0.83286130  1
  I  I132  1  0.66859563  0.83559146  0.16703160  1
  I  I133  1  0.66386835  0.83161450  0.50124590  1
  I  I134  1  0.66308322  0.83115309  0.82881977  1
