# generated using pymatgen
data_Cs27Sn14Pb13I81
_symmetry_space_group_name_H-M   'P 1'
_cell_length_a   18.97635396
_cell_length_b   18.96507695
_cell_length_c   18.98727654
_cell_angle_alpha   89.99937047
_cell_angle_beta   89.99977536
_cell_angle_gamma   89.99939526
_symmetry_Int_Tables_number   1
_chemical_formula_structural   Cs27Sn14Pb13I81
_chemical_formula_sum   'Cs27 Sn14 Pb13 I81'
_cell_volume   6833.29322480
_cell_formula_units_Z   1
loop_
 _symmetry_equiv_pos_site_id
 _symmetry_equiv_pos_as_xyz
  1  'x, y, z'
loop_
 _atom_site_type_symbol
 _atom_site_label
 _atom_site_symmetry_multiplicity
 _atom_site_fract_x
 _atom_site_fract_y
 _atom_site_fract_z
 _atom_site_occupancy
  Cs  Cs0  1  0.00185417  0.00537066  -0.00041454  1
  Cs  Cs1  1  0.00142394  0.00073751  0.33458262  1
  Cs  Cs2  1  0.00173509  -0.00574623  0.66523100  1
  Cs  Cs3  1  0.00127184  0.33110277  -0.00012619  1
  Cs  Cs4  1  0.00187287  0.33341845  0.33279360  1
  Cs  Cs5  1  0.00052049  0.33338051  0.66757652  1
  Cs  Cs6  1  -0.00707338  0.66774080  -0.00067479  1
  Cs  Cs7  1  -0.00496521  0.66745789  0.33314768  1
  Cs  Cs8  1  -0.00533087  0.67465262  0.66748248  1
  Cs  Cs9  1  0.33339925  0.00162502  0.00010118  1
  Cs  Cs10  1  0.33428864  -0.00137549  0.33380924  1
  Cs  Cs11  1  0.33368925  -0.00726609  0.66506068  1
  Cs  Cs12  1  0.33333544  0.33353110  0.00012268  1
  Cs  Cs13  1  0.33289041  0.33515237  0.33254383  1
  Cs  Cs14  1  0.33383782  0.33536955  0.66788080  1
  Cs  Cs15  1  0.33453296  0.66370338  0.00019276  1
  Cs  Cs16  1  0.33287828  0.66229015  0.33282844  1
  Cs  Cs17  1  0.33238746  0.66679841  0.66658368  1
  Cs  Cs18  1  0.66510190  -0.00141464  0.00092775  1
  Cs  Cs19  1  0.66529328  -0.00483391  0.34062633  1
  Cs  Cs20  1  0.66420749  -0.00286296  0.65657874  1
  Cs  Cs21  1  0.66409577  0.33241002  -0.00146819  1
  Cs  Cs22  1  0.66602509  0.33287365  0.33696330  1
  Cs  Cs23  1  0.66609042  0.33277251  0.66512005  1
  Cs  Cs24  1  0.67374432  0.67467305  0.00095756  1
  Cs  Cs25  1  0.67536103  0.67264714  0.32976191  1
  Cs  Cs26  1  0.67604435  0.67094028  0.66969724  1
  Sn  Sn27  1  0.49970042  0.49993255  0.50006328  1
  Sn  Sn28  1  0.16724511  0.16741395  0.83273094  1
  Sn  Sn29  1  0.16723624  0.16757965  0.50032566  1
  Sn  Sn30  1  0.16716623  0.16691176  0.16687350  1
  Sn  Sn31  1  0.83280804  0.16711061  0.83376588  1
  Sn  Sn32  1  0.49987834  0.49924657  0.16649085  1
  Sn  Sn33  1  0.16699912  0.49938076  0.83330424  1
  Sn  Sn34  1  0.83255475  0.16735450  0.16627751  1
  Sn  Sn35  1  0.16700844  0.50007895  0.16627992  1
  Sn  Sn36  1  0.49992655  0.16700987  0.83364002  1
  Sn  Sn37  1  0.16699666  0.49902866  0.50042770  1
  Sn  Sn38  1  0.16724709  0.83283588  0.16612663  1
  Sn  Sn39  1  0.50020124  0.16746167  0.16642326  1
  Sn  Sn40  1  0.49960387  0.49963295  0.83353252  1
  Pb  Pb41  1  0.49938077  0.82860695  0.49980648  1
  Pb  Pb42  1  0.49739756  0.16824832  0.50011020  1
  Pb  Pb43  1  0.16697301  0.83282563  0.83594969  1
  Pb  Pb44  1  0.83631954  0.83729476  0.16645577  1
  Pb  Pb45  1  0.49781171  0.83317417  0.16655044  1
  Pb  Pb46  1  0.83291763  0.49730837  0.16654225  1
  Pb  Pb47  1  0.83334935  0.83778524  0.83369165  1
  Pb  Pb48  1  0.83363155  0.83353977  0.49975065  1
  Pb  Pb49  1  0.83620449  0.16704169  0.50021084  1
  Pb  Pb50  1  0.16701215  0.83231080  0.49736135  1
  Pb  Pb51  1  0.83319010  0.49766346  0.83348366  1
  Pb  Pb52  1  0.83370583  0.49958545  0.50007018  1
  Pb  Pb53  1  0.49963091  0.83302858  0.83355296  1
  I  I54  1  0.16571099  0.00246710  0.16646606  1
  I  I55  1  0.16486698  0.00299074  0.50007814  1
  I  I56  1  0.16627933  0.00394338  0.83367652  1
  I  I57  1  0.16666040  0.33273960  0.16686241  1
  I  I58  1  0.16916458  0.33362676  0.49558862  1
  I  I59  1  0.16701469  0.33241771  0.83711343  1
  I  I60  1  0.17299546  0.66481138  0.16739976  1
  I  I61  1  0.17143978  0.66245365  0.49993672  1
  I  I62  1  0.17272362  0.66266909  0.83285441  1
  I  I63  1  0.49852057  0.00389994  0.16091831  1
  I  I64  1  0.49956339  0.00007282  0.50006791  1
  I  I65  1  0.49867364  0.00432543  0.83974190  1
  I  I66  1  0.49471543  0.33296280  0.16554123  1
  I  I67  1  0.49729543  0.33651836  0.49945003  1
  I  I68  1  0.49839466  0.33294485  0.83487413  1
  I  I69  1  0.49359324  0.66268903  0.16657932  1
  I  I70  1  0.48988665  0.66051049  0.49952753  1
  I  I71  1  0.49257221  0.66223319  0.83376849  1
  I  I72  1  0.83371824  0.00535256  0.16142906  1
  I  I73  1  0.83511609  0.00075875  0.50000585  1
  I  I74  1  0.83617219  0.00587422  0.83940742  1
  I  I75  1  0.83977700  0.32933031  0.16283272  1
  I  I76  1  0.83240889  0.33300688  0.49931149  1
  I  I77  1  0.83512940  0.32948300  0.83795781  1
  I  I78  1  0.83338491  0.66681890  0.16799036  1
  I  I79  1  0.83512133  0.66642736  0.49971961  1
  I  I80  1  0.83365691  0.66678242  0.83195137  1
  I  I81  1  0.16572154  0.16796366  0.00037303  1
  I  I82  1  0.16566178  0.16863847  0.33186412  1
  I  I83  1  0.16573486  0.17388983  0.66768204  1
  I  I84  1  0.17231441  0.49658727  0.00031726  1
  I  I85  1  0.17241151  0.49639900  0.33252623  1
  I  I86  1  0.17337980  0.49077277  0.66713269  1
  I  I87  1  0.16728447  0.83555921  0.00364635  1
  I  I88  1  0.16694008  0.83570928  0.32955187  1
  I  I89  1  0.16545119  0.83453015  0.66673289  1
  I  I90  1  0.49597161  0.17328949  0.00036215  1
  I  I91  1  0.49952170  0.17041777  0.33025057  1
  I  I92  1  0.50088056  0.17092919  0.66977181  1
  I  I93  1  0.49151910  0.49427031  0.00020379  1
  I  I94  1  0.49153179  0.49453498  0.33228738  1
  I  I95  1  0.49206096  0.49416554  0.66752729  1
  I  I96  1  0.49907094  0.82974176  0.00014058  1
  I  I97  1  0.49885464  0.83636726  0.33309578  1
  I  I98  1  0.49953473  0.83655596  0.66665441  1
  I  I99  1  0.83908344  0.16781721  0.00028796  1
  I  I100  1  0.83470418  0.16709798  0.33020904  1
  I  I101  1  0.83323098  0.16812907  0.67000923  1
  I  I102  1  0.83523748  0.50127996  0.00006461  1
  I  I103  1  0.83410268  0.49735813  0.33313775  1
  I  I104  1  0.83340987  0.49697237  0.66684404  1
  I  I105  1  0.83362753  0.82965633  0.00029132  1
  I  I106  1  0.83417883  0.83491841  0.33267944  1
  I  I107  1  0.83460416  0.83424668  0.66691245  1
  I  I108  1  0.00189966  0.16634184  0.16420044  1
  I  I109  1  0.00470369  0.17283686  0.49835782  1
  I  I110  1  0.00164545  0.17046379  0.83718284  1
  I  I111  1  0.00383268  0.49920125  0.16741423  1
  I  I112  1  0.00434513  0.49563271  0.49847771  1
  I  I113  1  0.00362620  0.49549033  0.83397973  1
  I  I114  1  0.00427778  0.83126020  0.16698348  1
  I  I115  1  0.00071895  0.83233816  0.49942608  1
  I  I116  1  0.00027249  0.83196796  0.83374375  1
  I  I117  1  0.33240106  0.16710493  0.16411766  1
  I  I118  1  0.32924240  0.16889216  0.49819580  1
  I  I119  1  0.33273145  0.17073777  0.83758162  1
  I  I120  1  0.33226236  0.49583306  0.16688750  1
  I  I121  1  0.33216309  0.49543186  0.49910159  1
  I  I122  1  0.33269282  0.49259182  0.83394842  1
  I  I123  1  0.32991689  0.83887276  0.16665934  1
  I  I124  1  0.33291233  0.83761240  0.50005715  1
  I  I125  1  0.33311522  0.83917782  0.83355043  1
  I  I126  1  0.66540883  0.17288189  0.15840881  1
  I  I127  1  0.66624791  0.16752918  0.49968354  1
  I  I128  1  0.66548808  0.17180343  0.84234813  1
  I  I129  1  0.66289623  0.49476236  0.16706111  1
  I  I130  1  0.66313344  0.49867141  0.49985087  1
  I  I131  1  0.66297507  0.49511044  0.83287562  1
  I  I132  1  0.66683753  0.83223989  0.16720014  1
  I  I133  1  0.66641469  0.83397673  0.49886382  1
  I  I134  1  0.66664894  0.83078818  0.83455130  1
