# generated using pymatgen
data_Cs27Sn13Pb14I81
_symmetry_space_group_name_H-M   'P 1'
_cell_length_a   18.98232912
_cell_length_b   18.97410172
_cell_length_c   18.97872431
_cell_angle_alpha   90.00071222
_cell_angle_beta   90.00125379
_cell_angle_gamma   89.99948599
_symmetry_Int_Tables_number   1
_chemical_formula_structural   Cs27Sn13Pb14I81
_chemical_formula_sum   'Cs27 Sn13 Pb14 I81'
_cell_volume   6835.61730587
_cell_formula_units_Z   1
loop_
 _symmetry_equiv_pos_site_id
 _symmetry_equiv_pos_as_xyz
  1  'x, y, z'
loop_
 _atom_site_type_symbol
 _atom_site_label
 _atom_site_symmetry_multiplicity
 _atom_site_fract_x
 _atom_site_fract_y
 _atom_site_fract_z
 _atom_site_occupancy
  Cs  Cs0  1  -0.00247174  -0.00015193  0.00064703  1
  Cs  Cs1  1  0.00180004  -0.00067918  0.33236764  1
  Cs  Cs2  1  0.00065156  -0.00006368  0.66699866  1
  Cs  Cs3  1  0.00525890  0.33484688  -0.00285157  1
  Cs  Cs4  1  -0.00264596  0.33013139  0.33749782  1
  Cs  Cs5  1  0.00147503  0.32654026  0.66599052  1
  Cs  Cs6  1  -0.00010822  0.66602716  -0.00158448  1
  Cs  Cs7  1  -0.00078968  0.66740647  0.33586024  1
  Cs  Cs8  1  0.00117037  0.66698560  0.66611678  1
  Cs  Cs9  1  0.33435334  0.00478655  0.00880241  1
  Cs  Cs10  1  0.33236369  0.00566833  0.32749939  1
  Cs  Cs11  1  0.33517832  0.00080072  0.66530361  1
  Cs  Cs12  1  0.32457935  0.33068890  0.00534408  1
  Cs  Cs13  1  0.33386876  0.32767766  0.32764025  1
  Cs  Cs14  1  0.33178686  0.32957125  0.66825835  1
  Cs  Cs15  1  0.33258528  0.66372870  0.00411848  1
  Cs  Cs16  1  0.33474259  0.66653697  0.33232532  1
  Cs  Cs17  1  0.33452683  0.66705428  0.66607420  1
  Cs  Cs18  1  0.66789937  0.00100188  -0.00172735  1
  Cs  Cs19  1  0.66531725  -0.00026456  0.33239452  1
  Cs  Cs20  1  0.66476062  0.00070039  0.66896054  1
  Cs  Cs21  1  0.66579038  0.33358505  -0.00039861  1
  Cs  Cs22  1  0.66745458  0.33350953  0.33528513  1
  Cs  Cs23  1  0.66701286  0.33031974  0.66503867  1
  Cs  Cs24  1  0.66678177  0.66664957  -0.00194898  1
  Cs  Cs25  1  0.66642253  0.66539138  0.33462945  1
  Cs  Cs26  1  0.66500102  0.66693998  0.66698196  1
  Sn  Sn27  1  0.83312385  0.16709681  0.16638754  1
  Sn  Sn28  1  0.16805901  0.50085653  0.50019560  1
  Sn  Sn29  1  0.49959357  0.83261417  0.50051772  1
  Sn  Sn30  1  0.83328751  0.49997624  0.16576461  1
  Sn  Sn31  1  0.83305411  0.83295600  0.50046437  1
  Sn  Sn32  1  0.83312598  0.83280125  0.16651730  1
  Sn  Sn33  1  0.83269144  0.50083735  0.83349820  1
  Sn  Sn34  1  0.83333990  0.83235001  0.83303295  1
  Sn  Sn35  1  0.16739063  0.83294801  0.83290251  1
  Sn  Sn36  1  0.16734877  0.83247439  0.50084975  1
  Sn  Sn37  1  0.49869132  0.50078180  0.50100454  1
  Sn  Sn38  1  0.50023233  0.50061200  0.83264847  1
  Sn  Sn39  1  0.49932270  0.83245268  0.83291679  1
  Pb  Pb40  1  0.83309109  0.50155253  0.50099082  1
  Pb  Pb41  1  0.50235282  0.83313163  0.16642622  1
  Pb  Pb42  1  0.50268862  0.16694279  0.16643475  1
  Pb  Pb43  1  0.50005051  0.16679256  0.50020280  1
  Pb  Pb44  1  0.83312006  0.16298932  0.49797354  1
  Pb  Pb45  1  0.16676188  0.16289932  0.83318418  1
  Pb  Pb46  1  0.16435503  0.83295379  0.16680944  1
  Pb  Pb47  1  0.16363579  0.16671240  0.16667612  1
  Pb  Pb48  1  0.50001216  0.16722665  0.83337941  1
  Pb  Pb49  1  0.16682912  0.16616341  0.50018218  1
  Pb  Pb50  1  0.16362717  0.50043644  0.17000974  1
  Pb  Pb51  1  0.50196947  0.50015655  0.16644464  1
  Pb  Pb52  1  0.83328237  0.16700604  0.83518590  1
  Pb  Pb53  1  0.16698155  0.50188958  0.83128554  1
  I  I54  1  0.16394003  -0.00043307  0.16819187  1
  I  I55  1  0.16527992  -0.00435797  0.50370425  1
  I  I56  1  0.16408543  -0.00591217  0.82617809  1
  I  I57  1  0.16428837  0.33368015  0.16794340  1
  I  I58  1  0.16976886  0.33662490  0.49942232  1
  I  I59  1  0.16526770  0.33375584  0.83166097  1
  I  I60  1  0.16302303  0.66678144  0.16543662  1
  I  I61  1  0.16588321  0.66831923  0.50304502  1
  I  I62  1  0.16371283  0.67032494  0.83099322  1
  I  I63  1  0.50296698  -0.00039240  0.16716052  1
  I  I64  1  0.50108519  -0.00422276  0.50433234  1
  I  I65  1  0.50232316  -0.00423320  0.82850762  1
  I  I66  1  0.50422048  0.33377653  0.16790225  1
  I  I67  1  0.49701862  0.33732490  0.50415491  1
  I  I68  1  0.50787530  0.33756888  0.82796150  1
  I  I69  1  0.50356374  0.66673967  0.16768003  1
  I  I70  1  0.50050369  0.66778788  0.50360429  1
  I  I71  1  0.50337344  0.66768496  0.82869645  1
  I  I72  1  0.83354556  -0.00154014  0.16751609  1
  I  I73  1  0.83374595  -0.00588287  0.50130926  1
  I  I74  1  0.83291902  -0.00395299  0.83367286  1
  I  I75  1  0.83253307  0.33435942  0.16231257  1
  I  I76  1  0.83375989  0.33348843  0.49893916  1
  I  I77  1  0.82850098  0.33711370  0.83731831  1
  I  I78  1  0.83326470  0.66736807  0.16587026  1
  I  I79  1  0.83391252  0.67011484  0.49532599  1
  I  I80  1  0.83259150  0.66807999  0.83824220  1
  I  I81  1  0.16633244  0.16600284  -0.00001280  1
  I  I82  1  0.16525278  0.16399233  0.33350404  1
  I  I83  1  0.16410264  0.16849726  0.66652481  1
  I  I84  1  0.16831683  0.50078149  -0.00018597  1
  I  I85  1  0.17061498  0.50805082  0.33800061  1
  I  I86  1  0.16415095  0.50411391  0.66338117  1
  I  I87  1  0.16547682  0.83356297  -0.00324804  1
  I  I88  1  0.16521823  0.83038188  0.33698119  1
  I  I89  1  0.16087311  0.82980545  0.66602284  1
  I  I90  1  0.50144094  0.16429665  -0.00018859  1
  I  I91  1  0.50118473  0.16572567  0.33348254  1
  I  I92  1  0.50206063  0.16537895  0.66670109  1
  I  I93  1  0.50439438  0.50610921  -0.00367168  1
  I  I94  1  0.49878937  0.50522592  0.33675488  1
  I  I95  1  0.50369847  0.50563777  0.66677880  1
  I  I96  1  0.50081139  0.82926690  -0.00379450  1
  I  I97  1  0.50121958  0.82925171  0.33683392  1
  I  I98  1  0.50504903  0.83010791  0.66655462  1
  I  I99  1  0.83281715  0.16017185  0.00308622  1
  I  I100  1  0.83349339  0.16858386  0.32980996  1
  I  I101  1  0.83380653  0.16691991  0.66674180  1
  I  I102  1  0.82810087  0.50524345  -0.00084486  1
  I  I103  1  0.83383593  0.50149556  0.33140309  1
  I  I104  1  0.83232977  0.50656040  0.66972850  1
  I  I105  1  0.83351017  0.83362786  -0.00075655  1
  I  I106  1  0.83368857  0.83335533  0.33355522  1
  I  I107  1  0.83379242  0.82820342  0.66727460  1
  I  I108  1  -0.00443968  0.16428214  0.16717379  1
  I  I109  1  -0.00012640  0.16803154  0.49877018  1
  I  I110  1  -0.00021180  0.16713238  0.83410316  1
  I  I111  1  -0.00484958  0.50179520  0.16127129  1
  I  I112  1  0.00172949  0.50542955  0.49829338  1
  I  I113  1  -0.00285357  0.50473260  0.83698214  1
  I  I114  1  -0.00459305  0.83348807  0.16713763  1
  I  I115  1  -0.00017322  0.82976317  0.50149800  1
  I  I116  1  -0.00130991  0.83032012  0.83126845  1
  I  I117  1  0.33313287  0.16593637  0.16695976  1
  I  I118  1  0.33339688  0.16188883  0.49848344  1
  I  I119  1  0.33337546  0.16745706  0.83403567  1
  I  I120  1  0.33320182  0.49923418  0.16414646  1
  I  I121  1  0.33431004  0.50970786  0.50594150  1
  I  I122  1  0.33643193  0.50528898  0.82998698  1
  I  I123  1  0.33339236  0.83483529  0.16649359  1
  I  I124  1  0.33364824  0.82883438  0.50867374  1
  I  I125  1  0.33416018  0.82936979  0.82391386  1
  I  I126  1  0.67100741  0.16474670  0.16687537  1
  I  I127  1  0.66674951  0.16723094  0.49819796  1
  I  I128  1  0.66680833  0.16144044  0.83454390  1
  I  I129  1  0.67070849  0.50164748  0.16817246  1
  I  I130  1  0.66421349  0.50476509  0.49965576  1
  I  I131  1  0.66715811  0.50797209  0.83235124  1
  I  I132  1  0.67116505  0.83315969  0.16757193  1
  I  I133  1  0.66658479  0.82974624  0.50116192  1
  I  I134  1  0.66728304  0.83044683  0.83132745  1
