# generated using pymatgen
data_Cs27Sn14Pb13I81
_symmetry_space_group_name_H-M   'P 1'
_cell_length_a   18.96130029
_cell_length_b   18.95683439
_cell_length_c   18.96532238
_cell_angle_alpha   90.00032831
_cell_angle_beta   90.00150010
_cell_angle_gamma   89.99940886
_symmetry_Int_Tables_number   1
_chemical_formula_structural   Cs27Sn14Pb13I81
_chemical_formula_sum   'Cs27 Sn14 Pb13 I81'
_cell_volume   6817.01361742
_cell_formula_units_Z   1
loop_
 _symmetry_equiv_pos_site_id
 _symmetry_equiv_pos_as_xyz
  1  'x, y, z'
loop_
 _atom_site_type_symbol
 _atom_site_label
 _atom_site_symmetry_multiplicity
 _atom_site_fract_x
 _atom_site_fract_y
 _atom_site_fract_z
 _atom_site_occupancy
  Cs  Cs0  1  -0.00229975  -0.00679997  -0.00110382  1
  Cs  Cs1  1  -0.00032503  -0.00088451  0.33028521  1
  Cs  Cs2  1  -0.00205985  -0.00163838  0.67110384  1
  Cs  Cs3  1  0.00144588  0.33325374  0.00109312  1
  Cs  Cs4  1  0.00031386  0.33422602  0.33551178  1
  Cs  Cs5  1  -0.00153785  0.33361360  0.66403969  1
  Cs  Cs6  1  -0.00029648  0.67377043  0.00030677  1
  Cs  Cs7  1  0.00593933  0.66809157  0.33580084  1
  Cs  Cs8  1  0.00120388  0.66806430  0.66476856  1
  Cs  Cs9  1  0.33332905  0.00181189  -0.00000938  1
  Cs  Cs10  1  0.33461895  0.00020126  0.33721255  1
  Cs  Cs11  1  0.33436842  -0.00109358  0.66205103  1
  Cs  Cs12  1  0.33373362  0.33367057  0.00013163  1
  Cs  Cs13  1  0.33099319  0.33336606  0.33040805  1
  Cs  Cs14  1  0.33354129  0.33194144  0.67079024  1
  Cs  Cs15  1  0.33537227  0.66443718  -0.00060082  1
  Cs  Cs16  1  0.32979324  0.66764890  0.33585826  1
  Cs  Cs17  1  0.33408319  0.66942877  0.66662243  1
  Cs  Cs18  1  0.66905646  -0.00070976  -0.00032674  1
  Cs  Cs19  1  0.66594094  -0.00189306  0.33453730  1
  Cs  Cs20  1  0.66812433  0.00704137  0.66358375  1
  Cs  Cs21  1  0.66537292  0.33450646  0.00024363  1
  Cs  Cs22  1  0.66895636  0.33406350  0.33189479  1
  Cs  Cs23  1  0.66941537  0.32996171  0.66572960  1
  Cs  Cs24  1  0.66561922  0.66516647  0.00014209  1
  Cs  Cs25  1  0.66621492  0.66695176  0.33371375  1
  Cs  Cs26  1  0.66520220  0.66440551  0.66538666  1
  Sn  Sn27  1  0.16661141  0.16693789  0.50021021  1
  Sn  Sn28  1  0.50037651  0.16656206  0.16649502  1
  Sn  Sn29  1  0.16638863  0.16686754  0.16634737  1
  Sn  Sn30  1  0.49989458  0.49944676  0.49990400  1
  Sn  Sn31  1  0.50045250  0.50021196  0.16701597  1
  Sn  Sn32  1  0.50026624  0.50044816  0.83309236  1
  Sn  Sn33  1  0.16638119  0.49961110  0.83381830  1
  Sn  Sn34  1  0.49991665  0.83296719  0.16590212  1
  Sn  Sn35  1  0.83341568  0.49993608  0.83415407  1
  Sn  Sn36  1  0.16675449  0.16726304  0.83339753  1
  Sn  Sn37  1  0.83316247  0.49966530  0.16592445  1
  Sn  Sn38  1  0.83308187  0.83315102  0.50005187  1
  Sn  Sn39  1  0.83333117  0.16738405  0.16625417  1
  Sn  Sn40  1  0.50029640  0.83321821  0.83382929  1
  Pb  Pb41  1  0.16637849  0.49864714  0.16478763  1
  Pb  Pb42  1  0.16922413  0.83319909  0.83343750  1
  Pb  Pb43  1  0.83179546  0.50125688  0.49951873  1
  Pb  Pb44  1  0.83550789  0.16483086  0.49745224  1
  Pb  Pb45  1  0.49857533  0.16679395  0.83512054  1
  Pb  Pb46  1  0.16914116  0.49811642  0.50277877  1
  Pb  Pb47  1  0.16981580  0.83616581  0.16660542  1
  Pb  Pb48  1  0.16415658  0.83584509  0.50016817  1
  Pb  Pb49  1  0.83579318  0.16887183  0.83572499  1
  Pb  Pb50  1  0.83119345  0.83249622  0.16792702  1
  Pb  Pb51  1  0.83028481  0.83071164  0.83129607  1
  Pb  Pb52  1  0.50134653  0.83153325  0.50014429  1
  Pb  Pb53  1  0.49846464  0.16928075  0.49734737  1
  I  I54  1  0.16538497  0.00501474  0.16380615  1
  I  I55  1  0.16889794  0.00409755  0.50090306  1
  I  I56  1  0.16876645  0.00324390  0.83418256  1
  I  I57  1  0.17143565  0.33004493  0.16744867  1
  I  I58  1  0.16651974  0.33012865  0.49655139  1
  I  I59  1  0.17017584  0.33365755  0.83420737  1
  I  I60  1  0.16621554  0.66661557  0.16539639  1
  I  I61  1  0.16682953  0.66640584  0.50106102  1
  I  I62  1  0.16619072  0.66329584  0.83359548  1
  I  I63  1  0.49895356  0.00043675  0.16223521  1
  I  I64  1  0.49960320  0.00023514  0.49984022  1
  I  I65  1  0.49728183  -0.00223067  0.83840177  1
  I  I66  1  0.49984617  0.33403366  0.16630024  1
  I  I67  1  0.50075280  0.33729581  0.50205058  1
  I  I68  1  0.50045877  0.33679368  0.83452745  1
  I  I69  1  0.50560347  0.66517772  0.16532221  1
  I  I70  1  0.50064990  0.66343191  0.49644591  1
  I  I71  1  0.49805655  0.66460092  0.83800006  1
  I  I72  1  0.83311992  0.00260344  0.16952297  1
  I  I73  1  0.83169210  -0.00268850  0.49842800  1
  I  I74  1  0.83388515  0.00001167  0.83351731  1
  I  I75  1  0.82820954  0.33374545  0.16394503  1
  I  I76  1  0.83321070  0.33332535  0.50100053  1
  I  I77  1  0.82699754  0.33723269  0.83365226  1
  I  I78  1  0.82738366  0.66322105  0.16379678  1
  I  I79  1  0.83123952  0.66877868  0.49816603  1
  I  I80  1  0.83730193  0.66232993  0.84010676  1
  I  I81  1  0.16863946  0.17167657  0.00042653  1
  I  I82  1  0.16769556  0.16580889  0.33201908  1
  I  I83  1  0.16783939  0.17146388  0.66758913  1
  I  I84  1  0.17197664  0.49358359  -0.00333536  1
  I  I85  1  0.16722992  0.49793569  0.33326031  1
  I  I86  1  0.16642338  0.49408919  0.67097283  1
  I  I87  1  0.16371628  0.83613620  -0.00001406  1
  I  I88  1  0.16894104  0.83428328  0.33328083  1
  I  I89  1  0.16942350  0.83571200  0.66690565  1
  I  I90  1  0.49746224  0.17086025  0.00370433  1
  I  I91  1  0.49761405  0.16598215  0.32878538  1
  I  I92  1  0.49717285  0.16629960  0.66666238  1
  I  I93  1  0.50017325  0.50028215  0.00026379  1
  I  I94  1  0.50504728  0.49934956  0.33149024  1
  I  I95  1  0.49913666  0.50553984  0.66827593  1
  I  I96  1  0.50010822  0.82846378  0.00065470  1
  I  I97  1  0.50174579  0.83323071  0.33038075  1
  I  I98  1  0.50018393  0.82704649  0.66932957  1
  I  I99  1  0.83375066  0.16729990  0.00407028  1
  I  I100  1  0.83435798  0.17296908  0.32911784  1
  I  I101  1  0.83498276  0.16689306  0.66681195  1
  I  I102  1  0.82788472  0.49604224  0.00052990  1
  I  I103  1  0.82739899  0.49687874  0.32997176  1
  I  I104  1  0.83197515  0.50236778  0.66945418  1
  I  I105  1  0.83406392  0.83524954  -0.00005835  1
  I  I106  1  0.82990726  0.83248235  0.33531986  1
  I  I107  1  0.83166583  0.83191310  0.66402756  1
  I  I108  1  0.00000942  0.17245742  0.16749668  1
  I  I109  1  0.00350265  0.16753891  0.49801651  1
  I  I110  1  0.00401461  0.17188973  0.83501036  1
  I  I111  1  -0.00295273  0.49453469  0.16279014  1
  I  I112  1  0.00016742  0.50063482  0.49992953  1
  I  I113  1  -0.00013846  0.49388272  0.83756203  1
  I  I114  1  -0.00021229  0.83378651  0.16859945  1
  I  I115  1  -0.00335324  0.83129386  0.49862444  1
  I  I116  1  -0.00029768  0.83267781  0.83167597  1
  I  I117  1  0.33360290  0.16715425  0.16628828  1
  I  I118  1  0.33038617  0.16701082  0.49798768  1
  I  I119  1  0.33035429  0.17230303  0.83655396  1
  I  I120  1  0.33663181  0.49891649  0.16554866  1
  I  I121  1  0.33722982  0.50051895  0.49739880  1
  I  I122  1  0.33448235  0.49927300  0.83382578  1
  I  I123  1  0.33821414  0.83090558  0.16402694  1
  I  I124  1  0.33352231  0.83351812  0.49990632  1
  I  I125  1  0.33721812  0.82726786  0.83673822  1
  I  I126  1  0.66607587  0.16823074  0.16671164  1
  I  I127  1  0.66673490  0.16612687  0.49888154  1
  I  I128  1  0.66677671  0.16685782  0.83453176  1
  I  I129  1  0.66540144  0.49535453  0.16270417  1
  I  I130  1  0.66359630  0.50058153  0.50311216  1
  I  I131  1  0.66560044  0.50499628  0.83491722  1
  I  I132  1  0.66296468  0.83706348  0.16395730  1
  I  I133  1  0.66873615  0.83278623  0.49890245  1
  I  I134  1  0.66242534  0.82773658  0.83811339  1
