# generated using pymatgen
data_Cs27Sn14Pb13I81
_symmetry_space_group_name_H-M   'P 1'
_cell_length_a   18.97324160
_cell_length_b   18.97431028
_cell_length_c   18.97875245
_cell_angle_alpha   89.99978230
_cell_angle_beta   89.99867546
_cell_angle_gamma   90.00074144
_symmetry_Int_Tables_number   1
_chemical_formula_structural   Cs27Sn14Pb13I81
_chemical_formula_sum   'Cs27 Sn14 Pb13 I81'
_cell_volume   6832.43008197
_cell_formula_units_Z   1
loop_
 _symmetry_equiv_pos_site_id
 _symmetry_equiv_pos_as_xyz
  1  'x, y, z'
loop_
 _atom_site_type_symbol
 _atom_site_label
 _atom_site_symmetry_multiplicity
 _atom_site_fract_x
 _atom_site_fract_y
 _atom_site_fract_z
 _atom_site_occupancy
  Cs  Cs0  1  0.00070516  -0.00128464  0.00029782  1
  Cs  Cs1  1  -0.00124632  -0.00119263  0.33102836  1
  Cs  Cs2  1  0.00096986  0.00000296  0.66693136  1
  Cs  Cs3  1  -0.00193440  0.33388018  0.00090276  1
  Cs  Cs4  1  -0.00036566  0.33564816  0.33369616  1
  Cs  Cs5  1  0.00036343  0.33069031  0.66494571  1
  Cs  Cs6  1  0.00004436  0.66778971  -0.00033168  1
  Cs  Cs7  1  -0.00023693  0.66646851  0.33176294  1
  Cs  Cs8  1  -0.00246410  0.67031171  0.66962743  1
  Cs  Cs9  1  0.33194310  -0.00111211  -0.00232190  1
  Cs  Cs10  1  0.33542354  -0.00184997  0.33027238  1
  Cs  Cs11  1  0.33139149  0.00334039  0.67019510  1
  Cs  Cs12  1  0.33389592  0.33775322  0.00336332  1
  Cs  Cs13  1  0.33112317  0.34516563  0.33435519  1
  Cs  Cs14  1  0.33204327  0.32940201  0.66180947  1
  Cs  Cs15  1  0.33197967  0.66669360  0.00149135  1
  Cs  Cs16  1  0.33901024  0.65886370  0.33371126  1
  Cs  Cs17  1  0.33549474  0.66501992  0.66634743  1
  Cs  Cs18  1  0.66623048  0.00200699  0.00149586  1
  Cs  Cs19  1  0.66358540  0.00165739  0.33374914  1
  Cs  Cs20  1  0.66690632  0.00007293  0.66560054  1
  Cs  Cs21  1  0.66615216  0.33272096  -0.00017833  1
  Cs  Cs22  1  0.66968897  0.32733503  0.33136641  1
  Cs  Cs23  1  0.66755565  0.33358745  0.66810710  1
  Cs  Cs24  1  0.66756127  0.66362722  -0.00372771  1
  Cs  Cs25  1  0.66283258  0.67046728  0.33846044  1
  Cs  Cs26  1  0.66557226  0.66388832  0.66558626  1
  Sn  Sn27  1  0.16681051  0.83234617  0.83322533  1
  Sn  Sn28  1  0.83334646  0.50151392  0.16768536  1
  Sn  Sn29  1  0.16695655  0.83335965  0.49957922  1
  Sn  Sn30  1  0.83360015  0.83245297  0.16598527  1
  Sn  Sn31  1  0.16638297  0.50050176  0.83289158  1
  Sn  Sn32  1  0.50081737  0.16585259  0.83266642  1
  Sn  Sn33  1  0.83298546  0.16703284  0.50082828  1
  Sn  Sn34  1  0.16621882  0.83403079  0.16716575  1
  Sn  Sn35  1  0.16687958  0.16624752  0.16690450  1
  Sn  Sn36  1  0.50026071  0.16636649  0.50049400  1
  Sn  Sn37  1  0.83283413  0.83434190  0.83414961  1
  Sn  Sn38  1  0.50030840  0.83400830  0.83346252  1
  Sn  Sn39  1  0.83365347  0.49950776  0.49920260  1
  Sn  Sn40  1  0.83280034  0.16564842  0.83268181  1
  Pb  Pb41  1  0.50308789  0.49696330  0.50028306  1
  Pb  Pb42  1  0.83477590  0.49977795  0.83319354  1
  Pb  Pb43  1  0.83448183  0.83383773  0.49992901  1
  Pb  Pb44  1  0.50026482  0.83327804  0.16421995  1
  Pb  Pb45  1  0.83475073  0.16596907  0.16651933  1
  Pb  Pb46  1  0.16480039  0.50101019  0.16501606  1
  Pb  Pb47  1  0.16415762  0.50275742  0.50243123  1
  Pb  Pb48  1  0.50399533  0.50018717  0.16660051  1
  Pb  Pb49  1  0.49710587  0.83564988  0.50265901  1
  Pb  Pb50  1  0.16662767  0.16480821  0.49729294  1
  Pb  Pb51  1  0.49680982  0.16663014  0.16652515  1
  Pb  Pb52  1  0.16664909  0.16651441  0.83491971  1
  Pb  Pb53  1  0.49727273  0.49926139  0.83318324  1
  I  I54  1  0.16021018  -0.00221576  0.16355513  1
  I  I55  1  0.16334723  -0.00296417  0.50644930  1
  I  I56  1  0.16617084  -0.00318393  0.83253168  1
  I  I57  1  0.16514517  0.33167646  0.16346721  1
  I  I58  1  0.16837588  0.33332950  0.50017512  1
  I  I59  1  0.16487412  0.33500272  0.83657822  1
  I  I60  1  0.16328842  0.67029883  0.16611527  1
  I  I61  1  0.16384242  0.67069528  0.49611937  1
  I  I62  1  0.16512269  0.66950596  0.83572477  1
  I  I63  1  0.50448507  0.00002256  0.16878302  1
  I  I64  1  0.50834362  0.00334187  0.50152886  1
  I  I65  1  0.49821942  -0.00009833  0.82989532  1
  I  I66  1  0.49812295  0.33306876  0.16304555  1
  I  I67  1  0.49906961  0.32900428  0.50828114  1
  I  I68  1  0.50435679  0.32958053  0.83021594  1
  I  I69  1  0.49426871  0.66695312  0.16459860  1
  I  I70  1  0.50024038  0.66679354  0.50086481  1
  I  I71  1  0.50238938  0.66986062  0.83492998  1
  I  I72  1  0.83696499  -0.00291649  0.16476306  1
  I  I73  1  0.83135407  0.00276436  0.50148764  1
  I  I74  1  0.83584739  -0.00073946  0.83331673  1
  I  I75  1  0.83623706  0.33488268  0.16702808  1
  I  I76  1  0.83064642  0.33221708  0.50029096  1
  I  I77  1  0.83107202  0.33050830  0.83326928  1
  I  I78  1  0.84077886  0.66812835  0.16515919  1
  I  I79  1  0.83772815  0.66500637  0.49954144  1
  I  I80  1  0.83274392  0.66973024  0.83406832  1
  I  I81  1  0.16482625  0.16082905  0.00240258  1
  I  I82  1  0.16459106  0.15983080  0.32989430  1
  I  I83  1  0.16621493  0.16608432  0.66664933  1
  I  I84  1  0.16373108  0.50490394  -0.00270515  1
  I  I85  1  0.16711451  0.49995157  0.33341820  1
  I  I86  1  0.16376876  0.50509167  0.67008415  1
  I  I87  1  0.16539623  0.83373492  -0.00063057  1
  I  I88  1  0.15893582  0.84027295  0.33213776  1
  I  I89  1  0.16507561  0.82932892  0.66834120  1
  I  I90  1  0.50425384  0.16243044  -0.00349695  1
  I  I91  1  0.50574909  0.16649898  0.33620998  1
  I  I92  1  0.50355464  0.16215916  0.66778192  1
  I  I93  1  0.50165116  0.49691260  -0.00042445  1
  I  I94  1  0.49490820  0.49871969  0.33363158  1
  I  I95  1  0.50241622  0.50341941  0.66680474  1
  I  I96  1  0.49573975  0.84060990  -0.00419720  1
  I  I97  1  0.49982739  0.83498626  0.33358156  1
  I  I98  1  0.50142089  0.83498178  0.67092812  1
  I  I99  1  0.83089507  0.16598425  -0.00278494  1
  I  I100  1  0.83092172  0.16746343  0.33577470  1
  I  I101  1  0.83108294  0.16683450  0.66732868  1
  I  I102  1  0.83638632  0.50103702  0.00191275  1
  I  I103  1  0.83572230  0.49886297  0.33324112  1
  I  I104  1  0.83543530  0.49876118  0.66463201  1
  I  I105  1  0.83863637  0.83342703  -0.00102898  1
  I  I106  1  0.84015736  0.83246752  0.33080894  1
  I  I107  1  0.83553239  0.83410124  0.66973650  1
  I  I108  1  0.00242666  0.16405432  0.16521731  1
  I  I109  1  -0.00298034  0.16912483  0.50443777  1
  I  I110  1  -0.00277584  0.16375670  0.83030411  1
  I  I111  1  -0.00304760  0.50112363  0.16911409  1
  I  I112  1  -0.00346350  0.49224625  0.49681946  1
  I  I113  1  0.00241015  0.50514552  0.83409613  1
  I  I114  1  0.00021043  0.83383558  0.16109642  1
  I  I115  1  0.00237059  0.83573810  0.50526660  1
  I  I116  1  -0.00005423  0.83331791  0.83406783  1
  I  I117  1  0.32912134  0.15837660  0.16427398  1
  I  I118  1  0.33564165  0.16242740  0.50588435  1
  I  I119  1  0.33574118  0.16300144  0.83005190  1
  I  I120  1  0.33301187  0.49893623  0.16506230  1
  I  I121  1  0.33315004  0.49905556  0.50097606  1
  I  I122  1  0.32940562  0.50496384  0.83500083  1
  I  I123  1  0.32995495  0.83908228  0.16466472  1
  I  I124  1  0.32909626  0.83594696  0.49980152  1
  I  I125  1  0.33246073  0.83433157  0.83311089  1
  I  I126  1  0.66673776  0.16733499  0.16656873  1
  I  I127  1  0.66793020  0.17009050  0.50375520  1
  I  I128  1  0.66763731  0.15936938  0.83048361  1
  I  I129  1  0.67223424  0.50475931  0.16786288  1
  I  I130  1  0.67112568  0.50152605  0.49798861  1
  I  I131  1  0.66686897  0.50279035  0.83372092  1
  I  I132  1  0.67030769  0.82942638  0.16230989  1
  I  I133  1  0.66656985  0.83113620  0.49961541  1
  I  I134  1  0.66785710  0.83835317  0.83839344  1
