# generated using pymatgen
data_Cs27Sn14Pb13I81
_symmetry_space_group_name_H-M   'P 1'
_cell_length_a   18.97318365
_cell_length_b   18.98394736
_cell_length_c   18.97191499
_cell_angle_alpha   90.00137426
_cell_angle_beta   89.99793450
_cell_angle_gamma   90.00050075
_symmetry_Int_Tables_number   1
_chemical_formula_structural   Cs27Sn14Pb13I81
_chemical_formula_sum   'Cs27 Sn14 Pb13 I81'
_cell_volume   6833.41664624
_cell_formula_units_Z   1
loop_
 _symmetry_equiv_pos_site_id
 _symmetry_equiv_pos_as_xyz
  1  'x, y, z'
loop_
 _atom_site_type_symbol
 _atom_site_label
 _atom_site_symmetry_multiplicity
 _atom_site_fract_x
 _atom_site_fract_y
 _atom_site_fract_z
 _atom_site_occupancy
  Cs  Cs0  1  0.00208996  -0.00184497  -0.00132907  1
  Cs  Cs1  1  -0.00318936  0.00406783  0.33598111  1
  Cs  Cs2  1  -0.00010016  -0.00034990  0.66550423  1
  Cs  Cs3  1  0.00035946  0.33633679  -0.00064805  1
  Cs  Cs4  1  0.00308126  0.33074491  0.33327457  1
  Cs  Cs5  1  -0.00012597  0.33068585  0.66621133  1
  Cs  Cs6  1  -0.00018283  0.66467366  0.00863136  1
  Cs  Cs7  1  0.00824642  0.66466788  0.32534748  1
  Cs  Cs8  1  -0.00318218  0.67055549  0.66680571  1
  Cs  Cs9  1  0.33323647  0.00162440  -0.00029750  1
  Cs  Cs10  1  0.33370878  -0.00192143  0.33009008  1
  Cs  Cs11  1  0.33329132  -0.00093223  0.66831743  1
  Cs  Cs12  1  0.33376188  0.33074872  -0.00238855  1
  Cs  Cs13  1  0.33206776  0.33635047  0.33368652  1
  Cs  Cs14  1  0.33562298  0.33304899  0.66830594  1
  Cs  Cs15  1  0.33194912  0.66823804  -0.00021353  1
  Cs  Cs16  1  0.32759953  0.66423457  0.33155870  1
  Cs  Cs17  1  0.33539801  0.66760331  0.66686565  1
  Cs  Cs18  1  0.66561354  -0.00035016  0.00431286  1
  Cs  Cs19  1  0.66859498  0.00004357  0.32710862  1
  Cs  Cs20  1  0.66659827  -0.00241393  0.66678208  1
  Cs  Cs21  1  0.66844314  0.33421421  -0.00042821  1
  Cs  Cs22  1  0.66687599  0.33032273  0.33430404  1
  Cs  Cs23  1  0.66514302  0.33565106  0.66758297  1
  Cs  Cs24  1  0.66979612  0.66572960  0.00035997  1
  Cs  Cs25  1  0.66514086  0.66919469  0.33941013  1
  Cs  Cs26  1  0.66662446  0.66692861  0.66559086  1
  Sn  Sn27  1  0.16679618  0.16654125  0.16583430  1
  Sn  Sn28  1  0.49937412  0.50025619  0.83362967  1
  Sn  Sn29  1  0.16710840  0.49977553  0.83245446  1
  Sn  Sn30  1  0.50068292  0.50013661  0.16651837  1
  Sn  Sn31  1  0.83231117  0.83400908  0.83294971  1
  Sn  Sn32  1  0.50047381  0.83351264  0.50080860  1
  Sn  Sn33  1  0.50101170  0.83335575  0.83283179  1
  Sn  Sn34  1  0.16666114  0.16758640  0.83393864  1
  Sn  Sn35  1  0.83307803  0.50074607  0.50011031  1
  Sn  Sn36  1  0.50066437  0.50008606  0.49990109  1
  Sn  Sn37  1  0.83287648  0.16581748  0.83308420  1
  Sn  Sn38  1  0.50042976  0.16642491  0.83269505  1
  Sn  Sn39  1  0.83251284  0.83220023  0.50068219  1
  Sn  Sn40  1  0.50000569  0.16632355  0.50060728  1
  Pb  Pb41  1  0.16665413  0.50004328  0.50275494  1
  Pb  Pb42  1  0.16909613  0.49793858  0.16374550  1
  Pb  Pb43  1  0.50000584  0.83069634  0.16666660  1
  Pb  Pb44  1  0.83070101  0.49994874  0.17053603  1
  Pb  Pb45  1  0.83331112  0.50051698  0.83180984  1
  Pb  Pb46  1  0.16957751  0.16661203  0.50086449  1
  Pb  Pb47  1  0.83592053  0.16689821  0.16342720  1
  Pb  Pb48  1  0.16644683  0.83321089  0.83328197  1
  Pb  Pb49  1  0.49863401  0.16866900  0.16646698  1
  Pb  Pb50  1  0.16657669  0.83326605  0.50013105  1
  Pb  Pb51  1  0.16683182  0.83649066  0.16656070  1
  Pb  Pb52  1  0.83077211  0.16647623  0.50212894  1
  Pb  Pb53  1  0.83309436  0.83324345  0.16706499  1
  I  I54  1  0.16945663  0.00430541  0.15773725  1
  I  I55  1  0.16702882  0.00019909  0.50148215  1
  I  I56  1  0.16971923  0.00321164  0.83720659  1
  I  I57  1  0.16813974  0.33038448  0.16333113  1
  I  I58  1  0.16590194  0.33328720  0.49862798  1
  I  I59  1  0.17061391  0.33246613  0.83643073  1
  I  I60  1  0.16680028  0.66618343  0.16594885  1
  I  I61  1  0.17146392  0.66645879  0.50194484  1
  I  I62  1  0.17209800  0.66389341  0.83133396  1
  I  I63  1  0.49774333  0.00011091  0.16711547  1
  I  I64  1  0.50214613  -0.00037510  0.50818297  1
  I  I65  1  0.49931674  0.00042133  0.82683450  1
  I  I66  1  0.49849942  0.33643100  0.16671988  1
  I  I67  1  0.50296431  0.33404921  0.50332068  1
  I  I68  1  0.49893112  0.33320492  0.83069704  1
  I  I69  1  0.49924805  0.66280280  0.16561017  1
  I  I70  1  0.50428728  0.66640938  0.50359825  1
  I  I71  1  0.49913439  0.66632728  0.83081237  1
  I  I72  1  0.83330567  0.00022137  0.17130788  1
  I  I73  1  0.82961655  -0.00287434  0.50249579  1
  I  I74  1  0.83112771  -0.00019608  0.82771144  1
  I  I75  1  0.83258020  0.33340797  0.16626982  1
  I  I76  1  0.82793463  0.33552332  0.50201331  1
  I  I77  1  0.83123946  0.33116432  0.83184031  1
  I  I78  1  0.83437326  0.66647286  0.15968935  1
  I  I79  1  0.82286299  0.66722393  0.50808710  1
  I  I80  1  0.82953800  0.66935929  0.83020894  1
  I  I81  1  0.16946345  0.17062610  -0.00267815  1
  I  I82  1  0.16928646  0.16626494  0.33111367  1
  I  I83  1  0.16580215  0.17024677  0.67058286  1
  I  I84  1  0.17146358  0.49821530  -0.00423352  1
  I  I85  1  0.16740476  0.49846746  0.33325448  1
  I  I86  1  0.17395832  0.49233309  0.67058518  1
  I  I87  1  0.16707179  0.83052210  -0.00062584  1
  I  I88  1  0.16788496  0.83431783  0.33336120  1
  I  I89  1  0.16710825  0.83631927  0.66708134  1
  I  I90  1  0.50088656  0.16678537  -0.00380241  1
  I  I91  1  0.49808332  0.16707331  0.33626087  1
  I  I92  1  0.49795756  0.17074182  0.66820097  1
  I  I93  1  0.49455064  0.49894587  -0.00186345  1
  I  I94  1  0.50496218  0.49910775  0.33486616  1
  I  I95  1  0.49956272  0.49923521  0.66700676  1
  I  I96  1  0.50301096  0.83429257  -0.00385142  1
  I  I97  1  0.50458851  0.83485403  0.33709716  1
  I  I98  1  0.50312161  0.83010271  0.66747392  1
  I  I99  1  0.82665985  0.16188296  -0.00523602  1
  I  I100  1  0.83405131  0.16622872  0.33366976  1
  I  I101  1  0.83823863  0.16586428  0.67038065  1
  I  I102  1  0.83307625  0.50005226  -0.00020517  1
  I  I103  1  0.82741878  0.50582177  0.33870512  1
  I  I104  1  0.82652404  0.50058130  0.66406697  1
  I  I105  1  0.82885045  0.83791679  -0.00370953  1
  I  I106  1  0.82690915  0.82982520  0.33737920  1
  I  I107  1  0.82868416  0.83342251  0.66713246  1
  I  I108  1  0.00392824  0.16768212  0.16192397  1
  I  I109  1  -0.00022738  0.16655973  0.50051341  1
  I  I110  1  0.00016354  0.16724338  0.83783546  1
  I  I111  1  0.00027552  0.49983169  0.16625026  1
  I  I112  1  -0.00302691  0.50476691  0.50365462  1
  I  I113  1  0.00212236  0.49535237  0.83068419  1
  I  I114  1  -0.00009847  0.83166803  0.16572020  1
  I  I115  1  -0.00400363  0.82951748  0.50597641  1
  I  I116  1  -0.00330608  0.83720638  0.82800041  1
  I  I117  1  0.33094425  0.16794931  0.15947544  1
  I  I118  1  0.33800158  0.16796709  0.50624951  1
  I  I119  1  0.33450796  0.16757101  0.83349601  1
  I  I120  1  0.33685003  0.49969367  0.17263969  1
  I  I121  1  0.33730808  0.50029870  0.49843171  1
  I  I122  1  0.33559430  0.49661016  0.83148923  1
  I  I123  1  0.33377511  0.83257968  0.16676812  1
  I  I124  1  0.33755005  0.83257333  0.50530003  1
  I  I125  1  0.33685678  0.83489420  0.82902193  1
  I  I126  1  0.66654549  0.16726826  0.16630634  1
  I  I127  1  0.66256749  0.16855249  0.50552930  1
  I  I128  1  0.66534748  0.16745219  0.82800689  1
  I  I129  1  0.66267875  0.49813478  0.15870014  1
  I  I130  1  0.66446073  0.50062876  0.50297084  1
  I  I131  1  0.66323559  0.49680549  0.83440339  1
  I  I132  1  0.66633309  0.83514342  0.16517489  1
  I  I133  1  0.66536434  0.83131862  0.50544679  1
  I  I134  1  0.66552799  0.83597459  0.82924728  1
