# generated using pymatgen
data_Cs27Sn14Pb13I81
_symmetry_space_group_name_H-M   'P 1'
_cell_length_a   18.97293619
_cell_length_b   18.97478791
_cell_length_c   18.98005783
_cell_angle_alpha   89.99971155
_cell_angle_beta   89.99992520
_cell_angle_gamma   89.99975254
_symmetry_Int_Tables_number   1
_chemical_formula_structural   Cs27Sn14Pb13I81
_chemical_formula_sum   'Cs27 Sn14 Pb13 I81'
_cell_volume   6832.96203391
_cell_formula_units_Z   1
loop_
 _symmetry_equiv_pos_site_id
 _symmetry_equiv_pos_as_xyz
  1  'x, y, z'
loop_
 _atom_site_type_symbol
 _atom_site_label
 _atom_site_symmetry_multiplicity
 _atom_site_fract_x
 _atom_site_fract_y
 _atom_site_fract_z
 _atom_site_occupancy
  Cs  Cs0  1  0.00163715  -0.00084145  -0.00434946  1
  Cs  Cs1  1  -0.00096964  0.00040839  0.33365369  1
  Cs  Cs2  1  -0.00140159  -0.00068941  0.67320779  1
  Cs  Cs3  1  -0.00054977  0.33449756  -0.00279051  1
  Cs  Cs4  1  -0.00194272  0.33295223  0.33456103  1
  Cs  Cs5  1  0.00667855  0.33179880  0.66741095  1
  Cs  Cs6  1  0.01258841  0.66610222  0.00241447  1
  Cs  Cs7  1  -0.00098475  0.66771560  0.32856146  1
  Cs  Cs8  1  -0.00354214  0.67009475  0.66982234  1
  Cs  Cs9  1  0.33677297  -0.00222098  0.00315689  1
  Cs  Cs10  1  0.33319213  0.00024949  0.33297507  1
  Cs  Cs11  1  0.33547486  0.00159939  0.66298913  1
  Cs  Cs12  1  0.33431502  0.33394473  -0.00113139  1
  Cs  Cs13  1  0.33239768  0.33661994  0.33829861  1
  Cs  Cs14  1  0.32622944  0.33469595  0.66327047  1
  Cs  Cs15  1  0.32558135  0.66845606  0.00084436  1
  Cs  Cs16  1  0.33155583  0.66264424  0.33436115  1
  Cs  Cs17  1  0.33356165  0.66359558  0.66498842  1
  Cs  Cs18  1  0.66464893  0.00221027  0.00087485  1
  Cs  Cs19  1  0.66677885  0.00062245  0.33345683  1
  Cs  Cs20  1  0.66714521  -0.00159016  0.66604529  1
  Cs  Cs21  1  0.66738082  0.33324278  0.00047493  1
  Cs  Cs22  1  0.66773637  0.33368539  0.33250317  1
  Cs  Cs23  1  0.66649821  0.33449402  0.66722499  1
  Cs  Cs24  1  0.66564234  0.66336162  0.00049227  1
  Cs  Cs25  1  0.66748834  0.66463374  0.33376028  1
  Cs  Cs26  1  0.66751620  0.66691529  0.66604123  1
  Sn  Sn27  1  0.50094360  0.16622909  0.49979177  1
  Sn  Sn28  1  0.50105748  0.83363514  0.16706409  1
  Sn  Sn29  1  0.49997749  0.16628009  0.16721975  1
  Sn  Sn30  1  0.83293082  0.49896042  0.50107642  1
  Sn  Sn31  1  0.83333597  0.16558523  0.16710682  1
  Sn  Sn32  1  0.16673619  0.16668766  0.16669729  1
  Sn  Sn33  1  0.50047395  0.83297580  0.83335150  1
  Sn  Sn34  1  0.83259242  0.50014874  0.83257611  1
  Sn  Sn35  1  0.83240160  0.83420346  0.16615182  1
  Sn  Sn36  1  0.83257167  0.16725269  0.49992502  1
  Sn  Sn37  1  0.50037999  0.16696735  0.83286796  1
  Sn  Sn38  1  0.50077790  0.50002840  0.83333924  1
  Sn  Sn39  1  0.49918322  0.83378515  0.49956905  1
  Sn  Sn40  1  0.16725642  0.83378997  0.50005728  1
  Pb  Pb41  1  0.50169254  0.49989725  0.50197692  1
  Pb  Pb42  1  0.49983736  0.50007746  0.16433171  1
  Pb  Pb43  1  0.83139571  0.16814584  0.83323955  1
  Pb  Pb44  1  0.16985168  0.83372008  0.83046403  1
  Pb  Pb45  1  0.83317310  0.49983849  0.16627616  1
  Pb  Pb46  1  0.83102095  0.83083893  0.83682193  1
  Pb  Pb47  1  0.16666649  0.49995340  0.83307656  1
  Pb  Pb48  1  0.16999404  0.16633152  0.83602136  1
  Pb  Pb49  1  0.16286642  0.50300715  0.50002161  1
  Pb  Pb50  1  0.16712469  0.83535171  0.16856995  1
  Pb  Pb51  1  0.83269201  0.83390205  0.49843677  1
  Pb  Pb52  1  0.16683012  0.49640473  0.16711499  1
  Pb  Pb53  1  0.16630551  0.16488439  0.49831860  1
  I  I54  1  0.16791255  0.00302933  0.16810411  1
  I  I55  1  0.16844184  -0.00272119  0.49817542  1
  I  I56  1  0.16505484  -0.00000741  0.83286556  1
  I  I57  1  0.16726590  0.32828930  0.16764209  1
  I  I58  1  0.16922554  0.33314871  0.49841667  1
  I  I59  1  0.16985472  0.33310477  0.83407614  1
  I  I60  1  0.16564328  0.66711347  0.16683328  1
  I  I61  1  0.17491128  0.67060069  0.49870851  1
  I  I62  1  0.16848959  0.66689938  0.83464978  1
  I  I63  1  0.50063814  0.00067263  0.16269491  1
  I  I64  1  0.50188829  0.00048889  0.50348228  1
  I  I65  1  0.49885226  0.00014440  0.83420648  1
  I  I66  1  0.50155785  0.32943807  0.16669459  1
  I  I67  1  0.50237608  0.33000844  0.49849462  1
  I  I68  1  0.50476160  0.33256710  0.83532121  1
  I  I69  1  0.50562129  0.67032667  0.16760009  1
  I  I70  1  0.49809956  0.66970630  0.49981898  1
  I  I71  1  0.50507211  0.66726636  0.83265983  1
  I  I72  1  0.83116822  0.00142114  0.17323054  1
  I  I73  1  0.83130735  0.00292059  0.49628441  1
  I  I74  1  0.83273883  -0.00014998  0.83056126  1
  I  I75  1  0.83158666  0.32972721  0.16770351  1
  I  I76  1  0.82696396  0.33168846  0.49645830  1
  I  I77  1  0.82553931  0.33599116  0.83495271  1
  I  I78  1  0.82716823  0.66955612  0.16821418  1
  I  I79  1  0.83298163  0.66488470  0.50222385  1
  I  I80  1  0.82559067  0.66321216  0.82641252  1
  I  I81  1  0.16481410  0.16543628  0.00411749  1
  I  I82  1  0.17136729  0.16445106  0.33049318  1
  I  I83  1  0.16677358  0.16642461  0.66651768  1
  I  I84  1  0.16447168  0.50155022  -0.00001798  1
  I  I85  1  0.16594319  0.50127215  0.33375831  1
  I  I86  1  0.16930827  0.49843870  0.66643517  1
  I  I87  1  0.16651153  0.83306795  0.00019195  1
  I  I88  1  0.17294484  0.83460028  0.33599080  1
  I  I89  1  0.17054067  0.83442136  0.66271661  1
  I  I90  1  0.50002854  0.16440368  0.00067201  1
  I  I91  1  0.50096751  0.15942179  0.33318986  1
  I  I92  1  0.50550069  0.16284740  0.66590639  1
  I  I93  1  0.50748967  0.49839536  -0.00390973  1
  I  I94  1  0.50154427  0.50020764  0.33356680  1
  I  I95  1  0.50297160  0.50044102  0.67003425  1
  I  I96  1  0.50563557  0.83687514  0.00051955  1
  I  I97  1  0.50016722  0.84110978  0.33326286  1
  I  I98  1  0.49533751  0.83652212  0.66631131  1
  I  I99  1  0.83177713  0.16480224  0.00314509  1
  I  I100  1  0.82833087  0.16899433  0.33309185  1
  I  I101  1  0.82796720  0.16839584  0.66373837  1
  I  I102  1  0.82738194  0.49921267  -0.00273057  1
  I  I103  1  0.83356354  0.49868386  0.33572643  1
  I  I104  1  0.82793875  0.49565310  0.66630667  1
  I  I105  1  0.82758680  0.83971274  0.00458375  1
  I  I106  1  0.82785528  0.83266118  0.33058219  1
  I  I107  1  0.83358873  0.83477318  0.66681466  1
  I  I108  1  -0.00160839  0.16338967  0.17306185  1
  I  I109  1  -0.00319785  0.16912180  0.49414344  1
  I  I110  1  -0.00013976  0.16991339  0.83351832  1
  I  I111  1  -0.00038232  0.50240938  0.16421909  1
  I  I112  1  -0.00499353  0.49369230  0.50570494  1
  I  I113  1  -0.00332605  0.49882451  0.83016610  1
  I  I114  1  -0.00252248  0.83635132  0.17023423  1
  I  I115  1  0.00137177  0.83230944  0.49563167  1
  I  I116  1  -0.00021769  0.83054965  0.83310290  1
  I  I117  1  0.33540137  0.16203328  0.16529029  1
  I  I118  1  0.33678714  0.16419300  0.49967203  1
  I  I119  1  0.33892813  0.16896359  0.83198173  1
  I  I120  1  0.33365270  0.50097637  0.16417825  1
  I  I121  1  0.33338383  0.49748357  0.50147232  1
  I  I122  1  0.33703480  0.49992458  0.83467646  1
  I  I123  1  0.33698864  0.83777633  0.16387633  1
  I  I124  1  0.33630696  0.83951971  0.49857030  1
  I  I125  1  0.33862871  0.83131896  0.84060621  1
  I  I126  1  0.66601292  0.16283341  0.16720204  1
  I  I127  1  0.66562295  0.16472644  0.49546979  1
  I  I128  1  0.66279429  0.16441436  0.83773021  1
  I  I129  1  0.66662702  0.49681718  0.16774962  1
  I  I130  1  0.66955093  0.50061450  0.50139969  1
  I  I131  1  0.66565798  0.49980678  0.82993242  1
  I  I132  1  0.66521979  0.84110827  0.16885093  1
  I  I133  1  0.66333169  0.83448857  0.50188983  1
  I  I134  1  0.66256788  0.83625579  0.82758569  1
