# generated using pymatgen
data_Cs27Sn14Pb13I81
_symmetry_space_group_name_H-M   'P 1'
_cell_length_a   18.97878964
_cell_length_b   18.97376173
_cell_length_c   18.97389112
_cell_angle_alpha   90.00064616
_cell_angle_beta   89.99823140
_cell_angle_gamma   89.99940865
_symmetry_Int_Tables_number   1
_chemical_formula_structural   Cs27Sn14Pb13I81
_chemical_formula_sum   'Cs27 Sn14 Pb13 I81'
_cell_volume   6832.47983314
_cell_formula_units_Z   1
loop_
 _symmetry_equiv_pos_site_id
 _symmetry_equiv_pos_as_xyz
  1  'x, y, z'
loop_
 _atom_site_type_symbol
 _atom_site_label
 _atom_site_symmetry_multiplicity
 _atom_site_fract_x
 _atom_site_fract_y
 _atom_site_fract_z
 _atom_site_occupancy
  Cs  Cs0  1  0.00882042  0.00198511  0.00388868  1
  Cs  Cs1  1  0.00048303  -0.00358690  0.33187907  1
  Cs  Cs2  1  -0.00091927  0.00335283  0.66812057  1
  Cs  Cs3  1  0.00054078  0.33201876  -0.00791775  1
  Cs  Cs4  1  -0.00163877  0.33475020  0.33421342  1
  Cs  Cs5  1  -0.00225263  0.32992932  0.67366167  1
  Cs  Cs6  1  -0.00155414  0.66584133  -0.00185939  1
  Cs  Cs7  1  -0.00124110  0.66699259  0.33362072  1
  Cs  Cs8  1  0.00105998  0.66681211  0.66808075  1
  Cs  Cs9  1  0.32769722  -0.00293684  0.00566233  1
  Cs  Cs10  1  0.32933343  0.00239231  0.32885969  1
  Cs  Cs11  1  0.33377271  -0.00417874  0.66651289  1
  Cs  Cs12  1  0.33186613  0.33034706  0.00139587  1
  Cs  Cs13  1  0.33392697  0.33456366  0.33337176  1
  Cs  Cs14  1  0.33618549  0.33372628  0.66456749  1
  Cs  Cs15  1  0.33497396  0.67157640  -0.00679582  1
  Cs  Cs16  1  0.32991508  0.66122246  0.33750282  1
  Cs  Cs17  1  0.33320216  0.66955576  0.66608252  1
  Cs  Cs18  1  0.66266605  -0.00800732  0.00535609  1
  Cs  Cs19  1  0.66815611  0.00055549  0.33183310  1
  Cs  Cs20  1  0.66765306  0.00136974  0.66574092  1
  Cs  Cs21  1  0.66695175  0.33455347  -0.00022461  1
  Cs  Cs22  1  0.66669753  0.33406239  0.33404142  1
  Cs  Cs23  1  0.66650720  0.33130304  0.66641094  1
  Cs  Cs24  1  0.66737844  0.67016754  -0.00005014  1
  Cs  Cs25  1  0.66818618  0.66457820  0.33413936  1
  Cs  Cs26  1  0.66630926  0.66696895  0.66632491  1
  Sn  Sn27  1  0.83360393  0.49856917  0.16718522  1
  Sn  Sn28  1  0.83341728  0.83371221  0.83242010  1
  Sn  Sn29  1  0.50022741  0.49907026  0.83310153  1
  Sn  Sn30  1  0.16620091  0.49866739  0.49974534  1
  Sn  Sn31  1  0.83245761  0.83249413  0.50122025  1
  Sn  Sn32  1  0.50084083  0.83358006  0.49955721  1
  Sn  Sn33  1  0.50023514  0.16674471  0.83322898  1
  Sn  Sn34  1  0.50021467  0.49982154  0.50006716  1
  Sn  Sn35  1  0.16728706  0.16781606  0.50010190  1
  Sn  Sn36  1  0.83300217  0.16780138  0.16665456  1
  Sn  Sn37  1  0.83350959  0.50042474  0.49994473  1
  Sn  Sn38  1  0.16643107  0.49984108  0.16704010  1
  Sn  Sn39  1  0.49980067  0.49995776  0.16635439  1
  Sn  Sn40  1  0.49916807  0.16648459  0.50050116  1
  Pb  Pb41  1  0.50135811  0.16856387  0.16690087  1
  Pb  Pb42  1  0.83343310  0.83267463  0.16722080  1
  Pb  Pb43  1  0.16683000  0.82965853  0.16701564  1
  Pb  Pb44  1  0.16426237  0.16957540  0.16921461  1
  Pb  Pb45  1  0.16966856  0.49989632  0.83282102  1
  Pb  Pb46  1  0.50128736  0.83386517  0.83121410  1
  Pb  Pb47  1  0.49972766  0.83019661  0.17015290  1
  Pb  Pb48  1  0.83320176  0.16674372  0.49889887  1
  Pb  Pb49  1  0.83100900  0.50113801  0.83320405  1
  Pb  Pb50  1  0.83042363  0.16376391  0.83652567  1
  Pb  Pb51  1  0.16988363  0.16681341  0.83054151  1
  Pb  Pb52  1  0.16631981  0.83325523  0.50003994  1
  Pb  Pb53  1  0.16353013  0.83337874  0.83298454  1
  I  I54  1  0.16385745  0.00051519  0.16788438  1
  I  I55  1  0.17008590  0.00290637  0.50138394  1
  I  I56  1  0.16886087  0.00024764  0.83114135  1
  I  I57  1  0.17019706  0.33757973  0.17043633  1
  I  I58  1  0.17107254  0.33488704  0.49554895  1
  I  I59  1  0.16218221  0.33347222  0.83497192  1
  I  I60  1  0.16354086  0.66122836  0.17576003  1
  I  I61  1  0.16935098  0.66304627  0.49564671  1
  I  I62  1  0.17029927  0.66627997  0.83183887  1
  I  I63  1  0.50378665  0.00005616  0.16640548  1
  I  I64  1  0.50089603  0.00058787  0.50643962  1
  I  I65  1  0.50303650  0.00271978  0.82638128  1
  I  I66  1  0.49901910  0.33726920  0.17211793  1
  I  I67  1  0.49977736  0.33475960  0.50015079  1
  I  I68  1  0.50139197  0.33435406  0.82715731  1
  I  I69  1  0.50441711  0.66140634  0.16562543  1
  I  I70  1  0.50055176  0.66488409  0.49949620  1
  I  I71  1  0.50097597  0.66389188  0.83321750  1
  I  I72  1  0.83143143  0.00219599  0.16803609  1
  I  I73  1  0.82981509  -0.00239763  0.50111626  1
  I  I74  1  0.83020597  -0.00348269  0.82500945  1
  I  I75  1  0.83184498  0.33590918  0.17395556  1
  I  I76  1  0.83040465  0.33648647  0.49650004  1
  I  I77  1  0.83380305  0.33313264  0.83142230  1
  I  I78  1  0.83297750  0.66286539  0.16853741  1
  I  I79  1  0.82987562  0.66514479  0.49756220  1
  I  I80  1  0.82947040  0.66893176  0.83299086  1
  I  I81  1  0.16648403  0.16688745  0.00030313  1
  I  I82  1  0.17463397  0.16846134  0.33706022  1
  I  I83  1  0.16560392  0.17440478  0.66236990  1
  I  I84  1  0.16520525  0.50120462  0.00304656  1
  I  I85  1  0.17110844  0.49708933  0.33473065  1
  I  I86  1  0.16648226  0.49759313  0.66277510  1
  I  I87  1  0.16529440  0.83225448  0.00006566  1
  I  I88  1  0.16398880  0.83575770  0.33390696  1
  I  I89  1  0.16911654  0.82950509  0.66600656  1
  I  I90  1  0.50465666  0.17296638  -0.00229912  1
  I  I91  1  0.49798755  0.16772780  0.33681335  1
  I  I92  1  0.49787088  0.17252392  0.66479982  1
  I  I93  1  0.50115246  0.49477186  0.00024838  1
  I  I94  1  0.50041414  0.50044719  0.33466454  1
  I  I95  1  0.50032230  0.49982124  0.66484520  1
  I  I96  1  0.50280262  0.83214943  -0.00005875  1
  I  I97  1  0.50806236  0.83431869  0.33836405  1
  I  I98  1  0.50182682  0.82783048  0.66297207  1
  I  I99  1  0.83168259  0.17428328  0.00387336  1
  I  I100  1  0.83063065  0.16756502  0.33123362  1
  I  I101  1  0.83522250  0.16846928  0.66664200  1
  I  I102  1  0.83301114  0.49865878  0.00296189  1
  I  I103  1  0.82931223  0.50199266  0.33433547  1
  I  I104  1  0.83281666  0.50249157  0.66334362  1
  I  I105  1  0.83176087  0.83211021  -0.00207757  1
  I  I106  1  0.82969081  0.83120892  0.33661974  1
  I  I107  1  0.82869784  0.82724839  0.66447164  1
  I  I108  1  -0.00345261  0.17127246  0.16910618  1
  I  I109  1  0.00207879  0.16982026  0.49625816  1
  I  I110  1  -0.00025148  0.16483431  0.83271673  1
  I  I111  1  -0.00071862  0.49750949  0.17601503  1
  I  I112  1  -0.00049666  0.50133546  0.49212759  1
  I  I113  1  -0.00015697  0.50285832  0.83336023  1
  I  I114  1  -0.00030131  0.83231107  0.16884755  1
  I  I115  1  -0.00333759  0.82946896  0.50241964  1
  I  I116  1  -0.00457590  0.83086991  0.82561541  1
  I  I117  1  0.33324412  0.16736383  0.16501882  1
  I  I118  1  0.33476525  0.17059681  0.50299505  1
  I  I119  1  0.33794132  0.17220620  0.83224935  1
  I  I120  1  0.33393025  0.50085931  0.17214682  1
  I  I121  1  0.33457853  0.49982668  0.49736196  1
  I  I122  1  0.33794098  0.49748681  0.83238108  1
  I  I123  1  0.33354236  0.83438866  0.16702325  1
  I  I124  1  0.33633653  0.82941978  0.50024792  1
  I  I125  1  0.33374188  0.83211234  0.83188532  1
  I  I126  1  0.66914446  0.17336055  0.17004942  1
  I  I127  1  0.66373101  0.16951175  0.50201671  1
  I  I128  1  0.66304648  0.17228108  0.82401820  1
  I  I129  1  0.66682090  0.49653071  0.17086094  1
  I  I130  1  0.66592529  0.50074068  0.49740368  1
  I  I131  1  0.66298149  0.49753643  0.83188415  1
  I  I132  1  0.66669052  0.83142069  0.16485454  1
  I  I133  1  0.66678166  0.82914352  0.50335986  1
  I  I134  1  0.66909379  0.83188940  0.83074776  1
