# generated using pymatgen
data_Cs27Sn14Pb13I81
_symmetry_space_group_name_H-M   'P 1'
_cell_length_a   18.98106134
_cell_length_b   18.96150771
_cell_length_c   18.98511093
_cell_angle_alpha   89.99860101
_cell_angle_beta   90.00080622
_cell_angle_gamma   90.00056595
_symmetry_Int_Tables_number   1
_chemical_formula_structural   Cs27Sn14Pb13I81
_chemical_formula_sum   'Cs27 Sn14 Pb13 I81'
_cell_volume   6832.92255769
_cell_formula_units_Z   1
loop_
 _symmetry_equiv_pos_site_id
 _symmetry_equiv_pos_as_xyz
  1  'x, y, z'
loop_
 _atom_site_type_symbol
 _atom_site_label
 _atom_site_symmetry_multiplicity
 _atom_site_fract_x
 _atom_site_fract_y
 _atom_site_fract_z
 _atom_site_occupancy
  Cs  Cs0  1  0.00090477  0.00984083  0.00012503  1
  Cs  Cs1  1  0.00151791  -0.00083412  0.32776445  1
  Cs  Cs2  1  -0.00492484  -0.00287677  0.67199196  1
  Cs  Cs3  1  -0.00167208  0.33220921  -0.00013367  1
  Cs  Cs4  1  -0.00094203  0.33574372  0.33663471  1
  Cs  Cs5  1  0.00403973  0.33446428  0.66370965  1
  Cs  Cs6  1  0.00176750  0.66580647  0.00100876  1
  Cs  Cs7  1  -0.00016048  0.66477542  0.33215931  1
  Cs  Cs8  1  -0.00004875  0.66732205  0.66668327  1
  Cs  Cs9  1  0.32814611  0.00056746  0.00270185  1
  Cs  Cs10  1  0.33295362  0.00295004  0.33210082  1
  Cs  Cs11  1  0.33374647  0.00172129  0.66563181  1
  Cs  Cs12  1  0.33661173  0.33028543  -0.00559306  1
  Cs  Cs13  1  0.33298079  0.32824069  0.33948553  1
  Cs  Cs14  1  0.33279365  0.32447661  0.66537777  1
  Cs  Cs15  1  0.33378596  0.66737925  -0.00031291  1
  Cs  Cs16  1  0.33412157  0.66742500  0.33265781  1
  Cs  Cs17  1  0.33345298  0.66655423  0.66777950  1
  Cs  Cs18  1  0.67051474  0.00659962  0.00025491  1
  Cs  Cs19  1  0.66487589  0.00079420  0.33435338  1
  Cs  Cs20  1  0.67132735  -0.00259418  0.66642727  1
  Cs  Cs21  1  0.66586427  0.33083643  -0.00102906  1
  Cs  Cs22  1  0.66834556  0.33356679  0.33309018  1
  Cs  Cs23  1  0.66292121  0.33420217  0.66632337  1
  Cs  Cs24  1  0.66412174  0.66478740  0.00206463  1
  Cs  Cs25  1  0.66611372  0.66613534  0.33303494  1
  Cs  Cs26  1  0.66645090  0.66849897  0.66636964  1
  Sn  Sn27  1  0.16732852  0.83227936  0.83262609  1
  Sn  Sn28  1  0.50108026  0.83271530  0.16650015  1
  Sn  Sn29  1  0.16730764  0.50040774  0.16590589  1
  Sn  Sn30  1  0.50042087  0.50091766  0.49939412  1
  Sn  Sn31  1  0.83315885  0.50091694  0.16628191  1
  Sn  Sn32  1  0.83254084  0.83246738  0.16631661  1
  Sn  Sn33  1  0.83390459  0.50075805  0.83330682  1
  Sn  Sn34  1  0.49950517  0.50034491  0.16760405  1
  Sn  Sn35  1  0.16624732  0.50081622  0.83395140  1
  Sn  Sn36  1  0.16735006  0.83264332  0.50067957  1
  Sn  Sn37  1  0.83240112  0.49951895  0.50026617  1
  Sn  Sn38  1  0.83343424  0.16747255  0.49994211  1
  Sn  Sn39  1  0.49900974  0.83221002  0.49993740  1
  Sn  Sn40  1  0.49947549  0.83282282  0.83364157  1
  Pb  Pb41  1  0.50008596  0.16228020  0.83323263  1
  Pb  Pb42  1  0.16688995  0.83187418  0.16621230  1
  Pb  Pb43  1  0.16660539  0.16666353  0.83317057  1
  Pb  Pb44  1  0.49957522  0.50129335  0.83303668  1
  Pb  Pb45  1  0.83366739  0.83126374  0.83645247  1
  Pb  Pb46  1  0.16362709  0.16260032  0.50009233  1
  Pb  Pb47  1  0.83321862  0.16740239  0.16873963  1
  Pb  Pb48  1  0.16670398  0.17122686  0.16684035  1
  Pb  Pb49  1  0.83329892  0.83250747  0.49795205  1
  Pb  Pb50  1  0.50201644  0.16638352  0.49996156  1
  Pb  Pb51  1  0.83330738  0.17043922  0.83053261  1
  Pb  Pb52  1  0.16725956  0.50154003  0.50035457  1
  Pb  Pb53  1  0.50002536  0.16697692  0.16678097  1
  I  I54  1  0.16562865  -0.00029892  0.16673555  1
  I  I55  1  0.17227276  -0.00547948  0.50467847  1
  I  I56  1  0.17153009  -0.00379542  0.82896681  1
  I  I57  1  0.16482610  0.33964676  0.16143985  1
  I  I58  1  0.16913876  0.33351940  0.49966616  1
  I  I59  1  0.16176096  0.33711996  0.83827929  1
  I  I60  1  0.16544998  0.66356298  0.16564204  1
  I  I61  1  0.16571641  0.66945051  0.50139279  1
  I  I62  1  0.16628503  0.66656808  0.83327737  1
  I  I63  1  0.50497291  -0.00411821  0.16762811  1
  I  I64  1  0.49775248  -0.00392360  0.49952038  1
  I  I65  1  0.49415510  -0.00624199  0.83266395  1
  I  I66  1  0.50144348  0.33780921  0.17158289  1
  I  I67  1  0.50206221  0.33685538  0.49481788  1
  I  I68  1  0.49987541  0.33366154  0.83336905  1
  I  I69  1  0.50177739  0.66641751  0.16808234  1
  I  I70  1  0.50315352  0.66687674  0.49848363  1
  I  I71  1  0.49882817  0.66953750  0.83309600  1
  I  I72  1  0.82863479  -0.00293129  0.16905357  1
  I  I73  1  0.83354270  0.00121931  0.49737169  1
  I  I74  1  0.83307742  -0.00024402  0.83307511  1
  I  I75  1  0.83293932  0.33767701  0.16480537  1
  I  I76  1  0.82845745  0.33641498  0.49758757  1
  I  I77  1  0.83835131  0.33885645  0.83994142  1
  I  I78  1  0.83217588  0.66490316  0.16989481  1
  I  I79  1  0.83219845  0.66338634  0.50082348  1
  I  I80  1  0.83508764  0.66310976  0.82756801  1
  I  I81  1  0.16535507  0.16049382  -0.00004079  1
  I  I82  1  0.16637281  0.16561581  0.33364265  1
  I  I83  1  0.16634556  0.17270823  0.66648878  1
  I  I84  1  0.16287238  0.50683161  -0.00013453  1
  I  I85  1  0.16343977  0.50291002  0.33110587  1
  I  I86  1  0.16218740  0.50328348  0.66918744  1
  I  I87  1  0.17028195  0.82977249  -0.00259238  1
  I  I88  1  0.16857752  0.83129122  0.33515604  1
  I  I89  1  0.17347142  0.82705462  0.66720165  1
  I  I90  1  0.50148826  0.16949684  0.00004920  1
  I  I91  1  0.50040015  0.16246303  0.33346385  1
  I  I92  1  0.50097604  0.16972991  0.66640909  1
  I  I93  1  0.50261482  0.50476902  0.00272477  1
  I  I94  1  0.50366593  0.50786934  0.33318020  1
  I  I95  1  0.50457988  0.50494672  0.66396173  1
  I  I96  1  0.49956505  0.82721447  0.00074825  1
  I  I97  1  0.50031159  0.82897369  0.33341244  1
  I  I98  1  0.49574819  0.82865735  0.66592789  1
  I  I99  1  0.83382050  0.16586025  -0.00006936  1
  I  I100  1  0.83266738  0.17300318  0.33622231  1
  I  I101  1  0.83268410  0.16906030  0.66284112  1
  I  I102  1  0.83398265  0.50619874  0.00088844  1
  I  I103  1  0.83335962  0.49971168  0.33305297  1
  I  I104  1  0.83357252  0.49586054  0.66607887  1
  I  I105  1  0.82932608  0.82628799  0.00408862  1
  I  I106  1  0.83070038  0.82782397  0.33027906  1
  I  I107  1  0.83128463  0.83334624  0.66677369  1
  I  I108  1  -0.00022202  0.16280243  0.16781464  1
  I  I109  1  -0.00374443  0.17544382  0.49910553  1
  I  I110  1  -0.00020178  0.16062340  0.83286475  1
  I  I111  1  -0.00100061  0.50455275  0.16708315  1
  I  I112  1  -0.00246445  0.49832483  0.49735329  1
  I  I113  1  0.00013487  0.50573531  0.83597864  1
  I  I114  1  -0.00210517  0.82793154  0.16916222  1
  I  I115  1  0.00201237  0.83278130  0.50343983  1
  I  I116  1  0.00271994  0.83043429  0.82803359  1
  I  I117  1  0.33339090  0.16413005  0.16769321  1
  I  I118  1  0.33326482  0.16975812  0.50053366  1
  I  I119  1  0.33325962  0.17368418  0.83186139  1
  I  I120  1  0.33428799  0.50631652  0.16671425  1
  I  I121  1  0.33625686  0.50411060  0.49610518  1
  I  I122  1  0.33071482  0.50351819  0.83744897  1
  I  I123  1  0.33630166  0.82840505  0.16703048  1
  I  I124  1  0.33480842  0.82670338  0.49858014  1
  I  I125  1  0.33322789  0.82613327  0.83397826  1
  I  I126  1  0.66672077  0.16916806  0.16707860  1
  I  I127  1  0.66967148  0.16726609  0.49912010  1
  I  I128  1  0.66695854  0.16699253  0.83340003  1
  I  I129  1  0.66681685  0.50432684  0.16772871  1
  I  I130  1  0.66681356  0.50193204  0.49735249  1
  I  I131  1  0.66892901  0.50179830  0.83486492  1
  I  I132  1  0.66570457  0.82509285  0.16785897  1
  I  I133  1  0.66384434  0.83261009  0.50236139  1
  I  I134  1  0.66409721  0.83100919  0.82958771  1
