# generated using pymatgen
data_Cs27Sn14Pb13I81
_symmetry_space_group_name_H-M   'P 1'
_cell_length_a   18.97238458
_cell_length_b   18.98139658
_cell_length_c   18.97236482
_cell_angle_alpha   90.00035674
_cell_angle_beta   89.99777632
_cell_angle_gamma   90.00049372
_symmetry_Int_Tables_number   1
_chemical_formula_structural   Cs27Sn14Pb13I81
_chemical_formula_sum   'Cs27 Sn14 Pb13 I81'
_cell_volume   6832.37271092
_cell_formula_units_Z   1
loop_
 _symmetry_equiv_pos_site_id
 _symmetry_equiv_pos_as_xyz
  1  'x, y, z'
loop_
 _atom_site_type_symbol
 _atom_site_label
 _atom_site_symmetry_multiplicity
 _atom_site_fract_x
 _atom_site_fract_y
 _atom_site_fract_z
 _atom_site_occupancy
  Cs  Cs0  1  -0.00173202  0.00250442  -0.00001207  1
  Cs  Cs1  1  0.00182508  -0.00126533  0.33248232  1
  Cs  Cs2  1  -0.00204920  -0.00127394  0.66756362  1
  Cs  Cs3  1  0.00204733  0.32717510  -0.00391704  1
  Cs  Cs4  1  -0.00260062  0.33599373  0.33328954  1
  Cs  Cs5  1  0.00063769  0.33746136  0.67148568  1
  Cs  Cs6  1  0.00088749  0.66926789  -0.00153216  1
  Cs  Cs7  1  -0.00038800  0.66400378  0.33792533  1
  Cs  Cs8  1  -0.00042243  0.66614750  0.66430722  1
  Cs  Cs9  1  0.33301122  -0.00191074  0.00023147  1
  Cs  Cs10  1  0.33032438  0.00521394  0.33510731  1
  Cs  Cs11  1  0.33677542  -0.00081379  0.66334752  1
  Cs  Cs12  1  0.33109551  0.33385027  0.00046524  1
  Cs  Cs13  1  0.33532950  0.32706253  0.33051426  1
  Cs  Cs14  1  0.33637741  0.33459375  0.66943840  1
  Cs  Cs15  1  0.33667435  0.66787008  0.00111255  1
  Cs  Cs16  1  0.33092026  0.66642143  0.33231182  1
  Cs  Cs17  1  0.33187213  0.66693575  0.66662040  1
  Cs  Cs18  1  0.66989585  -0.00367237  0.00111975  1
  Cs  Cs19  1  0.66890771  0.00000197  0.33690181  1
  Cs  Cs20  1  0.66594961  -0.00079095  0.66507368  1
  Cs  Cs21  1  0.66901689  0.33380515  -0.00003097  1
  Cs  Cs22  1  0.66719997  0.33717315  0.33347641  1
  Cs  Cs23  1  0.66372779  0.33455723  0.66574731  1
  Cs  Cs24  1  0.66302029  0.66831446  0.00292046  1
  Cs  Cs25  1  0.66840586  0.66312874  0.32670682  1
  Cs  Cs26  1  0.66745606  0.66685783  0.66845046  1
  Sn  Sn27  1  0.50002053  0.16625526  0.16511030  1
  Sn  Sn28  1  0.83484292  0.16642094  0.50032289  1
  Sn  Sn29  1  0.50093197  0.83164479  0.49959461  1
  Sn  Sn30  1  0.50079026  0.49937285  0.83290712  1
  Sn  Sn31  1  0.83231190  0.83379819  0.50057441  1
  Sn  Sn32  1  0.83264292  0.50090303  0.83348716  1
  Sn  Sn33  1  0.16651522  0.83331519  0.16592817  1
  Sn  Sn34  1  0.83402409  0.83241574  0.83265875  1
  Sn  Sn35  1  0.16607227  0.83357077  0.83376272  1
  Sn  Sn36  1  0.16504573  0.16707788  0.50016113  1
  Sn  Sn37  1  0.49970415  0.50157971  0.50026710  1
  Sn  Sn38  1  0.16713616  0.16681861  0.16729681  1
  Sn  Sn39  1  0.16646189  0.49974951  0.16659150  1
  Sn  Sn40  1  0.50017033  0.16702112  0.83485036  1
  Pb  Pb41  1  0.83612556  0.49997419  0.16302666  1
  Pb  Pb42  1  0.49839368  0.49804458  0.16620508  1
  Pb  Pb43  1  0.83141197  0.50034101  0.50184673  1
  Pb  Pb44  1  0.50027039  0.16687108  0.49983797  1
  Pb  Pb45  1  0.16877605  0.16431926  0.83325672  1
  Pb  Pb46  1  0.83346215  0.16664381  0.16927103  1
  Pb  Pb47  1  0.16936498  0.49694425  0.49813938  1
  Pb  Pb48  1  0.16710575  0.50233566  0.83513770  1
  Pb  Pb49  1  0.50035433  0.83307294  0.83202696  1
  Pb  Pb50  1  0.49773231  0.83596836  0.16995825  1
  Pb  Pb51  1  0.83081303  0.16627866  0.83106574  1
  Pb  Pb52  1  0.16626515  0.83472943  0.50003070  1
  Pb  Pb53  1  0.83571237  0.83322933  0.16694325  1
  I  I54  1  0.17099398  0.00067023  0.16761842  1
  I  I55  1  0.16908743  0.00259781  0.49462371  1
  I  I56  1  0.16228229  -0.00340213  0.83812683  1
  I  I57  1  0.17165229  0.33200300  0.17150702  1
  I  I58  1  0.16295719  0.32894537  0.49477876  1
  I  I59  1  0.16446632  0.33327132  0.83421081  1
  I  I60  1  0.16641352  0.66732451  0.16127688  1
  I  I61  1  0.16538897  0.66654452  0.49809437  1
  I  I62  1  0.16765834  0.67021520  0.83803243  1
  I  I63  1  0.49349663  0.00373899  0.16214834  1
  I  I64  1  0.50030053  -0.00172160  0.50073948  1
  I  I65  1  0.49850418  0.00200255  0.83432587  1
  I  I66  1  0.49270183  0.33017227  0.16870446  1
  I  I67  1  0.49924718  0.33515489  0.50141240  1
  I  I68  1  0.50403658  0.33405272  0.82965597  1
  I  I69  1  0.49728267  0.66681612  0.16515699  1
  I  I70  1  0.50402770  0.66683858  0.50675276  1
  I  I71  1  0.50033111  0.66418037  0.83010236  1
  I  I72  1  0.83500601  -0.00003173  0.16212993  1
  I  I73  1  0.83040130  -0.00095762  0.50543542  1
  I  I74  1  0.83602873  -0.00287626  0.83103961  1
  I  I75  1  0.83559848  0.33327740  0.16776280  1
  I  I76  1  0.83506761  0.33104319  0.50026401  1
  I  I77  1  0.83091423  0.33550884  0.83200194  1
  I  I78  1  0.83534970  0.66665618  0.17174530  1
  I  I79  1  0.83181284  0.66962516  0.50273611  1
  I  I80  1  0.83263347  0.66763958  0.82715503  1
  I  I81  1  0.16984103  0.16808626  0.00282573  1
  I  I82  1  0.17049845  0.16371464  0.33234039  1
  I  I83  1  0.16573162  0.16327633  0.66423838  1
  I  I84  1  0.16817055  0.49451394  0.00302165  1
  I  I85  1  0.16854011  0.50560204  0.33013535  1
  I  I86  1  0.16589459  0.50000217  0.66682306  1
  I  I87  1  0.16184837  0.83576300  0.00004997  1
  I  I88  1  0.16812944  0.83346902  0.33089015  1
  I  I89  1  0.16618308  0.83524509  0.66882256  1
  I  I90  1  0.49338529  0.17221888  -0.00012373  1
  I  I91  1  0.49687829  0.16583868  0.33145166  1
  I  I92  1  0.49965292  0.16766348  0.66843436  1
  I  I93  1  0.50223045  0.49752299  -0.00304558  1
  I  I94  1  0.49816316  0.50138948  0.33564736  1
  I  I95  1  0.50261535  0.49627147  0.66745908  1
  I  I96  1  0.50149826  0.83193381  0.00020563  1
  I  I97  1  0.50482247  0.82946666  0.33789749  1
  I  I98  1  0.49807834  0.83613251  0.66404836  1
  I  I99  1  0.83517497  0.16667945  -0.00035986  1
  I  I100  1  0.83196906  0.16001502  0.33734523  1
  I  I101  1  0.83733824  0.16425363  0.66321951  1
  I  I102  1  0.82520172  0.50640571  -0.00481819  1
  I  I103  1  0.83214795  0.50009205  0.33344377  1
  I  I104  1  0.83251479  0.50115281  0.66979368  1
  I  I105  1  0.83537684  0.82983451  -0.00323372  1
  I  I106  1  0.83062900  0.83859246  0.33674217  1
  I  I107  1  0.83601653  0.83394322  0.66676616  1
  I  I108  1  0.00358618  0.16597471  0.16899186  1
  I  I109  1  0.00022780  0.15974845  0.49422592  1
  I  I110  1  -0.00010346  0.16893138  0.83498563  1
  I  I111  1  0.00426352  0.49729010  0.16707235  1
  I  I112  1  0.00008972  0.50173033  0.50029589  1
  I  I113  1  -0.00230336  0.50228583  0.83469679  1
  I  I114  1  0.00412094  0.83734625  0.16707542  1
  I  I115  1  -0.00257242  0.83673075  0.50109755  1
  I  I116  1  -0.00081228  0.82845348  0.83101960  1
  I  I117  1  0.33214247  0.16649644  0.17020448  1
  I  I118  1  0.33157043  0.16565468  0.49770057  1
  I  I119  1  0.33664959  0.17115897  0.83138641  1
  I  I120  1  0.33036237  0.50135862  0.16489598  1
  I  I121  1  0.33720035  0.50477137  0.50733100  1
  I  I122  1  0.33628377  0.49695109  0.83062043  1
  I  I123  1  0.32964550  0.83181115  0.16109013  1
  I  I124  1  0.33534218  0.83271913  0.50076409  1
  I  I125  1  0.33135555  0.83411668  0.83570549  1
  I  I126  1  0.66374453  0.16766120  0.16469565  1
  I  I127  1  0.66861416  0.16452933  0.50103771  1
  I  I128  1  0.66286554  0.16611956  0.83637155  1
  I  I129  1  0.66648627  0.49746801  0.16893311  1
  I  I130  1  0.66337420  0.49730876  0.50124633  1
  I  I131  1  0.66584912  0.50138485  0.82888817  1
  I  I132  1  0.66647347  0.83519514  0.16437035  1
  I  I133  1  0.66749482  0.83797661  0.50712011  1
  I  I134  1  0.66925352  0.83314923  0.82925248  1
