# generated using pymatgen
data_Cs27Sn13Pb14I81
_symmetry_space_group_name_H-M   'P 1'
_cell_length_a   18.98536204
_cell_length_b   18.97439794
_cell_length_c   18.97442745
_cell_angle_alpha   90.00085063
_cell_angle_beta   89.99998382
_cell_angle_gamma   89.99953221
_symmetry_Int_Tables_number   1
_chemical_formula_structural   Cs27Sn13Pb14I81
_chemical_formula_sum   'Cs27 Sn13 Pb14 I81'
_cell_volume   6835.26832502
_cell_formula_units_Z   1
loop_
 _symmetry_equiv_pos_site_id
 _symmetry_equiv_pos_as_xyz
  1  'x, y, z'
loop_
 _atom_site_type_symbol
 _atom_site_label
 _atom_site_symmetry_multiplicity
 _atom_site_fract_x
 _atom_site_fract_y
 _atom_site_fract_z
 _atom_site_occupancy
  Cs  Cs0  1  -0.00085313  0.00585966  0.00132688  1
  Cs  Cs1  1  -0.00125631  -0.00239992  0.33132205  1
  Cs  Cs2  1  -0.00137613  -0.00341588  0.66738978  1
  Cs  Cs3  1  -0.00033175  0.32394689  0.00523829  1
  Cs  Cs4  1  0.00810958  0.33314623  0.32736926  1
  Cs  Cs5  1  -0.00047778  0.33513190  0.66743910  1
  Cs  Cs6  1  0.00007088  0.66704782  -0.00489788  1
  Cs  Cs7  1  0.00034662  0.66733377  0.33354201  1
  Cs  Cs8  1  -0.00071675  0.66693406  0.66695959  1
  Cs  Cs9  1  0.33625904  -0.00028303  -0.00315401  1
  Cs  Cs10  1  0.33349632  0.00265397  0.33574400  1
  Cs  Cs11  1  0.33678945  0.00473950  0.66701630  1
  Cs  Cs12  1  0.33063187  0.33219396  0.00365945  1
  Cs  Cs13  1  0.32664822  0.33097193  0.33180975  1
  Cs  Cs14  1  0.33368526  0.32896524  0.66450805  1
  Cs  Cs15  1  0.33608653  0.66765632  -0.00125838  1
  Cs  Cs16  1  0.33268826  0.66503965  0.33255461  1
  Cs  Cs17  1  0.33295243  0.66678127  0.66790866  1
  Cs  Cs18  1  0.66349100  0.00197900  0.00252761  1
  Cs  Cs19  1  0.66678558  -0.00067715  0.33404771  1
  Cs  Cs20  1  0.66531025  0.00175547  0.66604136  1
  Cs  Cs21  1  0.66996470  0.33319649  0.00306735  1
  Cs  Cs22  1  0.66556238  0.33459915  0.33304819  1
  Cs  Cs23  1  0.66686020  0.33530606  0.66654635  1
  Cs  Cs24  1  0.66341126  0.66683909  0.00490464  1
  Cs  Cs25  1  0.66660955  0.66679737  0.33143176  1
  Cs  Cs26  1  0.66835973  0.66486421  0.66591691  1
  Sn  Sn27  1  0.50018957  0.50016070  0.83253336  1
  Sn  Sn28  1  0.50019075  0.83239952  0.50038083  1
  Sn  Sn29  1  0.83337418  0.83266703  0.83279006  1
  Sn  Sn30  1  0.83305726  0.83302398  0.50085931  1
  Sn  Sn31  1  0.16606387  0.83273611  0.83330724  1
  Sn  Sn32  1  0.83342113  0.50094419  0.83288533  1
  Sn  Sn33  1  0.50026291  0.16663863  0.16697450  1
  Sn  Sn34  1  0.16664770  0.83283489  0.16610195  1
  Sn  Sn35  1  0.50020532  0.50080472  0.50080400  1
  Sn  Sn36  1  0.83376359  0.16727047  0.50008857  1
  Sn  Sn37  1  0.83311787  0.49989773  0.50014408  1
  Sn  Sn38  1  0.16633862  0.50041491  0.83310674  1
  Sn  Sn39  1  0.16681928  0.83303909  0.50035979  1
  Pb  Pb40  1  0.16655957  0.16619952  0.83300850  1
  Pb  Pb41  1  0.16881655  0.16363780  0.16665040  1
  Pb  Pb42  1  0.50034346  0.17024615  0.83533029  1
  Pb  Pb43  1  0.83318218  0.16655988  0.83127233  1
  Pb  Pb44  1  0.83512144  0.83315368  0.16604284  1
  Pb  Pb45  1  0.83140281  0.16649064  0.16972525  1
  Pb  Pb46  1  0.16651109  0.50186807  0.50183788  1
  Pb  Pb47  1  0.16360323  0.16375891  0.50030291  1
  Pb  Pb48  1  0.50186443  0.16747632  0.49881381  1
  Pb  Pb49  1  0.83352537  0.50032582  0.16657397  1
  Pb  Pb50  1  0.49987601  0.49837498  0.16732853  1
  Pb  Pb51  1  0.16654018  0.50265225  0.16326713  1
  Pb  Pb52  1  0.50057546  0.83171212  0.83130318  1
  Pb  Pb53  1  0.49769990  0.83471596  0.16957609  1
  I  I54  1  0.16602637  -0.00423644  0.16533852  1
  I  I55  1  0.16828922  -0.00523660  0.50267779  1
  I  I56  1  0.16136120  -0.00444748  0.83337688  1
  I  I57  1  0.16744993  0.33325492  0.16587675  1
  I  I58  1  0.16734389  0.33358698  0.50099672  1
  I  I59  1  0.16612098  0.33690440  0.83234559  1
  I  I60  1  0.16770921  0.67054856  0.17063895  1
  I  I61  1  0.16317913  0.67050392  0.49832492  1
  I  I62  1  0.16548154  0.66764156  0.83304635  1
  I  I63  1  0.49960291  0.00236104  0.16872462  1
  I  I64  1  0.50033657  -0.00280485  0.49784250  1
  I  I65  1  0.49926653  -0.00016930  0.83274568  1
  I  I66  1  0.50037788  0.33074289  0.16827376  1
  I  I67  1  0.50559438  0.33689706  0.50298345  1
  I  I68  1  0.50041448  0.33869737  0.82561422  1
  I  I69  1  0.49896268  0.66670986  0.16574402  1
  I  I70  1  0.50430172  0.66670919  0.50286071  1
  I  I71  1  0.49946442  0.66344541  0.83216565  1
  I  I72  1  0.83366403  -0.00024902  0.16702750  1
  I  I73  1  0.83358829  -0.00199780  0.50301539  1
  I  I74  1  0.83963668  -0.00367737  0.82870350  1
  I  I75  1  0.83332711  0.33334055  0.16596650  1
  I  I76  1  0.82597641  0.33501658  0.50485006  1
  I  I77  1  0.83323513  0.33709465  0.82880638  1
  I  I78  1  0.83207469  0.66688133  0.17167844  1
  I  I79  1  0.83264530  0.66715760  0.50412863  1
  I  I80  1  0.83552061  0.66667054  0.82493415  1
  I  I81  1  0.16661196  0.16548165  -0.00005791  1
  I  I82  1  0.16643216  0.16574226  0.33354458  1
  I  I83  1  0.16927015  0.16423524  0.66646328  1
  I  I84  1  0.16750642  0.50603634  -0.00513694  1
  I  I85  1  0.16724219  0.50128827  0.33352655  1
  I  I86  1  0.16626609  0.50682318  0.66998726  1
  I  I87  1  0.16226363  0.82905327  -0.00159471  1
  I  I88  1  0.16649592  0.83519528  0.33471927  1
  I  I89  1  0.16428364  0.82910875  0.66683074  1
  I  I90  1  0.49937148  0.16575501  0.00300336  1
  I  I91  1  0.50159519  0.16657357  0.33126324  1
  I  I92  1  0.50034285  0.16488676  0.66642144  1
  I  I93  1  0.50074091  0.49891963  -0.00328319  1
  I  I94  1  0.50600516  0.50342896  0.33723661  1
  I  I95  1  0.50161498  0.50395621  0.66603617  1
  I  I96  1  0.49980605  0.83308835  -0.00015702  1
  I  I97  1  0.50178021  0.82796225  0.33803360  1
  I  I98  1  0.49637039  0.83316242  0.66291878  1
  I  I99  1  0.83304182  0.16673852  0.00003414  1
  I  I100  1  0.83233973  0.16456237  0.33786464  1
  I  I101  1  0.83111544  0.16526355  0.66321821  1
  I  I102  1  0.83164811  0.50593572  -0.00424148  1
  I  I103  1  0.82712601  0.50192409  0.33758170  1
  I  I104  1  0.83232544  0.50123551  0.66628215  1
  I  I105  1  0.83790526  0.82788162  -0.00394054  1
  I  I106  1  0.83416815  0.83295442  0.33711597  1
  I  I107  1  0.83829056  0.83263832  0.66550121  1
  I  I108  1  0.00015750  0.16656884  0.16687017  1
  I  I109  1  -0.00438539  0.16802531  0.50075026  1
  I  I110  1  -0.00018410  0.17051059  0.83374426  1
  I  I111  1  0.00013744  0.49908188  0.16920372  1
  I  I112  1  -0.00320606  0.50112060  0.50410179  1
  I  I113  1  -0.00079591  0.50599265  0.82820834  1
  I  I114  1  0.00314471  0.83349645  0.17180875  1
  I  I115  1  -0.00058192  0.83388982  0.50019189  1
  I  I116  1  -0.00001198  0.82554173  0.82812224  1
  I  I117  1  0.33617272  0.16759045  0.16941627  1
  I  I118  1  0.33340868  0.16611276  0.49800928  1
  I  I119  1  0.33348151  0.16548634  0.83301588  1
  I  I120  1  0.33326256  0.49927459  0.16719408  1
  I  I121  1  0.33601773  0.50492942  0.50383843  1
  I  I122  1  0.33326871  0.50492443  0.83024453  1
  I  I123  1  0.32981485  0.83387018  0.16496922  1
  I  I124  1  0.33331237  0.82863622  0.49934361  1
  I  I125  1  0.33059545  0.82913633  0.83293883  1
  I  I126  1  0.66393911  0.16594363  0.16637487  1
  I  I127  1  0.66958307  0.16142401  0.49913114  1
  I  I128  1  0.66678115  0.16457117  0.83422964  1
  I  I129  1  0.66654837  0.49979806  0.16266114  1
  I  I130  1  0.66718968  0.50433239  0.50725100  1
  I  I131  1  0.66741798  0.50331121  0.82835353  1
  I  I132  1  0.66636256  0.83493316  0.16674002  1
  I  I133  1  0.66768025  0.83347025  0.50416778  1
  I  I134  1  0.66979680  0.82988334  0.82788236  1
