# generated using pymatgen
data_Cs27Sn13Pb14I81
_symmetry_space_group_name_H-M   'P 1'
_cell_length_a   18.97222195
_cell_length_b   18.98108432
_cell_length_c   18.97798511
_cell_angle_alpha   90.00003066
_cell_angle_beta   90.00349912
_cell_angle_gamma   89.99950798
_symmetry_Int_Tables_number   1
_chemical_formula_structural   Cs27Sn13Pb14I81
_chemical_formula_sum   'Cs27 Sn13 Pb14 I81'
_cell_volume   6834.22568016
_cell_formula_units_Z   1
loop_
 _symmetry_equiv_pos_site_id
 _symmetry_equiv_pos_as_xyz
  1  'x, y, z'
loop_
 _atom_site_type_symbol
 _atom_site_label
 _atom_site_symmetry_multiplicity
 _atom_site_fract_x
 _atom_site_fract_y
 _atom_site_fract_z
 _atom_site_occupancy
  Cs  Cs0  1  0.00277625  -0.00147915  -0.00080465  1
  Cs  Cs1  1  0.00146064  0.00528171  0.33296730  1
  Cs  Cs2  1  -0.00058336  -0.00067538  0.66640365  1
  Cs  Cs3  1  -0.00177071  0.34265780  0.00545922  1
  Cs  Cs4  1  0.00258481  0.32539075  0.32937117  1
  Cs  Cs5  1  0.00441745  0.33377635  0.66443552  1
  Cs  Cs6  1  -0.00144455  0.65933231  -0.00083968  1
  Cs  Cs7  1  -0.00004056  0.66781502  0.33088049  1
  Cs  Cs8  1  -0.00279965  0.66680344  0.66963326  1
  Cs  Cs9  1  0.33379260  -0.00024546  -0.00135564  1
  Cs  Cs10  1  0.33192064  -0.00201587  0.33140462  1
  Cs  Cs11  1  0.33346759  -0.00099407  0.66991099  1
  Cs  Cs12  1  0.33773069  0.33450258  -0.00261699  1
  Cs  Cs13  1  0.32814038  0.33428932  0.33761043  1
  Cs  Cs14  1  0.33073858  0.33532695  0.66621996  1
  Cs  Cs15  1  0.33246528  0.66773386  0.00145418  1
  Cs  Cs16  1  0.33395324  0.66629699  0.33587309  1
  Cs  Cs17  1  0.33366628  0.66564446  0.66305897  1
  Cs  Cs18  1  0.66467614  -0.00082825  -0.00186781  1
  Cs  Cs19  1  0.66707907  -0.00080172  0.33424888  1
  Cs  Cs20  1  0.66726557  0.00037818  0.66827856  1
  Cs  Cs21  1  0.66399494  0.33395862  0.00199725  1
  Cs  Cs22  1  0.66970171  0.33187813  0.33174646  1
  Cs  Cs23  1  0.66512829  0.32881916  0.66650888  1
  Cs  Cs24  1  0.66838624  0.66698522  -0.00020645  1
  Cs  Cs25  1  0.66501711  0.66802880  0.33640116  1
  Cs  Cs26  1  0.66879649  0.66815301  0.66322213  1
  Sn  Sn27  1  0.49996478  0.16645446  0.16822659  1
  Sn  Sn28  1  0.83361291  0.49986787  0.49978972  1
  Sn  Sn29  1  0.50035738  0.50173272  0.83339506  1
  Sn  Sn30  1  0.16731590  0.83373795  0.83258477  1
  Sn  Sn31  1  0.49939892  0.83210092  0.83383916  1
  Sn  Sn32  1  0.16549292  0.83346342  0.50080803  1
  Sn  Sn33  1  0.16495132  0.16625893  0.83379393  1
  Sn  Sn34  1  0.50082965  0.83313117  0.16589581  1
  Sn  Sn35  1  0.83276013  0.83372700  0.16720580  1
  Sn  Sn36  1  0.83505262  0.16692347  0.83380866  1
  Sn  Sn37  1  0.49987558  0.16640422  0.49889223  1
  Sn  Sn38  1  0.83447794  0.83289327  0.49905838  1
  Sn  Sn39  1  0.50019718  0.50047056  0.16640097  1
  Pb  Pb40  1  0.16344471  0.50266666  0.49998480  1
  Pb  Pb41  1  0.83350538  0.83430485  0.83352197  1
  Pb  Pb42  1  0.83068885  0.49715783  0.83136322  1
  Pb  Pb43  1  0.50011650  0.83478745  0.50006140  1
  Pb  Pb44  1  0.83144607  0.16428388  0.16411535  1
  Pb  Pb45  1  0.16903522  0.16421620  0.50207102  1
  Pb  Pb46  1  0.16937650  0.50000071  0.16688377  1
  Pb  Pb47  1  0.50161192  0.49759351  0.49974820  1
  Pb  Pb48  1  0.49955278  0.16643653  0.83371170  1
  Pb  Pb49  1  0.16928015  0.16667633  0.16355206  1
  Pb  Pb50  1  0.16656892  0.83325673  0.16619338  1
  Pb  Pb51  1  0.83104029  0.50227964  0.16899005  1
  Pb  Pb52  1  0.83214380  0.16621672  0.50143574  1
  Pb  Pb53  1  0.16892803  0.50061108  0.83330581  1
  I  I54  1  0.17033047  -0.00024121  0.16792995  1
  I  I55  1  0.16098420  -0.00370807  0.50220210  1
  I  I56  1  0.17044237  -0.00124253  0.82973957  1
  I  I57  1  0.16781714  0.33311078  0.16532369  1
  I  I58  1  0.16745307  0.33304464  0.50204640  1
  I  I59  1  0.16642640  0.33060729  0.83324546  1
  I  I60  1  0.16890759  0.66716980  0.16440551  1
  I  I61  1  0.16861725  0.67101547  0.50645774  1
  I  I62  1  0.16997486  0.67028386  0.82992658  1
  I  I63  1  0.50360492  -0.00103812  0.16534948  1
  I  I64  1  0.50215278  0.00241044  0.49804148  1
  I  I65  1  0.49923238  -0.00256924  0.83600475  1
  I  I66  1  0.49940587  0.33336864  0.16391361  1
  I  I67  1  0.50298625  0.32994582  0.49890579  1
  I  I68  1  0.50113041  0.33501280  0.83607308  1
  I  I69  1  0.50379971  0.66768435  0.16095629  1
  I  I70  1  0.49862994  0.66682887  0.49875564  1
  I  I71  1  0.49549315  0.66815522  0.84031457  1
  I  I72  1  0.82611580  -0.00368529  0.17290232  1
  I  I73  1  0.83489796  -0.00323406  0.49783790  1
  I  I74  1  0.82982047  0.00199806  0.83102936  1
  I  I75  1  0.83097577  0.33330377  0.16721621  1
  I  I76  1  0.82718829  0.33516740  0.50386197  1
  I  I77  1  0.83537375  0.32952800  0.83072312  1
  I  I78  1  0.82740539  0.67043092  0.16661266  1
  I  I79  1  0.83413240  0.66855503  0.49795576  1
  I  I80  1  0.83452484  0.66665138  0.83460083  1
  I  I81  1  0.16659245  0.15728493  -0.00441379  1
  I  I82  1  0.16703992  0.16539574  0.33336152  1
  I  I83  1  0.16746475  0.16382159  0.67002187  1
  I  I84  1  0.16404823  0.50246534  -0.00027076  1
  I  I85  1  0.17101997  0.50273254  0.33366975  1
  I  I86  1  0.17116367  0.49791941  0.66672245  1
  I  I87  1  0.16971701  0.83827290  -0.00326672  1
  I  I88  1  0.16693548  0.83239653  0.33590441  1
  I  I89  1  0.16785175  0.83745472  0.66758270  1
  I  I90  1  0.50007735  0.16610228  0.00230793  1
  I  I91  1  0.50217595  0.16524086  0.33239444  1
  I  I92  1  0.50098551  0.16578500  0.66538214  1
  I  I93  1  0.50034130  0.49775258  0.00008561  1
  I  I94  1  0.50191375  0.50351494  0.33036670  1
  I  I95  1  0.50114639  0.50248974  0.66917352  1
  I  I96  1  0.50038526  0.83566976  0.00006453  1
  I  I97  1  0.50080339  0.83181377  0.33064433  1
  I  I98  1  0.49948156  0.83224067  0.66935203  1
  I  I99  1  0.83290880  0.16364680  -0.00359683  1
  I  I100  1  0.83177509  0.16768597  0.33309616  1
  I  I101  1  0.83098552  0.16333334  0.66929712  1
  I  I102  1  0.83379926  0.50069046  0.00014482  1
  I  I103  1  0.82879710  0.50244607  0.33657683  1
  I  I104  1  0.82964055  0.50805002  0.66389319  1
  I  I105  1  0.82990007  0.83681356  0.00223525  1
  I  I106  1  0.83082612  0.82989283  0.33373949  1
  I  I107  1  0.83299636  0.83179017  0.66430464  1
  I  I108  1  -0.00013511  0.16440892  0.16779576  1
  I  I109  1  0.00021705  0.16805816  0.50095030  1
  I  I110  1  0.00059426  0.15783990  0.83038428  1
  I  I111  1  -0.00068405  0.50234012  0.16650438  1
  I  I112  1  -0.00435246  0.50142633  0.50240340  1
  I  I113  1  -0.00019582  0.50196389  0.83210423  1
  I  I114  1  -0.00294608  0.83408918  0.16796100  1
  I  I115  1  -0.00063224  0.82997855  0.50133066  1
  I  I116  1  0.00248644  0.83778038  0.83180377  1
  I  I117  1  0.33809138  0.16249309  0.16770579  1
  I  I118  1  0.33697345  0.16567812  0.49859636  1
  I  I119  1  0.33147496  0.16428947  0.83342133  1
  I  I120  1  0.33858769  0.50356069  0.16284447  1
  I  I121  1  0.33349235  0.49999590  0.50004495  1
  I  I122  1  0.33737362  0.49810406  0.83654987  1
  I  I123  1  0.33688478  0.83368855  0.16551139  1
  I  I124  1  0.33150052  0.83672456  0.50167621  1
  I  I125  1  0.33415689  0.83675103  0.83319167  1
  I  I126  1  0.66283756  0.16778146  0.16648852  1
  I  I127  1  0.66402390  0.16392832  0.50069012  1
  I  I128  1  0.66781951  0.16573024  0.83245676  1
  I  I129  1  0.66268178  0.49797768  0.16232817  1
  I  I130  1  0.66904173  0.50809451  0.50069243  1
  I  I131  1  0.66263116  0.50426086  0.83708883  1
  I  I132  1  0.66504502  0.83362093  0.16661241  1
  I  I133  1  0.66898215  0.83156733  0.49953990  1
  I  I134  1  0.66390606  0.83294441  0.83418530  1
