# generated using pymatgen
data_Cs27Sn13Pb14I81
_symmetry_space_group_name_H-M   'P 1'
_cell_length_a   18.98151242
_cell_length_b   18.96911277
_cell_length_c   18.98053524
_cell_angle_alpha   89.99854512
_cell_angle_beta   89.99932670
_cell_angle_gamma   89.99849906
_symmetry_Int_Tables_number   1
_chemical_formula_structural   Cs27Sn13Pb14I81
_chemical_formula_sum   'Cs27 Sn13 Pb14 I81'
_cell_volume   6834.17800747
_cell_formula_units_Z   1
loop_
 _symmetry_equiv_pos_site_id
 _symmetry_equiv_pos_as_xyz
  1  'x, y, z'
loop_
 _atom_site_type_symbol
 _atom_site_label
 _atom_site_symmetry_multiplicity
 _atom_site_fract_x
 _atom_site_fract_y
 _atom_site_fract_z
 _atom_site_occupancy
  Cs  Cs0  1  -0.00178444  -0.00267915  0.00193196  1
  Cs  Cs1  1  -0.00323335  -0.00288518  0.33167840  1
  Cs  Cs2  1  -0.00089704  -0.00232442  0.66644827  1
  Cs  Cs3  1  -0.00110168  0.33202060  0.00338723  1
  Cs  Cs4  1  -0.00108931  0.33290246  0.33166839  1
  Cs  Cs5  1  0.00020572  0.33399429  0.66637849  1
  Cs  Cs6  1  0.00035682  0.67145793  -0.01049547  1
  Cs  Cs7  1  0.00244716  0.66882893  0.33636435  1
  Cs  Cs8  1  0.00552922  0.67303728  0.67409932  1
  Cs  Cs9  1  0.33282769  0.00034288  0.00036224  1
  Cs  Cs10  1  0.33333413  0.00125499  0.33317903  1
  Cs  Cs11  1  0.33752055  0.00266292  0.66694475  1
  Cs  Cs12  1  0.33511522  0.33344131  0.00001695  1
  Cs  Cs13  1  0.33182039  0.33287136  0.33399522  1
  Cs  Cs14  1  0.33294329  0.33240055  0.66747741  1
  Cs  Cs15  1  0.33530685  0.66776704  0.00342637  1
  Cs  Cs16  1  0.33329396  0.66810820  0.33064473  1
  Cs  Cs17  1  0.32552350  0.66703205  0.66645825  1
  Cs  Cs18  1  0.66892369  -0.00039639  0.00331397  1
  Cs  Cs19  1  0.66855602  -0.00003085  0.33317950  1
  Cs  Cs20  1  0.66364499  0.00032701  0.66567303  1
  Cs  Cs21  1  0.66566006  0.33598015  -0.00191960  1
  Cs  Cs22  1  0.66889663  0.33379202  0.33430570  1
  Cs  Cs23  1  0.66682549  0.33206002  0.66636013  1
  Cs  Cs24  1  0.66447671  0.66376857  -0.00094332  1
  Cs  Cs25  1  0.66403969  0.66494240  0.33240008  1
  Cs  Cs26  1  0.66987949  0.66850514  0.66693751  1
  Sn  Sn27  1  0.16734159  0.16722973  0.16680361  1
  Sn  Sn28  1  0.16621843  0.16688151  0.49984351  1
  Sn  Sn29  1  0.50013703  0.16709682  0.49904742  1
  Sn  Sn30  1  0.83346390  0.16737951  0.50084648  1
  Sn  Sn31  1  0.16558657  0.16695876  0.83347401  1
  Sn  Sn32  1  0.83472979  0.49993343  0.16738757  1
  Sn  Sn33  1  0.50035834  0.49992303  0.50024495  1
  Sn  Sn34  1  0.83332526  0.49955087  0.49953980  1
  Sn  Sn35  1  0.16529011  0.49930472  0.16665968  1
  Sn  Sn36  1  0.83399712  0.16699980  0.83240968  1
  Sn  Sn37  1  0.50003036  0.83322587  0.83262480  1
  Sn  Sn38  1  0.49959247  0.16700005  0.16754689  1
  Sn  Sn39  1  0.50001899  0.83304635  0.50085928  1
  Pb  Pb40  1  0.50012798  0.83599848  0.16714802  1
  Pb  Pb41  1  0.16931797  0.83633189  0.49985099  1
  Pb  Pb42  1  0.83334129  0.82879351  0.16687286  1
  Pb  Pb43  1  0.49992758  0.49765987  0.16875435  1
  Pb  Pb44  1  0.16607004  0.49822083  0.49851010  1
  Pb  Pb45  1  0.83341030  0.49794742  0.83250078  1
  Pb  Pb46  1  0.16928946  0.83644876  0.83335345  1
  Pb  Pb47  1  0.83343921  0.16777413  0.16695003  1
  Pb  Pb48  1  0.16646927  0.83337063  0.16668546  1
  Pb  Pb49  1  0.50022095  0.16568751  0.83345545  1
  Pb  Pb50  1  0.49991859  0.50287570  0.82992190  1
  Pb  Pb51  1  0.83079633  0.83640897  0.83313912  1
  Pb  Pb52  1  0.83132495  0.83281766  0.49983518  1
  Pb  Pb53  1  0.16677992  0.49746361  0.83635943  1
  I  I54  1  0.17199158  0.00421721  0.16663356  1
  I  I55  1  0.16615784  0.00545394  0.49738676  1
  I  I56  1  0.16336082  0.00492716  0.83547498  1
  I  I57  1  0.16715384  0.33154304  0.16713324  1
  I  I58  1  0.17193280  0.32931554  0.50151200  1
  I  I59  1  0.16558984  0.32877251  0.83029880  1
  I  I60  1  0.16366940  0.66312721  0.16889503  1
  I  I61  1  0.16756312  0.66650829  0.49751391  1
  I  I62  1  0.16732293  0.66685240  0.83437528  1
  I  I63  1  0.49444744  0.00438733  0.17162885  1
  I  I64  1  0.49911474  0.00171651  0.50066155  1
  I  I65  1  0.49969198  -0.00180191  0.82669500  1
  I  I66  1  0.49803342  0.32952122  0.17137171  1
  I  I67  1  0.50087989  0.33190472  0.49493350  1
  I  I68  1  0.50000749  0.33310394  0.83326928  1
  I  I69  1  0.49960635  0.66637782  0.16732343  1
  I  I70  1  0.50625085  0.66611581  0.50399513  1
  I  I71  1  0.50087780  0.67074999  0.82977407  1
  I  I72  1  0.83277537  0.00034524  0.16640879  1
  I  I73  1  0.83265714  0.00364737  0.50367353  1
  I  I74  1  0.83720983  0.00475186  0.82771653  1
  I  I75  1  0.83407051  0.33551818  0.16887957  1
  I  I76  1  0.82777507  0.33198815  0.49989235  1
  I  I77  1  0.83489497  0.32951718  0.83132186  1
  I  I78  1  0.83730525  0.66072976  0.17467813  1
  I  I79  1  0.82701299  0.66295726  0.49385014  1
  I  I80  1  0.83196416  0.66673249  0.83409883  1
  I  I81  1  0.16796256  0.17045347  0.00062546  1
  I  I82  1  0.16929955  0.17047502  0.33343695  1
  I  I83  1  0.16782838  0.16563149  0.66584743  1
  I  I84  1  0.16190261  0.49324046  0.00458687  1
  I  I85  1  0.16646962  0.49208449  0.33055074  1
  I  I86  1  0.16732475  0.49821785  0.66652052  1
  I  I87  1  0.17031326  0.83560667  -0.00008109  1
  I  I88  1  0.17000094  0.83644074  0.33341547  1
  I  I89  1  0.16589218  0.83373777  0.66655405  1
  I  I90  1  0.49703981  0.16459810  0.00239236  1
  I  I91  1  0.49707486  0.16473608  0.33509068  1
  I  I92  1  0.49794131  0.16759327  0.66337374  1
  I  I93  1  0.50077140  0.49965214  0.00030034  1
  I  I94  1  0.50135269  0.50293226  0.33691822  1
  I  I95  1  0.50603267  0.49199448  0.66154416  1
  I  I96  1  0.49956930  0.83727295  -0.00237519  1
  I  I97  1  0.49997542  0.83292455  0.33682231  1
  I  I98  1  0.50072337  0.83828843  0.66494376  1
  I  I99  1  0.83516801  0.16773245  -0.00189475  1
  I  I100  1  0.83376296  0.16866534  0.33642614  1
  I  I101  1  0.83477411  0.17158445  0.66491844  1
  I  I102  1  0.83676542  0.49713889  0.00277637  1
  I  I103  1  0.83210242  0.49218455  0.33452273  1
  I  I104  1  0.82674677  0.49598071  0.66285002  1
  I  I105  1  0.82986760  0.83566302  -0.00014176  1
  I  I106  1  0.83034361  0.84052691  0.33360587  1
  I  I107  1  0.83379421  0.83005952  0.66646262  1
  I  I108  1  0.00275777  0.16919859  0.16847514  1
  I  I109  1  -0.00036899  0.17224214  0.50067479  1
  I  I110  1  0.00032254  0.16796774  0.83026206  1
  I  I111  1  0.00004025  0.49050833  0.17344907  1
  I  I112  1  -0.00305432  0.49231414  0.49635045  1
  I  I113  1  0.00004151  0.50169548  0.82894679  1
  I  I114  1  0.00000245  0.84064696  0.16690917  1
  I  I115  1  0.00006327  0.83379525  0.49936295  1
  I  I116  1  0.00009837  0.83219041  0.83405315  1
  I  I117  1  0.33268511  0.17125494  0.16935003  1
  I  I118  1  0.33394286  0.16617436  0.49945583  1
  I  I119  1  0.33094392  0.16461572  0.83154811  1
  I  I120  1  0.33098996  0.49650465  0.16783667  1
  I  I121  1  0.33598091  0.49848231  0.49872268  1
  I  I122  1  0.33339816  0.49661924  0.83328596  1
  I  I123  1  0.33355828  0.82975939  0.16686304  1
  I  I124  1  0.33777885  0.83320794  0.50339883  1
  I  I125  1  0.33679113  0.83688234  0.82780780  1
  I  I126  1  0.66445267  0.16721722  0.16962568  1
  I  I127  1  0.66610939  0.16675137  0.50029340  1
  I  I128  1  0.66896757  0.16510842  0.82993157  1
  I  I129  1  0.66891827  0.49763849  0.16922241  1
  I  I130  1  0.66673453  0.49442598  0.49417927  1
  I  I131  1  0.66667085  0.49656102  0.83908968  1
  I  I132  1  0.66635244  0.83617451  0.16633617  1
  I  I133  1  0.66295313  0.83930769  0.50339581  1
  I  I134  1  0.66320668  0.83684757  0.82788755  1
