# generated using pymatgen
data_Cs27Sn13Pb14I81
_symmetry_space_group_name_H-M   'P 1'
_cell_length_a   18.97172194
_cell_length_b   18.98057909
_cell_length_c   18.98057907
_cell_angle_alpha   89.99953046
_cell_angle_beta   89.99754499
_cell_angle_gamma   90.00245499
_symmetry_Int_Tables_number   1
_chemical_formula_structural   Cs27Sn13Pb14I81
_chemical_formula_sum   'Cs27 Sn13 Pb14 I81'
_cell_volume   6834.79772857
_cell_formula_units_Z   1
loop_
 _symmetry_equiv_pos_site_id
 _symmetry_equiv_pos_as_xyz
  1  'x, y, z'
loop_
 _atom_site_type_symbol
 _atom_site_label
 _atom_site_symmetry_multiplicity
 _atom_site_fract_x
 _atom_site_fract_y
 _atom_site_fract_z
 _atom_site_occupancy
  Cs  Cs0  1  -0.00018243  -0.00006225  0.00006217  1
  Cs  Cs1  1  -0.00034045  -0.00164854  0.32932476  1
  Cs  Cs2  1  -0.00146884  -0.00038812  0.66898686  1
  Cs  Cs3  1  -0.00146886  0.33101312  0.00038808  1
  Cs  Cs4  1  -0.00259393  0.33485102  0.33370404  1
  Cs  Cs5  1  0.00091539  0.33419067  0.66580946  1
  Cs  Cs6  1  -0.00034024  0.67067519  0.00164852  1
  Cs  Cs7  1  0.00248747  0.66626159  0.33373815  1
  Cs  Cs8  1  -0.00259394  0.66629602  0.66514899  1
  Cs  Cs9  1  0.33235815  0.00082886  -0.00082888  1
  Cs  Cs10  1  0.33575016  0.00037086  0.33477610  1
  Cs  Cs11  1  0.33463336  0.00326846  0.66651692  1
  Cs  Cs12  1  0.33463348  0.33348311  -0.00326856  1
  Cs  Cs13  1  0.33196983  0.33058882  0.33710043  1
  Cs  Cs14  1  0.32771913  0.33419208  0.66580795  1
  Cs  Cs15  1  0.33575017  0.66522386  -0.00037076  1
  Cs  Cs16  1  0.33219999  0.66863407  0.33136585  1
  Cs  Cs17  1  0.33196979  0.66289966  0.66941088  1
  Cs  Cs18  1  0.66727086  0.00198485  -0.00198493  1
  Cs  Cs19  1  0.66310022  -0.00581258  0.33527182  1
  Cs  Cs20  1  0.66613279  -0.00067350  0.66629485  1
  Cs  Cs21  1  0.66613269  0.33370505  0.00067334  1
  Cs  Cs22  1  0.67012092  0.33417834  0.33481479  1
  Cs  Cs23  1  0.66735930  0.33386836  0.66613178  1
  Cs  Cs24  1  0.66310027  0.66472835  0.00581272  1
  Cs  Cs25  1  0.66310130  0.67021932  0.32978040  1
  Cs  Cs26  1  0.67012082  0.66518509  0.66582168  1
  Sn  Sn27  1  0.83326320  0.49932451  0.83324181  1
  Sn  Sn28  1  0.83227988  0.49941842  0.50058157  1
  Sn  Sn29  1  0.16676048  0.49951493  0.16624031  1
  Sn  Sn30  1  0.16768578  0.83351115  0.83297319  1
  Sn  Sn31  1  0.49946480  0.16693240  0.16632620  1
  Sn  Sn32  1  0.50045032  0.49991703  0.50008295  1
  Sn  Sn33  1  0.83326317  0.16675818  0.50067554  1
  Sn  Sn34  1  0.16676045  0.83375972  0.50048501  1
  Sn  Sn35  1  0.49946478  0.83367385  0.83306758  1
  Sn  Sn36  1  0.83258105  0.16766775  0.83233227  1
  Sn  Sn37  1  0.50050146  0.16631828  0.83368170  1
  Sn  Sn38  1  0.16768577  0.16702684  0.16648883  1
  Sn  Sn39  1  0.16711443  0.83348605  0.16651398  1
  Pb  Pb40  1  0.50200295  0.49955392  0.83178585  1
  Pb  Pb41  1  0.49766918  0.49727846  0.16900485  1
  Pb  Pb42  1  0.83507473  0.83335154  0.16664847  1
  Pb  Pb43  1  0.49766925  0.83099517  0.50272156  1
  Pb  Pb44  1  0.83269542  0.83330799  0.83344563  1
  Pb  Pb45  1  0.16611042  0.50162227  0.49837770  1
  Pb  Pb46  1  0.83501165  0.83310467  0.50000106  1
  Pb  Pb47  1  0.50200298  0.16821415  0.50044616  1
  Pb  Pb48  1  0.49768250  0.83563720  0.16436283  1
  Pb  Pb49  1  0.16397023  0.50239139  0.83547660  1
  Pb  Pb50  1  0.16397020  0.16452339  0.49760860  1
  Pb  Pb51  1  0.83269535  0.16655444  0.16669198  1
  Pb  Pb52  1  0.16649003  0.16509242  0.83490760  1
  Pb  Pb53  1  0.83501171  0.49999895  0.16689528  1
  I  I54  1  0.16933009  -0.00018182  0.16643292  1
  I  I55  1  0.16541862  -0.00339987  0.49823819  1
  I  I56  1  0.16513958  -0.00310793  0.83595445  1
  I  I57  1  0.16933643  0.33251873  0.16725407  1
  I  I58  1  0.16781849  0.33325686  0.49733864  1
  I  I59  1  0.16885149  0.33334653  0.83557880  1
  I  I60  1  0.16361664  0.66758794  0.16727544  1
  I  I61  1  0.16475319  0.66964497  0.49745362  1
  I  I62  1  0.17096291  0.67052021  0.83585210  1
  I  I63  1  0.49497916  0.00354796  0.16654353  1
  I  I64  1  0.50080670  0.00005656  0.49790066  1
  I  I65  1  0.50151526  0.00097703  0.83692661  1
  I  I66  1  0.49382618  0.32961196  0.15949642  1
  I  I67  1  0.50072256  0.33602623  0.50103387  1
  I  I68  1  0.50305885  0.33019454  0.83698863  1
  I  I69  1  0.49891174  0.66663970  0.16580208  1
  I  I70  1  0.50668059  0.66335821  0.50105331  1
  I  I71  1  0.49607350  0.66893340  0.83108631  1
  I  I72  1  0.83725351  0.00043865  0.16649037  1
  I  I73  1  0.83577374  0.00290371  0.50432756  1
  I  I74  1  0.83299306  0.00311572  0.82982146  1
  I  I75  1  0.83849704  0.33315971  0.16659238  1
  I  I76  1  0.83102152  0.33372581  0.50389603  1
  I  I77  1  0.82861370  0.33222465  0.82987430  1
  I  I78  1  0.83607318  0.66637423  0.16581921  1
  I  I79  1  0.83241565  0.66330573  0.50529018  1
  I  I80  1  0.83568238  0.66398779  0.82805312  1
  I  I81  1  0.16513945  0.16404506  0.00310791  1
  I  I82  1  0.17096290  0.16414803  0.32947980  1
  I  I83  1  0.16885175  0.16442144  0.66665350  1
  I  I84  1  0.16541857  0.50176204  0.00339983  1
  I  I85  1  0.16475341  0.50254625  0.33035502  1
  I  I86  1  0.16781826  0.50266136  0.66674317  1
  I  I87  1  0.16932993  0.83356736  0.00018181  1
  I  I88  1  0.16361683  0.83272470  0.33241208  1
  I  I89  1  0.16933648  0.83274569  0.66748125  1
  I  I90  1  0.50151529  0.16307367  -0.00097700  1
  I  I91  1  0.49607343  0.16891373  0.33106662  1
  I  I92  1  0.50305896  0.16301109  0.66980545  1
  I  I93  1  0.50080713  0.50209903  -0.00005656  1
  I  I94  1  0.50668054  0.49894707  0.33664184  1
  I  I95  1  0.50072228  0.49896599  0.66397381  1
  I  I96  1  0.49497929  0.83345648  -0.00354794  1
  I  I97  1  0.49891137  0.83419759  0.33336032  1
  I  I98  1  0.49382628  0.84050392  0.67038809  1
  I  I99  1  0.83299320  0.17017894  -0.00311572  1
  I  I100  1  0.83568255  0.17194647  0.33601222  1
  I  I101  1  0.82861339  0.17012565  0.66777529  1
  I  I102  1  0.83577308  0.49567233  -0.00290372  1
  I  I103  1  0.83241552  0.49471044  0.33669431  1
  I  I104  1  0.83102216  0.49610345  0.66627415  1
  I  I105  1  0.83725349  0.83350933  -0.00043864  1
  I  I106  1  0.83607340  0.83418060  0.33362577  1
  I  I107  1  0.83849672  0.83340817  0.66684031  1
  I  I108  1  0.00286239  0.16502260  0.16677584  1
  I  I109  1  -0.00374629  0.17295894  0.50517783  1
  I  I110  1  -0.00276878  0.16846230  0.83153742  1
  I  I111  1  0.00345274  0.49885394  0.16847501  1
  I  I112  1  -0.00297223  0.49778172  0.50221787  1
  I  I113  1  -0.00374630  0.49482238  0.82704163  1
  I  I114  1  0.00483478  0.83667546  0.16332452  1
  I  I115  1  0.00345276  0.83152506  0.50114628  1
  I  I116  1  0.00286239  0.83322421  0.83497731  1
  I  I117  1  0.33284276  0.16578462  0.16118270  1
  I  I118  1  0.33329682  0.16831945  0.50166086  1
  I  I119  1  0.33593332  0.16364977  0.83635032  1
  I  I120  1  0.32967836  0.50371340  0.16823475  1
  I  I121  1  0.33516600  0.50178374  0.49821638  1
  I  I122  1  0.33329684  0.49833897  0.83168075  1
  I  I123  1  0.32923572  0.83133944  0.16866017  1
  I  I124  1  0.32967837  0.83176491  0.49628696  1
  I  I125  1  0.33284279  0.83881735  0.83421543  1
  I  I126  1  0.66374831  0.16774705  0.16436360  1
  I  I127  1  0.67000250  0.16839790  0.49924795  1
  I  I128  1  0.66643879  0.16385100  0.83614930  1
  I  I129  1  0.66638012  0.49818825  0.16525363  1
  I  I130  1  0.66801927  0.49584201  0.50415833  1
  I  I131  1  0.67000247  0.50075172  0.83160140  1
  I  I132  1  0.66565673  0.83461061  0.16538954  1
  I  I133  1  0.66638011  0.83474685  0.50181150  1
  I  I134  1  0.66374825  0.83563643  0.83225302  1
