# generated using pymatgen
data_Cs27Sn13Pb14I81
_symmetry_space_group_name_H-M   'P 1'
_cell_length_a   19.01728373
_cell_length_b   19.03193763
_cell_length_c   19.01165509
_cell_angle_alpha   89.99941155
_cell_angle_beta   90.00090381
_cell_angle_gamma   90.00020421
_symmetry_Int_Tables_number   1
_chemical_formula_structural   Cs27Sn13Pb14I81
_chemical_formula_sum   'Cs27 Sn13 Pb14 I81'
_cell_volume   6880.99779502
_cell_formula_units_Z   1
loop_
 _symmetry_equiv_pos_site_id
 _symmetry_equiv_pos_as_xyz
  1  'x, y, z'
loop_
 _atom_site_type_symbol
 _atom_site_label
 _atom_site_symmetry_multiplicity
 _atom_site_fract_x
 _atom_site_fract_y
 _atom_site_fract_z
 _atom_site_occupancy
  Cs  Cs0  1  -0.00123197  -0.00246202  0.00096850  1
  Cs  Cs1  1  -0.00192593  0.00088505  0.33421142  1
  Cs  Cs2  1  -0.00153342  -0.00172954  0.66576452  1
  Cs  Cs3  1  -0.00177080  0.33218272  0.00031901  1
  Cs  Cs4  1  -0.00328166  0.34560369  0.33387051  1
  Cs  Cs5  1  0.00338439  0.33302151  0.66528406  1
  Cs  Cs6  1  0.01059117  0.67038707  -0.00309119  1
  Cs  Cs7  1  -0.00375072  0.64974443  0.33566793  1
  Cs  Cs8  1  0.00518863  0.66933528  0.66782555  1
  Cs  Cs9  1  0.33067458  0.00060916  0.01018104  1
  Cs  Cs10  1  0.33218790  -0.00075573  0.33213276  1
  Cs  Cs11  1  0.33618284  0.00177364  0.66372577  1
  Cs  Cs12  1  0.33064776  0.33008071  0.00544664  1
  Cs  Cs13  1  0.33138003  0.33111205  0.32715044  1
  Cs  Cs14  1  0.33603907  0.33203461  0.66710659  1
  Cs  Cs15  1  0.32309638  0.67060563  0.00706787  1
  Cs  Cs16  1  0.33291770  0.67051847  0.33006759  1
  Cs  Cs17  1  0.33489728  0.66627236  0.66591485  1
  Cs  Cs18  1  0.66911062  0.00008711  0.00038932  1
  Cs  Cs19  1  0.66909041  -0.00065209  0.33340165  1
  Cs  Cs20  1  0.66589318  -0.00016436  0.66572280  1
  Cs  Cs21  1  0.66743105  0.33323740  -0.00304026  1
  Cs  Cs22  1  0.67097426  0.33812120  0.33028819  1
  Cs  Cs23  1  0.66281051  0.33125464  0.67067201  1
  Cs  Cs24  1  0.66639071  0.66358257  0.00114817  1
  Cs  Cs25  1  0.66899340  0.66237862  0.32814580  1
  Cs  Cs26  1  0.66238543  0.67061276  0.66878181  1
  Sn  Sn27  1  0.83344200  0.83382662  0.16663925  1
  Sn  Sn28  1  0.49970171  0.83359314  0.83359174  1
  Sn  Sn29  1  0.49949849  0.83362280  0.50055945  1
  Sn  Sn30  1  0.49941828  0.16617686  0.83316619  1
  Sn  Sn31  1  0.16703397  0.83432141  0.50002536  1
  Sn  Sn32  1  0.16705894  0.16609402  0.83242681  1
  Sn  Sn33  1  0.83300654  0.49980308  0.83265660  1
  Sn  Sn34  1  0.50013913  0.50016028  0.83318432  1
  Sn  Sn35  1  0.49990311  0.49968146  0.50065016  1
  Sn  Sn36  1  0.83319532  0.16562616  0.16611485  1
  Sn  Sn37  1  0.16745020  0.16579317  0.50077446  1
  Sn  Sn38  1  0.49943619  0.16683430  0.50019973  1
  Sn  Sn39  1  0.83335102  0.16711805  0.83363023  1
  Pb  Pb40  1  0.16992405  0.83655692  0.83106308  1
  Pb  Pb41  1  0.17014955  0.49940083  0.50058819  1
  Pb  Pb42  1  0.16784722  0.49732211  0.83298104  1
  Pb  Pb43  1  0.50183705  0.83348075  0.16691825  1
  Pb  Pb44  1  0.16681617  0.49983676  0.16649015  1
  Pb  Pb45  1  0.83131931  0.83319311  0.83454734  1
  Pb  Pb46  1  0.16344955  0.16656067  0.16768390  1
  Pb  Pb47  1  0.16337924  0.83363690  0.17072005  1
  Pb  Pb48  1  0.83014366  0.49990738  0.50429797  1
  Pb  Pb49  1  0.83318534  0.83316619  0.49798875  1
  Pb  Pb50  1  0.83307249  0.50003811  0.16280279  1
  Pb  Pb51  1  0.83332339  0.16682101  0.50061326  1
  Pb  Pb52  1  0.50245406  0.16664386  0.16704997  1
  Pb  Pb53  1  0.49988958  0.49998917  0.16556185  1
  I  I54  1  0.16807997  0.00014843  0.16357281  1
  I  I55  1  0.17651992  0.00099144  0.50416114  1
  I  I56  1  0.16360354  0.00409851  0.83164537  1
  I  I57  1  0.16473969  0.33255220  0.16926361  1
  I  I58  1  0.16978146  0.32977973  0.50446414  1
  I  I59  1  0.17030004  0.32916162  0.82602316  1
  I  I60  1  0.16368354  0.66738616  0.16702267  1
  I  I61  1  0.17043440  0.66934101  0.49781252  1
  I  I62  1  0.16407600  0.66700824  0.83348121  1
  I  I63  1  0.50051565  0.00015958  0.16548564  1
  I  I64  1  0.49611670  0.00038175  0.50720198  1
  I  I65  1  0.50186935  0.00104355  0.82602150  1
  I  I66  1  0.50291343  0.33313794  0.16833454  1
  I  I67  1  0.49701540  0.33237888  0.50784420  1
  I  I68  1  0.50236183  0.33239012  0.82628710  1
  I  I69  1  0.50495190  0.66686156  0.16705878  1
  I  I70  1  0.49718365  0.66712545  0.50782533  1
  I  I71  1  0.50911350  0.66645922  0.82485948  1
  I  I72  1  0.83179817  0.00129756  0.15930767  1
  I  I73  1  0.82778327  0.00022395  0.50405655  1
  I  I74  1  0.83190526  0.00319298  0.83566347  1
  I  I75  1  0.83330197  0.33064218  0.16499488  1
  I  I76  1  0.83534348  0.33321509  0.49169363  1
  I  I77  1  0.82728569  0.33158319  0.83961099  1
  I  I78  1  0.83119273  0.66894983  0.16898941  1
  I  I79  1  0.83489230  0.66648589  0.49693908  1
  I  I80  1  0.82561108  0.66401759  0.83442719  1
  I  I81  1  0.17140795  0.16903172  -0.00289235  1
  I  I82  1  0.17321435  0.16201946  0.33704550  1
  I  I83  1  0.16506806  0.16351604  0.66674279  1
  I  I84  1  0.16906410  0.49918258  -0.00073317  1
  I  I85  1  0.16659606  0.49700198  0.33410240  1
  I  I86  1  0.15996020  0.50295045  0.66673566  1
  I  I87  1  0.16814450  0.83269107  0.00025775  1
  I  I88  1  0.17820730  0.84293382  0.33799561  1
  I  I89  1  0.16624368  0.83456098  0.66346675  1
  I  I90  1  0.49699475  0.16754596  -0.00376190  1
  I  I91  1  0.49548316  0.16588556  0.33702439  1
  I  I92  1  0.50233443  0.16675322  0.66749978  1
  I  I93  1  0.50674444  0.49829620  -0.00440199  1
  I  I94  1  0.49849250  0.50039262  0.33666283  1
  I  I95  1  0.50504714  0.49932351  0.66728823  1
  I  I96  1  0.50379948  0.83402029  -0.00316106  1
  I  I97  1  0.49633476  0.83374199  0.33711166  1
  I  I98  1  0.49849220  0.83344826  0.66644502  1
  I  I99  1  0.83215415  0.16703270  -0.00191968  1
  I  I100  1  0.83193339  0.16064298  0.33105624  1
  I  I101  1  0.83223164  0.17124462  0.67012922  1
  I  I102  1  0.82274432  0.49655491  -0.00421222  1
  I  I103  1  0.83331366  0.49938262  0.33316278  1
  I  I104  1  0.83176746  0.49074477  0.67146532  1
  I  I105  1  0.82921513  0.83617174  0.00229742  1
  I  I106  1  0.83069473  0.84334865  0.33016801  1
  I  I107  1  0.83491125  0.83378064  0.66662467  1
  I  I108  1  -0.00390774  0.16170943  0.16034222  1
  I  I109  1  0.00299376  0.15913134  0.50387996  1
  I  I110  1  -0.00031530  0.17271959  0.83360912  1
  I  I111  1  -0.00074934  0.49938935  0.16760979  1
  I  I112  1  0.00018865  0.50052954  0.49757771  1
  I  I113  1  -0.00255828  0.49422603  0.83714353  1
  I  I114  1  -0.00375455  0.84064392  0.16389455  1
  I  I115  1  0.00315938  0.84205940  0.49854914  1
  I  I116  1  0.00040742  0.83194213  0.83320193  1
  I  I117  1  0.33307784  0.16772301  0.16323525  1
  I  I118  1  0.33453771  0.16634383  0.50958918  1
  I  I119  1  0.33451028  0.16764310  0.82660439  1
  I  I120  1  0.33355768  0.50025390  0.16360980  1
  I  I121  1  0.33767367  0.49984235  0.51051392  1
  I  I122  1  0.33739077  0.49937570  0.82670320  1
  I  I123  1  0.33292054  0.83162540  0.16366395  1
  I  I124  1  0.33502020  0.83415332  0.50491657  1
  I  I125  1  0.33786699  0.82989666  0.83203503  1
  I  I126  1  0.66990576  0.16338693  0.16184874  1
  I  I127  1  0.66326596  0.16503756  0.50361370  1
  I  I128  1  0.66572829  0.16775143  0.83345872  1
  I  I129  1  0.66688910  0.50028366  0.17181735  1
  I  I130  1  0.66212738  0.49927151  0.49993917  1
  I  I131  1  0.66552632  0.49367116  0.82974108  1
  I  I132  1  0.66929090  0.83845319  0.16906616  1
  I  I133  1  0.66282319  0.83538984  0.50365987  1
  I  I134  1  0.66325638  0.83845164  0.82587912  1
