# generated using pymatgen
data_Cs27Sn13Pb14I81
_symmetry_space_group_name_H-M   'P 1'
_cell_length_a   18.97830001
_cell_length_b   18.97160478
_cell_length_c   18.97829988
_cell_angle_alpha   90.00160251
_cell_angle_beta   90.00119665
_cell_angle_gamma   90.00160259
_symmetry_Int_Tables_number   1
_chemical_formula_structural   Cs27Sn13Pb14I81
_chemical_formula_sum   'Cs27 Sn13 Pb14 I81'
_cell_volume   6833.11422848
_cell_formula_units_Z   1
loop_
 _symmetry_equiv_pos_site_id
 _symmetry_equiv_pos_as_xyz
  1  'x, y, z'
loop_
 _atom_site_type_symbol
 _atom_site_label
 _atom_site_symmetry_multiplicity
 _atom_site_fract_x
 _atom_site_fract_y
 _atom_site_fract_z
 _atom_site_occupancy
  Cs  Cs0  1  0.00346596  0.00341194  0.00067809  1
  Cs  Cs1  1  0.00318084  -0.00789065  0.33651424  1
  Cs  Cs2  1  -0.00348775  -0.00442814  0.66424867  1
  Cs  Cs3  1  -0.00082354  0.33220384  0.00022140  1
  Cs  Cs4  1  -0.00059185  0.33541937  0.33274159  1
  Cs  Cs5  1  0.00023459  0.33449885  0.66742124  1
  Cs  Cs6  1  -0.00415740  0.66550147  -0.00185845  1
  Cs  Cs7  1  -0.00072498  0.66899934  0.33260838  1
  Cs  Cs8  1  0.00244029  0.66672279  0.66734725  1
  Cs  Cs9  1  0.33191049  0.00194121  0.00206732  1
  Cs  Cs10  1  0.33091517  -0.00442821  0.32984577  1
  Cs  Cs11  1  0.33456325  0.00633440  0.66789685  1
  Cs  Cs12  1  0.33233245  0.33145885  -0.00138581  1
  Cs  Cs13  1  0.33408800  0.33449865  0.33356788  1
  Cs  Cs14  1  0.33391276  0.33339507  0.66724601  1
  Cs  Cs15  1  0.33701717  0.66688760  -0.00158781  1
  Cs  Cs16  1  0.33401399  0.66672291  0.33577345  1
  Cs  Cs17  1  0.33175688  0.66454427  0.66509008  1
  Cs  Cs18  1  0.66620819  -0.00922517  -0.00045847  1
  Cs  Cs19  1  0.66734478  0.00341201  0.33679924  1
  Cs  Cs20  1  0.66873412  0.00194134  0.66524397  1
  Cs  Cs21  1  0.66883603  0.33450263  0.00216933  1
  Cs  Cs22  1  0.66688807  0.33220383  0.33250989  1
  Cs  Cs23  1  0.66528072  0.33145889  0.66566572  1
  Cs  Cs24  1  0.66649511  0.67529049  -0.00017145  1
  Cs  Cs25  1  0.66480814  0.66550157  0.32917598  1
  Cs  Cs26  1  0.66507882  0.66688774  0.67035059  1
  Sn  Sn27  1  0.50021733  0.50066026  0.49937158  1
  Sn  Sn28  1  0.16699330  0.83257924  0.83346092  1
  Sn  Sn29  1  0.16603827  0.50066025  0.83355064  1
  Sn  Sn30  1  0.83375161  0.49908343  0.83262417  1
  Sn  Sn31  1  0.49929079  0.49908344  0.16708494  1
  Sn  Sn32  1  0.83316865  0.16756830  0.83413289  1
  Sn  Sn33  1  0.16738578  0.49984834  0.16652956  1
  Sn  Sn34  1  0.16641815  0.49912863  0.49975146  1
  Sn  Sn35  1  0.50079955  0.16756829  0.16650197  1
  Sn  Sn36  1  0.16648546  0.16740317  0.49981880  1
  Sn  Sn37  1  0.83270868  0.16684650  0.16604206  1
  Sn  Sn38  1  0.83319614  0.49984838  0.50071911  1
  Sn  Sn39  1  0.50012758  0.83257931  0.50032669  1
  Pb  Pb40  1  0.83301844  0.49907612  0.16635171  1
  Pb  Pb41  1  0.83056526  0.82976170  0.50011101  1
  Pb  Pb42  1  0.16641260  0.16871090  0.16876678  1
  Pb  Pb43  1  0.50036029  0.49977459  0.83369363  1
  Pb  Pb44  1  0.16849520  0.83271102  0.50182855  1
  Pb  Pb45  1  0.50301190  0.16680748  0.83634527  1
  Pb  Pb46  1  0.16677766  0.82976177  0.16389859  1
  Pb  Pb47  1  0.49717331  0.83342635  0.83050664  1
  Pb  Pb48  1  0.83542384  0.83314000  0.83326192  1
  Pb  Pb49  1  0.16463065  0.16730686  0.83132964  1
  Pb  Pb50  1  0.83543345  0.16871087  0.49974596  1
  Pb  Pb51  1  0.49799630  0.16730679  0.49796396  1
  Pb  Pb52  1  0.83345750  0.83730047  0.16679086  1
  Pb  Pb53  1  0.49992863  0.83314005  0.16875720  1
  I  I54  1  0.16683544  0.00018813  0.16733746  1
  I  I55  1  0.16816983  0.00212122  0.50150284  1
  I  I56  1  0.16561975  -0.00174775  0.83004110  1
  I  I57  1  0.16792012  0.33712782  0.16296985  1
  I  I58  1  0.16884692  0.33617904  0.50218032  1
  I  I59  1  0.16440006  0.33692344  0.83404414  1
  I  I60  1  0.17207808  0.66128348  0.17315509  1
  I  I61  1  0.16554663  0.66271391  0.49888018  1
  I  I62  1  0.16150360  0.66374815  0.83093186  1
  I  I63  1  0.50476945  0.00301736  0.16806140  1
  I  I64  1  0.49670810  -0.00174780  0.49895276  1
  I  I65  1  0.49882278  0.00014983  0.83215615  1
  I  I66  1  0.49990970  0.33472472  0.17309877  1
  I  I67  1  0.50071060  0.33692346  0.49773362  1
  I  I68  1  0.49503739  0.33352363  0.82837073  1
  I  I69  1  0.49561453  0.66309571  0.16918642  1
  I  I70  1  0.49759839  0.66374813  0.49483694  1
  I  I71  1  0.50453213  0.66625597  0.83786559  1
  I  I72  1  0.82707687  0.00559735  0.16040999  1
  I  I73  1  0.83400362  0.00018812  0.50016894  1
  I  I74  1  0.83472786  0.00301736  0.83810272  1
  I  I75  1  0.83214503  0.33124818  0.16547830  1
  I  I76  1  0.82963687  0.33712781  0.50125337  1
  I  I77  1  0.83976569  0.33472471  0.83324326  1
  I  I78  1  0.83293660  0.66630125  0.16627016  1
  I  I79  1  0.83982205  0.66128353  0.50541126  1
  I  I80  1  0.83585315  0.66309570  0.82894763  1
  I  I81  1  0.16798800  0.16701621  0.00008059  1
  I  I82  1  0.16552589  0.17323398  0.33645719  1
  I  I83  1  0.16643065  0.17297424  0.66363275  1
  I  I84  1  0.16631203  0.50384924  -0.00038096  1
  I  I85  1  0.16717281  0.49448633  0.33421486  1
  I  I86  1  0.16610539  0.50034793  0.66619527  1
  I  I87  1  0.16606608  0.82951920  -0.00397017  1
  I  I88  1  0.16773101  0.83403911  0.33350474  1
  I  I89  1  0.16709585  0.82641497  0.66936510  1
  I  I90  1  0.49833360  0.17427959  0.00443940  1
  I  I91  1  0.50645100  0.16953302  0.33023704  1
  I  I92  1  0.50002476  0.16652100  0.66634529  1
  I  I93  1  0.49609404  0.49511499  0.00325267  1
  I  I94  1  0.49703459  0.50006912  0.33398095  1
  I  I95  1  0.49752935  0.50384691  0.66350418  1
  I  I96  1  0.50003579  0.83265315  0.00004523  1
  I  I97  1  0.49727170  0.82982916  0.33646492  1
  I  I98  1  0.49960435  0.82491291  0.66277948  1
  I  I99  1  0.83148028  0.17457868  -0.00029218  1
  I  I100  1  0.82961393  0.16977053  0.33085731  1
  I  I101  1  0.83656665  0.16926775  0.66896815  1
  I  I102  1  0.83790190  0.49697593  -0.00262214  1
  I  I103  1  0.83564481  0.49801858  0.33577616  1
  I  I104  1  0.83674746  0.49479657  0.66682403  1
  I  I105  1  0.83222207  0.82726546  -0.00020586  1
  I  I106  1  0.83510095  0.83281534  0.33368214  1
  I  I107  1  0.83257707  0.83868428  0.66662356  1
  I  I108  1  -0.00247603  0.16977062  0.16294726  1
  I  I109  1  0.00312384  0.17323361  0.49885895  1
  I  I110  1  -0.00309628  0.16953265  0.83978454  1
  I  I111  1  0.00244284  0.49801869  0.16897811  1
  I  I112  1  0.00088159  0.49448632  0.50050608  1
  I  I113  1  0.00064761  0.50006926  0.83036808  1
  I  I114  1  0.00034877  0.83281500  0.16843417  1
  I  I115  1  0.00017141  0.83403951  0.50106463  1
  I  I116  1  0.00313162  0.82982949  0.83060485  1
  I  I117  1  0.33563481  0.16926772  0.16989985  1
  I  I118  1  0.33029942  0.17297425  0.49976430  1
  I  I119  1  0.33301197  0.16652113  0.83335785  1
  I  I120  1  0.33349076  0.49479669  0.17008075  1
  I  I121  1  0.33286191  0.50034801  0.49943908  1
  I  I122  1  0.33017089  0.50384674  0.83086241  1
  I  I123  1  0.33329024  0.83868425  0.16591072  1
  I  I124  1  0.33603182  0.82641496  0.50042884  1
  I  I125  1  0.32944623  0.82491299  0.83293787  1
  I  I126  1  0.66637447  0.17457870  0.16481373  1
  I  I127  1  0.66674724  0.16701666  0.50132122  1
  I  I128  1  0.67110606  0.17427967  0.83166691  1
  I  I129  1  0.66404450  0.49697570  0.17123542  1
  I  I130  1  0.66628574  0.50384913  0.49964516  1
  I  I131  1  0.66991932  0.49511489  0.82942730  1
  I  I132  1  0.66646082  0.82726568  0.16555535  1
  I  I133  1  0.66269656  0.82951860  0.49939941  1
  I  I134  1  0.66671194  0.83265308  0.83336916  1
