# generated using pymatgen
data_Cs27Sn13Pb14I81
_symmetry_space_group_name_H-M   'P 1'
_cell_length_a   19.02733526
_cell_length_b   19.04852455
_cell_length_c   19.02729632
_cell_angle_alpha   89.99789039
_cell_angle_beta   90.00780093
_cell_angle_gamma   90.00046612
_symmetry_Int_Tables_number   1
_chemical_formula_structural   Cs27Sn13Pb14I81
_chemical_formula_sum   'Cs27 Sn13 Pb14 I81'
_cell_volume   6896.30387724
_cell_formula_units_Z   1
loop_
 _symmetry_equiv_pos_site_id
 _symmetry_equiv_pos_as_xyz
  1  'x, y, z'
loop_
 _atom_site_type_symbol
 _atom_site_label
 _atom_site_symmetry_multiplicity
 _atom_site_fract_x
 _atom_site_fract_y
 _atom_site_fract_z
 _atom_site_occupancy
  Cs  Cs0  1  -0.00323998  -0.00273537  0.00421757  1
  Cs  Cs1  1  0.00067958  0.00142060  0.33224018  1
  Cs  Cs2  1  -0.00407847  -0.00107332  0.66466588  1
  Cs  Cs3  1  -0.00379465  0.33412951  0.00188744  1
  Cs  Cs4  1  -0.00003643  0.33078090  0.33257152  1
  Cs  Cs5  1  0.00285461  0.32536951  0.66644098  1
  Cs  Cs6  1  0.00194621  0.66882172  -0.00122300  1
  Cs  Cs7  1  0.00370267  0.66602968  0.33106073  1
  Cs  Cs8  1  0.00037631  0.67495080  0.67308921  1
  Cs  Cs9  1  0.33938782  0.00512913  -0.00009038  1
  Cs  Cs10  1  0.33391238  -0.00386898  0.33345250  1
  Cs  Cs11  1  0.33513092  0.00370426  0.66485114  1
  Cs  Cs12  1  0.33440788  0.32564741  -0.00633680  1
  Cs  Cs13  1  0.33220589  0.33767448  0.33454554  1
  Cs  Cs14  1  0.33154137  0.32776346  0.66996773  1
  Cs  Cs15  1  0.33039438  0.66816851  -0.00184547  1
  Cs  Cs16  1  0.33217622  0.66878509  0.33541002  1
  Cs  Cs17  1  0.33482595  0.66678450  0.66561239  1
  Cs  Cs18  1  0.66472511  0.00448722  0.00219681  1
  Cs  Cs19  1  0.66495849  -0.00112018  0.33370193  1
  Cs  Cs20  1  0.66822661  -0.00357736  0.66359403  1
  Cs  Cs21  1  0.66871031  0.33163383  -0.00122781  1
  Cs  Cs22  1  0.66634464  0.35112903  0.33640823  1
  Cs  Cs23  1  0.66683519  0.33704922  0.66747377  1
  Cs  Cs24  1  0.66495410  0.66351576  -0.00045984  1
  Cs  Cs25  1  0.66518320  0.65171007  0.33434578  1
  Cs  Cs26  1  0.66639255  0.66768611  0.66667889  1
  Sn  Sn27  1  0.83330095  0.16697089  0.83368134  1
  Sn  Sn28  1  0.16618374  0.50124940  0.50008647  1
  Sn  Sn29  1  0.16708106  0.50002759  0.16686731  1
  Sn  Sn30  1  0.16644847  0.16631988  0.16664129  1
  Sn  Sn31  1  0.49958916  0.83387523  0.50043206  1
  Sn  Sn32  1  0.16612189  0.83361860  0.16721086  1
  Sn  Sn33  1  0.83351302  0.16593603  0.16680076  1
  Sn  Sn34  1  0.16709263  0.83270779  0.49961720  1
  Sn  Sn35  1  0.83336007  0.49926446  0.83319252  1
  Sn  Sn36  1  0.50050533  0.16593687  0.49912066  1
  Sn  Sn37  1  0.49993210  0.83274118  0.83270894  1
  Sn  Sn38  1  0.50025133  0.50108669  0.83337081  1
  Sn  Sn39  1  0.83322564  0.83363194  0.16729168  1
  Pb  Pb40  1  0.83065616  0.16675871  0.49874292  1
  Pb  Pb41  1  0.16355971  0.16629015  0.83607598  1
  Pb  Pb42  1  0.83572890  0.50003401  0.16480084  1
  Pb  Pb43  1  0.16918088  0.83368578  0.83326886  1
  Pb  Pb44  1  0.16638368  0.49993321  0.83298103  1
  Pb  Pb45  1  0.83727083  0.50028929  0.50337048  1
  Pb  Pb46  1  0.83322711  0.83307550  0.49676751  1
  Pb  Pb47  1  0.50270645  0.16631907  0.83121777  1
  Pb  Pb48  1  0.83076535  0.83364386  0.83587743  1
  Pb  Pb49  1  0.16820313  0.16595157  0.49750241  1
  Pb  Pb50  1  0.49648699  0.49996791  0.16348041  1
  Pb  Pb51  1  0.49748431  0.50069152  0.50247007  1
  Pb  Pb52  1  0.50105832  0.16690327  0.16971590  1
  Pb  Pb53  1  0.50027308  0.83312818  0.16733010  1
  I  I54  1  0.16121901  -0.00059055  0.17105784  1
  I  I55  1  0.16996764  -0.00318704  0.49525640  1
  I  I56  1  0.16814858  -0.00005404  0.83169904  1
  I  I57  1  0.16195692  0.33319741  0.17139081  1
  I  I58  1  0.16865281  0.33540770  0.49603536  1
  I  I59  1  0.17432784  0.33341857  0.83163000  1
  I  I60  1  0.16250184  0.66743817  0.17078807  1
  I  I61  1  0.17408753  0.66770637  0.48927962  1
  I  I62  1  0.16079012  0.66669361  0.83966307  1
  I  I63  1  0.49461351  -0.00010579  0.15996821  1
  I  I64  1  0.49279830  -0.00183727  0.50712528  1
  I  I65  1  0.49947777  -0.00252135  0.83169441  1
  I  I66  1  0.49943966  0.33329800  0.16842393  1
  I  I67  1  0.49903522  0.33185691  0.50005492  1
  I  I68  1  0.50076831  0.33538093  0.83214831  1
  I  I69  1  0.50287969  0.66669174  0.17111069  1
  I  I70  1  0.49701894  0.66959827  0.50223160  1
  I  I71  1  0.50679682  0.66682176  0.82686606  1
  I  I72  1  0.84385296  0.00046487  0.15898165  1
  I  I73  1  0.83825149  -0.00006400  0.50748810  1
  I  I74  1  0.83257928  0.00249805  0.83662828  1
  I  I75  1  0.83867697  0.33075619  0.16357131  1
  I  I76  1  0.83147903  0.33343504  0.49418481  1
  I  I77  1  0.82630721  0.33323488  0.84125830  1
  I  I78  1  0.83810391  0.66907553  0.16546075  1
  I  I79  1  0.82599933  0.66672733  0.49947971  1
  I  I80  1  0.83152454  0.66458812  0.83451266  1
  I  I81  1  0.16895916  0.16758988  0.00449376  1
  I  I82  1  0.15816688  0.16711839  0.32985642  1
  I  I83  1  0.16649855  0.16861101  0.66642423  1
  I  I84  1  0.16648544  0.50146734  0.00277867  1
  I  I85  1  0.16720339  0.50079856  0.33265560  1
  I  I86  1  0.16759120  0.50754394  0.66385455  1
  I  I87  1  0.16260210  0.83106420  0.00354174  1
  I  I88  1  0.16994592  0.83243737  0.33272851  1
  I  I89  1  0.16899851  0.82498218  0.66338303  1
  I  I90  1  0.49604184  0.16647925  0.00018274  1
  I  I91  1  0.49973163  0.15566099  0.33679613  1
  I  I92  1  0.49931760  0.16511754  0.66384742  1
  I  I93  1  0.50274467  0.50726494  -0.00411215  1
  I  I94  1  0.50332574  0.50007236  0.33348836  1
  I  I95  1  0.50236975  0.50137052  0.66976837  1
  I  I96  1  0.50000358  0.82794586  -0.00219637  1
  I  I97  1  0.49734074  0.83993589  0.33631339  1
  I  I98  1  0.49338276  0.83325787  0.66595861  1
  I  I99  1  0.83758139  0.16707506  0.00069303  1
  I  I100  1  0.83941401  0.15997956  0.32951010  1
  I  I101  1  0.83046577  0.17283250  0.66912864  1
  I  I102  1  0.83076315  0.49854704  -0.00265956  1
  I  I103  1  0.82944964  0.49908007  0.33337652  1
  I  I104  1  0.82937936  0.49244660  0.67098371  1
  I  I105  1  0.84120966  0.83394935  0.00326827  1
  I  I106  1  0.83383053  0.84325085  0.32913313  1
  I  I107  1  0.83734115  0.83400098  0.66651472  1
  I  I108  1  0.00034490  0.16592941  0.16223571  1
  I  I109  1  -0.00021471  0.16699265  0.50422282  1
  I  I110  1  -0.00416872  0.17584033  0.83223173  1
  I  I111  1  0.00336235  0.50050668  0.16817005  1
  I  I112  1  0.00478433  0.50656589  0.49522316  1
  I  I113  1  -0.00256900  0.49401243  0.83457506  1
  I  I114  1  0.00152924  0.83404016  0.17201150  1
  I  I115  1  0.00327592  0.82821663  0.49797188  1
  I  I116  1  -0.00007843  0.83225965  0.82967675  1
  I  I117  1  0.33058840  0.16524712  0.16861045  1
  I  I118  1  0.33584554  0.16526734  0.50021188  1
  I  I119  1  0.33364323  0.16846684  0.83479565  1
  I  I120  1  0.32856639  0.50178182  0.17018044  1
  I  I121  1  0.33019070  0.50145837  0.49614935  1
  I  I122  1  0.33565637  0.50596229  0.83386885  1
  I  I123  1  0.33025400  0.83354732  0.16737374  1
  I  I124  1  0.33287047  0.83298157  0.49680283  1
  I  I125  1  0.33684714  0.82458630  0.83511559  1
  I  I126  1  0.67036216  0.15821064  0.16091026  1
  I  I127  1  0.66318136  0.15664689  0.49962112  1
  I  I128  1  0.66973291  0.16825399  0.84336274  1
  I  I129  1  0.66668363  0.49998762  0.16908468  1
  I  I130  1  0.66672054  0.49973312  0.49735312  1
  I  I131  1  0.66657277  0.49988976  0.83367246  1
  I  I132  1  0.66944717  0.84248330  0.16380058  1
  I  I133  1  0.66348447  0.83971538  0.50463803  1
  I  I134  1  0.66337430  0.83157278  0.82657622  1
