# generated using pymatgen
data_Cs27Sn14Pb13I81
_symmetry_space_group_name_H-M   'P 1'
_cell_length_a   18.97791160
_cell_length_b   18.97134679
_cell_length_c   18.98226232
_cell_angle_alpha   90.00006810
_cell_angle_beta   89.99992974
_cell_angle_gamma   89.99888723
_symmetry_Int_Tables_number   1
_chemical_formula_structural   Cs27Sn14Pb13I81
_chemical_formula_sum   'Cs27 Sn14 Pb13 I81'
_cell_volume   6834.30809047
_cell_formula_units_Z   1
loop_
 _symmetry_equiv_pos_site_id
 _symmetry_equiv_pos_as_xyz
  1  'x, y, z'
loop_
 _atom_site_type_symbol
 _atom_site_label
 _atom_site_symmetry_multiplicity
 _atom_site_fract_x
 _atom_site_fract_y
 _atom_site_fract_z
 _atom_site_occupancy
  Cs  Cs0  1  0.00000711  0.00138927  0.00276153  1
  Cs  Cs1  1  0.00081670  -0.00172096  0.32967387  1
  Cs  Cs2  1  0.00030712  0.00309281  0.66633173  1
  Cs  Cs3  1  0.00155837  0.33341575  -0.00176577  1
  Cs  Cs4  1  0.00030880  0.33343488  0.33567857  1
  Cs  Cs5  1  0.00201710  0.33227087  0.66691682  1
  Cs  Cs6  1  -0.00125221  0.66332191  -0.00285518  1
  Cs  Cs7  1  -0.00120979  0.66840820  0.33654683  1
  Cs  Cs8  1  -0.00457507  0.66805659  0.66601658  1
  Cs  Cs9  1  0.33336133  -0.00186843  0.00544269  1
  Cs  Cs10  1  0.33195132  -0.00825798  0.32553909  1
  Cs  Cs11  1  0.33461123  0.00051635  0.66663804  1
  Cs  Cs12  1  0.33276687  0.33370035  -0.00141603  1
  Cs  Cs13  1  0.33443113  0.33311264  0.33559985  1
  Cs  Cs14  1  0.33324275  0.33392635  0.66662884  1
  Cs  Cs15  1  0.33474259  0.66558696  -0.00066180  1
  Cs  Cs16  1  0.33332157  0.67246062  0.33301523  1
  Cs  Cs17  1  0.33255874  0.66326432  0.66712826  1
  Cs  Cs18  1  0.66729836  -0.00173958  -0.00019569  1
  Cs  Cs19  1  0.66663495  -0.00003396  0.33245588  1
  Cs  Cs20  1  0.66487626  -0.00108809  0.66746556  1
  Cs  Cs21  1  0.66520607  0.33515018  0.00219096  1
  Cs  Cs22  1  0.66477281  0.33531508  0.33308072  1
  Cs  Cs23  1  0.66239155  0.33070637  0.66525178  1
  Cs  Cs24  1  0.66840979  0.66775529  0.00116970  1
  Cs  Cs25  1  0.66866452  0.66526137  0.33189448  1
  Cs  Cs26  1  0.67266027  0.67553128  0.66729717  1
  Sn  Sn27  1  0.83332478  0.16701956  0.49985934  1
  Sn  Sn28  1  0.49916408  0.16683444  0.50043022  1
  Sn  Sn29  1  0.16679026  0.83359600  0.83287066  1
  Sn  Sn30  1  0.16725982  0.49997810  0.83283781  1
  Sn  Sn31  1  0.49929388  0.49956336  0.50137915  1
  Sn  Sn32  1  0.16722714  0.16638300  0.83285855  1
  Sn  Sn33  1  0.83350562  0.83369778  0.16648215  1
  Sn  Sn34  1  0.16748490  0.49920042  0.50010078  1
  Sn  Sn35  1  0.16677845  0.49958718  0.16715552  1
  Sn  Sn36  1  0.83337325  0.16659088  0.16666770  1
  Sn  Sn37  1  0.83308221  0.16714596  0.83345900  1
  Sn  Sn38  1  0.49968750  0.49932856  0.83202226  1
  Sn  Sn39  1  0.49951936  0.16743459  0.83289693  1
  Sn  Sn40  1  0.16745619  0.16688282  0.50027445  1
  Pb  Pb41  1  0.16470854  0.83028838  0.16398437  1
  Pb  Pb42  1  0.49750099  0.49977084  0.16686911  1
  Pb  Pb43  1  0.49980481  0.83308313  0.50025436  1
  Pb  Pb44  1  0.83286167  0.49785313  0.50037964  1
  Pb  Pb45  1  0.83574433  0.83631097  0.83492431  1
  Pb  Pb46  1  0.83348553  0.83660049  0.49796586  1
  Pb  Pb47  1  0.49775895  0.83328390  0.83319795  1
  Pb  Pb48  1  0.16678143  0.83344264  0.50229344  1
  Pb  Pb49  1  0.83253456  0.49767405  0.83302828  1
  Pb  Pb50  1  0.83557529  0.49952818  0.16669206  1
  Pb  Pb51  1  0.50230923  0.16674277  0.16675828  1
  Pb  Pb52  1  0.16503343  0.16829197  0.16696243  1
  Pb  Pb53  1  0.50274319  0.83306103  0.16643535  1
  I  I54  1  0.16704860  -0.00004861  0.16647441  1
  I  I55  1  0.16588129  0.00384265  0.50504618  1
  I  I56  1  0.16518789  0.00210684  0.82861616  1
  I  I57  1  0.16354378  0.33607172  0.16157051  1
  I  I58  1  0.16589161  0.33278862  0.50414408  1
  I  I59  1  0.16603322  0.33298409  0.83340077  1
  I  I60  1  0.16430737  0.66250582  0.16758452  1
  I  I61  1  0.17174185  0.66290032  0.49999150  1
  I  I62  1  0.17158052  0.66490719  0.83473070  1
  I  I63  1  0.49635068  0.00030969  0.16668237  1
  I  I64  1  0.50095340  0.00423194  0.50530767  1
  I  I65  1  0.50052372  0.00386568  0.82878159  1
  I  I66  1  0.50438823  0.33325280  0.16592584  1
  I  I67  1  0.49950016  0.33236187  0.50399794  1
  I  I68  1  0.49559709  0.33241728  0.83010333  1
  I  I69  1  0.50259316  0.66617308  0.16622635  1
  I  I70  1  0.49321426  0.66261541  0.50384261  1
  I  I71  1  0.49396221  0.66296488  0.82991812  1
  I  I72  1  0.83523810  0.00191851  0.16648584  1
  I  I73  1  0.83394009  0.00540879  0.50373128  1
  I  I74  1  0.83285524  0.00489285  0.83051096  1
  I  I75  1  0.83410461  0.32987618  0.16643923  1
  I  I76  1  0.83453004  0.32907817  0.49750125  1
  I  I77  1  0.83924971  0.32898239  0.83604974  1
  I  I78  1  0.83534648  0.66911740  0.16566396  1
  I  I79  1  0.83345398  0.66668963  0.49658902  1
  I  I80  1  0.83362473  0.66681570  0.83707675  1
  I  I81  1  0.16591803  0.16796636  -0.00336314  1
  I  I82  1  0.16572783  0.17217332  0.33662326  1
  I  I83  1  0.16182919  0.17030685  0.66735619  1
  I  I84  1  0.16868414  0.49958134  -0.00197097  1
  I  I85  1  0.16879806  0.49351337  0.33493789  1
  I  I86  1  0.17082593  0.49828536  0.66710971  1
  I  I87  1  0.16583087  0.83585417  -0.00371468  1
  I  I88  1  0.16544881  0.83346743  0.33315309  1
  I  I89  1  0.16581836  0.83050194  0.67020134  1
  I  I90  1  0.49928104  0.17078835  -0.00370276  1
  I  I91  1  0.50067969  0.17185844  0.33704283  1
  I  I92  1  0.50389919  0.17029299  0.66703310  1
  I  I93  1  0.49562418  0.49519647  -0.00348520  1
  I  I94  1  0.49679665  0.49419187  0.33699814  1
  I  I95  1  0.48971141  0.49334493  0.66702161  1
  I  I96  1  0.49921124  0.83362040  -0.00047732  1
  I  I97  1  0.49896653  0.83398226  0.33343536  1
  I  I98  1  0.50185985  0.83427821  0.66689010  1
  I  I99  1  0.83478916  0.16298047  -0.00082021  1
  I  I100  1  0.83421393  0.16303523  0.33405383  1
  I  I101  1  0.83469761  0.16879356  0.66680091  1
  I  I102  1  0.83461101  0.49649414  -0.00015965  1
  I  I103  1  0.83397393  0.49702047  0.33349211  1
  I  I104  1  0.83952807  0.50019229  0.66672728  1
  I  I105  1  0.83470699  0.84036670  0.00263800  1
  I  I106  1  0.83519971  0.83929658  0.33008741  1
  I  I107  1  0.83355209  0.83284139  0.66686168  1
  I  I108  1  -0.00316410  0.16430437  0.16604705  1
  I  I109  1  0.00071540  0.17040929  0.50319845  1
  I  I110  1  0.00090977  0.16660784  0.83128914  1
  I  I111  1  0.00364309  0.49868361  0.16518175  1
  I  I112  1  0.00348495  0.49597436  0.50051426  1
  I  I113  1  0.00355984  0.49920274  0.83353645  1
  I  I114  1  -0.00273152  0.84010675  0.16604617  1
  I  I115  1  0.00016224  0.83222811  0.50041438  1
  I  I116  1  0.00360864  0.83126743  0.83375953  1
  I  I117  1  0.33321752  0.16793191  0.16615451  1
  I  I118  1  0.33288515  0.17210624  0.50890194  1
  I  I119  1  0.33260970  0.16773972  0.82660938  1
  I  I120  1  0.32947869  0.49879051  0.16487394  1
  I  I121  1  0.33226429  0.49120870  0.50097892  1
  I  I122  1  0.33194246  0.49536732  0.83373607  1
  I  I123  1  0.33276696  0.83278438  0.16649137  1
  I  I124  1  0.33311563  0.83919492  0.49826606  1
  I  I125  1  0.32976327  0.83782982  0.83411977  1
  I  I126  1  0.67074486  0.16325674  0.16612987  1
  I  I127  1  0.66621946  0.17016411  0.50243872  1
  I  I128  1  0.66620848  0.17131074  0.83108803  1
  I  I129  1  0.66665346  0.50115061  0.16638918  1
  I  I130  1  0.66303262  0.49487499  0.50385505  1
  I  I131  1  0.66291038  0.49442025  0.82950674  1
  I  I132  1  0.67087687  0.83872411  0.16546836  1
  I  I133  1  0.66676599  0.83236708  0.49959092  1
  I  I134  1  0.66686074  0.83259509  0.83538171  1
