# generated using pymatgen
data_Cs27Sn13Pb14I81
_symmetry_space_group_name_H-M   'P 1'
_cell_length_a   18.97623986
_cell_length_b   18.97938451
_cell_length_c   18.97624002
_cell_angle_alpha   89.99840261
_cell_angle_beta   90.00214594
_cell_angle_gamma   90.00159734
_symmetry_Int_Tables_number   1
_chemical_formula_structural   Cs27Sn13Pb14I81
_chemical_formula_sum   'Cs27 Sn13 Pb14 I81'
_cell_volume   6834.43236290
_cell_formula_units_Z   1
loop_
 _symmetry_equiv_pos_site_id
 _symmetry_equiv_pos_as_xyz
  1  'x, y, z'
loop_
 _atom_site_type_symbol
 _atom_site_label
 _atom_site_symmetry_multiplicity
 _atom_site_fract_x
 _atom_site_fract_y
 _atom_site_fract_z
 _atom_site_occupancy
  Cs  Cs0  1  0.00118363  -0.00020064  -0.00061729  1
  Cs  Cs1  1  -0.00130983  -0.00160603  0.33254889  1
  Cs  Cs2  1  -0.00039270  0.00078644  0.66705932  1
  Cs  Cs3  1  -0.00140163  0.33316517  -0.00070091  1
  Cs  Cs4  1  0.00319557  0.33239416  0.33712162  1
  Cs  Cs5  1  0.00086971  0.33292653  0.66579694  1
  Cs  Cs6  1  -0.00205701  0.66844902  0.00723234  1
  Cs  Cs7  1  -0.00289239  0.66925084  0.33111590  1
  Cs  Cs8  1  0.00206648  0.66372667  0.66460025  1
  Cs  Cs9  1  0.33355254  -0.00190223  0.00011323  1
  Cs  Cs10  1  0.33527034  0.00196790  0.33139621  1
  Cs  Cs11  1  0.33411790  -0.00160617  0.66797641  1
  Cs  Cs12  1  0.33261141  0.33222405  0.00357380  1
  Cs  Cs13  1  0.33313761  0.33575253  0.33352900  1
  Cs  Cs14  1  0.32954504  0.33239435  0.66347107  1
  Cs  Cs15  1  0.33533527  0.67105019  -0.00044223  1
  Cs  Cs16  1  0.33443736  0.65900567  0.33222933  1
  Cs  Cs17  1  0.33555076  0.66925091  0.66955909  1
  Cs  Cs18  1  0.66602554  0.00189710  0.00064113  1
  Cs  Cs19  1  0.66655351  -0.00190219  0.33311423  1
  Cs  Cs20  1  0.66728385  -0.00020062  0.66548290  1
  Cs  Cs21  1  0.66805610  0.33517752  -0.00138947  1
  Cs  Cs22  1  0.66309290  0.33222412  0.33405521  1
  Cs  Cs23  1  0.66736761  0.33316532  0.66806823  1
  Cs  Cs24  1  0.66721017  0.65582709  -0.00054347  1
  Cs  Cs25  1  0.66710880  0.67105031  0.33133125  1
  Cs  Cs26  1  0.65943423  0.66844918  0.66872385  1
  Sn  Sn27  1  0.83353108  0.49951051  0.50038612  1
  Sn  Sn28  1  0.83350812  0.83346492  0.83315853  1
  Sn  Sn29  1  0.16628052  0.49951050  0.83313556  1
  Sn  Sn30  1  0.50092069  0.16593840  0.16574598  1
  Sn  Sn31  1  0.16551173  0.50024260  0.50115491  1
  Sn  Sn32  1  0.49982234  0.16667905  0.83389833  1
  Sn  Sn33  1  0.83340825  0.16582432  0.83325838  1
  Sn  Sn34  1  0.50017396  0.83406666  0.16649268  1
  Sn  Sn35  1  0.83276828  0.16667905  0.16684434  1
  Sn  Sn36  1  0.16677788  0.16730708  0.83261977  1
  Sn  Sn37  1  0.16686436  0.83351536  0.49980232  1
  Sn  Sn38  1  0.16588672  0.16612123  0.50077993  1
  Sn  Sn39  1  0.83404686  0.16730710  0.49988879  1
  Pb  Pb40  1  0.16483482  0.83340560  0.83190389  1
  Pb  Pb41  1  0.83350421  0.49693916  0.16991228  1
  Pb  Pb42  1  0.50020173  0.49994513  0.50028220  1
  Pb  Pb43  1  0.50015354  0.49926287  0.16651316  1
  Pb  Pb44  1  0.50259476  0.83560976  0.83525595  1
  Pb  Pb45  1  0.49725932  0.83348141  0.49779142  1
  Pb  Pb46  1  0.16638445  0.49994509  0.16646498  1
  Pb  Pb47  1  0.16887525  0.83348139  0.16940737  1
  Pb  Pb48  1  0.50016362  0.16663011  0.50003891  1
  Pb  Pb49  1  0.16662776  0.16663010  0.16650307  1
  Pb  Pb50  1  0.83545151  0.49966618  0.83121522  1
  Pb  Pb51  1  0.83476272  0.83340555  0.50183186  1
  Pb  Pb52  1  0.83141068  0.83560977  0.16407188  1
  Pb  Pb53  1  0.49675443  0.49693917  0.83316252  1
  I  I54  1  0.16517462  0.00038963  0.16773447  1
  I  I55  1  0.16301843  0.00175772  0.50364828  1
  I  I56  1  0.16766297  0.00357138  0.82898252  1
  I  I57  1  0.16970721  0.33288354  0.17091881  1
  I  I58  1  0.16267902  0.33246753  0.50398768  1
  I  I59  1  0.16552913  0.33134639  0.82558999  1
  I  I60  1  0.16947362  0.66673584  0.16604745  1
  I  I61  1  0.16314934  0.66546498  0.50351696  1
  I  I62  1  0.16460128  0.66413793  0.82755500  1
  I  I63  1  0.50322257  0.00209594  0.16344364  1
  I  I64  1  0.49893246  0.00038962  0.50149206  1
  I  I65  1  0.49492151  0.00415485  0.83481330  1
  I  I66  1  0.50340149  0.32929130  0.16326525  1
  I  I67  1  0.49574771  0.33288351  0.49695954  1
  I  I68  1  0.50587417  0.32842909  0.83924480  1
  I  I69  1  0.49780035  0.66943381  0.16886674  1
  I  I70  1  0.50061920  0.66673583  0.49719320  1
  I  I71  1  0.50049758  0.66676239  0.83520881  1
  I  I72  1  0.83185374  0.00415488  0.17174489  1
  I  I73  1  0.83768389  0.00357139  0.49900383  1
  I  I74  1  0.83554836  0.00318649  0.83111846  1
  I  I75  1  0.82742171  0.32842908  0.16079247  1
  I  I76  1  0.84107678  0.33134634  0.50113739  1
  I  I77  1  0.83148041  0.32955552  0.83518652  1
  I  I78  1  0.83145750  0.66676239  0.16616943  1
  I  I79  1  0.83911188  0.66413790  0.50206541  1
  I  I80  1  0.83559301  0.66868037  0.83107335  1
  I  I81  1  0.16433821  0.17100786  -0.00350758  1
  I  I82  1  0.16410249  0.16803840  0.33678892  1
  I  I83  1  0.16425100  0.16758212  0.66654901  1
  I  I84  1  0.16733427  0.49269313  -0.00354768  1
  I  I85  1  0.16434244  0.49800476  0.33744042  1
  I  I86  1  0.16276767  0.49723883  0.66556812  1
  I  I87  1  0.16650382  0.83351467  -0.00017200  1
  I  I88  1  0.16491772  0.83449034  0.33781200  1
  I  I89  1  0.16586476  0.83442634  0.66374551  1
  I  I90  1  0.50242201  0.16332203  -0.00035789  1
  I  I91  1  0.50297106  0.16321089  0.33047732  1
  I  I92  1  0.50176407  0.16747036  0.66969316  1
  I  I93  1  0.49836173  0.50124980  -0.00029195  1
  I  I94  1  0.49652007  0.49683706  0.33336165  1
  I  I95  1  0.50194908  0.49881958  0.66691858  1
  I  I96  1  0.49835060  0.83791432  0.00295703  1
  I  I97  1  0.50080384  0.84214502  0.32995863  1
  I  I98  1  0.50013241  0.83409062  0.66700847  1
  I  I99  1  0.83327843  0.16192075  -0.00097948  1
  I  I100  1  0.83360095  0.17102699  0.33414689  1
  I  I101  1  0.83406811  0.16662969  0.66688118  1
  I  I102  1  0.83457820  0.49991039  -0.00024279  1
  I  I103  1  0.84098279  0.49583089  0.33801048  1
  I  I104  1  0.83687291  0.49299796  0.66332198  1
  I  I105  1  0.83549707  0.84004047  -0.00365443  1
  I  I106  1  0.83347310  0.83379879  0.33332227  1
  I  I107  1  0.83391626  0.84149202  0.66942958  1
  I  I108  1  -0.00302650  0.16747071  0.16490284  1
  I  I109  1  0.00011768  0.16758194  0.50241548  1
  I  I110  1  -0.00021450  0.16662953  0.83259857  1
  I  I111  1  -0.00025194  0.49881975  0.16471724  1
  I  I112  1  0.00109861  0.49723876  0.50389934  1
  I  I113  1  0.00334470  0.49299834  0.82979356  1
  I  I114  1  -0.00034179  0.83409037  0.16653423  1
  I  I115  1  0.00292121  0.83442672  0.50080206  1
  I  I116  1  -0.00276294  0.84149201  0.83275049  1
  I  I117  1  0.33618931  0.16321105  0.16369552  1
  I  I118  1  0.32987773  0.16803830  0.50256436  1
  I  I119  1  0.33251975  0.17102717  0.83306570  1
  I  I120  1  0.33330503  0.49683712  0.17014622  1
  I  I121  1  0.32922626  0.49800491  0.50232408  1
  I  I122  1  0.32865614  0.49583100  0.82568425  1
  I  I123  1  0.33670801  0.84214482  0.16586282  1
  I  I124  1  0.32885467  0.83449033  0.50174908  1
  I  I125  1  0.33334444  0.83379864  0.83319366  1
  I  I126  1  0.66702457  0.16332178  0.16424471  1
  I  I127  1  0.67017428  0.17100811  0.50232834  1
  I  I128  1  0.66764618  0.16192069  0.83338846  1
  I  I129  1  0.66695861  0.50124957  0.16830545  1
  I  I130  1  0.67021437  0.49269300  0.49933220  1
  I  I131  1  0.66690942  0.49991015  0.83208816  1
  I  I132  1  0.66370967  0.83791485  0.16831616  1
  I  I133  1  0.66683864  0.83351447  0.50016280  1
  I  I134  1  0.67032106  0.84004087  0.83116942  1
