# generated using pymatgen
data_Cs27Sn13Pb14I81
_symmetry_space_group_name_H-M   'P 1'
_cell_length_a   18.97039771
_cell_length_b   18.97783711
_cell_length_c   18.98399464
_cell_angle_alpha   90.00025004
_cell_angle_beta   90.00115803
_cell_angle_gamma   89.99681567
_symmetry_Int_Tables_number   1
_chemical_formula_structural   Cs27Sn13Pb14I81
_chemical_formula_sum   'Cs27 Sn13 Pb14 I81'
_cell_volume   6834.56301711
_cell_formula_units_Z   1
loop_
 _symmetry_equiv_pos_site_id
 _symmetry_equiv_pos_as_xyz
  1  'x, y, z'
loop_
 _atom_site_type_symbol
 _atom_site_label
 _atom_site_symmetry_multiplicity
 _atom_site_fract_x
 _atom_site_fract_y
 _atom_site_fract_z
 _atom_site_occupancy
  Cs  Cs0  1  0.00327858  0.00084169  0.00141571  1
  Cs  Cs1  1  -0.00048515  0.00588995  0.33106995  1
  Cs  Cs2  1  0.00530419  -0.00002562  0.66849708  1
  Cs  Cs3  1  -0.00115988  0.33292422  0.00328513  1
  Cs  Cs4  1  0.00104202  0.33082349  0.33270545  1
  Cs  Cs5  1  -0.00013863  0.33320100  0.66428943  1
  Cs  Cs6  1  -0.00607238  0.66609092  -0.00043086  1
  Cs  Cs7  1  0.00223509  0.66512139  0.33361392  1
  Cs  Cs8  1  -0.00024412  0.66839201  0.66729343  1
  Cs  Cs9  1  0.33070727  -0.00211020  -0.00296003  1
  Cs  Cs10  1  0.33282940  -0.00346341  0.33366719  1
  Cs  Cs11  1  0.32616477  -0.00739853  0.66884059  1
  Cs  Cs12  1  0.33552082  0.33529157  -0.00049247  1
  Cs  Cs13  1  0.33460210  0.33522852  0.33241669  1
  Cs  Cs14  1  0.33566225  0.33424116  0.66841673  1
  Cs  Cs15  1  0.33384244  0.66487404  0.00263389  1
  Cs  Cs16  1  0.33184216  0.66682335  0.33173636  1
  Cs  Cs17  1  0.33107197  0.67016243  0.66595362  1
  Cs  Cs18  1  0.66740417  -0.00549667  0.00077943  1
  Cs  Cs19  1  0.66710061  -0.00113658  0.33438965  1
  Cs  Cs20  1  0.66580976  0.00389806  0.66426535  1
  Cs  Cs21  1  0.66484883  0.33421070  -0.00230270  1
  Cs  Cs22  1  0.66540059  0.33282819  0.33520842  1
  Cs  Cs23  1  0.66525677  0.33193900  0.66642660  1
  Cs  Cs24  1  0.67434944  0.67187906  -0.00063142  1
  Cs  Cs25  1  0.66646242  0.66880073  0.33361500  1
  Cs  Cs26  1  0.66848079  0.66777034  0.66713786  1
  Sn  Sn27  1  0.83242704  0.49979425  0.49988212  1
  Sn  Sn28  1  0.83256232  0.16682600  0.50108326  1
  Sn  Sn29  1  0.50067143  0.16697617  0.83306449  1
  Sn  Sn30  1  0.49993991  0.49956708  0.16639255  1
  Sn  Sn31  1  0.50005896  0.16714291  0.16658265  1
  Sn  Sn32  1  0.16665466  0.83231698  0.16666529  1
  Sn  Sn33  1  0.49960445  0.50006739  0.83341109  1
  Sn  Sn34  1  0.49983820  0.16719859  0.50028398  1
  Sn  Sn35  1  0.83261229  0.16705660  0.83282996  1
  Sn  Sn36  1  0.16725854  0.50067163  0.16549306  1
  Sn  Sn37  1  0.83332595  0.83376159  0.50002173  1
  Sn  Sn38  1  0.16716171  0.49950292  0.83417948  1
  Sn  Sn39  1  0.50078463  0.49963430  0.50017453  1
  Pb  Pb40  1  0.16761773  0.16683421  0.50017430  1
  Pb  Pb41  1  0.83038776  0.16688702  0.16652628  1
  Pb  Pb42  1  0.83296269  0.49804834  0.83106022  1
  Pb  Pb43  1  0.16741682  0.49980398  0.49992906  1
  Pb  Pb44  1  0.16707607  0.16928712  0.83334376  1
  Pb  Pb45  1  0.16654022  0.82987260  0.83587879  1
  Pb  Pb46  1  0.83327976  0.83688978  0.83092439  1
  Pb  Pb47  1  0.83277375  0.49981969  0.16913107  1
  Pb  Pb48  1  0.50152537  0.83330947  0.50008030  1
  Pb  Pb49  1  0.83599978  0.83344928  0.16891984  1
  Pb  Pb50  1  0.16974970  0.16764511  0.16657424  1
  Pb  Pb51  1  0.16382874  0.83326244  0.49767212  1
  Pb  Pb52  1  0.50013632  0.83312146  0.83326340  1
  Pb  Pb53  1  0.49856297  0.83294081  0.16668336  1
  I  I54  1  0.16686640  -0.00210652  0.16931035  1
  I  I55  1  0.16742944  -0.00000734  0.49752433  1
  I  I56  1  0.16675962  0.00000065  0.83433154  1
  I  I57  1  0.16872198  0.33696163  0.16365247  1
  I  I58  1  0.16044715  0.33363434  0.49667814  1
  I  I59  1  0.16903753  0.33711292  0.83993746  1
  I  I60  1  0.17318962  0.66460043  0.16448875  1
  I  I61  1  0.16606787  0.66625153  0.50189166  1
  I  I62  1  0.17327920  0.66192208  0.83307880  1
  I  I63  1  0.49963314  0.00328143  0.16791673  1
  I  I64  1  0.50450931  0.00368823  0.49877442  1
  I  I65  1  0.50468939  0.00399372  0.83320249  1
  I  I66  1  0.49463787  0.33430860  0.16769983  1
  I  I67  1  0.50711297  0.33375077  0.49933773  1
  I  I68  1  0.49979153  0.33363125  0.83312326  1
  I  I69  1  0.49728620  0.66280655  0.16811269  1
  I  I70  1  0.50369995  0.66293388  0.49923277  1
  I  I71  1  0.49530698  0.66240086  0.83284745  1
  I  I72  1  0.83371503  0.00029825  0.16921089  1
  I  I73  1  0.82894848  0.00159730  0.50276864  1
  I  I74  1  0.82649924  0.00491585  0.82833776  1
  I  I75  1  0.84000668  0.33339067  0.16972192  1
  I  I76  1  0.82897328  0.33281803  0.50339367  1
  I  I77  1  0.83139255  0.33021219  0.82696682  1
  I  I78  1  0.82886290  0.66643743  0.16896710  1
  I  I79  1  0.82948836  0.66562213  0.49799549  1
  I  I80  1  0.83347246  0.66643419  0.83130047  1
  I  I81  1  0.16447940  0.16401634  0.00002077  1
  I  I82  1  0.16528071  0.16853999  0.33319152  1
  I  I83  1  0.16979716  0.16829594  0.66685290  1
  I  I84  1  0.17537334  0.50285264  0.00053236  1
  I  I85  1  0.16975278  0.50377955  0.33036277  1
  I  I86  1  0.16991474  0.49768210  0.66929758  1
  I  I87  1  0.16763806  0.83268125  0.00355241  1
  I  I88  1  0.16789820  0.82508374  0.33006755  1
  I  I89  1  0.16619822  0.83301517  0.66679858  1
  I  I90  1  0.50308098  0.17362308  -0.00055880  1
  I  I91  1  0.50338308  0.17299509  0.33401110  1
  I  I92  1  0.50618831  0.17459560  0.66642450  1
  I  I93  1  0.49313040  0.49237228  0.00001563  1
  I  I94  1  0.49971038  0.49434963  0.33338193  1
  I  I95  1  0.49985997  0.49386334  0.66662795  1
  I  I96  1  0.49989159  0.83470272  0.00005301  1
  I  I97  1  0.49991465  0.83387922  0.33338071  1
  I  I98  1  0.49949642  0.83254297  0.66659357  1
  I  I99  1  0.82962739  0.16809490  -0.00299214  1
  I  I100  1  0.83018746  0.16644290  0.33689210  1
  I  I101  1  0.82510940  0.16727919  0.66544062  1
  I  I102  1  0.83179514  0.49873142  -0.00026807  1
  I  I103  1  0.83010055  0.49680918  0.33758191  1
  I  I104  1  0.83041446  0.50137947  0.66291595  1
  I  I105  1  0.83391358  0.83411055  -0.00010393  1
  I  I106  1  0.83249577  0.83599852  0.33709914  1
  I  I107  1  0.83295445  0.82953333  0.66285815  1
  I  I108  1  0.00007666  0.16629444  0.16767834  1
  I  I109  1  -0.00372090  0.16753149  0.50419030  1
  I  I110  1  -0.00284003  0.16755822  0.82661981  1
  I  I111  1  0.00295760  0.50468900  0.16347428  1
  I  I112  1  -0.00292848  0.49915174  0.49999786  1
  I  I113  1  0.00225209  0.49889604  0.83675656  1
  I  I114  1  0.00390852  0.82572553  0.16749255  1
  I  I115  1  -0.00436537  0.83272415  0.49973953  1
  I  I116  1  -0.00005271  0.83317149  0.83261927  1
  I  I117  1  0.33797318  0.16873596  0.16731590  1
  I  I118  1  0.33795335  0.17358723  0.49988168  1
  I  I119  1  0.33720724  0.16919600  0.83287825  1
  I  I120  1  0.33449382  0.49973284  0.16853175  1
  I  I121  1  0.33715428  0.49414726  0.49952781  1
  I  I122  1  0.33503565  0.49405871  0.83225478  1
  I  I123  1  0.33061219  0.83114392  0.16799694  1
  I  I124  1  0.33314249  0.83376569  0.49936868  1
  I  I125  1  0.33317546  0.83905606  0.83159448  1
  I  I126  1  0.66223372  0.17384658  0.16779355  1
  I  I127  1  0.66625286  0.16764456  0.50035031  1
  I  I128  1  0.66520450  0.17297623  0.83164600  1
  I  I129  1  0.66281656  0.49481856  0.16486341  1
  I  I130  1  0.66559689  0.49887291  0.49960052  1
  I  I131  1  0.66323031  0.49735988  0.83552974  1
  I  I132  1  0.66679721  0.83294804  0.16729399  1
  I  I133  1  0.66968608  0.83328699  0.49879818  1
  I  I134  1  0.66686107  0.82765080  0.83530685  1
