# generated using pymatgen
data_Cs27Sn13Pb14I81
_symmetry_space_group_name_H-M   'P 1'
_cell_length_a   18.99033229
_cell_length_b   18.97320206
_cell_length_c   18.96871834
_cell_angle_alpha   90.00489335
_cell_angle_beta   90.00000000
_cell_angle_gamma   90.00000002
_symmetry_Int_Tables_number   1
_chemical_formula_structural   Cs27Sn13Pb14I81
_chemical_formula_sum   'Cs27 Sn13 Pb14 I81'
_cell_volume   6834.56978361
_cell_formula_units_Z   1
loop_
 _symmetry_equiv_pos_site_id
 _symmetry_equiv_pos_as_xyz
  1  'x, y, z'
loop_
 _atom_site_type_symbol
 _atom_site_label
 _atom_site_symmetry_multiplicity
 _atom_site_fract_x
 _atom_site_fract_y
 _atom_site_fract_z
 _atom_site_occupancy
  Cs  Cs0  1  -0.00000002  0.00897143  -0.00475952  1
  Cs  Cs1  1  0.00000001  -0.00184647  0.33432482  1
  Cs  Cs2  1  0.00000005  -0.00009663  0.66811241  1
  Cs  Cs3  1  0.00000006  0.33034978  0.00080697  1
  Cs  Cs4  1  -0.00000001  0.33336904  0.33299505  1
  Cs  Cs5  1  0.00000002  0.33565806  0.66518278  1
  Cs  Cs6  1  -0.00000002  0.66461379  0.00361076  1
  Cs  Cs7  1  -0.00000001  0.66857856  0.33246922  1
  Cs  Cs8  1  0.00000002  0.66576984  0.66559138  1
  Cs  Cs9  1  0.33190296  -0.00037760  -0.00103720  1
  Cs  Cs10  1  0.33351012  0.00061649  0.33433042  1
  Cs  Cs11  1  0.33132430  -0.00124608  0.66626238  1
  Cs  Cs12  1  0.33167033  0.33358342  -0.00056640  1
  Cs  Cs13  1  0.34220192  0.33088495  0.33468660  1
  Cs  Cs14  1  0.33751020  0.33476723  0.66594540  1
  Cs  Cs15  1  0.33455623  0.66718961  0.00072752  1
  Cs  Cs16  1  0.33135246  0.66684404  0.33075327  1
  Cs  Cs17  1  0.33055595  0.66736201  0.66767054  1
  Cs  Cs18  1  0.66809715  -0.00037759  -0.00103705  1
  Cs  Cs19  1  0.66648984  0.00061639  0.33433042  1
  Cs  Cs20  1  0.66867570  -0.00124613  0.66626246  1
  Cs  Cs21  1  0.66832967  0.33358341  -0.00056624  1
  Cs  Cs22  1  0.65779812  0.33088493  0.33468670  1
  Cs  Cs23  1  0.66248985  0.33476722  0.66594533  1
  Cs  Cs24  1  0.66544379  0.66718957  0.00072747  1
  Cs  Cs25  1  0.66864754  0.66684411  0.33075341  1
  Cs  Cs26  1  0.66944398  0.66736201  0.66767052  1
  Sn  Sn27  1  0.50000002  0.16661745  0.83358912  1
  Sn  Sn28  1  0.16592079  0.50037823  0.16618546  1
  Sn  Sn29  1  0.83355188  0.83400141  0.49931028  1
  Sn  Sn30  1  0.49999999  0.83276259  0.49988252  1
  Sn  Sn31  1  0.16637334  0.50025187  0.83414358  1
  Sn  Sn32  1  0.83465258  0.83308319  0.16702644  1
  Sn  Sn33  1  0.16644810  0.83400139  0.49931023  1
  Sn  Sn34  1  0.83407919  0.50037822  0.16618546  1
  Sn  Sn35  1  0.16584159  0.16629802  0.49982645  1
  Sn  Sn36  1  0.83415840  0.16629800  0.49982648  1
  Sn  Sn37  1  0.83362665  0.50025187  0.83414360  1
  Sn  Sn38  1  0.16534741  0.83308322  0.16702642  1
  Sn  Sn39  1  0.50000002  0.49963583  0.83360345  1
  Pb  Pb40  1  0.83333982  0.16674690  0.16904377  1
  Pb  Pb41  1  0.49999999  0.50298444  0.50226140  1
  Pb  Pb42  1  0.50000004  0.16629835  0.16343657  1
  Pb  Pb43  1  0.16666020  0.16674686  0.16904375  1
  Pb  Pb44  1  0.83371755  0.83145961  0.83399779  1
  Pb  Pb45  1  0.16628245  0.83145962  0.83399782  1
  Pb  Pb46  1  0.50000001  0.16436929  0.50174258  1
  Pb  Pb47  1  0.83329506  0.50000643  0.49887115  1
  Pb  Pb48  1  0.16670495  0.50000642  0.49887115  1
  Pb  Pb49  1  0.83168345  0.16944724  0.83067516  1
  Pb  Pb50  1  0.16831653  0.16944720  0.83067521  1
  Pb  Pb51  1  0.50000000  0.83336869  0.16871692  1
  Pb  Pb52  1  0.50000002  0.83326452  0.83143436  1
  Pb  Pb53  1  0.50000001  0.50003837  0.16432472  1
  I  I54  1  0.16287968  -0.00354543  0.17011256  1
  I  I55  1  0.16684975  -0.00164948  0.49517698  1
  I  I56  1  0.17004306  0.00026194  0.83532868  1
  I  I57  1  0.16210278  0.33680246  0.16280665  1
  I  I58  1  0.16159113  0.33075636  0.50194573  1
  I  I59  1  0.16436109  0.33765636  0.83774993  1
  I  I60  1  0.16333307  0.66679710  0.16909899  1
  I  I61  1  0.16556070  0.66993152  0.50025478  1
  I  I62  1  0.16969420  0.66291688  0.83083810  1
  I  I63  1  0.50000001  -0.00047282  0.16380908  1
  I  I64  1  0.49999990  -0.00331083  0.50321270  1
  I  I65  1  0.49999988  0.00252663  0.83043357  1
  I  I66  1  0.50000020  0.33358847  0.17137911  1
  I  I67  1  0.49999997  0.33310864  0.49924418  1
  I  I68  1  0.50000003  0.33478593  0.83112324  1
  I  I69  1  0.49999996  0.66667644  0.16501965  1
  I  I70  1  0.50000019  0.67093027  0.50178615  1
  I  I71  1  0.49999996  0.66332326  0.83163314  1
  I  I72  1  0.83712034  -0.00354543  0.17011257  1
  I  I73  1  0.83315032  -0.00164945  0.49517684  1
  I  I74  1  0.82995692  0.00026195  0.83532869  1
  I  I75  1  0.83789713  0.33680247  0.16280633  1
  I  I76  1  0.83840877  0.33075640  0.50194583  1
  I  I77  1  0.83563881  0.33765635  0.83775014  1
  I  I78  1  0.83666695  0.66679708  0.16909915  1
  I  I79  1  0.83443919  0.66993152  0.50025472  1
  I  I80  1  0.83030582  0.66291693  0.83083792  1
  I  I81  1  0.16900248  0.16374287  -0.00015087  1
  I  I82  1  0.16363536  0.16699535  0.33722679  1
  I  I83  1  0.16329819  0.16072553  0.66280456  1
  I  I84  1  0.16701655  0.50597730  0.00030535  1
  I  I85  1  0.15966306  0.50228315  0.32987806  1
  I  I86  1  0.16671760  0.49997380  0.66914548  1
  I  I87  1  0.16278134  0.82996239  0.00372209  1
  I  I88  1  0.16640880  0.83020708  0.33398345  1
  I  I89  1  0.16668508  0.83517822  0.66338554  1
  I  I90  1  0.50000003  0.17151916  -0.00464217  1
  I  I91  1  0.50000000  0.16664175  0.33393591  1
  I  I92  1  0.49999991  0.17288990  0.66925441  1
  I  I93  1  0.50000000  0.49742156  -0.00390037  1
  I  I94  1  0.49999996  0.49973188  0.33315310  1
  I  I95  1  0.50000005  0.49619288  0.67066223  1
  I  I96  1  0.49999989  0.83339471  -0.00001473  1
  I  I97  1  0.50000005  0.83469572  0.33705294  1
  I  I98  1  0.50000014  0.83235874  0.66304462  1
  I  I99  1  0.83099742  0.16374270  -0.00015088  1
  I  I100  1  0.83636469  0.16699564  0.33722678  1
  I  I101  1  0.83670188  0.16072553  0.66280458  1
  I  I102  1  0.83298342  0.50597759  0.00030533  1
  I  I103  1  0.84033696  0.50228296  0.32987808  1
  I  I104  1  0.83328238  0.49997370  0.66914546  1
  I  I105  1  0.83721881  0.82996231  0.00372209  1
  I  I106  1  0.83359116  0.83020711  0.33398343  1
  I  I107  1  0.83331478  0.83517832  0.66338557  1
  I  I108  1  0.00000001  0.16795370  0.16407620  1
  I  I109  1  0.00000001  0.15879811  0.50063287  1
  I  I110  1  -0.00000001  0.16780720  0.83335722  1
  I  I111  1  -0.00000003  0.50498938  0.15804706  1
  I  I112  1  0.00000002  0.50200673  0.50697293  1
  I  I113  1  0.00000002  0.50223754  0.83639926  1
  I  I114  1  -0.00000001  0.82619270  0.17709694  1
  I  I115  1  0.00000002  0.83714275  0.49601218  1
  I  I116  1  0.00000001  0.83149505  0.82655004  1
  I  I117  1  0.33301145  0.16721821  0.17052357  1
  I  I118  1  0.33087520  0.16284386  0.50126330  1
  I  I119  1  0.33604197  0.17278135  0.83008531  1
  I  I120  1  0.32998512  0.50498713  0.16350299  1
  I  I121  1  0.33313340  0.49953911  0.50073220  1
  I  I122  1  0.33297851  0.49660272  0.83563302  1
  I  I123  1  0.32973842  0.82834923  0.17082214  1
  I  I124  1  0.33183675  0.83659312  0.49775299  1
  I  I125  1  0.33316159  0.83014871  0.83189044  1
  I  I126  1  0.66698851  0.16721802  0.17052359  1
  I  I127  1  0.66912481  0.16284380  0.50126337  1
  I  I128  1  0.66395803  0.17278115  0.83008510  1
  I  I129  1  0.67001486  0.50498725  0.16350298  1
  I  I130  1  0.66686662  0.49953904  0.50073214  1
  I  I131  1  0.66702147  0.49660285  0.83563304  1
  I  I132  1  0.67026161  0.82834926  0.17082200  1
  I  I133  1  0.66816327  0.83659331  0.49775289  1
  I  I134  1  0.66683838  0.83014869  0.83189073  1
