# generated using pymatgen
data_Cs27Sn14Pb13I81
_symmetry_space_group_name_H-M   'P 1'
_cell_length_a   18.98061289
_cell_length_b   18.98043639
_cell_length_c   18.96869512
_cell_angle_alpha   90.00083663
_cell_angle_beta   90.00142366
_cell_angle_gamma   90.00090822
_symmetry_Int_Tables_number   1
_chemical_formula_structural   Cs27Sn14Pb13I81
_chemical_formula_sum   'Cs27 Sn14 Pb13 I81'
_cell_volume   6833.66809071
_cell_formula_units_Z   1
loop_
 _symmetry_equiv_pos_site_id
 _symmetry_equiv_pos_as_xyz
  1  'x, y, z'
loop_
 _atom_site_type_symbol
 _atom_site_label
 _atom_site_symmetry_multiplicity
 _atom_site_fract_x
 _atom_site_fract_y
 _atom_site_fract_z
 _atom_site_occupancy
  Cs  Cs0  1  0.00270622  0.00226250  0.00066925  1
  Cs  Cs1  1  -0.00083053  -0.00030966  0.33478323  1
  Cs  Cs2  1  -0.00326933  -0.00547759  0.66419399  1
  Cs  Cs3  1  0.00821957  0.33567708  -0.00582744  1
  Cs  Cs4  1  -0.00194466  0.33204950  0.33161291  1
  Cs  Cs5  1  -0.00055927  0.33418370  0.67127054  1
  Cs  Cs6  1  0.00235639  0.66308178  -0.00071046  1
  Cs  Cs7  1  -0.00066538  0.66879287  0.33347039  1
  Cs  Cs8  1  -0.00175201  0.67086179  0.66820448  1
  Cs  Cs9  1  0.33509126  -0.00187608  -0.00421274  1
  Cs  Cs10  1  0.33415700  0.00040451  0.33381503  1
  Cs  Cs11  1  0.33385238  0.00071550  0.66657535  1
  Cs  Cs12  1  0.32478322  0.33317582  -0.00149163  1
  Cs  Cs13  1  0.33379452  0.33314807  0.33456831  1
  Cs  Cs14  1  0.33515840  0.33307231  0.66472471  1
  Cs  Cs15  1  0.33298697  0.66872502  -0.00003666  1
  Cs  Cs16  1  0.33537072  0.66652999  0.33426593  1
  Cs  Cs17  1  0.33305461  0.66504410  0.66195041  1
  Cs  Cs18  1  0.66250034  -0.00187954  -0.00381308  1
  Cs  Cs19  1  0.66735692  0.00328739  0.33162131  1
  Cs  Cs20  1  0.66732615  -0.00087874  0.67439879  1
  Cs  Cs21  1  0.66815093  0.33404841  0.00122816  1
  Cs  Cs22  1  0.66708784  0.33327083  0.33401211  1
  Cs  Cs23  1  0.66610263  0.33313857  0.66586856  1
  Cs  Cs24  1  0.66492704  0.66843133  0.00099524  1
  Cs  Cs25  1  0.66623692  0.66297216  0.33075656  1
  Cs  Cs26  1  0.66897281  0.66547422  0.66938380  1
  Sn  Sn27  1  0.16668228  0.83335134  0.83412519  1
  Sn  Sn28  1  0.83455687  0.49921573  0.49919887  1
  Sn  Sn29  1  0.83410858  0.83355114  0.16683834  1
  Sn  Sn30  1  0.83274829  0.16708688  0.16679364  1
  Sn  Sn31  1  0.16611226  0.83342934  0.16618510  1
  Sn  Sn32  1  0.16618446  0.16762739  0.49964129  1
  Sn  Sn33  1  0.50090697  0.83457479  0.49962644  1
  Sn  Sn34  1  0.83302064  0.49937657  0.16724702  1
  Sn  Sn35  1  0.50059185  0.16540304  0.49919260  1
  Sn  Sn36  1  0.50026892  0.49867712  0.16545291  1
  Sn  Sn37  1  0.83324239  0.16751976  0.49953911  1
  Sn  Sn38  1  0.16493627  0.49910209  0.49939034  1
  Sn  Sn39  1  0.50002777  0.49955158  0.83502872  1
  Sn  Sn40  1  0.50044234  0.16778699  0.16715354  1
  Pb  Pb41  1  0.83150210  0.49986146  0.83362123  1
  Pb  Pb42  1  0.16662784  0.16425595  0.82984421  1
  Pb  Pb43  1  0.16663878  0.50176011  0.16872062  1
  Pb  Pb44  1  0.83332024  0.16679009  0.83391223  1
  Pb  Pb45  1  0.16891286  0.50180318  0.83017716  1
  Pb  Pb46  1  0.83067607  0.83336111  0.49798469  1
  Pb  Pb47  1  0.50029969  0.83364315  0.16793488  1
  Pb  Pb48  1  0.83551596  0.83323210  0.83701797  1
  Pb  Pb49  1  0.49825071  0.83098276  0.83049453  1
  Pb  Pb50  1  0.50085508  0.49918594  0.49918391  1
  Pb  Pb51  1  0.16800403  0.83351239  0.49946077  1
  Pb  Pb52  1  0.16680060  0.16464180  0.16851830  1
  Pb  Pb53  1  0.49998437  0.16898111  0.83396693  1
  I  I54  1  0.16320643  -0.00323441  0.16666883  1
  I  I55  1  0.16521075  0.00270587  0.49955940  1
  I  I56  1  0.16850748  -0.00343168  0.83669046  1
  I  I57  1  0.16557522  0.33325214  0.16634518  1
  I  I58  1  0.16995643  0.33299248  0.49881831  1
  I  I59  1  0.16731043  0.33350036  0.83421528  1
  I  I60  1  0.16357723  0.66966235  0.16700452  1
  I  I61  1  0.16558962  0.66449435  0.49978407  1
  I  I62  1  0.16782600  0.66944818  0.83520169  1
  I  I63  1  0.50273818  0.00275185  0.17115959  1
  I  I64  1  0.49765078  0.00198841  0.49365991  1
  I  I65  1  0.49868969  -0.00002648  0.83457357  1
  I  I66  1  0.50771488  0.33316949  0.17010984  1
  I  I67  1  0.49910552  0.33037866  0.49939406  1
  I  I68  1  0.49978202  0.33666293  0.83084152  1
  I  I69  1  0.50297075  0.66428429  0.16631115  1
  I  I70  1  0.49752614  0.66775618  0.49949855  1
  I  I71  1  0.49982861  0.66339705  0.83754317  1
  I  I72  1  0.83363098  0.00097475  0.17208478  1
  I  I73  1  0.83660382  0.00311389  0.49544199  1
  I  I74  1  0.83308732  -0.00013349  0.83093868  1
  I  I75  1  0.82603786  0.33337246  0.17300307  1
  I  I76  1  0.83166726  0.33302518  0.49234302  1
  I  I77  1  0.83368271  0.33346897  0.83609091  1
  I  I78  1  0.83249840  0.66559058  0.17132437  1
  I  I79  1  0.83594243  0.66385390  0.49578995  1
  I  I80  1  0.83250540  0.66657662  0.83066269  1
  I  I81  1  0.16680583  0.16669718  0.00018803  1
  I  I82  1  0.16756834  0.16729674  0.33682769  1
  I  I83  1  0.16830173  0.16868007  0.66136214  1
  I  I84  1  0.16490786  0.50027815  0.00013276  1
  I  I85  1  0.16899474  0.49943584  0.33667105  1
  I  I86  1  0.16402553  0.49903302  0.66216121  1
  I  I87  1  0.16340054  0.83228185  0.00122156  1
  I  I88  1  0.16382125  0.83317992  0.33105395  1
  I  I89  1  0.17135008  0.83285557  0.66799310  1
  I  I90  1  0.50616865  0.16739877  0.00382758  1
  I  I91  1  0.50074174  0.16879400  0.33378919  1
  I  I92  1  0.49982938  0.16453500  0.66315628  1
  I  I93  1  0.50618743  0.49658005  0.00238579  1
  I  I94  1  0.50117542  0.49993523  0.33063710  1
  I  I95  1  0.49830287  0.50186758  0.66771775  1
  I  I96  1  0.50094485  0.83512093  0.00014222  1
  I  I97  1  0.49614642  0.83188672  0.33567717  1
  I  I98  1  0.49713579  0.83736920  0.66260577  1
  I  I99  1  0.82715554  0.16624060  0.00455003  1
  I  I100  1  0.83225502  0.16738982  0.33348391  1
  I  I101  1  0.83244328  0.17152545  0.66262559  1
  I  I102  1  0.83037375  0.50004460  0.00393283  1
  I  I103  1  0.83039139  0.49969192  0.33283013  1
  I  I104  1  0.83462403  0.49553023  0.66317671  1
  I  I105  1  0.83194556  0.83298577  0.00538021  1
  I  I106  1  0.84031885  0.83295096  0.32997477  1
  I  I107  1  0.83394634  0.83302716  0.66644184  1
  I  I108  1  -0.00313752  0.16779055  0.17160951  1
  I  I109  1  -0.00085671  0.17064891  0.49539321  1
  I  I110  1  0.00012534  0.16742477  0.83448286  1
  I  I111  1  -0.00312527  0.49821234  0.17013938  1
  I  I112  1  -0.00108819  0.49384549  0.49427891  1
  I  I113  1  0.00023447  0.50111106  0.83489118  1
  I  I114  1  -0.00076223  0.83305594  0.16466904  1
  I  I115  1  -0.00035837  0.83502952  0.50194081  1
  I  I116  1  0.00333341  0.83214043  0.83063880  1
  I  I117  1  0.33627776  0.16969678  0.17224421  1
  I  I118  1  0.33403787  0.16663437  0.49631583  1
  I  I119  1  0.33335943  0.16684367  0.83301612  1
  I  I120  1  0.33617352  0.49783265  0.16598373  1
  I  I121  1  0.33198193  0.49861712  0.50057475  1
  I  I122  1  0.33656915  0.50070589  0.83770009  1
  I  I123  1  0.33137326  0.83276226  0.16572299  1
  I  I124  1  0.33579998  0.83547851  0.49755138  1
  I  I125  1  0.33065257  0.83262469  0.84063105  1
  I  I126  1  0.66689480  0.16561700  0.17548701  1
  I  I127  1  0.66683254  0.16780145  0.49497268  1
  I  I128  1  0.66647988  0.16550042  0.82762844  1
  I  I129  1  0.66717498  0.50223720  0.16957900  1
  I  I130  1  0.66939997  0.49812381  0.49883448  1
  I  I131  1  0.66362965  0.50126647  0.83099565  1
  I  I132  1  0.66926902  0.83250059  0.17111092  1
  I  I133  1  0.66310037  0.83535867  0.49726588  1
  I  I134  1  0.66655395  0.83274152  0.83280958  1
