# generated using pymatgen
data_Cs27Sn13Pb14I81
_symmetry_space_group_name_H-M   'P 1'
_cell_length_a   18.97736679
_cell_length_b   18.97749278
_cell_length_c   18.97653683
_cell_angle_alpha   90.00183618
_cell_angle_beta   89.99834252
_cell_angle_gamma   89.99951270
_symmetry_Int_Tables_number   1
_chemical_formula_structural   Cs27Sn13Pb14I81
_chemical_formula_sum   'Cs27 Sn13 Pb14 I81'
_cell_volume   6834.26388473
_cell_formula_units_Z   1
loop_
 _symmetry_equiv_pos_site_id
 _symmetry_equiv_pos_as_xyz
  1  'x, y, z'
loop_
 _atom_site_type_symbol
 _atom_site_label
 _atom_site_symmetry_multiplicity
 _atom_site_fract_x
 _atom_site_fract_y
 _atom_site_fract_z
 _atom_site_occupancy
  Cs  Cs0  1  -0.00110167  0.00200492  -0.00323270  1
  Cs  Cs1  1  -0.00170242  -0.00043233  0.33198736  1
  Cs  Cs2  1  0.00151561  0.00035806  0.66751386  1
  Cs  Cs3  1  0.00146000  0.33302738  -0.00117745  1
  Cs  Cs4  1  0.00049080  0.33207481  0.33371152  1
  Cs  Cs5  1  -0.00049491  0.33141888  0.66752934  1
  Cs  Cs6  1  0.00509945  0.66486590  0.00048731  1
  Cs  Cs7  1  -0.00218368  0.66928158  0.33344230  1
  Cs  Cs8  1  -0.00410235  0.66835432  0.66630748  1
  Cs  Cs9  1  0.33892066  -0.00410589  -0.00067052  1
  Cs  Cs10  1  0.33392443  -0.00032231  0.33545972  1
  Cs  Cs11  1  0.33142396  0.00012310  0.66536793  1
  Cs  Cs12  1  0.33145324  0.33709575  -0.00314650  1
  Cs  Cs13  1  0.33405537  0.33445961  0.33575898  1
  Cs  Cs14  1  0.33434946  0.33177924  0.66459665  1
  Cs  Cs15  1  0.33389552  0.66606283  0.00219109  1
  Cs  Cs16  1  0.33231586  0.66493640  0.33321423  1
  Cs  Cs17  1  0.33380230  0.66857996  0.66519443  1
  Cs  Cs18  1  0.66191999  -0.00117985  0.00578430  1
  Cs  Cs19  1  0.66855339  0.00127896  0.32439320  1
  Cs  Cs20  1  0.66662787  0.00077605  0.66813345  1
  Cs  Cs21  1  0.66524652  0.33412959  0.00267687  1
  Cs  Cs22  1  0.66483685  0.33389765  0.33022512  1
  Cs  Cs23  1  0.66730112  0.33344323  0.66908316  1
  Cs  Cs24  1  0.66068233  0.66528641  -0.00171996  1
  Cs  Cs25  1  0.66955046  0.66513941  0.33482235  1
  Cs  Cs26  1  0.67006771  0.66504502  0.66651297  1
  Sn  Sn27  1  0.83375423  0.16658207  0.50035313  1
  Sn  Sn28  1  0.50054569  0.49996132  0.16768643  1
  Sn  Sn29  1  0.49946648  0.50095340  0.49958443  1
  Sn  Sn30  1  0.16584399  0.83405773  0.83251458  1
  Sn  Sn31  1  0.16573464  0.16651443  0.49992966  1
  Sn  Sn32  1  0.16697585  0.16623733  0.16652977  1
  Sn  Sn33  1  0.83396614  0.83413561  0.83353716  1
  Sn  Sn34  1  0.16622084  0.16571086  0.83336039  1
  Sn  Sn35  1  0.16699680  0.83332287  0.50057563  1
  Sn  Sn36  1  0.16672544  0.50025844  0.50020874  1
  Sn  Sn37  1  0.49994761  0.83281709  0.50001547  1
  Sn  Sn38  1  0.83377317  0.16560311  0.83269689  1
  Sn  Sn39  1  0.83326125  0.50016943  0.16664860  1
  Pb  Pb40  1  0.50036860  0.16653766  0.49998408  1
  Pb  Pb41  1  0.49981673  0.50004333  0.83242729  1
  Pb  Pb42  1  0.49983425  0.83074571  0.16992745  1
  Pb  Pb43  1  0.83514364  0.16812099  0.16604487  1
  Pb  Pb44  1  0.49992003  0.16653109  0.83336794  1
  Pb  Pb45  1  0.83352924  0.49970233  0.83584910  1
  Pb  Pb46  1  0.49969785  0.83337927  0.83079888  1
  Pb  Pb47  1  0.83317294  0.49763778  0.49870352  1
  Pb  Pb48  1  0.49677364  0.16916408  0.16668339  1
  Pb  Pb49  1  0.16661650  0.50029932  0.83027208  1
  Pb  Pb50  1  0.83325030  0.83586985  0.50135636  1
  Pb  Pb51  1  0.16681902  0.49819772  0.16913981  1
  Pb  Pb52  1  0.16654079  0.83583843  0.16662357  1
  Pb  Pb53  1  0.83360396  0.83081309  0.16307147  1
  I  I54  1  0.16426718  0.00388028  0.17208323  1
  I  I55  1  0.16781417  0.00028068  0.50102242  1
  I  I56  1  0.16235065  0.00061206  0.82775877  1
  I  I57  1  0.16638933  0.33022322  0.16633675  1
  I  I58  1  0.16730469  0.33250596  0.49956123  1
  I  I59  1  0.16237800  0.32990210  0.83297788  1
  I  I60  1  0.16720542  0.66645446  0.16609274  1
  I  I61  1  0.17171205  0.66713444  0.50381582  1
  I  I62  1  0.16254798  0.67016329  0.82892083  1
  I  I63  1  0.50000300  -0.00004937  0.16734677  1
  I  I64  1  0.49479776  -0.00269832  0.50308777  1
  I  I65  1  0.49975138  -0.00017265  0.83108931  1
  I  I66  1  0.50415171  0.33704780  0.17496535  1
  I  I67  1  0.49580076  0.33633170  0.49571657  1
  I  I68  1  0.49970463  0.33330885  0.83094736  1
  I  I69  1  0.50215659  0.66269234  0.16781704  1
  I  I70  1  0.49128819  0.66618311  0.49667712  1
  I  I71  1  0.50008612  0.66686728  0.83542688  1
  I  I72  1  0.83449397  0.00020243  0.16908160  1
  I  I73  1  0.83792301  0.00375097  0.50097203  1
  I  I74  1  0.83924512  0.00095727  0.82842994  1
  I  I75  1  0.82974337  0.33590482  0.16617461  1
  I  I76  1  0.83844522  0.32979749  0.50554657  1
  I  I77  1  0.83855732  0.32978186  0.83009739  1
  I  I78  1  0.83054211  0.66293505  0.16830142  1
  I  I79  1  0.83581960  0.66676167  0.50066779  1
  I  I80  1  0.83796126  0.66967708  0.83373898  1
  I  I81  1  0.16206970  0.16403436  -0.00137529  1
  I  I82  1  0.16322336  0.16788881  0.33518110  1
  I  I83  1  0.16292627  0.16642431  0.66604171  1
  I  I84  1  0.16763340  0.49910877  0.00007986  1
  I  I85  1  0.16815822  0.49932759  0.33734962  1
  I  I86  1  0.17236027  0.49520289  0.66207120  1
  I  I87  1  0.16204248  0.83747794  -0.00355038  1
  I  I88  1  0.17106769  0.83390864  0.33700591  1
  I  I89  1  0.16738579  0.83762843  0.66572363  1
  I  I90  1  0.50010832  0.16926709  0.00012719  1
  I  I91  1  0.50017843  0.16460627  0.33359391  1
  I  I92  1  0.49685829  0.17039351  0.66634293  1
  I  I93  1  0.50449770  0.49780301  0.00305709  1
  I  I94  1  0.49929927  0.50332884  0.33461189  1
  I  I95  1  0.49502526  0.50298817  0.66253522  1
  I  I96  1  0.49939310  0.83181453  -0.00003613  1
  I  I97  1  0.49271388  0.83268392  0.33796561  1
  I  I98  1  0.49731391  0.82645370  0.66288272  1
  I  I99  1  0.83888052  0.16514353  -0.00328522  1
  I  I100  1  0.83819700  0.16868704  0.33573746  1
  I  I101  1  0.84124601  0.16516510  0.66684730  1
  I  I102  1  0.82708602  0.49780955  0.00355934  1
  I  I103  1  0.83243133  0.49699282  0.33101090  1
  I  I104  1  0.83281978  0.50040017  0.66665928  1
  I  I105  1  0.84048208  0.84071054  -0.00488822  1
  I  I106  1  0.83331672  0.83449503  0.33343130  1
  I  I107  1  0.83509898  0.83394431  0.66942040  1
  I  I108  1  0.00302861  0.17082941  0.16809946  1
  I  I109  1  0.00196444  0.16770749  0.50063319  1
  I  I110  1  0.00104488  0.16319531  0.83191941  1
  I  I111  1  -0.00185135  0.49757786  0.16714077  1
  I  I112  1  0.00282671  0.50130548  0.49836329  1
  I  I113  1  0.00015089  0.50015149  0.83479455  1
  I  I114  1  0.00014989  0.82880348  0.17252968  1
  I  I115  1  0.00327452  0.83072657  0.50189434  1
  I  I116  1  0.00123860  0.83742415  0.82690327  1
  I  I117  1  0.32870072  0.16835396  0.16845712  1
  I  I118  1  0.32979186  0.16735304  0.50106919  1
  I  I119  1  0.32906660  0.16323930  0.83133606  1
  I  I120  1  0.33580072  0.49789490  0.16992467  1
  I  I121  1  0.33281163  0.49847460  0.49473073  1
  I  I122  1  0.33296645  0.49897755  0.83853926  1
  I  I123  1  0.33311963  0.83177324  0.16162185  1
  I  I124  1  0.33143427  0.83445458  0.50515852  1
  I  I125  1  0.32976251  0.83851278  0.83084480  1
  I  I126  1  0.66672014  0.16676906  0.16735549  1
  I  I127  1  0.66977111  0.16769613  0.50556603  1
  I  I128  1  0.67049371  0.16382468  0.82719185  1
  I  I129  1  0.66588739  0.49892006  0.17288144  1
  I  I130  1  0.66390375  0.50342172  0.49775469  1
  I  I131  1  0.66686111  0.49989290  0.82905076  1
  I  I132  1  0.66669437  0.83645665  0.16683398  1
  I  I133  1  0.66432038  0.82823885  0.50219603  1
  I  I134  1  0.66960461  0.83731698  0.83211789  1
