# generated using pymatgen
data_Cs27Sn14Pb13I81
_symmetry_space_group_name_H-M   'P 1'
_cell_length_a   18.96264088
_cell_length_b   18.95682803
_cell_length_c   18.96528792
_cell_angle_alpha   90.00080931
_cell_angle_beta   89.99974932
_cell_angle_gamma   90.00198893
_symmetry_Int_Tables_number   1
_chemical_formula_structural   Cs27Sn14Pb13I81
_chemical_formula_sum   'Cs27 Sn14 Pb13 I81'
_cell_volume   6817.48091057
_cell_formula_units_Z   1
loop_
 _symmetry_equiv_pos_site_id
 _symmetry_equiv_pos_as_xyz
  1  'x, y, z'
loop_
 _atom_site_type_symbol
 _atom_site_label
 _atom_site_symmetry_multiplicity
 _atom_site_fract_x
 _atom_site_fract_y
 _atom_site_fract_z
 _atom_site_occupancy
  Cs  Cs0  1  0.00117439  -0.00327782  0.00117514  1
  Cs  Cs1  1  0.00328622  0.00031123  0.33342049  1
  Cs  Cs2  1  -0.00226175  0.00036663  0.66608178  1
  Cs  Cs3  1  0.00128384  0.33384393  0.00033455  1
  Cs  Cs4  1  -0.00022934  0.33284708  0.33367074  1
  Cs  Cs5  1  -0.00088824  0.33543697  0.66637603  1
  Cs  Cs6  1  -0.00313262  0.66763881  0.00309260  1
  Cs  Cs7  1  -0.00179704  0.66674478  0.33415779  1
  Cs  Cs8  1  0.00325843  0.66377031  0.66458201  1
  Cs  Cs9  1  0.33003282  0.00188417  0.00084397  1
  Cs  Cs10  1  0.33106400  -0.00002831  0.33286749  1
  Cs  Cs11  1  0.33450160  -0.00068239  0.66626392  1
  Cs  Cs12  1  0.33422279  0.33158317  -0.00184369  1
  Cs  Cs13  1  0.33411458  0.33164746  0.33365227  1
  Cs  Cs14  1  0.33310550  0.33483663  0.66766786  1
  Cs  Cs15  1  0.33531385  0.66779587  0.00196161  1
  Cs  Cs16  1  0.33670323  0.66885236  0.33268078  1
  Cs  Cs17  1  0.33115163  0.66595752  0.66632490  1
  Cs  Cs18  1  0.67012102  -0.00451750  -0.00536774  1
  Cs  Cs19  1  0.66445167  0.00271074  0.33729120  1
  Cs  Cs20  1  0.66884528  -0.00137565  0.66866157  1
  Cs  Cs21  1  0.66484858  0.33466511  0.00112566  1
  Cs  Cs22  1  0.66674951  0.33376090  0.33270154  1
  Cs  Cs23  1  0.66733309  0.33179155  0.66621609  1
  Cs  Cs24  1  0.66905926  0.67023455  0.00635721  1
  Cs  Cs25  1  0.66622160  0.66560432  0.32854162  1
  Cs  Cs26  1  0.66580089  0.66785380  0.66629909  1
  Sn  Sn27  1  0.83385097  0.83244474  0.50015604  1
  Sn  Sn28  1  0.83247843  0.16652489  0.16643677  1
  Sn  Sn29  1  0.16701711  0.16598756  0.83214329  1
  Sn  Sn30  1  0.50126047  0.16679237  0.16627822  1
  Sn  Sn31  1  0.49915439  0.16754345  0.50047120  1
  Sn  Sn32  1  0.49947929  0.16731546  0.83310781  1
  Sn  Sn33  1  0.83215455  0.49985707  0.83279884  1
  Sn  Sn34  1  0.16680277  0.83411241  0.83240424  1
  Sn  Sn35  1  0.50124147  0.49961397  0.83257310  1
  Sn  Sn36  1  0.16735757  0.16616181  0.50117066  1
  Sn  Sn37  1  0.83222478  0.50081581  0.50077954  1
  Sn  Sn38  1  0.16692379  0.49997152  0.16684296  1
  Sn  Sn39  1  0.50097180  0.49924357  0.50090405  1
  Sn  Sn40  1  0.16591246  0.83426873  0.50104471  1
  Pb  Pb41  1  0.50006250  0.83710450  0.16649431  1
  Pb  Pb42  1  0.49985384  0.83316838  0.50010751  1
  Pb  Pb43  1  0.16709209  0.49996456  0.83504745  1
  Pb  Pb44  1  0.83347797  0.16842323  0.83530985  1
  Pb  Pb45  1  0.83583634  0.83034457  0.83104314  1
  Pb  Pb46  1  0.83331638  0.83646216  0.16977386  1
  Pb  Pb47  1  0.83477042  0.49842649  0.16697709  1
  Pb  Pb48  1  0.83333023  0.16695960  0.49884850  1
  Pb  Pb49  1  0.16700630  0.16785650  0.16658538  1
  Pb  Pb50  1  0.49785388  0.83305582  0.83325037  1
  Pb  Pb51  1  0.16713942  0.49990029  0.49839803  1
  Pb  Pb52  1  0.16667461  0.83060410  0.16702827  1
  Pb  Pb53  1  0.49829426  0.49824379  0.16657422  1
  I  I54  1  0.16700875  0.00008202  0.16691375  1
  I  I55  1  0.16644570  0.00087829  0.50209081  1
  I  I56  1  0.17210660  0.00150102  0.83064406  1
  I  I57  1  0.16626100  0.33523861  0.16689733  1
  I  I58  1  0.16750527  0.33054038  0.50245485  1
  I  I59  1  0.16813352  0.33054069  0.83065570  1
  I  I60  1  0.16592472  0.66313126  0.16627088  1
  I  I61  1  0.16564167  0.66901776  0.50272676  1
  I  I62  1  0.16612106  0.66883491  0.82964078  1
  I  I63  1  0.50114920  0.00572086  0.16838885  1
  I  I64  1  0.49918685  0.00351198  0.49960187  1
  I  I65  1  0.49755761  0.00370916  0.83283074  1
  I  I66  1  0.50189006  0.32993648  0.16739088  1
  I  I67  1  0.49968064  0.33260460  0.50023268  1
  I  I68  1  0.49705153  0.33248202  0.83256709  1
  I  I69  1  0.49725403  0.66630749  0.16728347  1
  I  I70  1  0.49949336  0.66335405  0.50466890  1
  I  I71  1  0.50078824  0.66310285  0.82752442  1
  I  I72  1  0.83054402  0.00429278  0.16705363  1
  I  I73  1  0.83513354  -0.00186588  0.49665966  1
  I  I74  1  0.83133906  -0.00010288  0.83340802  1
  I  I75  1  0.83088591  0.33070022  0.16976441  1
  I  I76  1  0.83304939  0.33601955  0.50158866  1
  I  I77  1  0.83515129  0.33642533  0.82678206  1
  I  I78  1  0.83621488  0.66661954  0.16511814  1
  I  I79  1  0.83518459  0.66566422  0.50371988  1
  I  I80  1  0.82928837  0.66230624  0.83289135  1
  I  I81  1  0.16956776  0.16510108  -0.00277423  1
  I  I82  1  0.16931994  0.16443211  0.33613943  1
  I  I83  1  0.17349186  0.16409627  0.66635502  1
  I  I84  1  0.16640031  0.49777793  0.00219654  1
  I  I85  1  0.16620740  0.49774089  0.33124161  1
  I  I86  1  0.16598941  0.50002730  0.66662258  1
  I  I87  1  0.16823094  0.83758515  -0.00293382  1
  I  I88  1  0.16350924  0.83748493  0.33695354  1
  I  I89  1  0.16347019  0.83674470  0.66574424  1
  I  I90  1  0.49829864  0.17156213  -0.00124931  1
  I  I91  1  0.49957735  0.17040771  0.33459139  1
  I  I92  1  0.49426584  0.17121334  0.66650035  1
  I  I93  1  0.50117072  0.49516983  -0.00303015  1
  I  I94  1  0.50215603  0.49598280  0.33639067  1
  I  I95  1  0.50265524  0.49180856  0.66633438  1
  I  I96  1  0.49718237  0.83163183  -0.00037159  1
  I  I97  1  0.49707301  0.83254708  0.33376834  1
  I  I98  1  0.50144487  0.83767314  0.66651500  1
  I  I99  1  0.83055608  0.17065259  0.00291005  1
  I  I100  1  0.83026454  0.16882512  0.33114268  1
  I  I101  1  0.83220195  0.16559902  0.66667413  1
  I  I102  1  0.83152891  0.49662119  -0.00250760  1
  I  I103  1  0.83081370  0.50217837  0.33659713  1
  I  I104  1  0.83127929  0.50159374  0.66576161  1
  I  I105  1  0.83509634  0.83222224  -0.00024211  1
  I  I106  1  0.84045573  0.82636759  0.33772502  1
  I  I107  1  0.83512817  0.83412564  0.66303851  1
  I  I108  1  -0.00156106  0.16961393  0.16800343  1
  I  I109  1  0.00268858  0.16643901  0.50155708  1
  I  I110  1  0.00299727  0.16553287  0.83067529  1
  I  I111  1  0.00232756  0.49572682  0.16631968  1
  I  I112  1  -0.00222543  0.50011271  0.50232198  1
  I  I113  1  -0.00195194  0.49958963  0.83032974  1
  I  I114  1  0.00006776  0.83604879  0.16499102  1
  I  I115  1  0.00093710  0.83330395  0.50343961  1
  I  I116  1  0.00381179  0.83879841  0.83156047  1
  I  I117  1  0.33600017  0.16933478  0.16700026  1
  I  I118  1  0.33372444  0.16711823  0.49795084  1
  I  I119  1  0.33377835  0.16910512  0.83487489  1
  I  I120  1  0.33087333  0.49705241  0.16689607  1
  I  I121  1  0.33613226  0.49820481  0.50287786  1
  I  I122  1  0.33617742  0.49806013  0.83005460  1
  I  I123  1  0.33299759  0.83354088  0.16947248  1
  I  I124  1  0.33024307  0.83432554  0.50311602  1
  I  I125  1  0.32968309  0.83252351  0.82631005  1
  I  I126  1  0.66534592  0.16939002  0.16885864  1
  I  I127  1  0.66376202  0.16739563  0.50119742  1
  I  I128  1  0.66349087  0.16963577  0.83087502  1
  I  I129  1  0.66643902  0.49946021  0.16692235  1
  I  I130  1  0.66629528  0.49883833  0.50285648  1
  I  I131  1  0.66570980  0.49291334  0.82932511  1
  I  I132  1  0.66691322  0.82931974  0.16809302  1
  I  I133  1  0.66920863  0.83305871  0.49867167  1
  I  I134  1  0.66693429  0.83640733  0.83189999  1
