# generated using pymatgen
data_Cs27Sn13Pb14I81
_symmetry_space_group_name_H-M   'P 1'
_cell_length_a   18.99661953
_cell_length_b   18.98761911
_cell_length_c   18.99257476
_cell_angle_alpha   90.00294475
_cell_angle_beta   89.99957341
_cell_angle_gamma   89.99663094
_symmetry_Int_Tables_number   1
_chemical_formula_structural   Cs27Sn13Pb14I81
_chemical_formula_sum   'Cs27 Sn13 Pb14 I81'
_cell_volume   6850.63263316
_cell_formula_units_Z   1
loop_
 _symmetry_equiv_pos_site_id
 _symmetry_equiv_pos_as_xyz
  1  'x, y, z'
loop_
 _atom_site_type_symbol
 _atom_site_label
 _atom_site_symmetry_multiplicity
 _atom_site_fract_x
 _atom_site_fract_y
 _atom_site_fract_z
 _atom_site_occupancy
  Cs  Cs0  1  0.00029254  0.00380369  0.00648787  1
  Cs  Cs1  1  0.00991016  0.00828576  0.32061983  1
  Cs  Cs2  1  -0.00008981  -0.00413833  0.66873550  1
  Cs  Cs3  1  0.00073927  0.33322349  -0.00061004  1
  Cs  Cs4  1  0.00151299  0.33109196  0.34055353  1
  Cs  Cs5  1  -0.00428528  0.33320322  0.66183719  1
  Cs  Cs6  1  -0.00047749  0.66549490  -0.00126903  1
  Cs  Cs7  1  0.00035343  0.66355573  0.33867098  1
  Cs  Cs8  1  0.00013662  0.66822641  0.66447170  1
  Cs  Cs9  1  0.33224300  -0.00092314  -0.00044328  1
  Cs  Cs10  1  0.32721397  0.00408807  0.33216810  1
  Cs  Cs11  1  0.33287452  -0.00099958  0.66630539  1
  Cs  Cs12  1  0.33424208  0.33560655  -0.00145487  1
  Cs  Cs13  1  0.33405112  0.33079399  0.33432526  1
  Cs  Cs14  1  0.33578491  0.33169448  0.66846589  1
  Cs  Cs15  1  0.33337541  0.66474088  -0.00096308  1
  Cs  Cs16  1  0.33428107  0.66763976  0.33355164  1
  Cs  Cs17  1  0.33351388  0.66875776  0.66781962  1
  Cs  Cs18  1  0.66900737  -0.00070156  0.00139341  1
  Cs  Cs19  1  0.66662356  -0.00326595  0.33238069  1
  Cs  Cs20  1  0.66623883  -0.00115572  0.66667056  1
  Cs  Cs21  1  0.66548363  0.33552304  -0.00184828  1
  Cs  Cs22  1  0.66503199  0.33298166  0.33806826  1
  Cs  Cs23  1  0.66725479  0.32968838  0.66526517  1
  Cs  Cs24  1  0.66622636  0.66568778  0.00022439  1
  Cs  Cs25  1  0.66660126  0.66847671  0.33362972  1
  Cs  Cs26  1  0.66625760  0.66795502  0.66732779  1
  Sn  Sn27  1  0.83336005  0.49991984  0.16637250  1
  Sn  Sn28  1  0.16540212  0.49906926  0.83367866  1
  Sn  Sn29  1  0.83246440  0.83246050  0.83302468  1
  Sn  Sn30  1  0.50065672  0.83255389  0.50067784  1
  Sn  Sn31  1  0.49946775  0.16527560  0.83438220  1
  Sn  Sn32  1  0.16719711  0.16770942  0.83305571  1
  Sn  Sn33  1  0.50012398  0.49930343  0.16787115  1
  Sn  Sn34  1  0.50065060  0.16744908  0.16555310  1
  Sn  Sn35  1  0.49998539  0.50090945  0.49912983  1
  Sn  Sn36  1  0.16657156  0.50005336  0.16607685  1
  Sn  Sn37  1  0.83422844  0.50066017  0.83380837  1
  Sn  Sn38  1  0.83288284  0.83379844  0.50015827  1
  Sn  Sn39  1  0.50083664  0.83446166  0.83295569  1
  Pb  Pb40  1  0.16921246  0.16985732  0.16409052  1
  Pb  Pb41  1  0.49984432  0.83335917  0.16662890  1
  Pb  Pb42  1  0.50029646  0.50013841  0.83331763  1
  Pb  Pb43  1  0.16662811  0.83010541  0.16645596  1
  Pb  Pb44  1  0.50007323  0.16568645  0.50011377  1
  Pb  Pb45  1  0.16624583  0.83314230  0.83353273  1
  Pb  Pb46  1  0.83344077  0.83103371  0.16665371  1
  Pb  Pb47  1  0.83095107  0.50140616  0.50042198  1
  Pb  Pb48  1  0.83326099  0.16648695  0.83332459  1
  Pb  Pb49  1  0.16655856  0.83338782  0.49991223  1
  Pb  Pb50  1  0.16946266  0.50000231  0.50067090  1
  Pb  Pb51  1  0.83052869  0.17014357  0.16659463  1
  Pb  Pb52  1  0.16666331  0.16675941  0.50350410  1
  Pb  Pb53  1  0.83323460  0.16228527  0.49988606  1
  I  I54  1  0.16805748  0.00082773  0.16651284  1
  I  I55  1  0.16954194  0.00001079  0.50158775  1
  I  I56  1  0.16937284  0.00258487  0.83144064  1
  I  I57  1  0.16524667  0.33760901  0.16341346  1
  I  I58  1  0.16893924  0.33374563  0.49799617  1
  I  I59  1  0.16897568  0.33446590  0.83848185  1
  I  I60  1  0.17135072  0.66137363  0.15859253  1
  I  I61  1  0.16666193  0.66638408  0.50176931  1
  I  I62  1  0.16698042  0.66344764  0.83779781  1
  I  I63  1  0.49987752  0.00275063  0.16503743  1
  I  I64  1  0.50513253  -0.00343725  0.50223310  1
  I  I65  1  0.49947305  -0.00032214  0.83295831  1
  I  I66  1  0.49984871  0.33495184  0.16550149  1
  I  I67  1  0.49911956  0.33574487  0.49897287  1
  I  I68  1  0.49906577  0.33155586  0.83412183  1
  I  I69  1  0.49990070  0.66320623  0.16687511  1
  I  I70  1  0.50302628  0.66693515  0.50046437  1
  I  I71  1  0.50062061  0.66878496  0.83251302  1
  I  I72  1  0.83166971  0.00007145  0.16662043  1
  I  I73  1  0.82248500  -0.00567364  0.51073866  1
  I  I74  1  0.83147192  -0.00321087  0.82703352  1
  I  I75  1  0.83484576  0.33842992  0.15789610  1
  I  I76  1  0.83165821  0.33354622  0.50072443  1
  I  I77  1  0.83324090  0.33648556  0.83882135  1
  I  I78  1  0.82889907  0.66260987  0.16403251  1
  I  I79  1  0.82967263  0.66929711  0.50205232  1
  I  I80  1  0.83227830  0.66617637  0.83394293  1
  I  I81  1  0.16908551  0.16815273  -0.00354093  1
  I  I82  1  0.16804838  0.16629817  0.33275507  1
  I  I83  1  0.17524455  0.17387454  0.67174596  1
  I  I84  1  0.16896876  0.49679744  -0.00064078  1
  I  I85  1  0.16422975  0.50188513  0.33032506  1
  I  I86  1  0.16326418  0.49679859  0.67034563  1
  I  I87  1  0.16815038  0.83501981  -0.00049520  1
  I  I88  1  0.16751487  0.83203642  0.33335567  1
  I  I89  1  0.16787974  0.83060862  0.66706738  1
  I  I90  1  0.49645904  0.16820540  -0.00098713  1
  I  I91  1  0.50096456  0.16952152  0.33058512  1
  I  I92  1  0.49599090  0.16702298  0.66988315  1
  I  I93  1  0.49997781  0.49943364  0.00223303  1
  I  I94  1  0.50026117  0.49985236  0.33202809  1
  I  I95  1  0.49992983  0.50101187  0.66492277  1
  I  I96  1  0.50398748  0.83351512  -0.00320868  1
  I  I97  1  0.50553804  0.83078788  0.33625107  1
  I  I98  1  0.50359095  0.83210268  0.66754015  1
  I  I99  1  0.83418910  0.16073569  -0.00017931  1
  I  I100  1  0.83091229  0.16753286  0.33313838  1
  I  I101  1  0.83084946  0.17425424  0.66707821  1
  I  I102  1  0.83114363  0.50605772  -0.00081752  1
  I  I103  1  0.83484662  0.50164431  0.33066727  1
  I  I104  1  0.83682155  0.50184083  0.66987343  1
  I  I105  1  0.82786568  0.83053183  -0.00338533  1
  I  I106  1  0.82489212  0.83033549  0.33644411  1
  I  I107  1  0.82819823  0.82618679  0.66811562  1
  I  I108  1  0.00034673  0.16520545  0.16551221  1
  I  I109  1  -0.00002746  0.16733872  0.50119413  1
  I  I110  1  0.00266881  0.16815336  0.83272616  1
  I  I111  1  -0.00010934  0.50363790  0.15944192  1
  I  I112  1  -0.00017354  0.50189203  0.49722554  1
  I  I113  1  -0.00031298  0.50042059  0.84163245  1
  I  I114  1  -0.00023033  0.83328856  0.16611787  1
  I  I115  1  -0.00363899  0.83067456  0.50808403  1
  I  I116  1  -0.00325875  0.83098384  0.82779926  1
  I  I117  1  0.33694177  0.17235080  0.16521581  1
  I  I118  1  0.33381972  0.16477756  0.49781420  1
  I  I119  1  0.33458945  0.16784314  0.83718666  1
  I  I120  1  0.33398710  0.49642959  0.16542767  1
  I  I121  1  0.33754949  0.50638866  0.49667059  1
  I  I122  1  0.33160449  0.49963522  0.83624680  1
  I  I123  1  0.33376691  0.83023763  0.16637529  1
  I  I124  1  0.33711902  0.82898445  0.50529523  1
  I  I125  1  0.33636327  0.83340325  0.82917229  1
  I  I126  1  0.66244131  0.17226198  0.15922687  1
  I  I127  1  0.66614710  0.17144380  0.50315697  1
  I  I128  1  0.66350012  0.16666792  0.83641484  1
  I  I129  1  0.66613668  0.49686930  0.16494974  1
  I  I130  1  0.66313913  0.50180835  0.49637283  1
  I  I131  1  0.66878874  0.50138788  0.83665003  1
  I  I132  1  0.66645466  0.83052350  0.16566172  1
  I  I133  1  0.66545381  0.82803848  0.50551921  1
  I  I134  1  0.66608891  0.83220416  0.82944082  1
