# generated using pymatgen
data_Cs27Sn14Pb13I81
_symmetry_space_group_name_H-M   'P 1'
_cell_length_a   18.97897976
_cell_length_b   18.98026411
_cell_length_c   18.96901915
_cell_angle_alpha   89.99913114
_cell_angle_beta   89.99875930
_cell_angle_gamma   90.00175255
_symmetry_Int_Tables_number   1
_chemical_formula_structural   Cs27Sn14Pb13I81
_chemical_formula_sum   'Cs27 Sn14 Pb13 I81'
_cell_volume   6833.13480678
_cell_formula_units_Z   1
loop_
 _symmetry_equiv_pos_site_id
 _symmetry_equiv_pos_as_xyz
  1  'x, y, z'
loop_
 _atom_site_type_symbol
 _atom_site_label
 _atom_site_symmetry_multiplicity
 _atom_site_fract_x
 _atom_site_fract_y
 _atom_site_fract_z
 _atom_site_occupancy
  Cs  Cs0  1  -0.00072985  -0.00000271  -0.00342811  1
  Cs  Cs1  1  -0.00197215  -0.00079129  0.33244154  1
  Cs  Cs2  1  0.00040159  0.00041079  0.66763214  1
  Cs  Cs3  1  0.00296907  0.33663972  0.00573043  1
  Cs  Cs4  1  -0.00489414  0.33454242  0.32611995  1
  Cs  Cs5  1  -0.00066506  0.33107492  0.66619865  1
  Cs  Cs6  1  -0.00139527  0.66504663  0.00455802  1
  Cs  Cs7  1  0.00085234  0.66662151  0.33087508  1
  Cs  Cs8  1  0.00135121  0.66852189  0.66621922  1
  Cs  Cs9  1  0.33631822  -0.00107733  0.00040247  1
  Cs  Cs10  1  0.33397783  0.00011928  0.33526354  1
  Cs  Cs11  1  0.33120644  0.00033315  0.66615123  1
  Cs  Cs12  1  0.33128710  0.33192729  0.00342175  1
  Cs  Cs13  1  0.33291422  0.33609913  0.33253352  1
  Cs  Cs14  1  0.33297404  0.33230783  0.66558309  1
  Cs  Cs15  1  0.33589156  0.66884849  -0.00450929  1
  Cs  Cs16  1  0.33185350  0.66367393  0.33597911  1
  Cs  Cs17  1  0.33237847  0.66662790  0.66580017  1
  Cs  Cs18  1  0.66626098  -0.00180515  0.00836453  1
  Cs  Cs19  1  0.66791335  -0.00046679  0.32637719  1
  Cs  Cs20  1  0.66931983  0.00286921  0.66535272  1
  Cs  Cs21  1  0.66664306  0.33596932  -0.00473579  1
  Cs  Cs22  1  0.67085390  0.33167309  0.33394492  1
  Cs  Cs23  1  0.66881501  0.33371921  0.66793423  1
  Cs  Cs24  1  0.66535110  0.66611111  -0.00041378  1
  Cs  Cs25  1  0.66654453  0.66843951  0.33232024  1
  Cs  Cs26  1  0.66632045  0.66305354  0.66818500  1
  Sn  Sn27  1  0.16693625  0.16714733  0.50020228  1
  Sn  Sn28  1  0.49967389  0.16631821  0.83251612  1
  Sn  Sn29  1  0.83318739  0.83388955  0.83236933  1
  Sn  Sn30  1  0.49942028  0.16670517  0.50070906  1
  Sn  Sn31  1  0.83347684  0.16578214  0.83301438  1
  Sn  Sn32  1  0.16689371  0.16760088  0.83248388  1
  Sn  Sn33  1  0.49980336  0.49983597  0.16768404  1
  Sn  Sn34  1  0.50025898  0.83358612  0.50048329  1
  Sn  Sn35  1  0.16667393  0.49913598  0.83226144  1
  Sn  Sn36  1  0.49941685  0.49964061  0.49922101  1
  Sn  Sn37  1  0.16665079  0.83352315  0.49925005  1
  Sn  Sn38  1  0.83327471  0.83327442  0.50107730  1
  Sn  Sn39  1  0.16685388  0.49932678  0.50071584  1
  Sn  Sn40  1  0.16721137  0.83375781  0.16745729  1
  Pb  Pb41  1  0.16834992  0.50202789  0.16695929  1
  Pb  Pb42  1  0.49974578  0.16885226  0.16747444  1
  Pb  Pb43  1  0.83545244  0.83334490  0.16666323  1
  Pb  Pb44  1  0.82983701  0.50018999  0.16677234  1
  Pb  Pb45  1  0.50260175  0.83593679  0.83084699  1
  Pb  Pb46  1  0.16527326  0.83357576  0.83280719  1
  Pb  Pb47  1  0.49759941  0.83125015  0.16933756  1
  Pb  Pb48  1  0.83349821  0.16468506  0.50126122  1
  Pb  Pb49  1  0.83356259  0.50250734  0.50006524  1
  Pb  Pb50  1  0.83337372  0.16666305  0.16294202  1
  Pb  Pb51  1  0.83640905  0.49994743  0.83295948  1
  Pb  Pb52  1  0.16686977  0.16438742  0.16717291  1
  Pb  Pb53  1  0.49765563  0.49777882  0.83234678  1
  I  I54  1  0.16667593  -0.00335426  0.17154506  1
  I  I55  1  0.16950023  0.00004671  0.50074476  1
  I  I56  1  0.16765019  0.00306127  0.83021879  1
  I  I57  1  0.16715440  0.33352379  0.16763598  1
  I  I58  1  0.17519216  0.33312508  0.50651480  1
  I  I59  1  0.16510772  0.33217077  0.82575060  1
  I  I60  1  0.16693010  0.66961540  0.17137229  1
  I  I61  1  0.16929430  0.66672460  0.50064525  1
  I  I62  1  0.16540408  0.66468898  0.83008023  1
  I  I63  1  0.50007680  -0.00013813  0.16634133  1
  I  I64  1  0.49599970  0.00024778  0.50584820  1
  I  I65  1  0.49317805  0.00405719  0.82801683  1
  I  I66  1  0.49719434  0.33644370  0.17281700  1
  I  I67  1  0.49240892  0.33305843  0.49995332  1
  I  I68  1  0.50514534  0.32974569  0.82794804  1
  I  I69  1  0.49844663  0.66355370  0.17181588  1
  I  I70  1  0.49701351  0.66667697  0.49526325  1
  I  I71  1  0.50013331  0.66663435  0.83342202  1
  I  I72  1  0.83225673  -0.00030868  0.16886168  1
  I  I73  1  0.83455468  -0.00345804  0.50288786  1
  I  I74  1  0.83693966  0.00049036  0.82771714  1
  I  I75  1  0.83566011  0.33343021  0.16625097  1
  I  I76  1  0.83279165  0.33315023  0.50177214  1
  I  I77  1  0.83059395  0.33000204  0.83302509  1
  I  I78  1  0.83458963  0.66705937  0.16363859  1
  I  I79  1  0.83392975  0.67095238  0.50638403  1
  I  I80  1  0.83568722  0.66961381  0.82942931  1
  I  I81  1  0.16638997  0.16995220  -0.00358601  1
  I  I82  1  0.17297567  0.16861983  0.33738453  1
  I  I83  1  0.16750982  0.16488416  0.66615468  1
  I  I84  1  0.16739840  0.49665957  -0.00255582  1
  I  I85  1  0.16928780  0.49861473  0.33696609  1
  I  I86  1  0.17225195  0.50220113  0.66503325  1
  I  I87  1  0.16355308  0.83254536  0.00147637  1
  I  I88  1  0.16489877  0.83261634  0.33650837  1
  I  I89  1  0.16834430  0.83308185  0.66317123  1
  I  I90  1  0.49963474  0.16872626  -0.00315531  1
  I  I91  1  0.49409067  0.16426208  0.33751819  1
  I  I92  1  0.49889651  0.16828308  0.66553577  1
  I  I93  1  0.49817822  0.49818570  0.00149040  1
  I  I94  1  0.49291988  0.49923357  0.33613956  1
  I  I95  1  0.49790628  0.50248748  0.66304284  1
  I  I96  1  0.49962545  0.83254304  -0.00008006  1
  I  I97  1  0.50473774  0.83899002  0.33807640  1
  I  I98  1  0.49326048  0.82794139  0.66237676  1
  I  I99  1  0.83347920  0.15881247  -0.00569969  1
  I  I100  1  0.83317756  0.16517213  0.33352243  1
  I  I101  1  0.83388051  0.16412257  0.66956141  1
  I  I102  1  0.83389112  0.50206095  -0.00039706  1
  I  I103  1  0.83912352  0.50184848  0.33367215  1
  I  I104  1  0.82803437  0.49980532  0.66660439  1
  I  I105  1  0.83655016  0.83831094  -0.00309602  1
  I  I106  1  0.83161826  0.83265419  0.33677893  1
  I  I107  1  0.83661446  0.83709938  0.66573538  1
  I  I108  1  0.00033489  0.16697355  0.16806321  1
  I  I109  1  0.00331185  0.16584872  0.50478515  1
  I  I110  1  0.00098264  0.16532677  0.82843874  1
  I  I111  1  0.00039737  0.50130703  0.16580744  1
  I  I112  1  0.00373878  0.50019418  0.50512083  1
  I  I113  1  0.00442500  0.49549615  0.82699040  1
  I  I114  1  0.00321073  0.83172851  0.17326461  1
  I  I115  1  0.00113117  0.83342806  0.50043535  1
  I  I116  1  -0.00241412  0.83886825  0.82722419  1
  I  I117  1  0.33326973  0.16535468  0.16035301  1
  I  I118  1  0.33302093  0.16241652  0.50767514  1
  I  I119  1  0.33264334  0.17138660  0.82888886  1
  I  I120  1  0.33585194  0.50046933  0.16995904  1
  I  I121  1  0.33293874  0.50416422  0.50034673  1
  I  I122  1  0.32974421  0.49647432  0.83138553  1
  I  I123  1  0.32998613  0.83359968  0.17112847  1
  I  I124  1  0.33285662  0.83323351  0.49528294  1
  I  I125  1  0.33337050  0.83349925  0.83414336  1
  I  I126  1  0.66640216  0.16625528  0.16809089  1
  I  I127  1  0.66357854  0.16753347  0.50428336  1
  I  I128  1  0.66626679  0.16272213  0.82842878  1
  I  I129  1  0.66189913  0.50073869  0.17349580  1
  I  I130  1  0.66312383  0.49973963  0.49584391  1
  I  I131  1  0.66646482  0.49910855  0.83436480  1
  I  I132  1  0.66640006  0.83201014  0.16695441  1
  I  I133  1  0.66613425  0.83291932  0.50584188  1
  I  I134  1  0.67048995  0.83751798  0.82796781  1
