# generated using pymatgen
data_Cs27Sn14Pb13I81
_symmetry_space_group_name_H-M   'P 1'
_cell_length_a   18.96381881
_cell_length_b   18.95731846
_cell_length_c   18.96383750
_cell_angle_alpha   90.00178884
_cell_angle_beta   90.00103130
_cell_angle_gamma   90.00050171
_symmetry_Int_Tables_number   1
_chemical_formula_structural   Cs27Sn14Pb13I81
_chemical_formula_sum   'Cs27 Sn14 Pb13 I81'
_cell_volume   6817.55935683
_cell_formula_units_Z   1
loop_
 _symmetry_equiv_pos_site_id
 _symmetry_equiv_pos_as_xyz
  1  'x, y, z'
loop_
 _atom_site_type_symbol
 _atom_site_label
 _atom_site_symmetry_multiplicity
 _atom_site_fract_x
 _atom_site_fract_y
 _atom_site_fract_z
 _atom_site_occupancy
  Cs  Cs0  1  -0.00150957  -0.00054615  0.00027708  1
  Cs  Cs1  1  0.00246443  -0.00066038  0.33418542  1
  Cs  Cs2  1  -0.00153357  -0.00012344  0.66543182  1
  Cs  Cs3  1  0.00617262  0.33317230  -0.00272577  1
  Cs  Cs4  1  0.00663249  0.33718631  0.33231997  1
  Cs  Cs5  1  -0.00026883  0.33683488  0.66906140  1
  Cs  Cs6  1  -0.00085851  0.66699197  0.00125874  1
  Cs  Cs7  1  -0.00646784  0.66327795  0.33425892  1
  Cs  Cs8  1  0.00228472  0.66618248  0.66628391  1
  Cs  Cs9  1  0.33489427  -0.00106298  0.00042800  1
  Cs  Cs10  1  0.33214434  0.00088574  0.33354229  1
  Cs  Cs11  1  0.33509477  -0.00166539  0.66523820  1
  Cs  Cs12  1  0.33078949  0.33478738  0.00075674  1
  Cs  Cs13  1  0.33014723  0.33636438  0.32989950  1
  Cs  Cs14  1  0.33250572  0.33566476  0.66772636  1
  Cs  Cs15  1  0.33339462  0.66747947  -0.00263474  1
  Cs  Cs16  1  0.33496207  0.66319252  0.33615334  1
  Cs  Cs17  1  0.32996701  0.66718994  0.66773249  1
  Cs  Cs18  1  0.66599167  0.00032366  0.00047072  1
  Cs  Cs19  1  0.66636595  0.00005887  0.33342454  1
  Cs  Cs20  1  0.66628041  0.00074170  0.66672049  1
  Cs  Cs21  1  0.66580822  0.32962030  -0.00160035  1
  Cs  Cs22  1  0.66495245  0.33687517  0.33537187  1
  Cs  Cs23  1  0.66778496  0.33120190  0.66615653  1
  Cs  Cs24  1  0.66740876  0.66871297  0.00160816  1
  Cs  Cs25  1  0.66940672  0.66035663  0.33189492  1
  Cs  Cs26  1  0.66611215  0.66767854  0.66681438  1
  Sn  Sn27  1  0.16754667  0.83354843  0.16626909  1
  Sn  Sn28  1  0.50115172  0.49897995  0.83340259  1
  Sn  Sn29  1  0.83286163  0.16656173  0.16816096  1
  Sn  Sn30  1  0.83210557  0.50118459  0.83354208  1
  Sn  Sn31  1  0.83209805  0.83439972  0.50072320  1
  Sn  Sn32  1  0.16794733  0.16514842  0.83294249  1
  Sn  Sn33  1  0.50057581  0.16597461  0.49957672  1
  Sn  Sn34  1  0.49894542  0.16750255  0.83326032  1
  Sn  Sn35  1  0.50076898  0.16591681  0.16714271  1
  Sn  Sn36  1  0.83276955  0.16593942  0.49850429  1
  Sn  Sn37  1  0.50113148  0.83404790  0.49860867  1
  Sn  Sn38  1  0.49925886  0.83399363  0.16807535  1
  Sn  Sn39  1  0.16550178  0.83464813  0.83416591  1
  Sn  Sn40  1  0.83411069  0.83264551  0.83269712  1
  Pb  Pb41  1  0.83312400  0.49956088  0.50214301  1
  Pb  Pb42  1  0.16671345  0.49998243  0.49991491  1
  Pb  Pb43  1  0.16697212  0.16485396  0.16467792  1
  Pb  Pb44  1  0.50011735  0.49994622  0.16417439  1
  Pb  Pb45  1  0.83294151  0.83486147  0.16707818  1
  Pb  Pb46  1  0.50020393  0.83374413  0.83318963  1
  Pb  Pb47  1  0.16670240  0.50057844  0.83340458  1
  Pb  Pb48  1  0.16659615  0.83335362  0.49969082  1
  Pb  Pb49  1  0.16672568  0.50401143  0.16644773  1
  Pb  Pb50  1  0.16677744  0.16668327  0.50252047  1
  Pb  Pb51  1  0.83316332  0.16625764  0.83306919  1
  Pb  Pb52  1  0.83308918  0.49599355  0.16370595  1
  Pb  Pb53  1  0.50005484  0.49989926  0.50247839  1
  I  I54  1  0.16850693  -0.00308889  0.16291727  1
  I  I55  1  0.16612091  -0.00008889  0.50068474  1
  I  I56  1  0.16653411  -0.00075261  0.83650064  1
  I  I57  1  0.16634997  0.33301994  0.16436695  1
  I  I58  1  0.16602028  0.33265934  0.50346030  1
  I  I59  1  0.16677499  0.33061657  0.83282569  1
  I  I60  1  0.17222569  0.67222119  0.15843721  1
  I  I61  1  0.16780224  0.66751189  0.50362123  1
  I  I62  1  0.16644464  0.67011536  0.83637546  1
  I  I63  1  0.50008388  0.00059521  0.16384558  1
  I  I64  1  0.50396826  0.00043127  0.50272496  1
  I  I65  1  0.49960964  0.00274321  0.83346147  1
  I  I66  1  0.50450094  0.32954296  0.16823288  1
  I  I67  1  0.50464427  0.32948989  0.49919730  1
  I  I68  1  0.50057987  0.33145843  0.83316294  1
  I  I69  1  0.49585664  0.67022432  0.16881314  1
  I  I70  1  0.50343570  0.67030313  0.49718312  1
  I  I71  1  0.50067838  0.66517528  0.83333055  1
  I  I72  1  0.83127865  0.00281890  0.16356113  1
  I  I73  1  0.82908583  -0.00030910  0.50403423  1
  I  I74  1  0.83430690  -0.00254474  0.83236494  1
  I  I75  1  0.82595805  0.32792047  0.17054335  1
  I  I76  1  0.82797387  0.32966368  0.49906345  1
  I  I77  1  0.83242040  0.33478748  0.83376142  1
  I  I78  1  0.83402100  0.66676460  0.16815847  1
  I  I79  1  0.83005303  0.67006439  0.50235435  1
  I  I80  1  0.83319850  0.66826015  0.82840486  1
  I  I81  1  0.16923639  0.16465823  -0.00353662  1
  I  I82  1  0.16794186  0.16527534  0.33314386  1
  I  I83  1  0.16996810  0.16045114  0.67090690  1
  I  I84  1  0.16644321  0.49740320  -0.00055276  1
  I  I85  1  0.16676004  0.49977276  0.33293074  1
  I  I86  1  0.16699428  0.50191914  0.66758550  1
  I  I87  1  0.16704143  0.83737657  -0.00121919  1
  I  I88  1  0.16825120  0.83461625  0.33050054  1
  I  I89  1  0.16618123  0.83598483  0.66973266  1
  I  I90  1  0.50129208  0.16573127  0.00002962  1
  I  I91  1  0.50550862  0.16034732  0.33335073  1
  I  I92  1  0.50103435  0.16562996  0.66665033  1
  I  I93  1  0.50336193  0.49648817  -0.00404679  1
  I  I94  1  0.49897867  0.49851710  0.33335278  1
  I  I95  1  0.50356864  0.49643187  0.67064447  1
  I  I96  1  0.49951892  0.83639454  0.00192105  1
  I  I97  1  0.49897362  0.84156024  0.33331456  1
  I  I98  1  0.50110203  0.83636805  0.66453423  1
  I  I99  1  0.82969446  0.16591611  0.00156276  1
  I  I100  1  0.82539621  0.15928797  0.33414195  1
  I  I101  1  0.83007852  0.16527838  0.66446158  1
  I  I102  1  0.82943813  0.50608619  -0.00439674  1
  I  I103  1  0.83442540  0.50329975  0.33330510  1
  I  I104  1  0.82973781  0.49879614  0.67036594  1
  I  I105  1  0.83388313  0.83204313  -0.00245916  1
  I  I106  1  0.83322448  0.83662575  0.33607163  1
  I  I107  1  0.83273258  0.83582831  0.66686324  1
  I  I108  1  -0.00241181  0.16443545  0.16796149  1
  I  I109  1  -0.00350924  0.16158686  0.49794257  1
  I  I110  1  0.00174762  0.16589628  0.83408091  1
  I  I111  1  -0.00024428  0.49937033  0.16375379  1
  I  I112  1  -0.00063207  0.50046435  0.50389856  1
  I  I113  1  -0.00271228  0.49987168  0.83248195  1
  I  I114  1  0.00178418  0.83585959  0.16379190  1
  I  I115  1  -0.00330546  0.83754702  0.50210811  1
  I  I116  1  -0.00034191  0.83394180  0.83364277  1
  I  I117  1  0.33674723  0.16421216  0.16795570  1
  I  I118  1  0.33718258  0.16140620  0.49895127  1
  I  I119  1  0.33488284  0.16662955  0.83357983  1
  I  I120  1  0.33362017  0.49539671  0.16346154  1
  I  I121  1  0.33399838  0.50124295  0.50435997  1
  I  I122  1  0.33609759  0.49868343  0.83303312  1
  I  I123  1  0.33460807  0.83957976  0.16475564  1
  I  I124  1  0.33665631  0.83803802  0.50050404  1
  I  I125  1  0.33154145  0.83402395  0.83399169  1
  I  I126  1  0.66512180  0.16030952  0.16311790  1
  I  I127  1  0.66586893  0.16217272  0.50286335  1
  I  I128  1  0.66395642  0.16708399  0.83357313  1
  I  I129  1  0.66660769  0.50572816  0.16581811  1
  I  I130  1  0.66659591  0.50076103  0.50081655  1
  I  I131  1  0.66651064  0.49954617  0.83295052  1
  I  I132  1  0.66384666  0.83637259  0.16537802  1
  I  I133  1  0.66672003  0.83807671  0.50237766  1
  I  I134  1  0.66898001  0.83313266  0.83268174  1
