# generated using pymatgen
data_Cs27Sn13Pb14I81
_symmetry_space_group_name_H-M   'P 1'
_cell_length_a   18.97211274
_cell_length_b   18.98512138
_cell_length_c   18.97354740
_cell_angle_alpha   90.00052495
_cell_angle_beta   90.00088064
_cell_angle_gamma   89.99876773
_symmetry_Int_Tables_number   1
_chemical_formula_structural   Cs27Sn13Pb14I81
_chemical_formula_sum   'Cs27 Sn13 Pb14 I81'
_cell_volume   6834.04149581
_cell_formula_units_Z   1
loop_
 _symmetry_equiv_pos_site_id
 _symmetry_equiv_pos_as_xyz
  1  'x, y, z'
loop_
 _atom_site_type_symbol
 _atom_site_label
 _atom_site_symmetry_multiplicity
 _atom_site_fract_x
 _atom_site_fract_y
 _atom_site_fract_z
 _atom_site_occupancy
  Cs  Cs0  1  0.00088490  0.00165367  -0.00027660  1
  Cs  Cs1  1  0.00255169  0.00049864  0.33153253  1
  Cs  Cs2  1  -0.00146861  -0.00158030  0.66826993  1
  Cs  Cs3  1  0.00012242  0.32837845  0.00110332  1
  Cs  Cs4  1  0.00035553  0.33402456  0.33438387  1
  Cs  Cs5  1  -0.00156585  0.33801029  0.66426017  1
  Cs  Cs6  1  -0.00143348  0.66743686  0.00038372  1
  Cs  Cs7  1  0.00031146  0.66368292  0.33256218  1
  Cs  Cs8  1  0.00132798  0.66627325  0.66705840  1
  Cs  Cs9  1  0.33114959  0.00318162  -0.00032702  1
  Cs  Cs10  1  0.33167879  -0.00004402  0.33258838  1
  Cs  Cs11  1  0.33377987  -0.00116482  0.66734987  1
  Cs  Cs12  1  0.34095801  0.33464621  -0.00628699  1
  Cs  Cs13  1  0.33089627  0.33060353  0.33198929  1
  Cs  Cs14  1  0.33601613  0.33713044  0.67520771  1
  Cs  Cs15  1  0.33478525  0.66309838  -0.00227956  1
  Cs  Cs16  1  0.33251068  0.66793851  0.33565147  1
  Cs  Cs17  1  0.33414411  0.66640892  0.66531582  1
  Cs  Cs18  1  0.66849869  -0.00173629  0.00213226  1
  Cs  Cs19  1  0.66277275  0.00006807  0.33444940  1
  Cs  Cs20  1  0.66774006  -0.00177814  0.66444346  1
  Cs  Cs21  1  0.66113351  0.33636079  -0.00080903  1
  Cs  Cs22  1  0.66635598  0.33258615  0.33602093  1
  Cs  Cs23  1  0.66725119  0.33008098  0.66476129  1
  Cs  Cs24  1  0.66706495  0.66520674  0.00519060  1
  Cs  Cs25  1  0.66620869  0.66637598  0.32740793  1
  Cs  Cs26  1  0.66541458  0.66969349  0.66634872  1
  Sn  Sn27  1  0.50085982  0.83358429  0.83305582  1
  Sn  Sn28  1  0.83352993  0.16648033  0.16636554  1
  Sn  Sn29  1  0.16671959  0.16618138  0.50022367  1
  Sn  Sn30  1  0.16670036  0.49962613  0.16635105  1
  Sn  Sn31  1  0.83352272  0.83320419  0.49995330  1
  Sn  Sn32  1  0.16651839  0.83310225  0.16715965  1
  Sn  Sn33  1  0.50002124  0.50052130  0.49965302  1
  Sn  Sn34  1  0.83358864  0.16673089  0.83399736  1
  Sn  Sn35  1  0.16634211  0.83407757  0.49931955  1
  Sn  Sn36  1  0.50008731  0.83244379  0.50047436  1
  Sn  Sn37  1  0.83241558  0.83307364  0.83287715  1
  Sn  Sn38  1  0.83357880  0.50026400  0.83326576  1
  Sn  Sn39  1  0.16599654  0.16698363  0.16720056  1
  Pb  Pb40  1  0.16658517  0.83326228  0.83301230  1
  Pb  Pb41  1  0.50268513  0.50261886  0.83123489  1
  Pb  Pb42  1  0.83538662  0.83503973  0.16668718  1
  Pb  Pb43  1  0.49686858  0.16616747  0.50015784  1
  Pb  Pb44  1  0.83545462  0.16456540  0.49983042  1
  Pb  Pb45  1  0.16473483  0.16674480  0.83295432  1
  Pb  Pb46  1  0.49715994  0.83341383  0.16663728  1
  Pb  Pb47  1  0.83120833  0.50276179  0.50152084  1
  Pb  Pb48  1  0.50327845  0.16365869  0.83315625  1
  Pb  Pb49  1  0.16452893  0.49999411  0.83595848  1
  Pb  Pb50  1  0.49979187  0.16665158  0.16668371  1
  Pb  Pb51  1  0.49761679  0.50004156  0.16928208  1
  Pb  Pb52  1  0.83507261  0.49722739  0.16474221  1
  Pb  Pb53  1  0.16832390  0.49996968  0.49867709  1
  I  I54  1  0.16307645  0.00019908  0.17129546  1
  I  I55  1  0.16792036  -0.00156106  0.49226408  1
  I  I56  1  0.16469399  -0.00021588  0.83733926  1
  I  I57  1  0.16129446  0.33200849  0.17207901  1
  I  I58  1  0.16683374  0.33072823  0.49471401  1
  I  I59  1  0.16459260  0.33326413  0.83191156  1
  I  I60  1  0.16708082  0.66756072  0.17095900  1
  I  I61  1  0.16541802  0.67003838  0.49600274  1
  I  I62  1  0.16351252  0.66694017  0.83436661  1
  I  I63  1  0.49780376  -0.00024630  0.16858668  1
  I  I64  1  0.50166330  -0.00381572  0.50355420  1
  I  I65  1  0.50395301  -0.00426479  0.82614255  1
  I  I66  1  0.49787580  0.33343863  0.16847684  1
  I  I67  1  0.49863054  0.33576799  0.49852496  1
  I  I68  1  0.50031469  0.33354817  0.83193080  1
  I  I69  1  0.49837933  0.66690876  0.16470519  1
  I  I70  1  0.49697990  0.66907738  0.50442424  1
  I  I71  1  0.50469725  0.67044983  0.83116412  1
  I  I72  1  0.84037355  0.00277353  0.16110867  1
  I  I73  1  0.82954191  -0.00370541  0.50551461  1
  I  I74  1  0.83038618  -0.00082094  0.83315523  1
  I  I75  1  0.84024965  0.32928505  0.16246327  1
  I  I76  1  0.83334553  0.33324650  0.50147129  1
  I  I77  1  0.83671721  0.33270129  0.83855606  1
  I  I78  1  0.83610756  0.66677648  0.16549250  1
  I  I79  1  0.83898168  0.67114592  0.50525518  1
  I  I80  1  0.83053177  0.66819157  0.82822251  1
  I  I81  1  0.16339525  0.16405073  0.00334324  1
  I  I82  1  0.16117061  0.16515918  0.33241492  1
  I  I83  1  0.16579805  0.15941519  0.66356414  1
  I  I84  1  0.16609117  0.50081825  0.00426385  1
  I  I85  1  0.16633372  0.50031623  0.33051668  1
  I  I86  1  0.16697869  0.50002435  0.66656066  1
  I  I87  1  0.16577860  0.83512542  0.00290707  1
  I  I88  1  0.16665730  0.83461132  0.33433797  1
  I  I89  1  0.16649873  0.83800530  0.66322301  1
  I  I90  1  0.49482342  0.16525627  -0.00024887  1
  I  I91  1  0.50500079  0.16432523  0.33364577  1
  I  I92  1  0.49900451  0.16843058  0.66658714  1
  I  I93  1  0.49910252  0.50093176  -0.00028186  1
  I  I94  1  0.50099825  0.50876720  0.33701897  1
  I  I95  1  0.49744048  0.50299592  0.66358326  1
  I  I96  1  0.50479387  0.83411900  -0.00293024  1
  I  I97  1  0.50249558  0.83009941  0.33688886  1
  I  I98  1  0.49890572  0.83018681  0.66549040  1
  I  I99  1  0.84042634  0.16356352  -0.00023483  1
  I  I100  1  0.83697829  0.16452286  0.33082851  1
  I  I101  1  0.83464835  0.16693883  0.66932867  1
  I  I102  1  0.83413638  0.50669762  -0.00339249  1
  I  I103  1  0.83303712  0.50012470  0.33331132  1
  I  I104  1  0.83417653  0.49493202  0.66976000  1
  I  I105  1  0.83047238  0.83237375  -0.00302134  1
  I  I106  1  0.83126237  0.83549837  0.33618435  1
  I  I107  1  0.83480365  0.83578197  0.66699428  1
  I  I108  1  0.00111488  0.16569395  0.16572897  1
  I  I109  1  0.00337083  0.16091601  0.49813541  1
  I  I110  1  -0.00365252  0.16176168  0.83527326  1
  I  I111  1  0.00327560  0.50257939  0.16805835  1
  I  I112  1  -0.00003280  0.50107980  0.50055021  1
  I  I113  1  -0.00370125  0.50395137  0.83162018  1
  I  I114  1  0.00357177  0.83264746  0.17034609  1
  I  I115  1  0.00039464  0.83820791  0.50103794  1
  I  I116  1  -0.00343106  0.83393608  0.83029619  1
  I  I117  1  0.32920791  0.16506659  0.17222859  1
  I  I118  1  0.32889984  0.16014807  0.49155080  1
  I  I119  1  0.33351532  0.16540255  0.83435999  1
  I  I120  1  0.32920561  0.49836667  0.16674578  1
  I  I121  1  0.33596587  0.50705589  0.49936241  1
  I  I122  1  0.33384105  0.50125679  0.83400214  1
  I  I123  1  0.32881856  0.83671669  0.17086931  1
  I  I124  1  0.33301520  0.83323281  0.49991445  1
  I  I125  1  0.33590113  0.83255556  0.82998644  1
  I  I126  1  0.67006009  0.16529419  0.16187647  1
  I  I127  1  0.66684089  0.16578157  0.49947794  1
  I  I128  1  0.67153830  0.16868821  0.83866153  1
  I  I129  1  0.66679758  0.49888874  0.16621469  1
  I  I130  1  0.66338021  0.50525500  0.50088204  1
  I  I131  1  0.67046078  0.49749625  0.83382082  1
  I  I132  1  0.66684445  0.83542834  0.16909048  1
  I  I133  1  0.66668126  0.83002251  0.50609990  1
  I  I134  1  0.66792966  0.83465250  0.82462190  1
