# generated using pymatgen
data_Cs27Sn14Pb13I81
_symmetry_space_group_name_H-M   'P 1'
_cell_length_a   18.96453634
_cell_length_b   18.98543104
_cell_length_c   18.97570206
_cell_angle_alpha   89.99936458
_cell_angle_beta   90.00024383
_cell_angle_gamma   89.99863269
_symmetry_Int_Tables_number   1
_chemical_formula_structural   Cs27Sn14Pb13I81
_chemical_formula_sum   'Cs27 Sn14 Pb13 I81'
_cell_volume   6832.19956709
_cell_formula_units_Z   1
loop_
 _symmetry_equiv_pos_site_id
 _symmetry_equiv_pos_as_xyz
  1  'x, y, z'
loop_
 _atom_site_type_symbol
 _atom_site_label
 _atom_site_symmetry_multiplicity
 _atom_site_fract_x
 _atom_site_fract_y
 _atom_site_fract_z
 _atom_site_occupancy
  Cs  Cs0  1  0.00373150  -0.00021964  0.00036901  1
  Cs  Cs1  1  0.00066481  0.00523755  0.33234303  1
  Cs  Cs2  1  0.00018106  0.00028542  0.66772069  1
  Cs  Cs3  1  0.00358497  0.33495587  0.01081636  1
  Cs  Cs4  1  0.00018756  0.33389028  0.32283645  1
  Cs  Cs5  1  0.00058693  0.32884253  0.66703147  1
  Cs  Cs6  1  0.00739435  0.66673419  0.00115407  1
  Cs  Cs7  1  -0.00416420  0.66107710  0.33666235  1
  Cs  Cs8  1  -0.00356061  0.66919213  0.66417685  1
  Cs  Cs9  1  0.32897391  -0.00564980  0.00212150  1
  Cs  Cs10  1  0.33461860  -0.00187583  0.33378946  1
  Cs  Cs11  1  0.33276035  0.00130598  0.66449890  1
  Cs  Cs12  1  0.33046847  0.33931043  -0.00304999  1
  Cs  Cs13  1  0.33586677  0.33322604  0.33749918  1
  Cs  Cs14  1  0.33321550  0.33460925  0.66542063  1
  Cs  Cs15  1  0.32457420  0.66655874  0.00131465  1
  Cs  Cs16  1  0.33510107  0.66791136  0.33369479  1
  Cs  Cs17  1  0.33375355  0.66490415  0.66611225  1
  Cs  Cs18  1  0.66688778  -0.00000204  -0.00124278  1
  Cs  Cs19  1  0.66454489  -0.00043460  0.33290815  1
  Cs  Cs20  1  0.66665598  0.00015760  0.66804366  1
  Cs  Cs21  1  0.66666235  0.33158333  -0.00167606  1
  Cs  Cs22  1  0.66607867  0.33310525  0.33194792  1
  Cs  Cs23  1  0.66451935  0.33141500  0.66893426  1
  Cs  Cs24  1  0.66542457  0.67051909  -0.00353731  1
  Cs  Cs25  1  0.66772140  0.66680966  0.33492404  1
  Cs  Cs26  1  0.66864327  0.66738371  0.66707881  1
  Sn  Sn27  1  0.50000005  0.16562771  0.83376021  1
  Sn  Sn28  1  0.16688232  0.50065136  0.50044857  1
  Sn  Sn29  1  0.50105158  0.16661911  0.50021614  1
  Sn  Sn30  1  0.49992785  0.50014124  0.49942638  1
  Sn  Sn31  1  0.49958669  0.83327218  0.50105171  1
  Sn  Sn32  1  0.50018620  0.16741022  0.16602529  1
  Sn  Sn33  1  0.83244267  0.16692189  0.50034050  1
  Sn  Sn34  1  0.83297341  0.83329113  0.16576230  1
  Sn  Sn35  1  0.16731541  0.83252290  0.50020120  1
  Sn  Sn36  1  0.50069250  0.49974099  0.16686150  1
  Sn  Sn37  1  0.83268215  0.83343293  0.83455002  1
  Sn  Sn38  1  0.83356800  0.49957361  0.83339974  1
  Sn  Sn39  1  0.50028641  0.83396755  0.83257130  1
  Sn  Sn40  1  0.83294013  0.16698025  0.83290914  1
  Pb  Pb41  1  0.16315133  0.49990852  0.83033925  1
  Pb  Pb42  1  0.50108279  0.50034538  0.83321362  1
  Pb  Pb43  1  0.16977859  0.50018563  0.16974969  1
  Pb  Pb44  1  0.16326592  0.83322207  0.17035939  1
  Pb  Pb45  1  0.16686869  0.83337462  0.83084701  1
  Pb  Pb46  1  0.16692450  0.16671937  0.83343144  1
  Pb  Pb47  1  0.50103800  0.83310677  0.16636503  1
  Pb  Pb48  1  0.83300345  0.49694542  0.50155550  1
  Pb  Pb49  1  0.83123600  0.16499162  0.16599498  1
  Pb  Pb50  1  0.16677575  0.16698927  0.49998973  1
  Pb  Pb51  1  0.17077290  0.16654024  0.16667595  1
  Pb  Pb52  1  0.83305544  0.83547623  0.50041975  1
  Pb  Pb53  1  0.83057760  0.50234329  0.16394303  1
  I  I54  1  0.16876068  -0.00034041  0.16942483  1
  I  I55  1  0.17027779  -0.00252057  0.50058031  1
  I  I56  1  0.16307714  -0.00012806  0.82999957  1
  I  I57  1  0.16174719  0.33352850  0.16917225  1
  I  I58  1  0.17153941  0.33605196  0.50113641  1
  I  I59  1  0.16866433  0.33339696  0.82921125  1
  I  I60  1  0.16967143  0.66674071  0.16462543  1
  I  I61  1  0.17511010  0.66685220  0.50057913  1
  I  I62  1  0.16769164  0.66673188  0.83402664  1
  I  I63  1  0.50266498  0.00240009  0.16976087  1
  I  I64  1  0.50002930  0.00016563  0.50013725  1
  I  I65  1  0.50810496  0.00015202  0.82950156  1
  I  I66  1  0.50143191  0.33273963  0.17109578  1
  I  I67  1  0.49959473  0.33292094  0.49968805  1
  I  I68  1  0.50492294  0.33057150  0.83067582  1
  I  I69  1  0.50275760  0.66448043  0.17126222  1
  I  I70  1  0.49559052  0.66694982  0.49966794  1
  I  I71  1  0.50586241  0.66943949  0.82942940  1
  I  I72  1  0.82941604  -0.00262634  0.16286172  1
  I  I73  1  0.82905826  0.00310479  0.50448231  1
  I  I74  1  0.82807836  0.00008251  0.83239064  1
  I  I75  1  0.83465132  0.33330887  0.16662480  1
  I  I76  1  0.82845955  0.32930135  0.50597051  1
  I  I77  1  0.82722478  0.33189417  0.82610669  1
  I  I78  1  0.82961646  0.66997723  0.16338864  1
  I  I79  1  0.83159680  0.66670616  0.50099543  1
  I  I80  1  0.82789589  0.66796976  0.83607737  1
  I  I81  1  0.16495344  0.16658821  0.00003100  1
  I  I82  1  0.16373905  0.16595946  0.33374133  1
  I  I83  1  0.16971660  0.16671246  0.66641481  1
  I  I84  1  0.16771361  0.49958947  0.00018058  1
  I  I85  1  0.16654329  0.50406858  0.33763865  1
  I  I86  1  0.17628437  0.50333034  0.66265773  1
  I  I87  1  0.16944003  0.83333615  0.00005783  1
  I  I88  1  0.17395764  0.83072613  0.33804402  1
  I  I89  1  0.16652295  0.82994551  0.66297544  1
  I  I90  1  0.50592178  0.16666243  -0.00111599  1
  I  I91  1  0.50367222  0.16685229  0.33479867  1
  I  I92  1  0.50402239  0.16609120  0.66620637  1
  I  I93  1  0.50473402  0.49612660  0.00200188  1
  I  I94  1  0.49671906  0.49692791  0.33495241  1
  I  I95  1  0.49754030  0.49797966  0.66365109  1
  I  I96  1  0.50463219  0.83678407  -0.00293683  1
  I  I97  1  0.49845226  0.83585160  0.33621866  1
  I  I98  1  0.50244135  0.83579376  0.66614356  1
  I  I99  1  0.82762929  0.16740143  -0.00347118  1
  I  I100  1  0.82917963  0.16379012  0.33563784  1
  I  I101  1  0.82565227  0.16456296  0.66740680  1
  I  I102  1  0.82930941  0.49426431  -0.00391537  1
  I  I103  1  0.83555674  0.50077642  0.33338662  1
  I  I104  1  0.83037182  0.50569685  0.66933914  1
  I  I105  1  0.82520155  0.83536436  -0.00224407  1
  I  I106  1  0.83234236  0.83548828  0.33199077  1
  I  I107  1  0.83225481  0.83217155  0.66951946  1
  I  I108  1  -0.00034355  0.16524302  0.16814567  1
  I  I109  1  -0.00299040  0.16455737  0.50641418  1
  I  I110  1  -0.00402518  0.16462971  0.82579175  1
  I  I111  1  -0.00017324  0.50102285  0.16732371  1
  I  I112  1  0.00207458  0.50540685  0.50429718  1
  I  I113  1  -0.00493413  0.50088279  0.83099744  1
  I  I114  1  -0.00445199  0.83448399  0.15954634  1
  I  I115  1  0.00191080  0.82971569  0.49968898  1
  I  I116  1  -0.00351958  0.83438499  0.83532211  1
  I  I117  1  0.33920718  0.16849749  0.16915738  1
  I  I118  1  0.33719905  0.16658065  0.50054870  1
  I  I119  1  0.33793394  0.16209456  0.83118974  1
  I  I120  1  0.33786820  0.49685393  0.16595157  1
  I  I121  1  0.33548869  0.49861790  0.49681795  1
  I  I122  1  0.33347300  0.49998406  0.83584490  1
  I  I123  1  0.33342272  0.83363866  0.16410950  1
  I  I124  1  0.33584175  0.83521084  0.50473638  1
  I  I125  1  0.33693453  0.83860673  0.83130864  1
  I  I126  1  0.66303944  0.16964321  0.16815840  1
  I  I127  1  0.66469041  0.16612807  0.50123970  1
  I  I128  1  0.66615325  0.16557110  0.83132849  1
  I  I129  1  0.66298333  0.49590648  0.17558978  1
  I  I130  1  0.66326875  0.50299840  0.49729725  1
  I  I131  1  0.66901248  0.50045118  0.83018105  1
  I  I132  1  0.66875975  0.83384000  0.16718017  1
  I  I133  1  0.66352139  0.83097113  0.50084595  1
  I  I134  1  0.66651052  0.83425076  0.83050236  1
