# generated using pymatgen
data_Cs27Sn14Pb13I81
_symmetry_space_group_name_H-M   'P 1'
_cell_length_a   18.97360839
_cell_length_b   18.97776373
_cell_length_c   18.97621977
_cell_angle_alpha   89.99875529
_cell_angle_beta   90.00014954
_cell_angle_gamma   89.99900598
_symmetry_Int_Tables_number   1
_chemical_formula_structural   Cs27Sn14Pb13I81
_chemical_formula_sum   'Cs27 Sn14 Pb13 I81'
_cell_volume   6832.89377972
_cell_formula_units_Z   1
loop_
 _symmetry_equiv_pos_site_id
 _symmetry_equiv_pos_as_xyz
  1  'x, y, z'
loop_
 _atom_site_type_symbol
 _atom_site_label
 _atom_site_symmetry_multiplicity
 _atom_site_fract_x
 _atom_site_fract_y
 _atom_site_fract_z
 _atom_site_occupancy
  Cs  Cs0  1  -0.00056925  -0.00237140  0.00343110  1
  Cs  Cs1  1  0.00161808  0.00060668  0.33215763  1
  Cs  Cs2  1  0.00142594  0.00028810  0.66908289  1
  Cs  Cs3  1  -0.00216735  0.33517708  0.00142334  1
  Cs  Cs4  1  -0.00129170  0.33085389  0.33272784  1
  Cs  Cs5  1  -0.00153713  0.33232858  0.66663282  1
  Cs  Cs6  1  0.00391374  0.66706293  -0.00285670  1
  Cs  Cs7  1  0.00098735  0.66871572  0.33368105  1
  Cs  Cs8  1  -0.00047518  0.66815673  0.66798314  1
  Cs  Cs9  1  0.34232541  0.00041188  -0.00736089  1
  Cs  Cs10  1  0.32931554  -0.00058340  0.33459462  1
  Cs  Cs11  1  0.33169264  0.00268336  0.67113465  1
  Cs  Cs12  1  0.33468324  0.33495074  0.00141644  1
  Cs  Cs13  1  0.33404867  0.33454835  0.33311784  1
  Cs  Cs14  1  0.33253856  0.33089734  0.66600817  1
  Cs  Cs15  1  0.32960434  0.66484435  0.00114605  1
  Cs  Cs16  1  0.33216805  0.66614949  0.33348888  1
  Cs  Cs17  1  0.33427673  0.66636682  0.66435771  1
  Cs  Cs18  1  0.65769036  -0.00529747  -0.00064063  1
  Cs  Cs19  1  0.66748696  -0.00145032  0.33273455  1
  Cs  Cs20  1  0.66698094  -0.00195444  0.66659319  1
  Cs  Cs21  1  0.66922991  0.33183073  -0.00107068  1
  Cs  Cs22  1  0.66791575  0.33287058  0.33466269  1
  Cs  Cs23  1  0.66829224  0.33623267  0.66558504  1
  Cs  Cs24  1  0.66489892  0.67339242  0.00047653  1
  Cs  Cs25  1  0.66612134  0.66866586  0.33477429  1
  Cs  Cs26  1  0.66756077  0.66252446  0.66406351  1
  Sn  Sn27  1  0.83237074  0.49944699  0.83344372  1
  Sn  Sn28  1  0.16677278  0.83464080  0.16720951  1
  Sn  Sn29  1  0.50082171  0.16664185  0.49968575  1
  Sn  Sn30  1  0.83308857  0.49983551  0.16685099  1
  Sn  Sn31  1  0.16736321  0.83275648  0.49959490  1
  Sn  Sn32  1  0.83341100  0.16695620  0.83358380  1
  Sn  Sn33  1  0.16660074  0.16596021  0.16648622  1
  Sn  Sn34  1  0.49993926  0.49975709  0.50050088  1
  Sn  Sn35  1  0.83373916  0.49931040  0.49964699  1
  Sn  Sn36  1  0.83365792  0.16703971  0.16637939  1
  Sn  Sn37  1  0.83265808  0.16716922  0.50006252  1
  Sn  Sn38  1  0.50072472  0.49982899  0.83275749  1
  Sn  Sn39  1  0.49907618  0.83357633  0.49985593  1
  Sn  Sn40  1  0.16628544  0.50045199  0.49990037  1
  Pb  Pb41  1  0.16645261  0.49975265  0.83056872  1
  Pb  Pb42  1  0.83321952  0.83309548  0.83338088  1
  Pb  Pb43  1  0.16440033  0.49969043  0.16892885  1
  Pb  Pb44  1  0.16635019  0.16665439  0.49884567  1
  Pb  Pb45  1  0.16682480  0.83346063  0.83305350  1
  Pb  Pb46  1  0.83375810  0.83363255  0.50003377  1
  Pb  Pb47  1  0.50292786  0.49990397  0.16676185  1
  Pb  Pb48  1  0.50054778  0.16681659  0.16880304  1
  Pb  Pb49  1  0.16405514  0.16693190  0.83705643  1
  Pb  Pb50  1  0.49684447  0.83320350  0.16918269  1
  Pb  Pb51  1  0.83519909  0.83360652  0.16675501  1
  Pb  Pb52  1  0.50001164  0.83004509  0.83020106  1
  Pb  Pb53  1  0.50255399  0.16924013  0.83055899  1
  I  I54  1  0.15834047  0.00022085  0.17575493  1
  I  I55  1  0.16940144  -0.00233245  0.49707284  1
  I  I56  1  0.16386609  0.00029696  0.82709033  1
  I  I57  1  0.16318175  0.33080246  0.16905100  1
  I  I58  1  0.16826556  0.33592182  0.49875392  1
  I  I59  1  0.16895336  0.33342316  0.83193904  1
  I  I60  1  0.16533847  0.66876487  0.17017273  1
  I  I61  1  0.16908014  0.66632979  0.49448600  1
  I  I62  1  0.16345620  0.66634388  0.83793084  1
  I  I63  1  0.50557563  0.00005355  0.16890075  1
  I  I64  1  0.50067945  0.00025964  0.49714618  1
  I  I65  1  0.50130648  0.00015575  0.83234482  1
  I  I66  1  0.49327413  0.33341054  0.17035547  1
  I  I67  1  0.50091198  0.33427993  0.50302930  1
  I  I68  1  0.50195694  0.33701630  0.82621865  1
  I  I69  1  0.50120957  0.66645684  0.16903521  1
  I  I70  1  0.49986045  0.66554624  0.50359418  1
  I  I71  1  0.50799487  0.66226560  0.82699304  1
  I  I72  1  0.83630676  0.00360285  0.16885386  1
  I  I73  1  0.83040587  0.00354735  0.49929197  1
  I  I74  1  0.83568998  0.00355952  0.83157679  1
  I  I75  1  0.83941858  0.33286641  0.16791671  1
  I  I76  1  0.83121784  0.33404650  0.49961314  1
  I  I77  1  0.82995798  0.33416253  0.83245359  1
  I  I78  1  0.83371447  0.66347073  0.16818015  1
  I  I79  1  0.83119606  0.66320721  0.50025651  1
  I  I80  1  0.83019715  0.66251456  0.83162187  1
  I  I81  1  0.16073375  0.16142135  0.00515980  1
  I  I82  1  0.15997094  0.16593334  0.33114628  1
  I  I83  1  0.16595496  0.16591764  0.66658377  1
  I  I84  1  0.16685367  0.50125778  0.00022114  1
  I  I85  1  0.16753466  0.50131802  0.33726969  1
  I  I86  1  0.16238974  0.50591746  0.66199247  1
  I  I87  1  0.16243481  0.83659787  0.00333979  1
  I  I88  1  0.16994308  0.83289465  0.33454922  1
  I  I89  1  0.16991324  0.82831195  0.66279275  1
  I  I90  1  0.49968831  0.16786470  -0.00032055  1
  I  I91  1  0.50587194  0.17042225  0.33749530  1
  I  I92  1  0.50358798  0.16465989  0.66219018  1
  I  I93  1  0.50460629  0.49916818  -0.00301536  1
  I  I94  1  0.50060542  0.50026390  0.33733408  1
  I  I95  1  0.50534378  0.50073293  0.66443534  1
  I  I96  1  0.49941483  0.83247523  -0.00023827  1
  I  I97  1  0.49996624  0.82925680  0.33770135  1
  I  I98  1  0.49330797  0.83578507  0.66194218  1
  I  I99  1  0.84060673  0.17516564  0.00045399  1
  I  I100  1  0.83351142  0.17293512  0.33375685  1
  I  I101  1  0.82869839  0.17300172  0.66572553  1
  I  I102  1  0.82980337  0.49301546  -0.00027955  1
  I  I103  1  0.83383203  0.49421900  0.33462529  1
  I  I104  1  0.83253490  0.49481133  0.66552384  1
  I  I105  1  0.83692115  0.83177122  0.00015193  1
  I  I106  1  0.83100928  0.83213886  0.33364478  1
  I  I107  1  0.83621281  0.83392873  0.66631322  1
  I  I108  1  -0.00153598  0.16689888  0.17032342  1
  I  I109  1  -0.00320987  0.17033874  0.50115129  1
  I  I110  1  -0.00448824  0.17437990  0.82530689  1
  I  I111  1  -0.00379282  0.49843859  0.16691616  1
  I  I112  1  -0.00125453  0.49988120  0.49958638  1
  I  I113  1  -0.00375903  0.49638911  0.83234680  1
  I  I114  1  0.00306112  0.83438925  0.17564574  1
  I  I115  1  0.00305865  0.82956735  0.49596522  1
  I  I116  1  0.00004166  0.83036144  0.82953605  1
  I  I117  1  0.33057596  0.16243586  0.17115652  1
  I  I118  1  0.33562582  0.16999173  0.49714105  1
  I  I119  1  0.33372683  0.16721776  0.83299857  1
  I  I120  1  0.33312287  0.50019761  0.16686591  1
  I  I121  1  0.33413676  0.50030887  0.50416519  1
  I  I122  1  0.33630335  0.50176645  0.82734235  1
  I  I123  1  0.32877288  0.83842017  0.17006373  1
  I  I124  1  0.33330353  0.82867835  0.49527589  1
  I  I125  1  0.33358364  0.83186609  0.83549314  1
  I  I126  1  0.67051201  0.17269914  0.16632505  1
  I  I127  1  0.66783969  0.16993439  0.49792566  1
  I  I128  1  0.67077674  0.16912330  0.83827537  1
  I  I129  1  0.67119618  0.49247248  0.17207618  1
  I  I130  1  0.66713305  0.49985716  0.50068785  1
  I  I131  1  0.66796590  0.49598836  0.82654660  1
  I  I132  1  0.66647149  0.83358305  0.16734792  1
  I  I133  1  0.66398946  0.83064454  0.50156856  1
  I  I134  1  0.66644365  0.83548345  0.83240365  1
