# generated using pymatgen
data_Cs27Sn14Pb13I81
_symmetry_space_group_name_H-M   'P 1'
_cell_length_a   18.97162339
_cell_length_b   18.96682974
_cell_length_c   18.98611042
_cell_angle_alpha   89.99976665
_cell_angle_beta   90.00028559
_cell_angle_gamma   89.99917712
_symmetry_Int_Tables_number   1
_chemical_formula_structural   Cs27Sn14Pb13I81
_chemical_formula_sum   'Cs27 Sn14 Pb13 I81'
_cell_volume   6831.80155394
_cell_formula_units_Z   1
loop_
 _symmetry_equiv_pos_site_id
 _symmetry_equiv_pos_as_xyz
  1  'x, y, z'
loop_
 _atom_site_type_symbol
 _atom_site_label
 _atom_site_symmetry_multiplicity
 _atom_site_fract_x
 _atom_site_fract_y
 _atom_site_fract_z
 _atom_site_occupancy
  Cs  Cs0  1  -0.00016337  -0.00072270  -0.00625511  1
  Cs  Cs1  1  -0.00241983  0.00200550  0.33675732  1
  Cs  Cs2  1  -0.00049740  -0.00149930  0.66797479  1
  Cs  Cs3  1  -0.00173312  0.33464973  0.00437411  1
  Cs  Cs4  1  -0.00563800  0.33351161  0.32777382  1
  Cs  Cs5  1  -0.00274652  0.33101389  0.66667681  1
  Cs  Cs6  1  0.00598769  0.66642063  -0.00086192  1
  Cs  Cs7  1  0.00506672  0.66418577  0.33249159  1
  Cs  Cs8  1  0.00260720  0.67099573  0.66760869  1
  Cs  Cs9  1  0.33676896  0.00236077  0.00342799  1
  Cs  Cs10  1  0.33504370  -0.00097920  0.33220577  1
  Cs  Cs11  1  0.33525322  0.00258624  0.66520268  1
  Cs  Cs12  1  0.33471187  0.33081267  -0.00228197  1
  Cs  Cs13  1  0.33479042  0.33275901  0.33487829  1
  Cs  Cs14  1  0.33519158  0.33577903  0.66713554  1
  Cs  Cs15  1  0.32562519  0.66519417  0.00313298  1
  Cs  Cs16  1  0.32455025  0.66803244  0.33328242  1
  Cs  Cs17  1  0.32800540  0.65542847  0.66440980  1
  Cs  Cs18  1  0.66354632  -0.00254413  -0.00165257  1
  Cs  Cs19  1  0.66679953  -0.00170733  0.33485464  1
  Cs  Cs20  1  0.66647343  -0.00113629  0.66581054  1
  Cs  Cs21  1  0.66693015  0.33415610  0.00091314  1
  Cs  Cs22  1  0.67003243  0.33379242  0.33190053  1
  Cs  Cs23  1  0.66605999  0.33534013  0.66628931  1
  Cs  Cs24  1  0.66723877  0.66988527  0.00064413  1
  Cs  Cs25  1  0.66650260  0.66937589  0.33413451  1
  Cs  Cs26  1  0.66749054  0.66535458  0.66589729  1
  Sn  Sn27  1  0.16725568  0.16630385  0.16685261  1
  Sn  Sn28  1  0.83269024  0.83218016  0.49906302  1
  Sn  Sn29  1  0.50019828  0.16614999  0.83297040  1
  Sn  Sn30  1  0.50022484  0.83343780  0.50139619  1
  Sn  Sn31  1  0.49967868  0.83314840  0.83184403  1
  Sn  Sn32  1  0.83305368  0.50119132  0.50068473  1
  Sn  Sn33  1  0.83294324  0.49963412  0.83276863  1
  Sn  Sn34  1  0.49974529  0.16774253  0.16694621  1
  Sn  Sn35  1  0.50012538  0.49990799  0.16682256  1
  Sn  Sn36  1  0.83354745  0.83350954  0.16745976  1
  Sn  Sn37  1  0.16696701  0.16663951  0.83323684  1
  Sn  Sn38  1  0.16747412  0.16663657  0.49989629  1
  Sn  Sn39  1  0.83274125  0.16751686  0.83327615  1
  Sn  Sn40  1  0.49959631  0.16621971  0.50007851  1
  Pb  Pb41  1  0.16324760  0.49650078  0.49998486  1
  Pb  Pb42  1  0.16717496  0.83554367  0.50022264  1
  Pb  Pb43  1  0.83274968  0.16456423  0.16392159  1
  Pb  Pb44  1  0.50073524  0.83344221  0.16712510  1
  Pb  Pb45  1  0.16360133  0.49709597  0.83326128  1
  Pb  Pb46  1  0.50167667  0.50028533  0.83513319  1
  Pb  Pb47  1  0.17085984  0.83569991  0.83300261  1
  Pb  Pb48  1  0.16353411  0.83652873  0.16666936  1
  Pb  Pb49  1  0.16960237  0.49706773  0.16673328  1
  Pb  Pb50  1  0.83280450  0.16632270  0.50192268  1
  Pb  Pb51  1  0.83186358  0.83308913  0.83270893  1
  Pb  Pb52  1  0.83167983  0.50247239  0.16640949  1
  Pb  Pb53  1  0.50160765  0.50027145  0.49799744  1
  I  I54  1  0.17546367  0.00464185  0.16603722  1
  I  I55  1  0.16514766  0.00414547  0.50049525  1
  I  I56  1  0.15937070  0.00467962  0.83316297  1
  I  I57  1  0.16544979  0.32862538  0.16613798  1
  I  I58  1  0.17299793  0.32826648  0.50121425  1
  I  I59  1  0.17324700  0.32833323  0.83313163  1
  I  I60  1  0.16808189  0.66664507  0.16653734  1
  I  I61  1  0.16948900  0.66649624  0.49948904  1
  I  I62  1  0.16603135  0.66660070  0.83406056  1
  I  I63  1  0.49734586  0.00330647  0.16578814  1
  I  I64  1  0.50277148  0.00121218  0.49877414  1
  I  I65  1  0.50295968  0.00223347  0.83529886  1
  I  I66  1  0.49786613  0.33069315  0.16593579  1
  I  I67  1  0.49759290  0.32997855  0.50274532  1
  I  I68  1  0.49825907  0.32968464  0.83132552  1
  I  I69  1  0.50633287  0.66482518  0.16568079  1
  I  I70  1  0.50500704  0.66973534  0.50321429  1
  I  I71  1  0.50612667  0.66942901  0.83082574  1
  I  I72  1  0.83067567  -0.00274574  0.17254360  1
  I  I73  1  0.83211599  -0.00233412  0.49763433  1
  I  I74  1  0.83497220  0.00275632  0.83369371  1
  I  I75  1  0.83505724  0.33304262  0.16868853  1
  I  I76  1  0.83366871  0.33494652  0.50293482  1
  I  I77  1  0.83134457  0.33218029  0.82795225  1
  I  I78  1  0.82754066  0.66997602  0.16577369  1
  I  I79  1  0.82562254  0.66757079  0.50182472  1
  I  I80  1  0.82861171  0.66447893  0.83281087  1
  I  I81  1  0.16975648  0.16639971  -0.00031207  1
  I  I82  1  0.17406580  0.16589979  0.33340524  1
  I  I83  1  0.16891912  0.16618077  0.66690120  1
  I  I84  1  0.16391244  0.49838550  0.00003965  1
  I  I85  1  0.16407985  0.49717962  0.33335918  1
  I  I86  1  0.17029420  0.49672139  0.66660510  1
  I  I87  1  0.16530403  0.83592008  -0.00015795  1
  I  I88  1  0.17084412  0.83699506  0.33342249  1
  I  I89  1  0.15993251  0.83727206  0.66664864  1
  I  I90  1  0.49819471  0.16618370  -0.00050855  1
  I  I91  1  0.49361514  0.16612049  0.33364429  1
  I  I92  1  0.49838900  0.16185612  0.66680679  1
  I  I93  1  0.50371730  0.49456450  0.00277960  1
  I  I94  1  0.50412102  0.49381313  0.33047483  1
  I  I95  1  0.50055494  0.49739673  0.66654950  1
  I  I96  1  0.50413314  0.83875223  -0.00202379  1
  I  I97  1  0.50413342  0.83813922  0.33623362  1
  I  I98  1  0.50819718  0.84461429  0.66592648  1
  I  I99  1  0.83292870  0.17033465  -0.00400345  1
  I  I100  1  0.83418063  0.16876336  0.33336743  1
  I  I101  1  0.83314060  0.16578727  0.66987791  1
  I  I102  1  0.83105560  0.49549453  -0.00249444  1
  I  I103  1  0.83141445  0.50107642  0.33576377  1
  I  I104  1  0.83081210  0.50022101  0.66667203  1
  I  I105  1  0.82996431  0.83554484  0.00125055  1
  I  I106  1  0.82623734  0.83025938  0.33497256  1
  I  I107  1  0.83050962  0.83326501  0.66394911  1
  I  I108  1  0.00231706  0.16389512  0.16707971  1
  I  I109  1  0.00202493  0.16722988  0.50041222  1
  I  I110  1  -0.00015580  0.17135221  0.83314693  1
  I  I111  1  -0.00006782  0.49921055  0.16675452  1
  I  I112  1  -0.00473336  0.50504554  0.50344674  1
  I  I113  1  -0.00462000  0.49542005  0.83071184  1
  I  I114  1  -0.00437795  0.83374983  0.17209989  1
  I  I115  1  -0.00313302  0.83155517  0.49595172  1
  I  I116  1  0.00005478  0.83492505  0.83393674  1
  I  I117  1  0.33463302  0.16976125  0.16219737  1
  I  I118  1  0.33489819  0.16145879  0.50312107  1
  I  I119  1  0.33431577  0.16111812  0.83422379  1
  I  I120  1  0.33756524  0.49990370  0.16625351  1
  I  I121  1  0.33336986  0.50244718  0.49837361  1
  I  I122  1  0.33340929  0.50028462  0.83486195  1
  I  I123  1  0.33332439  0.83116979  0.16638680  1
  I  I124  1  0.33700577  0.83754313  0.50301238  1
  I  I125  1  0.33885437  0.84000495  0.82934751  1
  I  I126  1  0.66344107  0.16872321  0.16699006  1
  I  I127  1  0.66364688  0.16567033  0.49979259  1
  I  I128  1  0.66563216  0.16640689  0.83338179  1
  I  I129  1  0.66414661  0.49102227  0.16635857  1
  I  I130  1  0.66955882  0.49791651  0.50328856  1
  I  I131  1  0.66951935  0.49274404  0.83040212  1
  I  I132  1  0.66859762  0.83647604  0.16773103  1
  I  I133  1  0.66633734  0.83719821  0.49969587  1
  I  I134  1  0.66402114  0.84106938  0.83306650  1
