# generated using pymatgen
data_Cs27Sn13Pb14I81
_symmetry_space_group_name_H-M   'P 1'
_cell_length_a   18.99426139
_cell_length_b   18.98415636
_cell_length_c   18.99420121
_cell_angle_alpha   89.99857154
_cell_angle_beta   90.00047046
_cell_angle_gamma   89.99750045
_symmetry_Int_Tables_number   1
_chemical_formula_structural   Cs27Sn13Pb14I81
_chemical_formula_sum   'Cs27 Sn13 Pb14 I81'
_cell_volume   6849.11954219
_cell_formula_units_Z   1
loop_
 _symmetry_equiv_pos_site_id
 _symmetry_equiv_pos_as_xyz
  1  'x, y, z'
loop_
 _atom_site_type_symbol
 _atom_site_label
 _atom_site_symmetry_multiplicity
 _atom_site_fract_x
 _atom_site_fract_y
 _atom_site_fract_z
 _atom_site_occupancy
  Cs  Cs0  1  0.00101569  0.00914795  0.00046716  1
  Cs  Cs1  1  0.00060985  -0.00344832  0.33429520  1
  Cs  Cs2  1  -0.00289572  -0.00037399  0.66606153  1
  Cs  Cs3  1  -0.00641708  0.32472428  -0.00022677  1
  Cs  Cs4  1  -0.00157517  0.33335930  0.33471051  1
  Cs  Cs5  1  0.00001885  0.33228620  0.66552896  1
  Cs  Cs6  1  0.00056175  0.66550334  0.00320376  1
  Cs  Cs7  1  0.00177048  0.66843722  0.33191340  1
  Cs  Cs8  1  0.00096123  0.66910376  0.66589346  1
  Cs  Cs9  1  0.33319933  0.00163621  0.00254358  1
  Cs  Cs10  1  0.34342471  0.00148448  0.33348494  1
  Cs  Cs11  1  0.33585284  -0.00108336  0.66451077  1
  Cs  Cs12  1  0.33145669  0.33352656  -0.00382272  1
  Cs  Cs13  1  0.33347028  0.33464399  0.33480915  1
  Cs  Cs14  1  0.33369719  0.33466468  0.66760319  1
  Cs  Cs15  1  0.33209541  0.66565299  0.00008460  1
  Cs  Cs16  1  0.32970303  0.66489283  0.33136350  1
  Cs  Cs17  1  0.33099602  0.66370220  0.66856985  1
  Cs  Cs18  1  0.66533301  -0.00349896  0.00007546  1
  Cs  Cs19  1  0.65408901  0.00057227  0.33299782  1
  Cs  Cs20  1  0.66518861  -0.01065464  0.66739075  1
  Cs  Cs21  1  0.67586609  0.33327864  -0.00084334  1
  Cs  Cs22  1  0.66838487  0.33175234  0.33464323  1
  Cs  Cs23  1  0.66471877  0.33427925  0.66468036  1
  Cs  Cs24  1  0.66921426  0.66865087  -0.00225048  1
  Cs  Cs25  1  0.66816900  0.66601155  0.33112978  1
  Cs  Cs26  1  0.66916617  0.67229746  0.67027053  1
  Sn  Sn27  1  0.83366179  0.49976547  0.50027259  1
  Sn  Sn28  1  0.50010744  0.50001392  0.50012269  1
  Sn  Sn29  1  0.50012059  0.16774532  0.83327271  1
  Sn  Sn30  1  0.16659049  0.50023192  0.83383086  1
  Sn  Sn31  1  0.16659395  0.83286120  0.83442026  1
  Sn  Sn32  1  0.16616060  0.16730076  0.49973740  1
  Sn  Sn33  1  0.83368696  0.16685582  0.50003918  1
  Sn  Sn34  1  0.16578633  0.83294379  0.16557335  1
  Sn  Sn35  1  0.16689622  0.49979888  0.16609727  1
  Sn  Sn36  1  0.83437964  0.83354954  0.16697931  1
  Sn  Sn37  1  0.16641430  0.49916224  0.50005824  1
  Sn  Sn38  1  0.49950953  0.49968257  0.16612511  1
  Sn  Sn39  1  0.49956972  0.49886231  0.83365352  1
  Pb  Pb40  1  0.49896891  0.83058098  0.16641498  1
  Pb  Pb41  1  0.49714194  0.83245114  0.83361521  1
  Pb  Pb42  1  0.83342004  0.83360300  0.49765033  1
  Pb  Pb43  1  0.16682171  0.83338549  0.49960523  1
  Pb  Pb44  1  0.49986442  0.17047037  0.16364078  1
  Pb  Pb45  1  0.83017127  0.16656017  0.83024536  1
  Pb  Pb46  1  0.50014796  0.16886502  0.50196545  1
  Pb  Pb47  1  0.83385324  0.50100005  0.16885216  1
  Pb  Pb48  1  0.83389923  0.50002013  0.83078677  1
  Pb  Pb49  1  0.16682445  0.16699015  0.16940048  1
  Pb  Pb50  1  0.16803307  0.16683469  0.83088055  1
  Pb  Pb51  1  0.49973086  0.82952736  0.50008654  1
  Pb  Pb52  1  0.83692733  0.83326852  0.83617334  1
  Pb  Pb53  1  0.83320246  0.16345460  0.16975733  1
  I  I54  1  0.16133005  -0.00313040  0.16240232  1
  I  I55  1  0.16027569  0.00288112  0.50151092  1
  I  I56  1  0.16832567  -0.00250680  0.83685038  1
  I  I57  1  0.17188646  0.33715750  0.16495781  1
  I  I58  1  0.16659545  0.33587440  0.50019269  1
  I  I59  1  0.16994973  0.33688558  0.83456066  1
  I  I60  1  0.16704461  0.66506961  0.16882572  1
  I  I61  1  0.16703332  0.66291242  0.50005783  1
  I  I62  1  0.17250947  0.66461016  0.83108992  1
  I  I63  1  0.50004115  0.00003823  0.16640846  1
  I  I64  1  0.50013019  0.00039505  0.50170128  1
  I  I65  1  0.49897940  0.00230264  0.83088799  1
  I  I66  1  0.49295256  0.33851745  0.17139871  1
  I  I67  1  0.49898925  0.33739335  0.49805452  1
  I  I68  1  0.49249555  0.33602893  0.83198832  1
  I  I69  1  0.49822248  0.66234579  0.16542579  1
  I  I70  1  0.49855526  0.66073084  0.50313767  1
  I  I71  1  0.49790281  0.66264551  0.83228417  1
  I  I72  1  0.84233487  -0.00424647  0.16725410  1
  I  I73  1  0.84088441  0.00308904  0.49982585  1
  I  I74  1  0.83250429  -0.00012473  0.82990450  1
  I  I75  1  0.83320232  0.33328761  0.16590859  1
  I  I76  1  0.83449832  0.33479114  0.49902490  1
  I  I77  1  0.83806921  0.33344810  0.83712007  1
  I  I78  1  0.83527291  0.66875690  0.17035245  1
  I  I79  1  0.83372674  0.66346445  0.49897889  1
  I  I80  1  0.82752140  0.66655470  0.82918438  1
  I  I81  1  0.16809020  0.16860177  -0.00014705  1
  I  I82  1  0.16368193  0.17202596  0.33732315  1
  I  I83  1  0.16399534  0.17180865  0.66323470  1
  I  I84  1  0.17604078  0.50695316  -0.00000004  1
  I  I85  1  0.16962325  0.50086238  0.33353418  1
  I  I86  1  0.16979125  0.50056642  0.66650855  1
  I  I87  1  0.16390480  0.82334866  0.00044125  1
  I  I88  1  0.16209699  0.82798869  0.33022648  1
  I  I89  1  0.16905038  0.82862265  0.66909243  1
  I  I90  1  0.49710835  0.17196833  -0.00392133  1
  I  I91  1  0.50027342  0.16612545  0.33361443  1
  I  I92  1  0.49843782  0.17460746  0.66930523  1
  I  I93  1  0.49105040  0.49725813  -0.00039129  1
  I  I94  1  0.49640798  0.50222362  0.33369639  1
  I  I95  1  0.49603835  0.49559140  0.66672754  1
  I  I96  1  0.50340382  0.83190170  0.00003400  1
  I  I97  1  0.49790634  0.83372771  0.33306033  1
  I  I98  1  0.49906957  0.83221443  0.66701727  1
  I  I99  1  0.83270741  0.16607408  -0.00001919  1
  I  I100  1  0.83705130  0.17327051  0.33747382  1
  I  I101  1  0.83895486  0.17209014  0.66251056  1
  I  I102  1  0.83209736  0.50219365  0.00012752  1
  I  I103  1  0.83306135  0.49736293  0.33691973  1
  I  I104  1  0.83356934  0.49671240  0.66242941  1
  I  I105  1  0.83343572  0.82981923  0.00374513  1
  I  I106  1  0.84263697  0.83093915  0.33034920  1
  I  I107  1  0.83317844  0.83347496  0.66654318  1
  I  I108  1  0.00014540  0.17170212  0.16388583  1
  I  I109  1  0.00061472  0.17644858  0.50036017  1
  I  I110  1  0.00005488  0.16664062  0.83372831  1
  I  I111  1  0.00345218  0.50337289  0.16786187  1
  I  I112  1  0.00116558  0.49630388  0.49955939  1
  I  I113  1  0.00379563  0.50500008  0.83286495  1
  I  I114  1  0.00191267  0.82519289  0.16461644  1
  I  I115  1  0.00027300  0.82843202  0.50199874  1
  I  I116  1  0.00467273  0.82539877  0.83246030  1
  I  I117  1  0.33331138  0.16055488  0.17103703  1
  I  I118  1  0.33086199  0.17063498  0.50108315  1
  I  I119  1  0.33568249  0.16996763  0.82967774  1
  I  I120  1  0.33222699  0.50578590  0.17148821  1
  I  I121  1  0.33256651  0.49669005  0.49993894  1
  I  I122  1  0.33275324  0.50043454  0.82890252  1
  I  I123  1  0.32966154  0.83017477  0.16318010  1
  I  I124  1  0.33296792  0.83634953  0.49737674  1
  I  I125  1  0.32952224  0.83039634  0.83954604  1
  I  I126  1  0.66648404  0.16606952  0.16965809  1
  I  I127  1  0.66905649  0.17237966  0.50036896  1
  I  I128  1  0.66254626  0.17600032  0.83228942  1
  I  I129  1  0.66399233  0.50180287  0.16747958  1
  I  I130  1  0.66635370  0.49572893  0.49884518  1
  I  I131  1  0.66341535  0.49565743  0.83340143  1
  I  I132  1  0.66871198  0.83179556  0.16995229  1
  I  I133  1  0.66674200  0.83398902  0.49779449  1
  I  I134  1  0.66659991  0.83325595  0.83357445  1
