# generated using pymatgen
data_Cs27Sn13Pb14I81
_symmetry_space_group_name_H-M   'P 1'
_cell_length_a   18.97823352
_cell_length_b   18.97480958
_cell_length_c   18.97955308
_cell_angle_alpha   89.99987213
_cell_angle_beta   89.99850302
_cell_angle_gamma   89.99846228
_symmetry_Int_Tables_number   1
_chemical_formula_structural   Cs27Sn13Pb14I81
_chemical_formula_sum   'Cs27 Sn13 Pb14 I81'
_cell_volume   6834.69586635
_cell_formula_units_Z   1
loop_
 _symmetry_equiv_pos_site_id
 _symmetry_equiv_pos_as_xyz
  1  'x, y, z'
loop_
 _atom_site_type_symbol
 _atom_site_label
 _atom_site_symmetry_multiplicity
 _atom_site_fract_x
 _atom_site_fract_y
 _atom_site_fract_z
 _atom_site_occupancy
  Cs  Cs0  1  -0.00166569  -0.00069743  -0.00393051  1
  Cs  Cs1  1  -0.00172280  0.00039400  0.33524853  1
  Cs  Cs2  1  -0.00404746  0.00045959  0.66746927  1
  Cs  Cs3  1  -0.00507704  0.33473064  0.00748228  1
  Cs  Cs4  1  0.00046582  0.33380426  0.32955153  1
  Cs  Cs5  1  0.00237256  0.33231309  0.66520586  1
  Cs  Cs6  1  -0.00179994  0.66699993  -0.00224058  1
  Cs  Cs7  1  0.00107155  0.66684348  0.33463824  1
  Cs  Cs8  1  0.00116619  0.66767901  0.66675004  1
  Cs  Cs9  1  0.33462350  -0.00024903  -0.00211898  1
  Cs  Cs10  1  0.33364902  -0.00086692  0.33390194  1
  Cs  Cs11  1  0.33308694  0.00197748  0.66732843  1
  Cs  Cs12  1  0.33298297  0.33147209  0.00527621  1
  Cs  Cs13  1  0.33285834  0.33299504  0.32973216  1
  Cs  Cs14  1  0.33186251  0.33129069  0.66605922  1
  Cs  Cs15  1  0.33270130  0.66891051  -0.00084434  1
  Cs  Cs16  1  0.33313521  0.66769891  0.33501123  1
  Cs  Cs17  1  0.33271447  0.66540423  0.66571638  1
  Cs  Cs18  1  0.66361631  0.00212921  -0.00003652  1
  Cs  Cs19  1  0.66748780  -0.00101040  0.33466955  1
  Cs  Cs20  1  0.66915556  0.00135326  0.66520951  1
  Cs  Cs21  1  0.67499791  0.34118091  0.00525635  1
  Cs  Cs22  1  0.66664402  0.33441057  0.32572956  1
  Cs  Cs23  1  0.66674246  0.33517245  0.66990152  1
  Cs  Cs24  1  0.66819158  0.66019512  -0.00138557  1
  Cs  Cs25  1  0.66473671  0.66891684  0.33476619  1
  Cs  Cs26  1  0.66758105  0.66274537  0.66798213  1
  Sn  Sn27  1  0.16719151  0.49849250  0.83283117  1
  Sn  Sn28  1  0.83398357  0.49984363  0.50017415  1
  Sn  Sn29  1  0.16639487  0.83361613  0.16727688  1
  Sn  Sn30  1  0.49979693  0.83383962  0.83260928  1
  Sn  Sn31  1  0.16590067  0.49975376  0.50068362  1
  Sn  Sn32  1  0.16745531  0.16643450  0.50065791  1
  Sn  Sn33  1  0.50009163  0.83351907  0.16663127  1
  Sn  Sn34  1  0.49928308  0.16607360  0.50073598  1
  Sn  Sn35  1  0.16733236  0.16789471  0.83273217  1
  Sn  Sn36  1  0.49919428  0.83417320  0.50077755  1
  Sn  Sn37  1  0.83335696  0.83365043  0.16669836  1
  Sn  Sn38  1  0.16721258  0.83376276  0.49959103  1
  Sn  Sn39  1  0.49944071  0.16638450  0.83271816  1
  Pb  Pb40  1  0.49994902  0.16475024  0.16654164  1
  Pb  Pb41  1  0.83309436  0.83183651  0.49885951  1
  Pb  Pb42  1  0.83337433  0.16389978  0.16685216  1
  Pb  Pb43  1  0.16809789  0.83384020  0.83267843  1
  Pb  Pb44  1  0.16685715  0.50258500  0.16677621  1
  Pb  Pb45  1  0.83368505  0.50270552  0.16957475  1
  Pb  Pb46  1  0.49963981  0.50282069  0.16658088  1
  Pb  Pb47  1  0.49931744  0.49917740  0.50005979  1
  Pb  Pb48  1  0.82961128  0.83338286  0.83573188  1
  Pb  Pb49  1  0.83290159  0.16920065  0.49995552  1
  Pb  Pb50  1  0.83308018  0.16676056  0.83314698  1
  Pb  Pb51  1  0.83672043  0.49989259  0.83087469  1
  Pb  Pb52  1  0.16658786  0.16383480  0.16654376  1
  Pb  Pb53  1  0.49745622  0.49877533  0.83319150  1
  I  I54  1  0.16822385  -0.00449553  0.17082883  1
  I  I55  1  0.17155818  -0.00031025  0.49921745  1
  I  I56  1  0.16931824  0.00271411  0.83121127  1
  I  I57  1  0.16597033  0.33320870  0.16898412  1
  I  I58  1  0.16682166  0.33291471  0.50542057  1
  I  I59  1  0.17274727  0.33249383  0.82307022  1
  I  I60  1  0.16831970  0.67103114  0.17071291  1
  I  I61  1  0.16678813  0.66731564  0.49957573  1
  I  I62  1  0.16791557  0.66505482  0.83032693  1
  I  I63  1  0.49898531  -0.00416348  0.16712604  1
  I  I64  1  0.49295398  -0.00116094  0.49955564  1
  I  I65  1  0.49341124  -0.00035502  0.83359370  1
  I  I66  1  0.50091873  0.33294669  0.16756144  1
  I  I67  1  0.49687693  0.32964956  0.50648514  1
  I  I68  1  0.49713771  0.32939633  0.82483751  1
  I  I69  1  0.49911908  0.67217864  0.16805605  1
  I  I70  1  0.49697841  0.66990532  0.49875608  1
  I  I71  1  0.49847803  0.66954556  0.83382919  1
  I  I72  1  0.83300476  -0.00456585  0.16928551  1
  I  I73  1  0.83560130  -0.00003545  0.49780854  1
  I  I74  1  0.83921504  -0.00016534  0.83334850  1
  I  I75  1  0.83268320  0.33383081  0.16663937  1
  I  I76  1  0.83852865  0.33691506  0.50094435  1
  I  I77  1  0.82747839  0.33347156  0.83356575  1
  I  I78  1  0.83261121  0.67057307  0.16721097  1
  I  I79  1  0.83829060  0.66406682  0.49842201  1
  I  I80  1  0.83360052  0.66669654  0.83371575  1
  I  I81  1  0.17152394  0.16924178  -0.00345020  1
  I  I82  1  0.17086544  0.16898232  0.33704602  1
  I  I83  1  0.17090864  0.16553145  0.66549183  1
  I  I84  1  0.16927070  0.49752940  -0.00302382  1
  I  I85  1  0.16329528  0.49852228  0.33698128  1
  I  I86  1  0.16331712  0.50266287  0.66521911  1
  I  I87  1  0.16818728  0.83262249  0.00209854  1
  I  I88  1  0.17107708  0.83249461  0.33480003  1
  I  I89  1  0.17124464  0.83194417  0.66334799  1
  I  I90  1  0.49376314  0.16013021  -0.00340979  1
  I  I91  1  0.49535392  0.16279645  0.33679040  1
  I  I92  1  0.49497596  0.15694371  0.66613447  1
  I  I93  1  0.49797580  0.50124468  -0.00028428  1
  I  I94  1  0.49827907  0.50009935  0.33374070  1
  I  I95  1  0.50294033  0.50770937  0.66647670  1
  I  I96  1  0.49871944  0.83722103  -0.00004143  1
  I  I97  1  0.49925344  0.83609551  0.33411280  1
  I  I98  1  0.49378663  0.83649719  0.66557960  1
  I  I99  1  0.83383002  0.16638519  -0.00009908  1
  I  I100  1  0.83334534  0.16748350  0.33376423  1
  I  I101  1  0.83321996  0.16476029  0.66637113  1
  I  I102  1  0.83350915  0.50086763  0.00016994  1
  I  I103  1  0.84095035  0.50010532  0.33700180  1
  I  I104  1  0.83435135  0.50274754  0.66317427  1
  I  I105  1  0.83693509  0.83296930  0.00394774  1
  I  I106  1  0.82935700  0.83142627  0.33080349  1
  I  I107  1  0.83387686  0.83198679  0.66663703  1
  I  I108  1  0.00040369  0.16298268  0.16689829  1
  I  I109  1  0.00374719  0.16287388  0.50417642  1
  I  I110  1  0.00386494  0.16896277  0.82821756  1
  I  I111  1  0.00034379  0.50398040  0.16456709  1
  I  I112  1  0.00249541  0.50182154  0.50356016  1
  I  I113  1  0.00483232  0.49614850  0.83149860  1
  I  I114  1  0.00104349  0.83282580  0.17293687  1
  I  I115  1  0.00333571  0.83499259  0.49538622  1
  I  I116  1  0.00016089  0.83331060  0.83447217  1
  I  I117  1  0.33323632  0.16440439  0.16692331  1
  I  I118  1  0.33254605  0.16631275  0.50378606  1
  I  I119  1  0.33310609  0.16535038  0.82848990  1
  I  I120  1  0.33290127  0.50288709  0.16970163  1
  I  I121  1  0.32971156  0.50216310  0.50372328  1
  I  I122  1  0.32961957  0.50098985  0.82474583  1
  I  I123  1  0.33356925  0.83302310  0.16834817  1
  I  I124  1  0.33303430  0.83144181  0.49528078  1
  I  I125  1  0.33618794  0.83382238  0.83759890  1
  I  I126  1  0.66629881  0.16351255  0.16789791  1
  I  I127  1  0.66286428  0.16129858  0.50381059  1
  I  I128  1  0.66256460  0.15947326  0.82803655  1
  I  I129  1  0.66687491  0.50214794  0.16839932  1
  I  I130  1  0.66861007  0.50258929  0.49813123  1
  I  I131  1  0.66670391  0.50118853  0.83273942  1
  I  I132  1  0.66542651  0.83367485  0.16781425  1
  I  I133  1  0.66317533  0.83583028  0.49839426  1
  I  I134  1  0.66115491  0.83917990  0.83118033  1
