# generated using pymatgen
data_Cs27Sn14Pb13I81
_symmetry_space_group_name_H-M   'P 1'
_cell_length_a   18.96842465
_cell_length_b   18.97919564
_cell_length_c   18.97904583
_cell_angle_alpha   89.99960557
_cell_angle_beta   89.99859273
_cell_angle_gamma   90.00009699
_symmetry_Int_Tables_number   1
_chemical_formula_structural   Cs27Sn14Pb13I81
_chemical_formula_sum   'Cs27 Sn14 Pb13 I81'
_cell_volume   6832.55978750
_cell_formula_units_Z   1
loop_
 _symmetry_equiv_pos_site_id
 _symmetry_equiv_pos_as_xyz
  1  'x, y, z'
loop_
 _atom_site_type_symbol
 _atom_site_label
 _atom_site_symmetry_multiplicity
 _atom_site_fract_x
 _atom_site_fract_y
 _atom_site_fract_z
 _atom_site_occupancy
  Cs  Cs0  1  -0.00026625  0.00006131  0.00142155  1
  Cs  Cs1  1  -0.00048874  -0.00549580  0.32831632  1
  Cs  Cs2  1  -0.00218178  -0.00380676  0.66760064  1
  Cs  Cs3  1  0.00073630  0.33227179  -0.00083300  1
  Cs  Cs4  1  0.00301730  0.33716038  0.32999801  1
  Cs  Cs5  1  -0.00306263  0.33346130  0.66961559  1
  Cs  Cs6  1  0.00114250  0.67029619  0.00095296  1
  Cs  Cs7  1  -0.00162940  0.66913416  0.33500717  1
  Cs  Cs8  1  0.00160946  0.67030040  0.66317684  1
  Cs  Cs9  1  0.33399782  0.00073949  0.00006009  1
  Cs  Cs10  1  0.33439045  0.00250132  0.33390653  1
  Cs  Cs11  1  0.33385460  0.00078801  0.66646207  1
  Cs  Cs12  1  0.33079412  0.33119973  -0.00025859  1
  Cs  Cs13  1  0.33154713  0.33143374  0.33629541  1
  Cs  Cs14  1  0.33316905  0.33320145  0.66445435  1
  Cs  Cs15  1  0.33862300  0.66767899  -0.00120165  1
  Cs  Cs16  1  0.33383486  0.66654286  0.33532356  1
  Cs  Cs17  1  0.33228870  0.66625043  0.66630141  1
  Cs  Cs18  1  0.66754771  -0.00209343  0.00081503  1
  Cs  Cs19  1  0.66541407  0.00220786  0.33444523  1
  Cs  Cs20  1  0.66786328  0.00596766  0.66361237  1
  Cs  Cs21  1  0.66937463  0.33969542  -0.00106305  1
  Cs  Cs22  1  0.66835053  0.33362321  0.33526944  1
  Cs  Cs23  1  0.67641510  0.32922824  0.66682847  1
  Cs  Cs24  1  0.65819825  0.66280234  0.00098773  1
  Cs  Cs25  1  0.66712887  0.66295748  0.33064265  1
  Cs  Cs26  1  0.66485869  0.66355672  0.66814163  1
  Sn  Sn27  1  0.83349341  0.83390305  0.16534283  1
  Sn  Sn28  1  0.16629340  0.16694379  0.50111434  1
  Sn  Sn29  1  0.16705006  0.50159376  0.16649711  1
  Sn  Sn30  1  0.50137196  0.16691611  0.16547439  1
  Sn  Sn31  1  0.49964881  0.16679011  0.83433748  1
  Sn  Sn32  1  0.16641026  0.83339064  0.83430619  1
  Sn  Sn33  1  0.83347228  0.83320569  0.83429973  1
  Sn  Sn34  1  0.49937083  0.50064524  0.50034817  1
  Sn  Sn35  1  0.16706497  0.49905566  0.50025548  1
  Sn  Sn36  1  0.16678882  0.83233474  0.16586479  1
  Sn  Sn37  1  0.16690049  0.50023456  0.83330920  1
  Sn  Sn38  1  0.83203459  0.16623445  0.16647598  1
  Sn  Sn39  1  0.50004043  0.83238013  0.50005356  1
  Sn  Sn40  1  0.16721219  0.16644608  0.83209695  1
  Pb  Pb41  1  0.49991515  0.83529578  0.83140599  1
  Pb  Pb42  1  0.16652823  0.16627055  0.16634130  1
  Pb  Pb43  1  0.83382305  0.50004391  0.50014337  1
  Pb  Pb44  1  0.83012092  0.83324044  0.49979012  1
  Pb  Pb45  1  0.49859559  0.16745261  0.50033188  1
  Pb  Pb46  1  0.83608719  0.50346201  0.83354274  1
  Pb  Pb47  1  0.83740759  0.16646291  0.49686837  1
  Pb  Pb48  1  0.49779986  0.49695505  0.83088383  1
  Pb  Pb49  1  0.16792779  0.83329660  0.49999238  1
  Pb  Pb50  1  0.49991325  0.83489732  0.16834047  1
  Pb  Pb51  1  0.83561602  0.50073812  0.16646099  1
  Pb  Pb52  1  0.83382656  0.16474188  0.83548641  1
  Pb  Pb53  1  0.49716400  0.49702893  0.16861985  1
  I  I54  1  0.16565322  -0.00244447  0.16445818  1
  I  I55  1  0.17003310  0.00218870  0.50220304  1
  I  I56  1  0.16687996  -0.00002355  0.83363974  1
  I  I57  1  0.16732305  0.33517920  0.16592694  1
  I  I58  1  0.17332584  0.33409095  0.50065860  1
  I  I59  1  0.17232920  0.33300115  0.83309342  1
  I  I60  1  0.16106191  0.66750490  0.16533957  1
  I  I61  1  0.16915511  0.66405439  0.50183975  1
  I  I62  1  0.16132158  0.66704131  0.83288671  1
  I  I63  1  0.49694895  0.00286219  0.16690612  1
  I  I64  1  0.49767834  -0.00115962  0.49963709  1
  I  I65  1  0.49262083  0.00301244  0.83385705  1
  I  I66  1  0.50329674  0.32908901  0.16517312  1
  I  I67  1  0.49424189  0.33576290  0.49863803  1
  I  I68  1  0.49311547  0.32912200  0.83581533  1
  I  I69  1  0.50201173  0.66641952  0.16710789  1
  I  I70  1  0.49237580  0.66600907  0.49982924  1
  I  I71  1  0.49980748  0.66652104  0.83309252  1
  I  I72  1  0.83761436  -0.00090477  0.16361910  1
  I  I73  1  0.83225232  -0.00007405  0.50163503  1
  I  I74  1  0.84031342  -0.00301583  0.83528715  1
  I  I75  1  0.83160440  0.33072072  0.16812600  1
  I  I76  1  0.82843717  0.33302355  0.49870411  1
  I  I77  1  0.83371835  0.33320160  0.83381903  1
  I  I78  1  0.83713641  0.67027073  0.16417753  1
  I  I79  1  0.83849494  0.66689637  0.49785073  1
  I  I80  1  0.83817117  0.67147769  0.83929780  1
  I  I81  1  0.16756082  0.16882717  -0.00255627  1
  I  I82  1  0.16779269  0.17000533  0.33501846  1
  I  I83  1  0.17361640  0.16878782  0.66792594  1
  I  I84  1  0.16469080  0.49874534  -0.00029974  1
  I  I85  1  0.16990299  0.49807257  0.33361367  1
  I  I86  1  0.17094660  0.49934688  0.66670879  1
  I  I87  1  0.16327321  0.83177219  -0.00024112  1
  I  I88  1  0.16356673  0.83174111  0.33066177  1
  I  I89  1  0.16393080  0.83212137  0.66954754  1
  I  I90  1  0.49483332  0.16416342  -0.00026410  1
  I  I91  1  0.50101010  0.16574580  0.33133362  1
  I  I92  1  0.49526822  0.16529936  0.66897746  1
  I  I93  1  0.49860326  0.50065303  -0.00014619  1
  I  I94  1  0.49270063  0.50182974  0.33644504  1
  I  I95  1  0.49190309  0.50303560  0.66316512  1
  I  I96  1  0.49936210  0.83399863  -0.00008726  1
  I  I97  1  0.49768011  0.83290229  0.33606682  1
  I  I98  1  0.49736934  0.83230968  0.66380351  1
  I  I99  1  0.83584686  0.16373393  0.00327291  1
  I  I100  1  0.82803727  0.15978741  0.32909620  1
  I  I101  1  0.83024745  0.16508927  0.66689435  1
  I  I102  1  0.83510948  0.49641722  0.00003595  1
  I  I103  1  0.83699598  0.50163182  0.33313208  1
  I  I104  1  0.83527236  0.50102374  0.66693924  1
  I  I105  1  0.83998876  0.83882245  0.00074330  1
  I  I106  1  0.83898273  0.83721863  0.32984331  1
  I  I107  1  0.83956271  0.83296030  0.66962087  1
  I  I108  1  -0.00170302  0.16515784  0.16768922  1
  I  I109  1  0.00526797  0.17249923  0.50585303  1
  I  I110  1  0.00356226  0.16885511  0.83111154  1
  I  I111  1  0.00441023  0.49771294  0.16955139  1
  I  I112  1  0.00437215  0.49572785  0.49966051  1
  I  I113  1  0.00508647  0.49299432  0.83104928  1
  I  I114  1  0.00095144  0.83655269  0.16432880  1
  I  I115  1  0.00003558  0.83377511  0.49960063  1
  I  I116  1  0.00208159  0.83556761  0.83634283  1
  I  I117  1  0.33480104  0.16665842  0.16664538  1
  I  I118  1  0.33046472  0.16779530  0.49832737  1
  I  I119  1  0.33151068  0.16424577  0.83582250  1
  I  I120  1  0.32885751  0.50438937  0.16468714  1
  I  I121  1  0.33145639  0.49986241  0.49956543  1
  I  I122  1  0.32904607  0.50535513  0.83534399  1
  I  I123  1  0.33023877  0.83158294  0.16339762  1
  I  I124  1  0.33548184  0.83304784  0.49962553  1
  I  I125  1  0.32979347  0.83212875  0.83648947  1
  I  I126  1  0.66646978  0.15946808  0.16273028  1
  I  I127  1  0.66678266  0.16700692  0.50240081  1
  I  I128  1  0.66434879  0.16365649  0.83405676  1
  I  I129  1  0.66631410  0.50168147  0.16955078  1
  I  I130  1  0.66347413  0.50452207  0.49872332  1
  I  I131  1  0.66643075  0.49959226  0.83085683  1
  I  I132  1  0.66944960  0.83727110  0.16402043  1
  I  I133  1  0.66245178  0.82875944  0.49991764  1
  I  I134  1  0.66918043  0.83663971  0.83651875  1
