# generated using pymatgen
data_Cs27Sn13Pb14I81
_symmetry_space_group_name_H-M   'P 1'
_cell_length_a   18.99395682
_cell_length_b   18.99235985
_cell_length_c   18.98833906
_cell_angle_alpha   89.99883814
_cell_angle_beta   89.99841903
_cell_angle_gamma   89.99828458
_symmetry_Int_Tables_number   1
_chemical_formula_structural   Cs27Sn13Pb14I81
_chemical_formula_sum   'Cs27 Sn13 Pb14 I81'
_cell_volume   6849.85461988
_cell_formula_units_Z   1
loop_
 _symmetry_equiv_pos_site_id
 _symmetry_equiv_pos_as_xyz
  1  'x, y, z'
loop_
 _atom_site_type_symbol
 _atom_site_label
 _atom_site_symmetry_multiplicity
 _atom_site_fract_x
 _atom_site_fract_y
 _atom_site_fract_z
 _atom_site_occupancy
  Cs  Cs0  1  0.00211330  0.00074514  -0.00084267  1
  Cs  Cs1  1  -0.00184276  -0.00068144  0.33195073  1
  Cs  Cs2  1  -0.01136875  -0.00076318  0.66756779  1
  Cs  Cs3  1  0.00004087  0.33321480  0.00057790  1
  Cs  Cs4  1  0.00267046  0.33652333  0.33034180  1
  Cs  Cs5  1  0.00370423  0.33308582  0.66827991  1
  Cs  Cs6  1  0.00175591  0.66523571  0.00293216  1
  Cs  Cs7  1  -0.00103086  0.66461016  0.33216508  1
  Cs  Cs8  1  0.00002361  0.66623404  0.66634736  1
  Cs  Cs9  1  0.33183304  -0.00574111  0.00024150  1
  Cs  Cs10  1  0.33792522  -0.00030260  0.33397012  1
  Cs  Cs11  1  0.33284017  0.00106061  0.66632732  1
  Cs  Cs12  1  0.33308792  0.33293859  -0.00249896  1
  Cs  Cs13  1  0.33237276  0.32919934  0.33530039  1
  Cs  Cs14  1  0.32952986  0.33133820  0.66713290  1
  Cs  Cs15  1  0.33931240  0.67437971  -0.00158780  1
  Cs  Cs16  1  0.33393190  0.67040038  0.33672822  1
  Cs  Cs17  1  0.33562462  0.66817716  0.66472853  1
  Cs  Cs18  1  0.66592485  -0.00022021  -0.00206189  1
  Cs  Cs19  1  0.66494183  0.00323023  0.33569913  1
  Cs  Cs20  1  0.67908543  0.00088586  0.66584618  1
  Cs  Cs21  1  0.66546446  0.33533922  0.00080943  1
  Cs  Cs22  1  0.66394062  0.33292069  0.33147295  1
  Cs  Cs23  1  0.66698646  0.33246182  0.66855468  1
  Cs  Cs24  1  0.65824913  0.66388781  -0.00128541  1
  Cs  Cs25  1  0.66830151  0.66556400  0.33515102  1
  Cs  Cs26  1  0.66396701  0.66781801  0.66500812  1
  Sn  Sn27  1  0.16633764  0.49999654  0.83460218  1
  Sn  Sn28  1  0.83407402  0.16698290  0.16651342  1
  Sn  Sn29  1  0.16684978  0.49981826  0.16561010  1
  Sn  Sn30  1  0.49912262  0.16667601  0.83327512  1
  Sn  Sn31  1  0.83375343  0.49997802  0.16628321  1
  Sn  Sn32  1  0.83264415  0.49968630  0.50002916  1
  Sn  Sn33  1  0.50038836  0.49983253  0.49986719  1
  Sn  Sn34  1  0.83313123  0.83298551  0.16623581  1
  Sn  Sn35  1  0.83404634  0.50008899  0.83371311  1
  Sn  Sn36  1  0.16614847  0.16739295  0.16589678  1
  Sn  Sn37  1  0.49952884  0.83310801  0.50025802  1
  Sn  Sn38  1  0.16658304  0.83359499  0.50019605  1
  Sn  Sn39  1  0.16731067  0.16709308  0.83416216  1
  Pb  Pb40  1  0.83420488  0.16898991  0.83577940  1
  Pb  Pb41  1  0.50008206  0.16670969  0.50266954  1
  Pb  Pb42  1  0.83317602  0.83112665  0.49812568  1
  Pb  Pb43  1  0.49920213  0.16682447  0.16430472  1
  Pb  Pb44  1  0.16522582  0.83326210  0.16840841  1
  Pb  Pb45  1  0.49922961  0.49867334  0.83108295  1
  Pb  Pb46  1  0.50019049  0.83648357  0.83034321  1
  Pb  Pb47  1  0.83351320  0.82978996  0.83649393  1
  Pb  Pb48  1  0.16640211  0.83327490  0.83106945  1
  Pb  Pb49  1  0.49887493  0.49988380  0.16887034  1
  Pb  Pb50  1  0.16665298  0.50119994  0.49992294  1
  Pb  Pb51  1  0.16635169  0.16384374  0.49993732  1
  Pb  Pb52  1  0.50294659  0.83336748  0.16909887  1
  Pb  Pb53  1  0.83372935  0.17016712  0.49695529  1
  I  I54  1  0.16160346  0.00305161  0.16341177  1
  I  I55  1  0.17449494  -0.00373501  0.49830978  1
  I  I56  1  0.17194936  0.00336208  0.83792463  1
  I  I57  1  0.15778723  0.33383384  0.16420741  1
  I  I58  1  0.16700689  0.33339823  0.49975487  1
  I  I59  1  0.16643866  0.33391236  0.83592627  1
  I  I60  1  0.16062476  0.66341148  0.16456308  1
  I  I61  1  0.16760048  0.66874993  0.49900339  1
  I  I62  1  0.16120832  0.66310232  0.83684890  1
  I  I63  1  0.50087793  0.00014565  0.16952996  1
  I  I64  1  0.49446581  -0.00286044  0.49945042  1
  I  I65  1  0.49252402  0.00416952  0.83391458  1
  I  I66  1  0.50577556  0.33341368  0.17076252  1
  I  I67  1  0.50532223  0.33619872  0.50007819  1
  I  I68  1  0.49867472  0.33101891  0.83076232  1
  I  I69  1  0.49989624  0.66650251  0.16395171  1
  I  I70  1  0.50029458  0.66608398  0.50030211  1
  I  I71  1  0.50046215  0.66660348  0.83403670  1
  I  I72  1  0.83786578  0.00072427  0.16787065  1
  I  I73  1  0.83208680  -0.00002930  0.49882226  1
  I  I74  1  0.83302111  0.00019673  0.83344212  1
  I  I75  1  0.83753944  0.33449228  0.16728365  1
  I  I76  1  0.82765492  0.33830894  0.49842815  1
  I  I77  1  0.83392046  0.33699691  0.83443184  1
  I  I78  1  0.83829534  0.66470817  0.16853712  1
  I  I79  1  0.83270000  0.66309716  0.49690372  1
  I  I80  1  0.83950394  0.66154133  0.83408500  1
  I  I81  1  0.16601021  0.17113618  0.00032242  1
  I  I82  1  0.16168239  0.17174218  0.32985740  1
  I  I83  1  0.17195560  0.17219224  0.66993234  1
  I  I84  1  0.15671412  0.49550612  0.00028795  1
  I  I85  1  0.16230460  0.49672468  0.33048505  1
  I  I86  1  0.16312661  0.49649907  0.66930234  1
  I  I87  1  0.16488647  0.83316448  0.00009125  1
  I  I88  1  0.16992861  0.83155943  0.33607945  1
  I  I89  1  0.17076004  0.83102926  0.66328349  1
  I  I90  1  0.49939154  0.16938403  -0.00324599  1
  I  I91  1  0.50033762  0.16605232  0.33345653  1
  I  I92  1  0.49212175  0.16846057  0.67020563  1
  I  I93  1  0.50384465  0.49840468  -0.00022349  1
  I  I94  1  0.50478209  0.50346212  0.33682246  1
  I  I95  1  0.50477642  0.50366765  0.66334844  1
  I  I96  1  0.50092267  0.83347496  -0.00018230  1
  I  I97  1  0.49554143  0.82957460  0.33695343  1
  I  I98  1  0.49639248  0.82694095  0.66264668  1
  I  I99  1  0.83419161  0.16901666  0.00368480  1
  I  I100  1  0.83906413  0.16808647  0.32877239  1
  I  I101  1  0.83326128  0.16693158  0.66700913  1
  I  I102  1  0.83877109  0.49932869  0.00096046  1
  I  I103  1  0.83388377  0.50060152  0.33215317  1
  I  I104  1  0.83389482  0.50037508  0.66683064  1
  I  I105  1  0.83614663  0.83286170  0.00438920  1
  I  I106  1  0.83398270  0.83061723  0.33037327  1
  I  I107  1  0.83280413  0.83289048  0.66654241  1
  I  I108  1  0.00033294  0.16799385  0.16134088  1
  I  I109  1  -0.00000324  0.16452253  0.50560026  1
  I  I110  1  0.00306887  0.16917785  0.83526617  1
  I  I111  1  -0.00099080  0.49928301  0.16901982  1
  I  I112  1  -0.00251880  0.50223045  0.49883669  1
  I  I113  1  0.00024725  0.49408340  0.83133108  1
  I  I114  1  -0.00268434  0.83186585  0.17141284  1
  I  I115  1  0.00177823  0.83192246  0.49846289  1
  I  I116  1  -0.00010008  0.83847909  0.82746805  1
  I  I117  1  0.32952801  0.17286470  0.16601744  1
  I  I118  1  0.33320041  0.17124530  0.49544796  1
  I  I119  1  0.33138675  0.17374622  0.83761118  1
  I  I120  1  0.32940227  0.49377928  0.16372871  1
  I  I121  1  0.33539682  0.50315476  0.50027968  1
  I  I122  1  0.32998244  0.49702409  0.83608796  1
  I  I123  1  0.33328386  0.83337497  0.16698671  1
  I  I124  1  0.33392660  0.82568311  0.49919542  1
  I  I125  1  0.33326697  0.82835071  0.83545998  1
  I  I126  1  0.66972686  0.16802425  0.16649304  1
  I  I127  1  0.66690171  0.16199748  0.50092771  1
  I  I128  1  0.66533544  0.16795437  0.83317730  1
  I  I129  1  0.67009527  0.49946962  0.16460514  1
  I  I130  1  0.66752477  0.50627080  0.49951911  1
  I  I131  1  0.66933542  0.49831775  0.83626387  1
  I  I132  1  0.67116553  0.83193554  0.16869220  1
  I  I133  1  0.66435675  0.83007575  0.49809756  1
  I  I134  1  0.66689381  0.83471569  0.83142779  1
