# generated using pymatgen
data_Cs27Sn14Pb13I81
_symmetry_space_group_name_H-M   'P 1'
_cell_length_a   18.97437174
_cell_length_b   18.97836828
_cell_length_c   18.97363766
_cell_angle_alpha   89.99890003
_cell_angle_beta   89.99849473
_cell_angle_gamma   90.00005003
_symmetry_Int_Tables_number   1
_chemical_formula_structural   Cs27Sn14Pb13I81
_chemical_formula_sum   'Cs27 Sn14 Pb13 I81'
_cell_volume   6832.45653151
_cell_formula_units_Z   1
loop_
 _symmetry_equiv_pos_site_id
 _symmetry_equiv_pos_as_xyz
  1  'x, y, z'
loop_
 _atom_site_type_symbol
 _atom_site_label
 _atom_site_symmetry_multiplicity
 _atom_site_fract_x
 _atom_site_fract_y
 _atom_site_fract_z
 _atom_site_occupancy
  Cs  Cs0  1  0.00004505  -0.00006180  0.00062891  1
  Cs  Cs1  1  -0.00126483  0.00105489  0.33125827  1
  Cs  Cs2  1  -0.00075580  0.00128425  0.66997468  1
  Cs  Cs3  1  0.00190775  0.32832433  0.00329112  1
  Cs  Cs4  1  -0.00127334  0.33269615  0.33319305  1
  Cs  Cs5  1  0.00153382  0.33983188  0.66496608  1
  Cs  Cs6  1  0.00100103  0.66882138  0.00020414  1
  Cs  Cs7  1  -0.00023673  0.66536722  0.33188422  1
  Cs  Cs8  1  -0.00154228  0.65557964  0.66728674  1
  Cs  Cs9  1  0.32985705  -0.00216511  -0.00030835  1
  Cs  Cs10  1  0.33458827  -0.00157411  0.34167945  1
  Cs  Cs11  1  0.33500382  -0.00004935  0.65930467  1
  Cs  Cs12  1  0.34007716  0.33469917  -0.00172058  1
  Cs  Cs13  1  0.33766306  0.33019670  0.33414162  1
  Cs  Cs14  1  0.33382386  0.33455328  0.66742952  1
  Cs  Cs15  1  0.33273345  0.66723456  0.00068386  1
  Cs  Cs16  1  0.33499827  0.67013835  0.33440650  1
  Cs  Cs17  1  0.33000151  0.66678684  0.66292318  1
  Cs  Cs18  1  0.66777134  -0.00102394  -0.00118418  1
  Cs  Cs19  1  0.66838190  -0.00027713  0.33424022  1
  Cs  Cs20  1  0.66645987  0.00027399  0.66656701  1
  Cs  Cs21  1  0.65625479  0.33304563  0.00059527  1
  Cs  Cs22  1  0.66672765  0.33503212  0.33152816  1
  Cs  Cs23  1  0.66504299  0.33685499  0.66959946  1
  Cs  Cs24  1  0.66569618  0.66855819  -0.00208918  1
  Cs  Cs25  1  0.66585765  0.66649606  0.33360717  1
  Cs  Cs26  1  0.67139431  0.66411519  0.66728137  1
  Sn  Sn27  1  0.49995220  0.83386562  0.16605163  1
  Sn  Sn28  1  0.16680204  0.83372538  0.16639093  1
  Sn  Sn29  1  0.83405881  0.83379005  0.49963356  1
  Sn  Sn30  1  0.83326365  0.83313863  0.16730079  1
  Sn  Sn31  1  0.16627836  0.49967909  0.16654339  1
  Sn  Sn32  1  0.49881608  0.83372036  0.83370542  1
  Sn  Sn33  1  0.83362787  0.16686393  0.16629772  1
  Sn  Sn34  1  0.83376924  0.49999744  0.16615654  1
  Sn  Sn35  1  0.16639401  0.16654644  0.16601065  1
  Sn  Sn36  1  0.49998871  0.50020192  0.49973762  1
  Sn  Sn37  1  0.83406536  0.16678756  0.83374289  1
  Sn  Sn38  1  0.83363735  0.16606063  0.50008299  1
  Sn  Sn39  1  0.16730389  0.83414928  0.83368013  1
  Sn  Sn40  1  0.16586719  0.16568689  0.83413457  1
  Pb  Pb41  1  0.49971603  0.50263250  0.16769027  1
  Pb  Pb42  1  0.16426830  0.16658286  0.50013151  1
  Pb  Pb43  1  0.49973595  0.50348085  0.83090828  1
  Pb  Pb44  1  0.16655977  0.49968434  0.83606220  1
  Pb  Pb45  1  0.83348626  0.49615181  0.83715780  1
  Pb  Pb46  1  0.50259181  0.83210111  0.50043617  1
  Pb  Pb47  1  0.16340871  0.83329827  0.50052795  1
  Pb  Pb48  1  0.83422215  0.83463400  0.83344042  1
  Pb  Pb49  1  0.16904815  0.49984938  0.49662759  1
  Pb  Pb50  1  0.50311109  0.16898935  0.50008979  1
  Pb  Pb51  1  0.83221894  0.49970665  0.49766653  1
  Pb  Pb52  1  0.49938501  0.16356485  0.16671518  1
  Pb  Pb53  1  0.49903957  0.16410782  0.83346484  1
  I  I54  1  0.16275932  -0.00032825  0.16205912  1
  I  I55  1  0.17002696  -0.00016388  0.49525362  1
  I  I56  1  0.16560169  -0.00023471  0.84251652  1
  I  I57  1  0.15767361  0.33233337  0.16394201  1
  I  I58  1  0.16456419  0.33319662  0.50022196  1
  I  I59  1  0.16090207  0.32972186  0.83696820  1
  I  I60  1  0.16361597  0.66797152  0.16370626  1
  I  I61  1  0.16379719  0.66679625  0.50035025  1
  I  I62  1  0.17104027  0.66993514  0.83777214  1
  I  I63  1  0.50194192  -0.00450756  0.16392447  1
  I  I64  1  0.49961399  -0.00024487  0.49967974  1
  I  I65  1  0.50017141  -0.00370465  0.83781110  1
  I  I66  1  0.50077443  0.33336615  0.16886568  1
  I  I67  1  0.50161183  0.33647937  0.49731973  1
  I  I68  1  0.50069634  0.33331080  0.83169687  1
  I  I69  1  0.50085121  0.67061066  0.16431869  1
  I  I70  1  0.50358508  0.66475504  0.49818237  1
  I  I71  1  0.49527216  0.67139344  0.83899142  1
  I  I72  1  0.83518523  0.00005846  0.16760827  1
  I  I73  1  0.83243175  0.00012591  0.49365908  1
  I  I74  1  0.83387631  0.00277927  0.83761155  1
  I  I75  1  0.84057317  0.33221453  0.16776845  1
  I  I76  1  0.83200152  0.33036637  0.49849960  1
  I  I77  1  0.84011315  0.32803895  0.83025837  1
  I  I78  1  0.83557359  0.66797099  0.17244386  1
  I  I79  1  0.83134424  0.66912625  0.49486986  1
  I  I80  1  0.83258200  0.66662675  0.83194374  1
  I  I81  1  0.15750823  0.16462638  0.00118847  1
  I  I82  1  0.16269303  0.16585273  0.32960373  1
  I  I83  1  0.16279320  0.16062418  0.67017920  1
  I  I84  1  0.16280028  0.50135998  0.00430462  1
  I  I85  1  0.16133019  0.50092196  0.32829002  1
  I  I86  1  0.16803127  0.50059416  0.66675970  1
  I  I87  1  0.16530672  0.83377927  0.00170176  1
  I  I88  1  0.16936448  0.83407758  0.32963195  1
  I  I89  1  0.17169548  0.83943758  0.67016658  1
  I  I90  1  0.50664456  0.17033249  0.00021822  1
  I  I91  1  0.49917153  0.16411285  0.33317647  1
  I  I92  1  0.50055270  0.16395848  0.66680641  1
  I  I93  1  0.50056618  0.49886462  0.00013094  1
  I  I94  1  0.50125112  0.50325302  0.33512893  1
  I  I95  1  0.50302109  0.50115292  0.66340125  1
  I  I96  1  0.50237086  0.83268195  0.00118258  1
  I  I97  1  0.49790334  0.83164669  0.33056473  1
  I  I98  1  0.49650714  0.83262156  0.66944023  1
  I  I99  1  0.83807340  0.16526980  0.00127112  1
  I  I100  1  0.83654413  0.16571995  0.33168557  1
  I  I101  1  0.83589446  0.15945896  0.66683338  1
  I  I102  1  0.83652434  0.50479771  0.00511406  1
  I  I103  1  0.83632877  0.49668227  0.32955162  1
  I  I104  1  0.83089519  0.50126361  0.66671495  1
  I  I105  1  0.83286683  0.83358411  0.00339867  1
  I  I106  1  0.83253251  0.83769855  0.33090638  1
  I  I107  1  0.83120184  0.83885434  0.66456946  1
  I  I108  1  -0.00087133  0.16320394  0.16640301  1
  I  I109  1  -0.00400503  0.16316514  0.49782040  1
  I  I110  1  0.00015908  0.15917575  0.83561105  1
  I  I111  1  -0.00035725  0.50423567  0.16769767  1
  I  I112  1  -0.00017758  0.50040371  0.50133679  1
  I  I113  1  -0.00011218  0.50693374  0.82834707  1
  I  I114  1  -0.00005792  0.83333891  0.16670899  1
  I  I115  1  -0.00437008  0.83713300  0.49386297  1
  I  I116  1  0.00298916  0.83637890  0.83777013  1
  I  I117  1  0.32952708  0.16872081  0.16070794  1
  I  I118  1  0.33325177  0.16803088  0.49946448  1
  I  I119  1  0.32948477  0.16559209  0.84038673  1
  I  I120  1  0.33031012  0.49997227  0.16805123  1
  I  I121  1  0.33653325  0.50258175  0.49811290  1
  I  I122  1  0.33314127  0.49475312  0.83556790  1
  I  I123  1  0.33236663  0.83189789  0.16173978  1
  I  I124  1  0.33333168  0.83132271  0.49718640  1
  I  I125  1  0.33219868  0.83820889  0.84278635  1
  I  I126  1  0.67023661  0.16727680  0.16660259  1
  I  I127  1  0.67152222  0.16173305  0.49816221  1
  I  I128  1  0.66965404  0.16525454  0.83421185  1
  I  I129  1  0.66941816  0.49932645  0.16909468  1
  I  I130  1  0.66476620  0.50103953  0.49620770  1
  I  I131  1  0.66680792  0.50031097  0.83558251  1
  I  I132  1  0.66781681  0.83290158  0.16682784  1
  I  I133  1  0.67029166  0.83662864  0.49500770  1
  I  I134  1  0.66522652  0.83446744  0.83681750  1
