# generated using pymatgen
data_Cs27Sn14Pb13I81
_symmetry_space_group_name_H-M   'P 1'
_cell_length_a   18.96939706
_cell_length_b   18.98419303
_cell_length_c   18.97348348
_cell_angle_alpha   89.99898876
_cell_angle_beta   89.99990698
_cell_angle_gamma   89.99973905
_symmetry_Int_Tables_number   1
_chemical_formula_structural   Cs27Sn14Pb13I81
_chemical_formula_sum   'Cs27 Sn14 Pb13 I81'
_cell_volume   6832.70611729
_cell_formula_units_Z   1
loop_
 _symmetry_equiv_pos_site_id
 _symmetry_equiv_pos_as_xyz
  1  'x, y, z'
loop_
 _atom_site_type_symbol
 _atom_site_label
 _atom_site_symmetry_multiplicity
 _atom_site_fract_x
 _atom_site_fract_y
 _atom_site_fract_z
 _atom_site_occupancy
  Cs  Cs0  1  -0.00180581  0.00388339  -0.00420640  1
  Cs  Cs1  1  0.00155241  -0.00244453  0.33535562  1
  Cs  Cs2  1  -0.00073052  -0.00100915  0.66804190  1
  Cs  Cs3  1  -0.00037539  0.33336297  -0.00271926  1
  Cs  Cs4  1  0.00307275  0.33549711  0.33437253  1
  Cs  Cs5  1  -0.00122862  0.33358445  0.66779147  1
  Cs  Cs6  1  -0.00133739  0.66261560  0.00145251  1
  Cs  Cs7  1  0.00147588  0.66637399  0.33345952  1
  Cs  Cs8  1  -0.00133888  0.66704442  0.66605481  1
  Cs  Cs9  1  0.33530933  -0.00337498  -0.00380835  1
  Cs  Cs10  1  0.33223788  0.00197146  0.33466809  1
  Cs  Cs11  1  0.33369076  -0.00126149  0.66805187  1
  Cs  Cs12  1  0.33159769  0.33379389  0.00092491  1
  Cs  Cs13  1  0.33139334  0.33264246  0.33426032  1
  Cs  Cs14  1  0.33615316  0.33345765  0.66517622  1
  Cs  Cs15  1  0.33955584  0.66942888  -0.00416772  1
  Cs  Cs16  1  0.32916647  0.66435271  0.33461721  1
  Cs  Cs17  1  0.33680292  0.66920236  0.67024477  1
  Cs  Cs18  1  0.66617441  0.00077876  0.01007911  1
  Cs  Cs19  1  0.66594510  -0.00004499  0.33240401  1
  Cs  Cs20  1  0.66779364  0.00099677  0.66453172  1
  Cs  Cs21  1  0.66595482  0.33001578  0.01028112  1
  Cs  Cs22  1  0.66361064  0.33362537  0.33061065  1
  Cs  Cs23  1  0.66619861  0.33316173  0.66537028  1
  Cs  Cs24  1  0.66037114  0.66968089  0.00433639  1
  Cs  Cs25  1  0.66697621  0.66695514  0.32870290  1
  Cs  Cs26  1  0.66829890  0.66642047  0.66679714  1
  Sn  Sn27  1  0.16623762  0.83357561  0.16623448  1
  Sn  Sn28  1  0.16644503  0.16614914  0.16701256  1
  Sn  Sn29  1  0.83355517  0.16696351  0.50010637  1
  Sn  Sn30  1  0.83316793  0.83261327  0.83300471  1
  Sn  Sn31  1  0.83339888  0.50082810  0.83276957  1
  Sn  Sn32  1  0.50069221  0.83373918  0.50006179  1
  Sn  Sn33  1  0.16645302  0.16721902  0.49992906  1
  Sn  Sn34  1  0.16632288  0.50010638  0.83260121  1
  Sn  Sn35  1  0.50050182  0.16699881  0.83273709  1
  Sn  Sn36  1  0.49995702  0.16579845  0.50098031  1
  Sn  Sn37  1  0.83402764  0.50000832  0.50065492  1
  Sn  Sn38  1  0.16598238  0.49938680  0.50090802  1
  Sn  Sn39  1  0.16639983  0.50020074  0.16640235  1
  Sn  Sn40  1  0.83243807  0.83299904  0.50058074  1
  Pb  Pb41  1  0.50328390  0.83566421  0.83111103  1
  Pb  Pb42  1  0.49716575  0.83344936  0.16996718  1
  Pb  Pb43  1  0.50144306  0.49772871  0.83315270  1
  Pb  Pb44  1  0.50041150  0.50004533  0.50006369  1
  Pb  Pb45  1  0.83515944  0.50004477  0.16667120  1
  Pb  Pb46  1  0.83095829  0.16723655  0.83155680  1
  Pb  Pb47  1  0.16644446  0.83315604  0.49930951  1
  Pb  Pb48  1  0.16432276  0.83070308  0.83582587  1
  Pb  Pb49  1  0.49716324  0.16657073  0.16746444  1
  Pb  Pb50  1  0.83642325  0.16668809  0.16998586  1
  Pb  Pb51  1  0.83552221  0.83329232  0.16675455  1
  Pb  Pb52  1  0.49680941  0.50008504  0.16669113  1
  Pb  Pb53  1  0.16821259  0.16859163  0.83259727  1
  I  I54  1  0.16659210  0.00088695  0.17496573  1
  I  I55  1  0.16494438  0.00271390  0.49426326  1
  I  I56  1  0.16621986  -0.00003345  0.83442475  1
  I  I57  1  0.16697353  0.33359353  0.16912726  1
  I  I58  1  0.16474453  0.33339961  0.49537165  1
  I  I59  1  0.16062976  0.33670244  0.83694393  1
  I  I60  1  0.16539767  0.66550704  0.16941580  1
  I  I61  1  0.16395340  0.66372619  0.49779696  1
  I  I62  1  0.16617439  0.66244121  0.83092275  1
  I  I63  1  0.49641565  0.00007182  0.16454717  1
  I  I64  1  0.50210592  0.00116658  0.50320394  1
  I  I65  1  0.49825830  0.00323154  0.82962484  1
  I  I66  1  0.49900342  0.33298881  0.16873512  1
  I  I67  1  0.50094023  0.33015771  0.50290362  1
  I  I68  1  0.49992120  0.33018727  0.82450999  1
  I  I69  1  0.49737662  0.66701391  0.16786749  1
  I  I70  1  0.50186963  0.66938949  0.49905667  1
  I  I71  1  0.49693291  0.66683542  0.83241863  1
  I  I72  1  0.83780506  0.00003950  0.16546171  1
  I  I73  1  0.83375128  -0.00000685  0.50320003  1
  I  I74  1  0.83269366  -0.00216708  0.82813630  1
  I  I75  1  0.83505769  0.33331136  0.16511892  1
  I  I76  1  0.83518289  0.33360649  0.50390723  1
  I  I77  1  0.83778912  0.33647354  0.82843865  1
  I  I78  1  0.83786458  0.66662031  0.17232999  1
  I  I79  1  0.83458376  0.66636649  0.50369321  1
  I  I80  1  0.83912690  0.66590077  0.82341445  1
  I  I81  1  0.16952224  0.16829392  0.00233279  1
  I  I82  1  0.16810209  0.17155255  0.33493707  1
  I  I83  1  0.16516765  0.17110942  0.66299966  1
  I  I84  1  0.16221915  0.49896809  -0.00008879  1
  I  I85  1  0.16353515  0.49923666  0.33417553  1
  I  I86  1  0.16242394  0.49416960  0.66559082  1
  I  I87  1  0.16481507  0.83514048  0.00375733  1
  I  I88  1  0.16529184  0.82910748  0.33134034  1
  I  I89  1  0.16874439  0.83375657  0.66686268  1
  I  I90  1  0.49852591  0.16870423  -0.00227317  1
  I  I91  1  0.50151746  0.16316476  0.33723033  1
  I  I92  1  0.49676033  0.16388358  0.66399985  1
  I  I93  1  0.49969401  0.49737691  -0.00026996  1
  I  I94  1  0.50035270  0.49782546  0.33379940  1
  I  I95  1  0.49240518  0.50090140  0.66642307  1
  I  I96  1  0.50032606  0.83478985  -0.00009212  1
  I  I97  1  0.50729924  0.84040001  0.33779814  1
  I  I98  1  0.49870319  0.83539865  0.66308365  1
  I  I99  1  0.83218505  0.16620139  -0.00006248  1
  I  I100  1  0.82782768  0.16665196  0.33873848  1
  I  I101  1  0.83900519  0.16647571  0.66276325  1
  I  I102  1  0.83881919  0.50485880  -0.00336407  1
  I  I103  1  0.83734842  0.50038066  0.33708188  1
  I  I104  1  0.84227883  0.50060256  0.66536030  1
  I  I105  1  0.83675110  0.82779284  -0.00298622  1
  I  I106  1  0.83086790  0.83317405  0.33713554  1
  I  I107  1  0.83121772  0.83233941  0.66485590  1
  I  I108  1  0.00462042  0.16792736  0.17105058  1
  I  I109  1  0.00024415  0.16720244  0.49484398  1
  I  I110  1  -0.00024880  0.16507810  0.83371555  1
  I  I111  1  0.00391664  0.49944498  0.16821743  1
  I  I112  1  0.00054010  0.49734276  0.49953692  1
  I  I113  1  0.00022068  0.50210939  0.83250194  1
  I  I114  1  0.00351847  0.83241413  0.17140473  1
  I  I115  1  -0.00289785  0.83556605  0.50146919  1
  I  I116  1  -0.00335779  0.83402542  0.82491541  1
  I  I117  1  0.32914141  0.16880075  0.17388530  1
  I  I118  1  0.33268174  0.16689623  0.49889024  1
  I  I119  1  0.33588460  0.16847006  0.82702063  1
  I  I120  1  0.32773515  0.49869497  0.16890243  1
  I  I121  1  0.32990669  0.49673944  0.49833743  1
  I  I122  1  0.33043761  0.49743129  0.83378096  1
  I  I123  1  0.32908522  0.83250371  0.16851624  1
  I  I124  1  0.33526597  0.83708576  0.49649604  1
  I  I125  1  0.33352731  0.83223424  0.83343784  1
  I  I126  1  0.66657698  0.16637806  0.16645870  1
  I  I127  1  0.66684726  0.16629326  0.50604576  1
  I  I128  1  0.66351123  0.16818666  0.82475014  1
  I  I129  1  0.66693016  0.49995540  0.16680137  1
  I  I130  1  0.67026767  0.49757378  0.50639450  1
  I  I131  1  0.67067969  0.50311548  0.82428656  1
  I  I132  1  0.66668723  0.83351838  0.16490502  1
  I  I133  1  0.66788031  0.83687211  0.50379841  1
  I  I134  1  0.67096790  0.82520499  0.83088973  1
