# generated using pymatgen
data_Cs27Sn13Pb14I81
_symmetry_space_group_name_H-M   'P 1'
_cell_length_a   18.98185991
_cell_length_b   18.97596584
_cell_length_c   18.97142654
_cell_angle_alpha   90.00098388
_cell_angle_beta   90.00191062
_cell_angle_gamma   90.00047812
_symmetry_Int_Tables_number   1
_chemical_formula_structural   Cs27Sn13Pb14I81
_chemical_formula_sum   'Cs27 Sn13 Pb14 I81'
_cell_volume   6833.49123973
_cell_formula_units_Z   1
loop_
 _symmetry_equiv_pos_site_id
 _symmetry_equiv_pos_as_xyz
  1  'x, y, z'
loop_
 _atom_site_type_symbol
 _atom_site_label
 _atom_site_symmetry_multiplicity
 _atom_site_fract_x
 _atom_site_fract_y
 _atom_site_fract_z
 _atom_site_occupancy
  Cs  Cs0  1  0.00167572  -0.00094013  -0.00117063  1
  Cs  Cs1  1  -0.00155800  0.00683010  0.33234698  1
  Cs  Cs2  1  -0.00123481  -0.00248114  0.66762388  1
  Cs  Cs3  1  -0.00096329  0.33687616  -0.00045602  1
  Cs  Cs4  1  0.00153496  0.32054184  0.33624954  1
  Cs  Cs5  1  -0.00092928  0.33434941  0.66584173  1
  Cs  Cs6  1  0.00072204  0.66487626  -0.00083503  1
  Cs  Cs7  1  0.00072420  0.66804228  0.33544572  1
  Cs  Cs8  1  -0.00078678  0.66737482  0.66726088  1
  Cs  Cs9  1  0.33342056  0.00175813  -0.00159190  1
  Cs  Cs10  1  0.33192172  0.00384337  0.32875467  1
  Cs  Cs11  1  0.33602440  -0.00331904  0.66980941  1
  Cs  Cs12  1  0.33307995  0.33067204  -0.00122015  1
  Cs  Cs13  1  0.33789724  0.33068253  0.34096211  1
  Cs  Cs14  1  0.33681751  0.33423616  0.66206540  1
  Cs  Cs15  1  0.33102700  0.66719896  -0.00099443  1
  Cs  Cs16  1  0.33483121  0.66396740  0.33418647  1
  Cs  Cs17  1  0.33269703  0.66776090  0.66641261  1
  Cs  Cs18  1  0.66335127  0.00008188  0.00386644  1
  Cs  Cs19  1  0.66997232  0.00377828  0.32557636  1
  Cs  Cs20  1  0.66723521  -0.00029482  0.66713201  1
  Cs  Cs21  1  0.66587840  0.33804774  0.00518402  1
  Cs  Cs22  1  0.66083637  0.32861414  0.32905322  1
  Cs  Cs23  1  0.66525912  0.33021808  0.66572354  1
  Cs  Cs24  1  0.66819519  0.66357623  0.00601176  1
  Cs  Cs25  1  0.66499996  0.66545702  0.32707174  1
  Cs  Cs26  1  0.66928650  0.66823186  0.66700391  1
  Sn  Sn27  1  0.16572382  0.16698658  0.83289695  1
  Sn  Sn28  1  0.16674852  0.83314663  0.49966822  1
  Sn  Sn29  1  0.83305556  0.83395128  0.83314865  1
  Sn  Sn30  1  0.50040410  0.83194518  0.83285159  1
  Sn  Sn31  1  0.49943005  0.50122679  0.83299773  1
  Sn  Sn32  1  0.16634301  0.83225582  0.16669055  1
  Sn  Sn33  1  0.50053613  0.83321807  0.50034651  1
  Sn  Sn34  1  0.16653915  0.83302997  0.83318817  1
  Sn  Sn35  1  0.83286147  0.83212851  0.50046017  1
  Sn  Sn36  1  0.83387801  0.16593372  0.83329818  1
  Sn  Sn37  1  0.83334467  0.50058075  0.49955853  1
  Sn  Sn38  1  0.16634063  0.50038024  0.16685981  1
  Sn  Sn39  1  0.16757739  0.49996236  0.83366685  1
  Pb  Pb40  1  0.16673211  0.16727532  0.16413935  1
  Pb  Pb41  1  0.83657859  0.50004887  0.17059945  1
  Pb  Pb42  1  0.83360605  0.16676111  0.16288927  1
  Pb  Pb43  1  0.49684178  0.50028738  0.16425709  1
  Pb  Pb44  1  0.49952807  0.16676253  0.16638615  1
  Pb  Pb45  1  0.83599842  0.83314089  0.16664461  1
  Pb  Pb46  1  0.50030443  0.16664298  0.83335628  1
  Pb  Pb47  1  0.16515717  0.50161214  0.50003562  1
  Pb  Pb48  1  0.49717268  0.83323781  0.16647639  1
  Pb  Pb49  1  0.50265643  0.50245835  0.50222416  1
  Pb  Pb50  1  0.16688997  0.16345228  0.50325159  1
  Pb  Pb51  1  0.83315974  0.16595800  0.50223776  1
  Pb  Pb52  1  0.83324771  0.50018258  0.83225022  1
  Pb  Pb53  1  0.50020532  0.16302865  0.50037781  1
  I  I54  1  0.16686001  -0.00315677  0.16612189  1
  I  I55  1  0.16342053  -0.00543512  0.49941263  1
  I  I56  1  0.16630469  -0.00194830  0.83295977  1
  I  I57  1  0.16547476  0.33662803  0.15946577  1
  I  I58  1  0.16362668  0.33329938  0.49989419  1
  I  I59  1  0.16585165  0.33409993  0.83923792  1
  I  I60  1  0.16633772  0.66775564  0.15989587  1
  I  I61  1  0.16756063  0.67052924  0.50541718  1
  I  I62  1  0.16687610  0.66806792  0.83372615  1
  I  I63  1  0.49735037  -0.00067359  0.16431306  1
  I  I64  1  0.50089852  -0.00564140  0.50954348  1
  I  I65  1  0.49695841  -0.00367216  0.82950314  1
  I  I66  1  0.49825805  0.33383549  0.16359587  1
  I  I67  1  0.50143223  0.33371200  0.50171952  1
  I  I68  1  0.49632965  0.33634367  0.83435603  1
  I  I69  1  0.50128687  0.66687725  0.16743697  1
  I  I70  1  0.49647523  0.67078412  0.50372742  1
  I  I71  1  0.49563951  0.66818161  0.82957257  1
  I  I72  1  0.83601068  -0.00030826  0.17076978  1
  I  I73  1  0.83435533  -0.00413333  0.50323044  1
  I  I74  1  0.83752214  -0.00208483  0.82771322  1
  I  I75  1  0.83633269  0.33350943  0.16579485  1
  I  I76  1  0.83604519  0.33572342  0.50344041  1
  I  I77  1  0.83775848  0.33135246  0.83088334  1
  I  I78  1  0.83299268  0.66669634  0.16106571  1
  I  I79  1  0.83510523  0.66923227  0.50793528  1
  I  I80  1  0.83645354  0.66987311  0.83048960  1
  I  I81  1  0.16361723  0.16113586  -0.00429798  1
  I  I82  1  0.16667555  0.16611697  0.33348224  1
  I  I83  1  0.16276740  0.16722760  0.67145295  1
  I  I84  1  0.16902252  0.50535389  -0.00215017  1
  I  I85  1  0.16337449  0.50786199  0.33097951  1
  I  I86  1  0.16853276  0.50137703  0.67014881  1
  I  I87  1  0.16661052  0.83335540  -0.00197936  1
  I  I88  1  0.16681655  0.82729231  0.33371955  1
  I  I89  1  0.16642962  0.83346416  0.66800034  1
  I  I90  1  0.49961850  0.16315752  -0.00101013  1
  I  I91  1  0.49961037  0.16563478  0.33360217  1
  I  I92  1  0.49918592  0.16858632  0.66730026  1
  I  I93  1  0.50066895  0.50675092  -0.00439361  1
  I  I94  1  0.49954682  0.50114475  0.33360055  1
  I  I95  1  0.49206356  0.50207386  0.67045836  1
  I  I96  1  0.49995375  0.83123160  -0.00382505  1
  I  I97  1  0.50006152  0.83379865  0.33654709  1
  I  I98  1  0.49535842  0.83033457  0.66813317  1
  I  I99  1  0.83838151  0.16020314  -0.00532631  1
  I  I100  1  0.83353159  0.16580500  0.33346023  1
  I  I101  1  0.83798784  0.16388414  0.67037139  1
  I  I102  1  0.83154908  0.49952961  -0.00009371  1
  I  I103  1  0.83429349  0.51056832  0.33807174  1
  I  I104  1  0.83663449  0.50339504  0.66470164  1
  I  I105  1  0.83368545  0.83728733  -0.00365800  1
  I  I106  1  0.83335209  0.82881623  0.33685750  1
  I  I107  1  0.83767951  0.83334917  0.66766619  1
  I  I108  1  0.00040445  0.16562248  0.16843212  1
  I  I109  1  0.00009946  0.16484280  0.49923204  1
  I  I110  1  0.00082121  0.16221577  0.83304177  1
  I  I111  1  0.00429489  0.50622675  0.15603953  1
  I  I112  1  -0.00249111  0.50785319  0.50385797  1
  I  I113  1  0.00298067  0.50256104  0.83545240  1
  I  I114  1  0.00421828  0.82985304  0.16422166  1
  I  I115  1  0.00006631  0.82927283  0.50450397  1
  I  I116  1  0.00104805  0.83389366  0.83116457  1
  I  I117  1  0.33252036  0.16413498  0.16276707  1
  I  I118  1  0.33325520  0.16702027  0.50223404  1
  I  I119  1  0.33031774  0.16298570  0.83459107  1
  I  I120  1  0.32884696  0.50663868  0.16453066  1
  I  I121  1  0.33336035  0.50123867  0.49881070  1
  I  I122  1  0.33194587  0.50381215  0.83641460  1
  I  I123  1  0.32893409  0.83003169  0.16503207  1
  I  I124  1  0.33274436  0.83378899  0.50502904  1
  I  I125  1  0.33208882  0.83323895  0.83109630  1
  I  I126  1  0.66680739  0.16581645  0.16453542  1
  I  I127  1  0.66687983  0.16569055  0.50448391  1
  I  I128  1  0.66966261  0.16220247  0.83150716  1
  I  I129  1  0.66666052  0.49920853  0.16471930  1
  I  I130  1  0.67019846  0.50681469  0.50492609  1
  I  I131  1  0.66437397  0.50327566  0.82978505  1
  I  I132  1  0.66665004  0.83448337  0.16593777  1
  I  I133  1  0.66716070  0.82933418  0.51098974  1
  I  I134  1  0.66684672  0.83418357  0.82555062  1
