# generated using pymatgen
data_Cs27Sn14Pb13I81
_symmetry_space_group_name_H-M   'P 1'
_cell_length_a   18.96162239
_cell_length_b   18.96327811
_cell_length_c   18.95858143
_cell_angle_alpha   89.99861683
_cell_angle_beta   89.99973356
_cell_angle_gamma   90.00027009
_symmetry_Int_Tables_number   1
_chemical_formula_structural   Cs27Sn14Pb13I81
_chemical_formula_sum   'Cs27 Sn14 Pb13 I81'
_cell_volume   6817.02279593
_cell_formula_units_Z   1
loop_
 _symmetry_equiv_pos_site_id
 _symmetry_equiv_pos_as_xyz
  1  'x, y, z'
loop_
 _atom_site_type_symbol
 _atom_site_label
 _atom_site_symmetry_multiplicity
 _atom_site_fract_x
 _atom_site_fract_y
 _atom_site_fract_z
 _atom_site_occupancy
  Cs  Cs0  1  0.00145546  0.00001023  -0.00393835  1
  Cs  Cs1  1  -0.00441975  -0.00130419  0.33466161  1
  Cs  Cs2  1  0.00047954  0.00032305  0.66867754  1
  Cs  Cs3  1  0.00237537  0.33496263  -0.00075876  1
  Cs  Cs4  1  -0.00047008  0.33354391  0.33405892  1
  Cs  Cs5  1  -0.00298741  0.33403569  0.66746447  1
  Cs  Cs6  1  0.00106773  0.66546778  0.00061860  1
  Cs  Cs7  1  0.00166183  0.66791419  0.33378172  1
  Cs  Cs8  1  -0.00173070  0.66694387  0.66650334  1
  Cs  Cs9  1  0.33395081  -0.00040502  -0.00092324  1
  Cs  Cs10  1  0.33383702  0.00067591  0.33613015  1
  Cs  Cs11  1  0.33306533  0.00111695  0.66602552  1
  Cs  Cs12  1  0.33006543  0.33180984  0.00252257  1
  Cs  Cs13  1  0.33360296  0.33416829  0.33371348  1
  Cs  Cs14  1  0.33489525  0.32933091  0.66306523  1
  Cs  Cs15  1  0.33359525  0.66795941  0.00044432  1
  Cs  Cs16  1  0.33069578  0.66497587  0.33462925  1
  Cs  Cs17  1  0.33621486  0.66717357  0.66426673  1
  Cs  Cs18  1  0.66423705  -0.00103506  0.00447074  1
  Cs  Cs19  1  0.67286940  0.00082137  0.32952811  1
  Cs  Cs20  1  0.66579255  0.00063451  0.66580204  1
  Cs  Cs21  1  0.66753636  0.33408622  0.00058030  1
  Cs  Cs22  1  0.66798180  0.32897716  0.33253667  1
  Cs  Cs23  1  0.66743756  0.33837439  0.66716082  1
  Cs  Cs24  1  0.66312614  0.66702661  -0.00305117  1
  Cs  Cs25  1  0.67096986  0.66949685  0.33369329  1
  Cs  Cs26  1  0.66598014  0.65853786  0.67001865  1
  Sn  Sn27  1  0.16631077  0.83219830  0.83304772  1
  Sn  Sn28  1  0.16724153  0.50097954  0.83340600  1
  Sn  Sn29  1  0.83353153  0.83408078  0.83323883  1
  Sn  Sn30  1  0.16727871  0.83438813  0.50017414  1
  Sn  Sn31  1  0.49965741  0.83408960  0.49998496  1
  Sn  Sn32  1  0.16678786  0.83376075  0.16670421  1
  Sn  Sn33  1  0.83352937  0.50011759  0.16667693  1
  Sn  Sn34  1  0.49994693  0.50018719  0.16684700  1
  Sn  Sn35  1  0.16703974  0.16576875  0.49898190  1
  Sn  Sn36  1  0.83179473  0.16585557  0.83348103  1
  Sn  Sn37  1  0.16666924  0.16628896  0.16793254  1
  Sn  Sn38  1  0.50122101  0.16652850  0.83300059  1
  Sn  Sn39  1  0.49951919  0.16546824  0.50063901  1
  Sn  Sn40  1  0.16666991  0.50003172  0.16596169  1
  Pb  Pb41  1  0.83564973  0.83145775  0.16398849  1
  Pb  Pb42  1  0.16653633  0.49995193  0.50013306  1
  Pb  Pb43  1  0.83534169  0.50019640  0.83506933  1
  Pb  Pb44  1  0.49817255  0.16797471  0.16714883  1
  Pb  Pb45  1  0.49786784  0.83140061  0.16935991  1
  Pb  Pb46  1  0.50003198  0.49976137  0.49750653  1
  Pb  Pb47  1  0.49963926  0.83509124  0.83145078  1
  Pb  Pb48  1  0.83624064  0.16819471  0.16404378  1
  Pb  Pb49  1  0.16686158  0.16653051  0.83284830  1
  Pb  Pb50  1  0.83334010  0.16653983  0.50225517  1
  Pb  Pb51  1  0.83332546  0.50003632  0.49699500  1
  Pb  Pb52  1  0.83331603  0.83332128  0.50260989  1
  Pb  Pb53  1  0.49699781  0.49731347  0.83529870  1
  I  I54  1  0.16743675  -0.00033036  0.16560472  1
  I  I55  1  0.17069341  -0.00028603  0.49785367  1
  I  I56  1  0.16562322  -0.00253597  0.83584243  1
  I  I57  1  0.16703556  0.33404115  0.16507554  1
  I  I58  1  0.17105216  0.33014178  0.49748606  1
  I  I59  1  0.16654513  0.33505848  0.83805023  1
  I  I60  1  0.16651279  0.66640534  0.16585336  1
  I  I61  1  0.17029923  0.67003499  0.49803793  1
  I  I62  1  0.16133424  0.66783446  0.83687352  1
  I  I63  1  0.49741696  -0.00004028  0.16456517  1
  I  I64  1  0.49304870  0.00076726  0.50420306  1
  I  I65  1  0.49766767  0.00319606  0.83258559  1
  I  I66  1  0.49564972  0.33606717  0.16737498  1
  I  I67  1  0.49456277  0.32980772  0.50252211  1
  I  I68  1  0.50365226  0.32943137  0.82716381  1
  I  I69  1  0.49673820  0.66335988  0.16698095  1
  I  I70  1  0.49392399  0.66962814  0.49823566  1
  I  I71  1  0.50219632  0.66662353  0.83225485  1
  I  I72  1  0.83495965  -0.00011095  0.16721888  1
  I  I73  1  0.83436194  -0.00005815  0.49752762  1
  I  I74  1  0.83834191  -0.00024238  0.83298746  1
  I  I75  1  0.83670479  0.33628559  0.16395020  1
  I  I76  1  0.83450297  0.33297586  0.50323778  1
  I  I77  1  0.83236732  0.33100332  0.83451687  1
  I  I78  1  0.83631046  0.66339576  0.16452349  1
  I  I79  1  0.83379135  0.66700669  0.50269752  1
  I  I80  1  0.83744301  0.66921265  0.83428930  1
  I  I81  1  0.16654712  0.16633567  0.00198907  1
  I  I82  1  0.17224210  0.16581445  0.33354362  1
  I  I83  1  0.16776575  0.16385288  0.66420912  1
  I  I84  1  0.16632044  0.50150715  0.00140694  1
  I  I85  1  0.16676639  0.50176480  0.32986700  1
  I  I86  1  0.16567075  0.50224177  0.66954125  1
  I  I87  1  0.16201753  0.83238843  -0.00011023  1
  I  I88  1  0.17145073  0.83239972  0.33332834  1
  I  I89  1  0.16627379  0.83416826  0.66677300  1
  I  I90  1  0.50101329  0.16899213  -0.00224477  1
  I  I91  1  0.49577394  0.16559908  0.33629312  1
  I  I92  1  0.49578691  0.16370690  0.66597145  1
  I  I93  1  0.49992198  0.49873680  0.00329757  1
  I  I94  1  0.49459313  0.49812046  0.32953463  1
  I  I95  1  0.49833682  0.50100140  0.66674389  1
  I  I96  1  0.49893174  0.83383345  -0.00001237  1
  I  I97  1  0.49371010  0.83908251  0.33732966  1
  I  I98  1  0.49303204  0.83510503  0.66350171  1
  I  I99  1  0.82979803  0.16328610  -0.00390247  1
  I  I100  1  0.83163046  0.16908698  0.33301167  1
  I  I101  1  0.83653672  0.16393301  0.67035404  1
  I  I102  1  0.83434112  0.49934861  0.00296532  1
  I  I103  1  0.83804118  0.49979101  0.32863551  1
  I  I104  1  0.83560521  0.49974964  0.66727831  1
  I  I105  1  0.83940380  0.83690769  -0.00391620  1
  I  I106  1  0.83427177  0.83096547  0.33312023  1
  I  I107  1  0.84096307  0.83665977  0.67051115  1
  I  I108  1  0.00473423  0.16897643  0.17013702  1
  I  I109  1  0.00341208  0.16311224  0.49734071  1
  I  I110  1  -0.00136574  0.16623177  0.83452459  1
  I  I111  1  0.00194352  0.49977386  0.16214684  1
  I  I112  1  0.00056286  0.49929230  0.49849704  1
  I  I113  1  0.00346737  0.49856213  0.83946963  1
  I  I114  1  0.00447303  0.83104762  0.17120529  1
  I  I115  1  0.00377239  0.83674007  0.49800501  1
  I  I116  1  0.00194769  0.83573119  0.83231437  1
  I  I117  1  0.32952883  0.16964457  0.16473815  1
  I  I118  1  0.33266386  0.16344632  0.50272679  1
  I  I119  1  0.33505540  0.16750080  0.83237071  1
  I  I120  1  0.33135991  0.49955971  0.16328398  1
  I  I121  1  0.33309383  0.49971652  0.49772835  1
  I  I122  1  0.32907216  0.50455388  0.83978379  1
  I  I123  1  0.32897137  0.83105833  0.16120199  1
  I  I124  1  0.33140046  0.83709395  0.50189518  1
  I  I125  1  0.32988591  0.83129147  0.83537824  1
  I  I126  1  0.66679239  0.17018783  0.16837726  1
  I  I127  1  0.66328009  0.16313484  0.50175995  1
  I  I128  1  0.66648090  0.16234874  0.82841208  1
  I  I129  1  0.66666008  0.49838577  0.16747643  1
  I  I130  1  0.66633723  0.50057952  0.49937744  1
  I  I131  1  0.66652029  0.50202788  0.83570958  1
  I  I132  1  0.66668916  0.83057095  0.16696635  1
  I  I133  1  0.66360940  0.83766407  0.50039644  1
  I  I134  1  0.66892844  0.83557849  0.83177665  1
