# generated using pymatgen
data_Cs27Sn13Pb14I81
_symmetry_space_group_name_H-M   'P 1'
_cell_length_a   18.97189938
_cell_length_b   18.98057969
_cell_length_c   18.97866619
_cell_angle_alpha   89.99883763
_cell_angle_beta   89.99926949
_cell_angle_gamma   90.00297517
_symmetry_Int_Tables_number   1
_chemical_formula_structural   Cs27Sn13Pb14I81
_chemical_formula_sum   'Cs27 Sn13 Pb14 I81'
_cell_volume   6834.17304733
_cell_formula_units_Z   1
loop_
 _symmetry_equiv_pos_site_id
 _symmetry_equiv_pos_as_xyz
  1  'x, y, z'
loop_
 _atom_site_type_symbol
 _atom_site_label
 _atom_site_symmetry_multiplicity
 _atom_site_fract_x
 _atom_site_fract_y
 _atom_site_fract_z
 _atom_site_occupancy
  Cs  Cs0  1  -0.00065591  -0.00023822  -0.00084966  1
  Cs  Cs1  1  0.00312475  -0.00117964  0.33460427  1
  Cs  Cs2  1  0.00088272  0.00026440  0.66749682  1
  Cs  Cs3  1  -0.00493443  0.33503816  -0.00067985  1
  Cs  Cs4  1  -0.00857785  0.34168523  0.33119044  1
  Cs  Cs5  1  0.00216899  0.33410470  0.66894053  1
  Cs  Cs6  1  0.00079370  0.66708118  0.00032679  1
  Cs  Cs7  1  -0.00131585  0.66063855  0.33116379  1
  Cs  Cs8  1  0.00044149  0.66575703  0.66764128  1
  Cs  Cs9  1  0.33378279  0.00002393  0.00072337  1
  Cs  Cs10  1  0.33031052  0.00285244  0.33125119  1
  Cs  Cs11  1  0.33254526  -0.00003881  0.66752403  1
  Cs  Cs12  1  0.33545360  0.33185126  -0.00123283  1
  Cs  Cs13  1  0.33524442  0.33065229  0.33583353  1
  Cs  Cs14  1  0.33166977  0.33417959  0.66615095  1
  Cs  Cs15  1  0.33432419  0.66666735  0.00051279  1
  Cs  Cs16  1  0.33112396  0.66261769  0.33030648  1
  Cs  Cs17  1  0.33459127  0.66523143  0.66629210  1
  Cs  Cs18  1  0.66598729  -0.00077737  -0.00086934  1
  Cs  Cs19  1  0.66866879  -0.00044604  0.33950765  1
  Cs  Cs20  1  0.66775959  -0.00289106  0.65929447  1
  Cs  Cs21  1  0.66617761  0.33392777  -0.00014924  1
  Cs  Cs22  1  0.67177008  0.33484650  0.33800154  1
  Cs  Cs23  1  0.66751266  0.33101360  0.66326180  1
  Cs  Cs24  1  0.66517708  0.66746129  -0.00173350  1
  Cs  Cs25  1  0.66913927  0.66690749  0.33952004  1
  Cs  Cs26  1  0.66562744  0.67068789  0.66398822  1
  Sn  Sn27  1  0.50104451  0.83363688  0.16659387  1
  Sn  Sn28  1  0.49981946  0.16680437  0.16599819  1
  Sn  Sn29  1  0.16693437  0.83353828  0.50076357  1
  Sn  Sn30  1  0.49953350  0.16705278  0.83384412  1
  Sn  Sn31  1  0.83196110  0.50098909  0.83367490  1
  Sn  Sn32  1  0.83389942  0.83274153  0.83419751  1
  Sn  Sn33  1  0.16751729  0.16579536  0.83387364  1
  Sn  Sn34  1  0.50006944  0.49953428  0.16603929  1
  Sn  Sn35  1  0.16663064  0.16691321  0.16635679  1
  Sn  Sn36  1  0.16616589  0.83398046  0.83277379  1
  Sn  Sn37  1  0.16661487  0.16624183  0.49989709  1
  Sn  Sn38  1  0.83243181  0.83388020  0.16586306  1
  Sn  Sn39  1  0.50105915  0.49915174  0.83392225  1
  Pb  Pb40  1  0.83695711  0.16657318  0.49998958  1
  Pb  Pb41  1  0.83327137  0.50029565  0.50378485  1
  Pb  Pb42  1  0.49669258  0.83337418  0.49628153  1
  Pb  Pb43  1  0.49810723  0.16653734  0.50013926  1
  Pb  Pb44  1  0.49991409  0.49992878  0.50045914  1
  Pb  Pb45  1  0.16718649  0.49996473  0.83356985  1
  Pb  Pb46  1  0.83254503  0.16434914  0.16655261  1
  Pb  Pb47  1  0.83618146  0.83330016  0.50018928  1
  Pb  Pb48  1  0.16673125  0.49985419  0.49994068  1
  Pb  Pb49  1  0.16662493  0.83468942  0.16631690  1
  Pb  Pb50  1  0.49985244  0.83373235  0.83446019  1
  Pb  Pb51  1  0.83272411  0.16610209  0.83335919  1
  Pb  Pb52  1  0.16915892  0.49633507  0.16630999  1
  Pb  Pb53  1  0.83040247  0.50268081  0.16437945  1
  I  I54  1  0.17242835  0.00281316  0.16604606  1
  I  I55  1  0.16716722  0.00053494  0.50109680  1
  I  I56  1  0.16676832  0.00050129  0.83287398  1
  I  I57  1  0.17162249  0.32797379  0.16550060  1
  I  I58  1  0.16871237  0.32955818  0.50223784  1
  I  I59  1  0.16742579  0.32989581  0.83241387  1
  I  I60  1  0.16792295  0.66670823  0.16754109  1
  I  I61  1  0.16669874  0.67001744  0.50568630  1
  I  I62  1  0.16595115  0.66981797  0.82862506  1
  I  I63  1  0.49840589  0.00078544  0.16160686  1
  I  I64  1  0.50184053  -0.00007253  0.50138228  1
  I  I65  1  0.49756878  0.00270023  0.83858751  1
  I  I66  1  0.49270896  0.33260821  0.16119279  1
  I  I67  1  0.49642632  0.33312438  0.49682319  1
  I  I68  1  0.49898929  0.33276803  0.84109724  1
  I  I69  1  0.50342555  0.66668258  0.16174747  1
  I  I70  1  0.49668684  0.66680616  0.50093320  1
  I  I71  1  0.49991561  0.66457937  0.83813360  1
  I  I72  1  0.82892018  -0.00360346  0.15924063  1
  I  I73  1  0.83054605  -0.00036340  0.50256750  1
  I  I74  1  0.83554060  -0.00324130  0.83718670  1
  I  I75  1  0.83480172  0.33364458  0.16574443  1
  I  I76  1  0.83546782  0.33352114  0.50015737  1
  I  I77  1  0.83329480  0.33572973  0.83323286  1
  I  I78  1  0.83061979  0.67055693  0.16447948  1
  I  I79  1  0.83676757  0.66701618  0.49724542  1
  I  I80  1  0.83405505  0.66769496  0.83764272  1
  I  I81  1  0.17173522  0.16170731  -0.00087238  1
  I  I82  1  0.17254478  0.16044588  0.33287895  1
  I  I83  1  0.17025009  0.16244519  0.66793872  1
  I  I84  1  0.16466921  0.50224693  -0.00019528  1
  I  I85  1  0.16860003  0.50184038  0.33300057  1
  I  I86  1  0.16837311  0.49610690  0.66708195  1
  I  I87  1  0.16547403  0.83758364  -0.00279088  1
  I  I88  1  0.16824914  0.83912680  0.33510344  1
  I  I89  1  0.16145783  0.84138621  0.66833717  1
  I  I90  1  0.49137584  0.16733908  0.00009385  1
  I  I91  1  0.49500380  0.16655223  0.32976726  1
  I  I92  1  0.49610997  0.17176683  0.67026560  1
  I  I93  1  0.50293366  0.49863341  -0.00043895  1
  I  I94  1  0.49721854  0.49948771  0.32975935  1
  I  I95  1  0.50274164  0.49515832  0.67076556  1
  I  I96  1  0.49813453  0.83391061  0.00269312  1
  I  I97  1  0.50506351  0.83404206  0.32793523  1
  I  I98  1  0.50231232  0.83325204  0.66670603  1
  I  I99  1  0.83954244  0.16733644  -0.00018818  1
  I  I100  1  0.83280881  0.16461496  0.33308289  1
  I  I101  1  0.83184978  0.16525141  0.66708695  1
  I  I102  1  0.83242131  0.50145209  -0.00346648  1
  I  I103  1  0.83318557  0.50093606  0.33301427  1
  I  I104  1  0.82732508  0.50659308  0.67186872  1
  I  I105  1  0.83627845  0.83047213  -0.00103797  1
  I  I106  1  0.82952345  0.83522768  0.33040471  1
  I  I107  1  0.83551371  0.82978437  0.67014116  1
  I  I108  1  0.00308438  0.16271581  0.16573716  1
  I  I109  1  0.00547860  0.16080169  0.50184412  1
  I  I110  1  0.00327730  0.16577554  0.83316096  1
  I  I111  1  -0.00046033  0.50017724  0.16649251  1
  I  I112  1  0.00001416  0.49896207  0.50059331  1
  I  I113  1  -0.00237198  0.50086251  0.83210288  1
  I  I114  1  -0.00205925  0.83619704  0.16513683  1
  I  I115  1  0.00394373  0.83974939  0.49990418  1
  I  I116  1  0.00036560  0.83343336  0.83559466  1
  I  I117  1  0.33383304  0.16378055  0.16575463  1
  I  I118  1  0.32982327  0.16205638  0.49996593  1
  I  I119  1  0.33277646  0.16651555  0.83423423  1
  I  I120  1  0.33748167  0.50681759  0.15954873  1
  I  I121  1  0.33330928  0.50104200  0.50236222  1
  I  I122  1  0.33657428  0.49918839  0.83713688  1
  I  I123  1  0.33601504  0.83228921  0.16629732  1
  I  I124  1  0.32901731  0.83806601  0.50663531  1
  I  I125  1  0.33066598  0.83464616  0.83157435  1
  I  I126  1  0.66270539  0.16810679  0.15936813  1
  I  I127  1  0.66658039  0.16727573  0.50018240  1
  I  I128  1  0.66320457  0.16799117  0.84064819  1
  I  I129  1  0.66241159  0.49394727  0.16365122  1
  I  I130  1  0.66659727  0.50003113  0.49742909  1
  I  I131  1  0.66574579  0.49998918  0.83871491  1
  I  I132  1  0.66614990  0.83512714  0.15890905  1
  I  I133  1  0.66669831  0.83265003  0.50230816  1
  I  I134  1  0.66893949  0.83245158  0.83720616  1
