# generated using pymatgen
data_Cs27Sn13Pb14I81
_symmetry_space_group_name_H-M   'P 1'
_cell_length_a   18.97775196
_cell_length_b   18.97159361
_cell_length_c   18.98123030
_cell_angle_alpha   89.99933038
_cell_angle_beta   89.99732828
_cell_angle_gamma   89.99998664
_symmetry_Int_Tables_number   1
_chemical_formula_structural   Cs27Sn13Pb14I81
_chemical_formula_sum   'Cs27 Sn13 Pb14 I81'
_cell_volume   6833.96794378
_cell_formula_units_Z   1
loop_
 _symmetry_equiv_pos_site_id
 _symmetry_equiv_pos_as_xyz
  1  'x, y, z'
loop_
 _atom_site_type_symbol
 _atom_site_label
 _atom_site_symmetry_multiplicity
 _atom_site_fract_x
 _atom_site_fract_y
 _atom_site_fract_z
 _atom_site_occupancy
  Cs  Cs0  1  -0.00190025  -0.00082247  0.00151573  1
  Cs  Cs1  1  -0.00034795  0.00174006  0.33330217  1
  Cs  Cs2  1  -0.00141388  0.00068178  0.66444050  1
  Cs  Cs3  1  0.00189851  0.33777781  -0.00283230  1
  Cs  Cs4  1  -0.00032310  0.32879358  0.33333703  1
  Cs  Cs5  1  0.00075157  0.33284005  0.67008521  1
  Cs  Cs6  1  -0.00042855  0.66335269  -0.00012809  1
  Cs  Cs7  1  0.00305689  0.66733010  0.33145870  1
  Cs  Cs8  1  -0.00757394  0.66541372  0.66785388  1
  Cs  Cs9  1  0.33484567  -0.00147778  -0.00115509  1
  Cs  Cs10  1  0.33130577  -0.00334653  0.33284346  1
  Cs  Cs11  1  0.33192628  0.00215461  0.66790406  1
  Cs  Cs12  1  0.33165768  0.33443403  -0.00402668  1
  Cs  Cs13  1  0.33461550  0.33449486  0.33817228  1
  Cs  Cs14  1  0.33301320  0.32359491  0.66569213  1
  Cs  Cs15  1  0.33410071  0.66710943  0.00115634  1
  Cs  Cs16  1  0.33302101  0.66722310  0.33291441  1
  Cs  Cs17  1  0.33550813  0.66893450  0.66410376  1
  Cs  Cs18  1  0.66654530  0.00294937  0.00119165  1
  Cs  Cs19  1  0.67094943  0.00574314  0.33000529  1
  Cs  Cs20  1  0.67103187  -0.00056357  0.66831853  1
  Cs  Cs21  1  0.66587388  0.32872977  0.00193110  1
  Cs  Cs22  1  0.66730222  0.32873821  0.33829720  1
  Cs  Cs23  1  0.66487729  0.33667153  0.65781489  1
  Cs  Cs24  1  0.66551526  0.66757611  -0.00038759  1
  Cs  Cs25  1  0.66442656  0.66574910  0.33309365  1
  Cs  Cs26  1  0.67167194  0.66413419  0.66647158  1
  Sn  Sn27  1  0.83317669  0.83236015  0.16660750  1
  Sn  Sn28  1  0.49972803  0.83324715  0.49993973  1
  Sn  Sn29  1  0.50092019  0.50061427  0.16592277  1
  Sn  Sn30  1  0.16664594  0.50109433  0.50038267  1
  Sn  Sn31  1  0.16727311  0.83197681  0.50031231  1
  Sn  Sn32  1  0.16657512  0.83400257  0.16631769  1
  Sn  Sn33  1  0.83219901  0.50061951  0.16684909  1
  Sn  Sn34  1  0.16735618  0.16619152  0.16624774  1
  Sn  Sn35  1  0.49940095  0.83240907  0.83317456  1
  Sn  Sn36  1  0.49963823  0.50072915  0.83381419  1
  Sn  Sn37  1  0.83314299  0.16690657  0.83355630  1
  Sn  Sn38  1  0.50033295  0.83283191  0.16681371  1
  Sn  Sn39  1  0.16684284  0.83285666  0.83332714  1
  Pb  Pb40  1  0.16737120  0.50034614  0.16783844  1
  Pb  Pb41  1  0.16915946  0.50254225  0.83058474  1
  Pb  Pb42  1  0.16672150  0.16581822  0.49793687  1
  Pb  Pb43  1  0.49824851  0.50202457  0.49985756  1
  Pb  Pb44  1  0.83359018  0.16666193  0.50308842  1
  Pb  Pb45  1  0.83336716  0.83324324  0.49704426  1
  Pb  Pb46  1  0.49988745  0.16272601  0.49988618  1
  Pb  Pb47  1  0.83291670  0.83416676  0.83575668  1
  Pb  Pb48  1  0.16500441  0.16396091  0.83558935  1
  Pb  Pb49  1  0.50184701  0.16645829  0.83338695  1
  Pb  Pb50  1  0.83540997  0.16720734  0.16541470  1
  Pb  Pb51  1  0.83615455  0.50031810  0.49700468  1
  Pb  Pb52  1  0.83047056  0.49787437  0.83564307  1
  Pb  Pb53  1  0.49750090  0.16698168  0.16661827  1
  I  I54  1  0.16613648  -0.00319938  0.16873428  1
  I  I55  1  0.17087868  -0.00417917  0.50096759  1
  I  I56  1  0.17294634  -0.00451098  0.82987538  1
  I  I57  1  0.16527315  0.33165169  0.16944142  1
  I  I58  1  0.16655997  0.33581542  0.49602271  1
  I  I59  1  0.16722822  0.33344690  0.83367769  1
  I  I60  1  0.16670739  0.67021515  0.16595740  1
  I  I61  1  0.17095850  0.66920803  0.49541580  1
  I  I62  1  0.16732654  0.67093576  0.84046561  1
  I  I63  1  0.50211978  -0.00391138  0.16598181  1
  I  I64  1  0.49208360  -0.00582078  0.49941062  1
  I  I65  1  0.49695123  -0.00400550  0.83452342  1
  I  I66  1  0.50274974  0.33691967  0.16157547  1
  I  I67  1  0.49791377  0.33371981  0.50011281  1
  I  I68  1  0.50155045  0.33647029  0.84003672  1
  I  I69  1  0.49846450  0.66834919  0.16600928  1
  I  I70  1  0.49639304  0.67038460  0.49845129  1
  I  I71  1  0.49650760  0.66842013  0.83580502  1
  I  I72  1  0.83126013  -0.00290778  0.16554658  1
  I  I73  1  0.83458368  -0.00042542  0.49678889  1
  I  I74  1  0.83224033  0.00170364  0.83723784  1
  I  I75  1  0.83082225  0.33626104  0.16492498  1
  I  I76  1  0.83500489  0.33362579  0.49648507  1
  I  I77  1  0.83403128  0.33055936  0.83774494  1
  I  I78  1  0.83528100  0.66780049  0.16564701  1
  I  I79  1  0.83267243  0.66692410  0.50352237  1
  I  I80  1  0.83522346  0.66654966  0.83306871  1
  I  I81  1  0.16627646  0.16120614  0.00333798  1
  I  I82  1  0.16491996  0.16014290  0.33004875  1
  I  I83  1  0.16504938  0.16615437  0.66684951  1
  I  I84  1  0.16481924  0.49983418  -0.00007812  1
  I  I85  1  0.16848322  0.50640284  0.33541093  1
  I  I86  1  0.16814240  0.50589266  0.66308950  1
  I  I87  1  0.16942727  0.83831010  0.00089250  1
  I  I88  1  0.16925882  0.83342007  0.33252698  1
  I  I89  1  0.17453236  0.82945615  0.66652258  1
  I  I90  1  0.49985047  0.16194257  0.00010721  1
  I  I91  1  0.50059549  0.16788030  0.33300768  1
  I  I92  1  0.50027047  0.16793162  0.66677325  1
  I  I93  1  0.50236885  0.50864395  0.00105772  1
  I  I94  1  0.50141892  0.50476977  0.33022924  1
  I  I95  1  0.49847066  0.50477122  0.66918876  1
  I  I96  1  0.49687651  0.83004758  0.00066432  1
  I  I97  1  0.49608789  0.82927592  0.33209578  1
  I  I98  1  0.49174435  0.83034821  0.66727700  1
  I  I99  1  0.83389678  0.16459425  -0.00186007  1
  I  I100  1  0.83469681  0.16619829  0.33297027  1
  I  I101  1  0.83392928  0.16377435  0.67069129  1
  I  I102  1  0.83456264  0.50454451  0.00364673  1
  I  I103  1  0.82683417  0.50411265  0.32881983  1
  I  I104  1  0.83263670  0.49780676  0.66678058  1
  I  I105  1  0.83448755  0.83125040  0.00391310  1
  I  I106  1  0.83397553  0.83102944  0.32864222  1
  I  I107  1  0.83368208  0.83650236  0.66686267  1
  I  I108  1  0.00299118  0.16096486  0.16643389  1
  I  I109  1  0.00044100  0.16392621  0.49838565  1
  I  I110  1  -0.00249582  0.16477682  0.83566416  1
  I  I111  1  -0.00172482  0.50340837  0.16902522  1
  I  I112  1  0.00397973  0.50798959  0.49793585  1
  I  I113  1  0.00007897  0.49997130  0.83410609  1
  I  I114  1  0.00085607  0.83371088  0.16672515  1
  I  I115  1  0.00357163  0.83090705  0.49970108  1
  I  I116  1  0.00264005  0.83633548  0.83383095  1
  I  I117  1  0.32983228  0.16037593  0.16640868  1
  I  I118  1  0.33305393  0.16949095  0.50040722  1
  I  I119  1  0.33326331  0.16778981  0.83376755  1
  I  I120  1  0.33639375  0.50392429  0.16464668  1
  I  I121  1  0.33055428  0.50397883  0.49553357  1
  I  I122  1  0.33698265  0.50192721  0.84222753  1
  I  I123  1  0.33345357  0.83351070  0.16692193  1
  I  I124  1  0.33267227  0.82957193  0.49518657  1
  I  I125  1  0.33375422  0.83095154  0.83782618  1
  I  I126  1  0.66676621  0.16334850  0.16530893  1
  I  I127  1  0.66667668  0.16617162  0.49823286  1
  I  I128  1  0.66925784  0.16255380  0.83738290  1
  I  I129  1  0.66574417  0.50898613  0.16292106  1
  I  I130  1  0.66637394  0.50088457  0.50164192  1
  I  I131  1  0.66263604  0.50828335  0.83415390  1
  I  I132  1  0.66572146  0.82898330  0.16611463  1
  I  I133  1  0.66335269  0.83320912  0.50095285  1
  I  I134  1  0.66322124  0.83169823  0.83336871  1
