# generated using pymatgen
data_Cs27Sn14Pb13I81
_symmetry_space_group_name_H-M   'P 1'
_cell_length_a   18.96816735
_cell_length_b   18.97423265
_cell_length_c   18.98580731
_cell_angle_alpha   90.00008389
_cell_angle_beta   90.00030863
_cell_angle_gamma   89.99920688
_symmetry_Int_Tables_number   1
_chemical_formula_structural   Cs27Sn14Pb13I81
_chemical_formula_sum   'Cs27 Sn14 Pb13 I81'
_cell_volume   6833.11394351
_cell_formula_units_Z   1
loop_
 _symmetry_equiv_pos_site_id
 _symmetry_equiv_pos_as_xyz
  1  'x, y, z'
loop_
 _atom_site_type_symbol
 _atom_site_label
 _atom_site_symmetry_multiplicity
 _atom_site_fract_x
 _atom_site_fract_y
 _atom_site_fract_z
 _atom_site_occupancy
  Cs  Cs0  1  0.00143497  -0.00048022  -0.00031821  1
  Cs  Cs1  1  -0.00197341  -0.00142393  0.33202939  1
  Cs  Cs2  1  0.00321088  0.00225925  0.66794066  1
  Cs  Cs3  1  -0.00078788  0.33361958  -0.00152596  1
  Cs  Cs4  1  0.00231277  0.33941540  0.33438513  1
  Cs  Cs5  1  -0.00075627  0.33355592  0.66764997  1
  Cs  Cs6  1  -0.00055394  0.66691655  -0.00023778  1
  Cs  Cs7  1  -0.00203026  0.66371016  0.33250855  1
  Cs  Cs8  1  -0.00001566  0.66543466  0.66857104  1
  Cs  Cs9  1  0.33170387  -0.00178105  -0.00146104  1
  Cs  Cs10  1  0.33314731  0.00078221  0.33267024  1
  Cs  Cs11  1  0.33030029  -0.00112954  0.66882867  1
  Cs  Cs12  1  0.33624786  0.33350908  0.00156195  1
  Cs  Cs13  1  0.33896626  0.33877531  0.33146301  1
  Cs  Cs14  1  0.33406783  0.33471535  0.66676903  1
  Cs  Cs15  1  0.33491662  0.66957256  -0.00021115  1
  Cs  Cs16  1  0.33364567  0.66119768  0.33395494  1
  Cs  Cs17  1  0.33592055  0.66711913  0.66701449  1
  Cs  Cs18  1  0.66652956  0.00088839  0.00198221  1
  Cs  Cs19  1  0.66992397  0.00596317  0.33975248  1
  Cs  Cs20  1  0.66677067  0.00191335  0.66007448  1
  Cs  Cs21  1  0.66449856  0.33187861  0.00282958  1
  Cs  Cs22  1  0.65847176  0.32348714  0.33105289  1
  Cs  Cs23  1  0.66743633  0.33285940  0.66541112  1
  Cs  Cs24  1  0.66675799  0.66597569  -0.00160244  1
  Cs  Cs25  1  0.67147487  0.67144925  0.33872846  1
  Cs  Cs26  1  0.66468301  0.66609361  0.66639171  1
  Sn  Sn27  1  0.16632171  0.50013988  0.83365614  1
  Sn  Sn28  1  0.49914595  0.16550580  0.83328668  1
  Sn  Sn29  1  0.16658423  0.83365443  0.49973845  1
  Sn  Sn30  1  0.16643360  0.16628787  0.16673989  1
  Sn  Sn31  1  0.83314833  0.83311239  0.83337040  1
  Sn  Sn32  1  0.16747650  0.16700125  0.83358990  1
  Sn  Sn33  1  0.83400294  0.50069348  0.83351082  1
  Sn  Sn34  1  0.16662072  0.16627848  0.49960691  1
  Sn  Sn35  1  0.83287521  0.49978408  0.16637378  1
  Sn  Sn36  1  0.50027612  0.83453947  0.83406402  1
  Sn  Sn37  1  0.16738479  0.83383287  0.16683448  1
  Sn  Sn38  1  0.16656576  0.83305034  0.83340610  1
  Sn  Sn39  1  0.83305779  0.49957772  0.50026191  1
  Sn  Sn40  1  0.49980045  0.83327963  0.16636881  1
  Pb  Pb41  1  0.50030281  0.50011082  0.83338884  1
  Pb  Pb42  1  0.49743249  0.83342610  0.49993620  1
  Pb  Pb43  1  0.50335109  0.50009289  0.49996079  1
  Pb  Pb44  1  0.16559679  0.50043386  0.16421077  1
  Pb  Pb45  1  0.83319561  0.16648457  0.83341482  1
  Pb  Pb46  1  0.16567119  0.50009267  0.50242571  1
  Pb  Pb47  1  0.49671488  0.16639096  0.50282414  1
  Pb  Pb48  1  0.83628692  0.16914912  0.49995647  1
  Pb  Pb49  1  0.83606744  0.16899412  0.16658544  1
  Pb  Pb50  1  0.83612987  0.83197639  0.50280720  1
  Pb  Pb51  1  0.50311136  0.50339149  0.16652435  1
  Pb  Pb52  1  0.83330489  0.83221898  0.16481594  1
  Pb  Pb53  1  0.49739296  0.16381871  0.16440909  1
  I  I54  1  0.16921193  -0.00100246  0.16172082  1
  I  I55  1  0.16635267  -0.00038979  0.50599233  1
  I  I56  1  0.16660002  -0.00077156  0.83294751  1
  I  I57  1  0.16276286  0.33086578  0.16554571  1
  I  I58  1  0.16373297  0.33068764  0.50176955  1
  I  I59  1  0.16565635  0.33265459  0.83276777  1
  I  I60  1  0.16854956  0.67003275  0.16581528  1
  I  I61  1  0.16515797  0.66951920  0.50077184  1
  I  I62  1  0.16559596  0.66808970  0.83320938  1
  I  I63  1  0.49819969  -0.00397725  0.16232786  1
  I  I64  1  0.50485506  -0.00011196  0.49883711  1
  I  I65  1  0.49512020  -0.00124004  0.83694085  1
  I  I66  1  0.49991790  0.33310942  0.16550068  1
  I  I67  1  0.49728907  0.33304630  0.50223527  1
  I  I68  1  0.49547930  0.33060820  0.83222705  1
  I  I69  1  0.49055656  0.67102000  0.15733515  1
  I  I70  1  0.49608351  0.66705176  0.50314805  1
  I  I71  1  0.49702900  0.67007509  0.83645747  1
  I  I72  1  0.83258925  -0.00016947  0.16397401  1
  I  I73  1  0.83194621  -0.00002880  0.50159139  1
  I  I74  1  0.83735423  -0.00315669  0.83455131  1
  I  I75  1  0.83660173  0.33731617  0.16152366  1
  I  I76  1  0.83736081  0.33723935  0.50581548  1
  I  I77  1  0.83808220  0.33658875  0.83267266  1
  I  I78  1  0.83678222  0.66403398  0.16673514  1
  I  I79  1  0.83730464  0.66388438  0.49878245  1
  I  I80  1  0.83792700  0.66637570  0.83356083  1
  I  I81  1  0.16937787  0.16392722  -0.00115083  1
  I  I82  1  0.16302430  0.15848465  0.33314313  1
  I  I83  1  0.16940551  0.16365957  0.66804838  1
  I  I84  1  0.16015888  0.50034932  -0.00402852  1
  I  I85  1  0.16327948  0.50023020  0.33326230  1
  I  I86  1  0.16070633  0.50033239  0.67070598  1
  I  I87  1  0.16660572  0.83518751  -0.00131351  1
  I  I88  1  0.17058596  0.84012134  0.33263147  1
  I  I89  1  0.16576024  0.83541182  0.66850658  1
  I  I90  1  0.49390175  0.16566527  -0.00353604  1
  I  I91  1  0.49965809  0.16655700  0.33314659  1
  I  I92  1  0.49480544  0.16051411  0.67094124  1
  I  I93  1  0.50226958  0.49782440  -0.00027197  1
  I  I94  1  0.49870398  0.50125700  0.33299700  1
  I  I95  1  0.50085872  0.50219344  0.66724211  1
  I  I96  1  0.49428958  0.83591209  -0.00175602  1
  I  I97  1  0.49452724  0.83043666  0.33019990  1
  I  I98  1  0.49909470  0.83571894  0.67035322  1
  I  I99  1  0.83651102  0.17001755  -0.00034025  1
  I  I100  1  0.83479443  0.16794746  0.33331388  1
  I  I101  1  0.83553380  0.16905569  0.66700087  1
  I  I102  1  0.83838887  0.50442425  -0.00166868  1
  I  I103  1  0.83636477  0.50101929  0.33331027  1
  I  I104  1  0.83869812  0.50388557  0.66831899  1
  I  I105  1  0.83866532  0.82696998  -0.00357937  1
  I  I106  1  0.83410782  0.82939447  0.33342438  1
  I  I107  1  0.83328720  0.82735022  0.67115873  1
  I  I108  1  0.00467875  0.15919521  0.16179710  1
  I  I109  1  0.00451060  0.16245805  0.50551518  1
  I  I110  1  0.00373695  0.16460830  0.83291399  1
  I  I111  1  -0.00242431  0.50226807  0.16679649  1
  I  I112  1  -0.00236050  0.50024456  0.49980918  1
  I  I113  1  0.00002092  0.50319740  0.83323899  1
  I  I114  1  0.00345575  0.83569608  0.16487393  1
  I  I115  1  0.00435769  0.83679932  0.50006408  1
  I  I116  1  0.00167673  0.83226877  0.83341518  1
  I  I117  1  0.32901172  0.16653128  0.16780440  1
  I  I118  1  0.32856824  0.16269222  0.49931759  1
  I  I119  1  0.33114896  0.16353938  0.83297820  1
  I  I120  1  0.33335103  0.49791760  0.16489873  1
  I  I121  1  0.33302725  0.49988455  0.50211770  1
  I  I122  1  0.33026667  0.50213443  0.83298641  1
  I  I123  1  0.33155365  0.83670580  0.16025942  1
  I  I124  1  0.32898964  0.83658875  0.50621954  1
  I  I125  1  0.33174546  0.83352559  0.83355107  1
  I  I126  1  0.66623861  0.16720503  0.16453954  1
  I  I127  1  0.66648662  0.16895393  0.50148499  1
  I  I128  1  0.66372213  0.16403832  0.83417092  1
  I  I129  1  0.67106891  0.50174946  0.16088528  1
  I  I130  1  0.67161586  0.50281796  0.50615611  1
  I  I131  1  0.67015741  0.50388518  0.83263022  1
  I  I132  1  0.66412843  0.82866987  0.15891211  1
  I  I133  1  0.66693004  0.83008638  0.50043528  1
  I  I134  1  0.66631663  0.83154529  0.83913044  1
