# generated using pymatgen
data_Cs27Sn14Pb13I81
_symmetry_space_group_name_H-M   'P 1'
_cell_length_a   18.97211289
_cell_length_b   18.98495634
_cell_length_c   18.97282063
_cell_angle_alpha   89.99950805
_cell_angle_beta   89.99567277
_cell_angle_gamma   90.00127538
_symmetry_Int_Tables_number   1
_chemical_formula_structural   Cs27Sn14Pb13I81
_chemical_formula_sum   'Cs27 Sn14 Pb13 I81'
_cell_volume   6833.72034668
_cell_formula_units_Z   1
loop_
 _symmetry_equiv_pos_site_id
 _symmetry_equiv_pos_as_xyz
  1  'x, y, z'
loop_
 _atom_site_type_symbol
 _atom_site_label
 _atom_site_symmetry_multiplicity
 _atom_site_fract_x
 _atom_site_fract_y
 _atom_site_fract_z
 _atom_site_occupancy
  Cs  Cs0  1  -0.00192799  0.00063473  -0.00273308  1
  Cs  Cs1  1  0.00162127  -0.00325831  0.33309989  1
  Cs  Cs2  1  -0.00027557  -0.00037586  0.66754571  1
  Cs  Cs3  1  0.00092766  0.33444539  -0.00041738  1
  Cs  Cs4  1  0.00002477  0.33309442  0.33433885  1
  Cs  Cs5  1  -0.00046067  0.33316980  0.66590492  1
  Cs  Cs6  1  -0.00230280  0.66433661  -0.00318475  1
  Cs  Cs7  1  0.00311893  0.67108339  0.33147076  1
  Cs  Cs8  1  0.00057090  0.66751502  0.66977803  1
  Cs  Cs9  1  0.33772400  0.00205302  -0.00018347  1
  Cs  Cs10  1  0.33093910  -0.00402112  0.33478897  1
  Cs  Cs11  1  0.33358499  0.00021382  0.66560822  1
  Cs  Cs12  1  0.33376554  0.33269642  0.00247704  1
  Cs  Cs13  1  0.33220430  0.33101998  0.32964093  1
  Cs  Cs14  1  0.33337370  0.33287852  0.66758076  1
  Cs  Cs15  1  0.33642440  0.66550102  0.00135082  1
  Cs  Cs16  1  0.33113330  0.67709013  0.33612205  1
  Cs  Cs17  1  0.33779489  0.66702695  0.66298014  1
  Cs  Cs18  1  0.66622101  -0.00045562  0.00102278  1
  Cs  Cs19  1  0.66753852  0.00202421  0.32960495  1
  Cs  Cs20  1  0.66874619  0.00168382  0.66900356  1
  Cs  Cs21  1  0.66600097  0.33283933  0.00088541  1
  Cs  Cs22  1  0.66720286  0.33266213  0.33449305  1
  Cs  Cs23  1  0.66521032  0.33546584  0.66212115  1
  Cs  Cs24  1  0.66835059  0.66740873  0.00202883  1
  Cs  Cs25  1  0.66358189  0.66636119  0.33279247  1
  Cs  Cs26  1  0.66102227  0.66355588  0.66322421  1
  Sn  Sn27  1  0.50085867  0.16771102  0.16780318  1
  Sn  Sn28  1  0.83304673  0.16780747  0.16583380  1
  Sn  Sn29  1  0.16591502  0.16679277  0.83254374  1
  Sn  Sn30  1  0.83280584  0.49887728  0.16626027  1
  Sn  Sn31  1  0.83356994  0.49956044  0.83352651  1
  Sn  Sn32  1  0.83314200  0.83316874  0.50097597  1
  Sn  Sn33  1  0.83364107  0.83303077  0.83191614  1
  Sn  Sn34  1  0.83390562  0.16729465  0.83392524  1
  Sn  Sn35  1  0.49919637  0.16689137  0.49926983  1
  Sn  Sn36  1  0.16629575  0.49922871  0.50063198  1
  Sn  Sn37  1  0.16732584  0.16767733  0.50080224  1
  Sn  Sn38  1  0.50059995  0.49919991  0.16695405  1
  Sn  Sn39  1  0.16622704  0.49991097  0.83232016  1
  Sn  Sn40  1  0.16632257  0.83326377  0.83336818  1
  Pb  Pb41  1  0.16635362  0.50003000  0.16662033  1
  Pb  Pb42  1  0.50049378  0.83317103  0.83317724  1
  Pb  Pb43  1  0.83339568  0.83318880  0.16595053  1
  Pb  Pb44  1  0.50001778  0.49984331  0.83532457  1
  Pb  Pb45  1  0.50302944  0.83652702  0.50021623  1
  Pb  Pb46  1  0.83535318  0.50206366  0.49966382  1
  Pb  Pb47  1  0.49700428  0.49778769  0.49708525  1
  Pb  Pb48  1  0.16493283  0.83368475  0.50242270  1
  Pb  Pb49  1  0.50019012  0.16686231  0.83343476  1
  Pb  Pb50  1  0.50011285  0.83365814  0.16664603  1
  Pb  Pb51  1  0.16622484  0.16653714  0.16651958  1
  Pb  Pb52  1  0.16638448  0.83341294  0.16265999  1
  Pb  Pb53  1  0.83389532  0.16539506  0.49989235  1
  I  I54  1  0.16666025  0.00037190  0.16837160  1
  I  I55  1  0.16937962  0.00301379  0.50329751  1
  I  I56  1  0.15992119  0.00097015  0.83008336  1
  I  I57  1  0.16692163  0.33325502  0.16262384  1
  I  I58  1  0.16874627  0.33240169  0.50843258  1
  I  I59  1  0.16044190  0.33312934  0.82936739  1
  I  I60  1  0.16714387  0.66634828  0.16916637  1
  I  I61  1  0.16389294  0.66434081  0.50262636  1
  I  I62  1  0.15889644  0.66590681  0.83078450  1
  I  I63  1  0.50457823  0.00389155  0.16905232  1
  I  I64  1  0.49224560  0.00436468  0.49339178  1
  I  I65  1  0.50008374  0.00031555  0.83629138  1
  I  I66  1  0.50493319  0.33233405  0.16961773  1
  I  I67  1  0.50073969  0.32987930  0.49903182  1
  I  I68  1  0.49947524  0.33319029  0.83165380  1
  I  I69  1  0.50495425  0.66339274  0.16368837  1
  I  I70  1  0.49860535  0.66650427  0.49836957  1
  I  I71  1  0.49955903  0.66641521  0.83647824  1
  I  I72  1  0.82912817  0.00316844  0.16351635  1
  I  I73  1  0.83505268  -0.00224098  0.50466465  1
  I  I74  1  0.83883578  0.00071732  0.83339235  1
  I  I75  1  0.82934726  0.33298089  0.15885887  1
  I  I76  1  0.83186372  0.33331558  0.50194846  1
  I  I77  1  0.83988363  0.33319539  0.83909538  1
  I  I78  1  0.82982689  0.66345210  0.16318690  1
  I  I79  1  0.83675925  0.66962788  0.50435487  1
  I  I80  1  0.84022592  0.66602492  0.83488581  1
  I  I81  1  0.16560672  0.16721320  -0.00350577  1
  I  I82  1  0.16682946  0.17199529  0.33623442  1
  I  I83  1  0.16642231  0.16701394  0.66766341  1
  I  I84  1  0.16528997  0.49942959  -0.00348404  1
  I  I85  1  0.16604046  0.49349659  0.33603681  1
  I  I86  1  0.16030113  0.49860127  0.66826497  1
  I  I87  1  0.15816372  0.83344761  -0.00565876  1
  I  I88  1  0.16501844  0.83284144  0.33384468  1
  I  I89  1  0.16255323  0.83410890  0.67038939  1
  I  I90  1  0.50066031  0.16990858  0.00290288  1
  I  I91  1  0.50103924  0.17099033  0.33256046  1
  I  I92  1  0.49880488  0.16497958  0.66419427  1
  I  I93  1  0.49892215  0.49233517  0.00327783  1
  I  I94  1  0.50740534  0.49696872  0.32938098  1
  I  I95  1  0.50259259  0.49906346  0.66627071  1
  I  I96  1  0.50001511  0.83659499  0.00001633  1
  I  I97  1  0.50177073  0.83110100  0.33354350  1
  I  I98  1  0.49908501  0.83496257  0.66648924  1
  I  I99  1  0.83344337  0.16465510  -0.00094337  1
  I  I100  1  0.83226969  0.16917129  0.33071976  1
  I  I101  1  0.83423950  0.16814338  0.66969459  1
  I  I102  1  0.83564181  0.50152950  -0.00109962  1
  I  I103  1  0.83111656  0.49613771  0.33038502  1
  I  I104  1  0.83667793  0.49709639  0.66991030  1
  I  I105  1  0.83816885  0.83362213  -0.00359777  1
  I  I106  1  0.83301200  0.83473561  0.33549721  1
  I  I107  1  0.83814348  0.83545121  0.66892556  1
  I  I108  1  -0.00330033  0.17098511  0.16511932  1
  I  I109  1  0.00278082  0.16869314  0.50150470  1
  I  I110  1  -0.00030055  0.16616619  0.83349433  1
  I  I111  1  -0.00322074  0.49552132  0.16440808  1
  I  I112  1  0.00316517  0.49235829  0.49984249  1
  I  I113  1  -0.00045383  0.50004700  0.83620040  1
  I  I114  1  -0.00049412  0.83390054  0.17146987  1
  I  I115  1  -0.00271711  0.83658322  0.50146340  1
  I  I116  1  -0.00087425  0.83394868  0.82974641  1
  I  I117  1  0.33599771  0.17135976  0.16626834  1
  I  I118  1  0.33225634  0.17029856  0.50034177  1
  I  I119  1  0.33004853  0.16612629  0.83305867  1
  I  I120  1  0.33585573  0.49390919  0.16543304  1
  I  I121  1  0.32915873  0.49930485  0.50686190  1
  I  I122  1  0.32974046  0.49985713  0.83131582  1
  I  I123  1  0.33336973  0.83275206  0.16588149  1
  I  I124  1  0.33312866  0.83146653  0.50057571  1
  I  I125  1  0.32979732  0.83426104  0.83425417  1
  I  I126  1  0.66744912  0.16980796  0.16680283  1
  I  I127  1  0.66491514  0.16355625  0.49879279  1
  I  I128  1  0.67017802  0.16558526  0.83411477  1
  I  I129  1  0.66807594  0.49610560  0.16055354  1
  I  I130  1  0.66666612  0.50008766  0.50280432  1
  I  I131  1  0.67033180  0.50004105  0.83576913  1
  I  I132  1  0.66700947  0.83399656  0.16384732  1
  I  I133  1  0.67075823  0.83354387  0.50772049  1
  I  I134  1  0.67098615  0.83464885  0.83112028  1
