# generated using pymatgen
data_Cs27Sn13Pb14I81
_symmetry_space_group_name_H-M   'P 1'
_cell_length_a   18.97587233
_cell_length_b   18.97133248
_cell_length_c   18.98087423
_cell_angle_alpha   89.99851935
_cell_angle_beta   89.99943424
_cell_angle_gamma   89.99866654
_symmetry_Int_Tables_number   1
_chemical_formula_structural   Cs27Sn13Pb14I81
_chemical_formula_sum   'Cs27 Sn13 Pb14 I81'
_cell_volume   6833.06884479
_cell_formula_units_Z   1
loop_
 _symmetry_equiv_pos_site_id
 _symmetry_equiv_pos_as_xyz
  1  'x, y, z'
loop_
 _atom_site_type_symbol
 _atom_site_label
 _atom_site_symmetry_multiplicity
 _atom_site_fract_x
 _atom_site_fract_y
 _atom_site_fract_z
 _atom_site_occupancy
  Cs  Cs0  1  0.00262695  0.00216783  -0.00136121  1
  Cs  Cs1  1  0.00235468  -0.00002693  0.33567493  1
  Cs  Cs2  1  0.00028815  -0.00018976  0.66710020  1
  Cs  Cs3  1  -0.00104272  0.33141044  -0.00033729  1
  Cs  Cs4  1  -0.00256765  0.33440398  0.33175576  1
  Cs  Cs5  1  -0.00017450  0.33293904  0.66812448  1
  Cs  Cs6  1  0.00014556  0.66759530  0.00275984  1
  Cs  Cs7  1  -0.00481050  0.66598531  0.33942332  1
  Cs  Cs8  1  0.00243439  0.66771892  0.65641219  1
  Cs  Cs9  1  0.33040164  -0.00130911  0.00398758  1
  Cs  Cs10  1  0.33582744  0.00156438  0.33103593  1
  Cs  Cs11  1  0.33178905  0.00108322  0.66475983  1
  Cs  Cs12  1  0.33196404  0.33582441  0.00109078  1
  Cs  Cs13  1  0.33746679  0.33198408  0.32982601  1
  Cs  Cs14  1  0.33391880  0.33578155  0.66824698  1
  Cs  Cs15  1  0.33446030  0.66492763  -0.00138150  1
  Cs  Cs16  1  0.33265435  0.66586010  0.33504654  1
  Cs  Cs17  1  0.33258315  0.66274093  0.66600187  1
  Cs  Cs18  1  0.66586982  -0.00811925  -0.00050987  1
  Cs  Cs19  1  0.66033204  -0.00086116  0.33130091  1
  Cs  Cs20  1  0.66782526  0.00203505  0.66797427  1
  Cs  Cs21  1  0.67173225  0.33403780  -0.00332891  1
  Cs  Cs22  1  0.66503817  0.33501380  0.33441520  1
  Cs  Cs23  1  0.66648084  0.33048034  0.66793418  1
  Cs  Cs24  1  0.66558419  0.67605655  0.00108543  1
  Cs  Cs25  1  0.67151340  0.66484244  0.33145389  1
  Cs  Cs26  1  0.66463065  0.67149793  0.66811627  1
  Sn  Sn27  1  0.83360456  0.50042707  0.83319938  1
  Sn  Sn28  1  0.49959391  0.16665609  0.83406128  1
  Sn  Sn29  1  0.16625376  0.16713696  0.50056763  1
  Sn  Sn30  1  0.16648781  0.83196247  0.16634900  1
  Sn  Sn31  1  0.83294652  0.16631330  0.16658395  1
  Sn  Sn32  1  0.49989759  0.83234398  0.50014291  1
  Sn  Sn33  1  0.83324169  0.16717411  0.83352001  1
  Sn  Sn34  1  0.49987525  0.49994283  0.16676889  1
  Sn  Sn35  1  0.16713860  0.16625190  0.83260333  1
  Sn  Sn36  1  0.50003902  0.50090934  0.49969636  1
  Sn  Sn37  1  0.16658258  0.83347811  0.83362184  1
  Sn  Sn38  1  0.83404104  0.16682762  0.49975527  1
  Sn  Sn39  1  0.16674633  0.50104131  0.16673168  1
  Pb  Pb40  1  0.16454527  0.50005015  0.83492387  1
  Pb  Pb41  1  0.50267860  0.16873320  0.16361049  1
  Pb  Pb42  1  0.49772619  0.83070343  0.16851804  1
  Pb  Pb43  1  0.16527892  0.16690721  0.16659913  1
  Pb  Pb44  1  0.83614538  0.83343959  0.83311238  1
  Pb  Pb45  1  0.83062183  0.83623621  0.49996169  1
  Pb  Pb46  1  0.16848471  0.49707738  0.49744198  1
  Pb  Pb47  1  0.83613397  0.83609723  0.16680818  1
  Pb  Pb48  1  0.16832629  0.83534624  0.49987728  1
  Pb  Pb49  1  0.50208646  0.49860389  0.83371709  1
  Pb  Pb50  1  0.83315550  0.49866815  0.16484805  1
  Pb  Pb51  1  0.49708117  0.83575896  0.83150503  1
  Pb  Pb52  1  0.49993964  0.16708670  0.50149915  1
  Pb  Pb53  1  0.83088019  0.49786122  0.50247946  1
  I  I54  1  0.16412265  -0.00170616  0.16516593  1
  I  I55  1  0.16571267  0.00346553  0.49991165  1
  I  I56  1  0.16485262  0.00182876  0.83557660  1
  I  I57  1  0.16919671  0.33548083  0.16669910  1
  I  I58  1  0.16479207  0.32915681  0.50591029  1
  I  I59  1  0.16715221  0.33003698  0.83136266  1
  I  I60  1  0.17137725  0.66668153  0.15944489  1
  I  I61  1  0.16696599  0.66650954  0.50268248  1
  I  I62  1  0.16555044  0.66914102  0.83664589  1
  I  I63  1  0.49937242  0.00002663  0.16854087  1
  I  I64  1  0.49969194  -0.00135681  0.50269585  1
  I  I65  1  0.50586430  0.00391936  0.83039265  1
  I  I66  1  0.49240530  0.33639859  0.17395794  1
  I  I67  1  0.50024815  0.33550952  0.49722361  1
  I  I68  1  0.49635125  0.33020426  0.83044312  1
  I  I69  1  0.49944808  0.66276558  0.16642688  1
  I  I70  1  0.49803018  0.66589376  0.49719024  1
  I  I71  1  0.50106401  0.66675566  0.83409062  1
  I  I72  1  0.83470168  0.00447356  0.16293934  1
  I  I73  1  0.83549407  0.00476626  0.50426595  1
  I  I74  1  0.83190818  0.00388953  0.83278569  1
  I  I75  1  0.83642470  0.33029095  0.16685228  1
  I  I76  1  0.83472541  0.32940186  0.49931440  1
  I  I77  1  0.83508168  0.33057738  0.83366528  1
  I  I78  1  0.83175060  0.66662219  0.16371401  1
  I  I79  1  0.83461843  0.66644925  0.50180375  1
  I  I80  1  0.83295829  0.66409156  0.83549912  1
  I  I81  1  0.16514325  0.16580727  -0.00281295  1
  I  I82  1  0.16221284  0.16653979  0.33551200  1
  I  I83  1  0.16264607  0.16134917  0.66808208  1
  I  I84  1  0.17231124  0.49816161  0.00288923  1
  I  I85  1  0.16707744  0.50379730  0.32955255  1
  I  I86  1  0.16755820  0.50160730  0.66655555  1
  I  I87  1  0.16689939  0.83753876  -0.00033927  1
  I  I88  1  0.16848012  0.83239901  0.33082722  1
  I  I89  1  0.16752320  0.83795786  0.66908689  1
  I  I90  1  0.49809354  0.16875121  -0.00417832  1
  I  I91  1  0.50007303  0.16531381  0.33317496  1
  I  I92  1  0.50352879  0.16855284  0.66936657  1
  I  I93  1  0.49660504  0.49569544  0.00252636  1
  I  I94  1  0.49593023  0.50133200  0.33327543  1
  I  I95  1  0.50175582  0.50110576  0.66441250  1
  I  I96  1  0.50094862  0.83335997  0.00000076  1
  I  I97  1  0.49704972  0.83583915  0.33626823  1
  I  I98  1  0.49789549  0.82753372  0.66381881  1
  I  I99  1  0.83472189  0.17168696  -0.00145345  1
  I  I100  1  0.83942975  0.16650352  0.33392612  1
  I  I101  1  0.83374160  0.17029958  0.66763001  1
  I  I102  1  0.83245777  0.49027004  -0.00280041  1
  I  I103  1  0.83428474  0.49680379  0.33343987  1
  I  I104  1  0.83292331  0.49193552  0.67004995  1
  I  I105  1  0.83061588  0.83585191  -0.00012784  1
  I  I106  1  0.83618519  0.83516912  0.33339253  1
  I  I107  1  0.83531117  0.83518377  0.66665447  1
  I  I108  1  -0.00255465  0.16877319  0.16239980  1
  I  I109  1  -0.00008613  0.16598572  0.50475999  1
  I  I110  1  -0.00006412  0.16659849  0.83286462  1
  I  I111  1  0.00247509  0.50114168  0.16342183  1
  I  I112  1  -0.00005574  0.50031178  0.49918530  1
  I  I113  1  -0.00292049  0.49160490  0.83629052  1
  I  I114  1  0.00425544  0.82782882  0.16321675  1
  I  I115  1  0.00028687  0.83362898  0.50027725  1
  I  I116  1  0.00394693  0.84058188  0.83660996  1
  I  I117  1  0.33340356  0.16569633  0.16695213  1
  I  I118  1  0.33104690  0.16632286  0.50512467  1
  I  I119  1  0.33203803  0.16304013  0.82745995  1
  I  I120  1  0.33310314  0.50142291  0.16908038  1
  I  I121  1  0.33643435  0.50021321  0.50028527  1
  I  I122  1  0.33324632  0.49763303  0.83255291  1
  I  I123  1  0.32983777  0.83491921  0.16294603  1
  I  I124  1  0.33597396  0.83318300  0.50054151  1
  I  I125  1  0.32936464  0.83943178  0.83700689  1
  I  I126  1  0.67046721  0.16973396  0.16835300  1
  I  I127  1  0.66913149  0.16700413  0.50218312  1
  I  I128  1  0.66787609  0.17249139  0.83189948  1
  I  I129  1  0.66411377  0.49554833  0.17017247  1
  I  I130  1  0.66304441  0.50055156  0.49323095  1
  I  I131  1  0.66970573  0.49037450  0.83405580  1
  I  I132  1  0.66643478  0.83335678  0.16730319  1
  I  I133  1  0.66286438  0.83161228  0.50031633  1
  I  I134  1  0.66650634  0.83490958  0.83246798  1
