# generated using pymatgen
data_Cs27Sn13Pb14I81
_symmetry_space_group_name_H-M   'P 1'
_cell_length_a   18.99663469
_cell_length_b   18.98541139
_cell_length_c   18.99204801
_cell_angle_alpha   89.99806120
_cell_angle_beta   89.99930712
_cell_angle_gamma   89.99842753
_symmetry_Int_Tables_number   1
_chemical_formula_structural   Cs27Sn13Pb14I81
_chemical_formula_sum   'Cs27 Sn13 Pb14 I81'
_cell_volume   6849.65160452
_cell_formula_units_Z   1
loop_
 _symmetry_equiv_pos_site_id
 _symmetry_equiv_pos_as_xyz
  1  'x, y, z'
loop_
 _atom_site_type_symbol
 _atom_site_label
 _atom_site_symmetry_multiplicity
 _atom_site_fract_x
 _atom_site_fract_y
 _atom_site_fract_z
 _atom_site_occupancy
  Cs  Cs0  1  0.00063194  0.00249929  0.00143929  1
  Cs  Cs1  1  0.00021853  0.00596751  0.33176036  1
  Cs  Cs2  1  -0.00874235  0.00083463  0.66672073  1
  Cs  Cs3  1  -0.00383171  0.33458684  -0.00169457  1
  Cs  Cs4  1  -0.00120778  0.33063049  0.33121887  1
  Cs  Cs5  1  0.00265025  0.33662134  0.66772719  1
  Cs  Cs6  1  0.00336497  0.66525069  0.00265258  1
  Cs  Cs7  1  0.00021089  0.66664726  0.33416022  1
  Cs  Cs8  1  0.00086029  0.66441777  0.66504346  1
  Cs  Cs9  1  0.33079978  -0.00108045  0.00033485  1
  Cs  Cs10  1  0.33346067  0.00355927  0.33064336  1
  Cs  Cs11  1  0.33398713  0.00184152  0.66700617  1
  Cs  Cs12  1  0.33718394  0.33368305  -0.00286024  1
  Cs  Cs13  1  0.33604296  0.32464256  0.33494712  1
  Cs  Cs14  1  0.33236545  0.33317175  0.66681649  1
  Cs  Cs15  1  0.33415678  0.66754837  -0.00110507  1
  Cs  Cs16  1  0.33224576  0.66896773  0.33666917  1
  Cs  Cs17  1  0.33349799  0.66615059  0.66603638  1
  Cs  Cs18  1  0.67137631  -0.00215774  -0.00495382  1
  Cs  Cs19  1  0.66568055  0.00217619  0.33634417  1
  Cs  Cs20  1  0.67780606  -0.00073333  0.66803892  1
  Cs  Cs21  1  0.66659113  0.33432855  0.00998359  1
  Cs  Cs22  1  0.66389795  0.32808647  0.32285567  1
  Cs  Cs23  1  0.66737310  0.33236060  0.66578677  1
  Cs  Cs24  1  0.66139734  0.66721802  0.00200282  1
  Cs  Cs25  1  0.66698819  0.66745250  0.33267966  1
  Cs  Cs26  1  0.66510651  0.66919870  0.66658683  1
  Sn  Sn27  1  0.16720724  0.83310010  0.50083891  1
  Sn  Sn28  1  0.49982554  0.16663893  0.83287759  1
  Sn  Sn29  1  0.50081559  0.83300158  0.16744628  1
  Sn  Sn30  1  0.83323864  0.50064034  0.83294453  1
  Sn  Sn31  1  0.49921795  0.83281245  0.49955330  1
  Sn  Sn32  1  0.16741033  0.49988901  0.16712243  1
  Sn  Sn33  1  0.50002827  0.50034695  0.49996146  1
  Sn  Sn34  1  0.83268221  0.83287539  0.16692222  1
  Sn  Sn35  1  0.16662213  0.83333222  0.83202185  1
  Sn  Sn36  1  0.16737280  0.16664349  0.83275585  1
  Sn  Sn37  1  0.16693379  0.50052738  0.49947433  1
  Sn  Sn38  1  0.83304270  0.50010439  0.50027937  1
  Sn  Sn39  1  0.16633394  0.50027313  0.83357383  1
  Pb  Pb40  1  0.83338543  0.16334409  0.16651611  1
  Pb  Pb41  1  0.49983429  0.16311929  0.16375043  1
  Pb  Pb42  1  0.16687953  0.17012598  0.16359592  1
  Pb  Pb43  1  0.49714038  0.50206296  0.16965300  1
  Pb  Pb44  1  0.16695668  0.83198630  0.16739501  1
  Pb  Pb45  1  0.83327387  0.17047977  0.49999196  1
  Pb  Pb46  1  0.83374672  0.83136314  0.49835805  1
  Pb  Pb47  1  0.50016465  0.49858464  0.83132751  1
  Pb  Pb48  1  0.83350959  0.16981642  0.83331197  1
  Pb  Pb49  1  0.83639044  0.83020472  0.83537748  1
  Pb  Pb50  1  0.50001452  0.16584564  0.50231541  1
  Pb  Pb51  1  0.16652933  0.16633620  0.50240667  1
  Pb  Pb52  1  0.83509150  0.50160569  0.16693078  1
  Pb  Pb53  1  0.49808248  0.83517260  0.83235335  1
  I  I54  1  0.16589608  -0.00000587  0.16601883  1
  I  I55  1  0.17263072  -0.00368795  0.50319877  1
  I  I56  1  0.17292650  -0.00062000  0.82987513  1
  I  I57  1  0.16503484  0.33825588  0.16952716  1
  I  I58  1  0.16699182  0.33717074  0.50092607  1
  I  I59  1  0.16647136  0.33487475  0.83318604  1
  I  I60  1  0.16616336  0.66409647  0.16158310  1
  I  I61  1  0.16752940  0.66554346  0.50498329  1
  I  I62  1  0.16232742  0.66574195  0.83271798  1
  I  I63  1  0.50146591  -0.00456915  0.17518639  1
  I  I64  1  0.49301518  -0.00388124  0.49556498  1
  I  I65  1  0.49199124  0.00275468  0.83330731  1
  I  I66  1  0.49918032  0.33338223  0.16758871  1
  I  I67  1  0.49781347  0.33640322  0.50332523  1
  I  I68  1  0.49274188  0.33101826  0.83020635  1
  I  I69  1  0.50317310  0.66977945  0.16569315  1
  I  I70  1  0.49798570  0.66660448  0.49788062  1
  I  I71  1  0.49934347  0.66680050  0.83535729  1
  I  I72  1  0.83139857  -0.00469249  0.16628739  1
  I  I73  1  0.83314563  -0.00041201  0.49857825  1
  I  I74  1  0.83447516  -0.00021311  0.83533756  1
  I  I75  1  0.83496111  0.33371071  0.16623574  1
  I  I76  1  0.83605860  0.33910653  0.50498828  1
  I  I77  1  0.84089333  0.33751170  0.82919424  1
  I  I78  1  0.83036840  0.66915913  0.16643180  1
  I  I79  1  0.83502447  0.66322576  0.50358277  1
  I  I80  1  0.83943854  0.66268124  0.82879227  1
  I  I81  1  0.17041447  0.16414049  -0.00458473  1
  I  I82  1  0.16603758  0.16642677  0.33335612  1
  I  I83  1  0.17086632  0.17226902  0.67038621  1
  I  I84  1  0.16097661  0.50066993  -0.00164847  1
  I  I85  1  0.16550449  0.50803472  0.33506716  1
  I  I86  1  0.16567397  0.50016400  0.66660296  1
  I  I87  1  0.16663574  0.83150952  -0.00244817  1
  I  I88  1  0.16743733  0.82574932  0.33640862  1
  I  I89  1  0.17273176  0.82749791  0.66622191  1
  I  I90  1  0.49371768  0.16778369  -0.00371445  1
  I  I91  1  0.50104622  0.16934415  0.33333182  1
  I  I92  1  0.49322505  0.16641663  0.66971850  1
  I  I93  1  0.49977836  0.50012164  0.00014401  1
  I  I94  1  0.50087606  0.50138232  0.33775017  1
  I  I95  1  0.49542506  0.50616999  0.66327854  1
  I  I96  1  0.50183180  0.83547050  0.00189639  1
  I  I97  1  0.49735627  0.82790729  0.33453930  1
  I  I98  1  0.49617566  0.82930930  0.66338643  1
  I  I99  1  0.83383913  0.16974601  -0.00036240  1
  I  I100  1  0.83342790  0.16973156  0.33316567  1
  I  I101  1  0.83259106  0.16188539  0.66704061  1
  I  I102  1  0.84052154  0.50061009  -0.00249338  1
  I  I103  1  0.83595111  0.50282322  0.33630998  1
  I  I104  1  0.83989347  0.50063629  0.66639129  1
  I  I105  1  0.82778601  0.83046315  0.00287582  1
  I  I106  1  0.83494695  0.82855711  0.33089434  1
  I  I107  1  0.83075062  0.83494213  0.66669130  1
  I  I108  1  0.00036464  0.16345659  0.16472287  1
  I  I109  1  0.00013766  0.16459682  0.50240520  1
  I  I110  1  0.00327190  0.16565700  0.83336993  1
  I  I111  1  0.00295235  0.50443344  0.16928755  1
  I  I112  1  0.00152866  0.50422991  0.50183882  1
  I  I113  1  0.00221819  0.49837076  0.82898775  1
  I  I114  1  -0.00137256  0.82995677  0.16524444  1
  I  I115  1  0.00325385  0.82820674  0.50279456  1
  I  I116  1  0.00453791  0.83740738  0.82895400  1
  I  I117  1  0.33327774  0.16432153  0.16812816  1
  I  I118  1  0.33318294  0.17198234  0.49995526  1
  I  I119  1  0.33157815  0.16979097  0.83282778  1
  I  I120  1  0.32948242  0.50371925  0.16255959  1
  I  I121  1  0.33221523  0.50483818  0.50116994  1
  I  I122  1  0.32983092  0.50134417  0.83274728  1
  I  I123  1  0.33545595  0.83133829  0.16748970  1
  I  I124  1  0.33286126  0.82399896  0.49846929  1
  I  I125  1  0.32980309  0.82725347  0.83501463  1
  I  I126  1  0.66639957  0.17203852  0.16317227  1
  I  I127  1  0.66649938  0.16549625  0.50501062  1
  I  I128  1  0.66423454  0.16666350  0.83211197  1
  I  I129  1  0.66635540  0.49929492  0.16559826  1
  I  I130  1  0.66647883  0.50526942  0.50727271  1
  I  I131  1  0.66918133  0.49803545  0.82787344  1
  I  I132  1  0.66576204  0.83120177  0.17203207  1
  I  I133  1  0.66394714  0.82867180  0.49740976  1
  I  I134  1  0.66685451  0.83482138  0.83189535  1
