# generated using pymatgen
data_Cs27Sn14Pb13I81
_symmetry_space_group_name_H-M   'P 1'
_cell_length_a   18.97026710
_cell_length_b   18.97710341
_cell_length_c   18.98057269
_cell_angle_alpha   90.00071769
_cell_angle_beta   89.99896460
_cell_angle_gamma   89.99745076
_symmetry_Int_Tables_number   1
_chemical_formula_structural   Cs27Sn14Pb13I81
_chemical_formula_sum   'Cs27 Sn14 Pb13 I81'
_cell_volume   6833.01983383
_cell_formula_units_Z   1
loop_
 _symmetry_equiv_pos_site_id
 _symmetry_equiv_pos_as_xyz
  1  'x, y, z'
loop_
 _atom_site_type_symbol
 _atom_site_label
 _atom_site_symmetry_multiplicity
 _atom_site_fract_x
 _atom_site_fract_y
 _atom_site_fract_z
 _atom_site_occupancy
  Cs  Cs0  1  -0.00733278  -0.00776032  -0.01226468  1
  Cs  Cs1  1  -0.00027794  0.00092652  0.33219404  1
  Cs  Cs2  1  0.00035058  -0.00040045  0.67613157  1
  Cs  Cs3  1  -0.00288498  0.33235667  0.00061939  1
  Cs  Cs4  1  0.00181261  0.33429137  0.33271326  1
  Cs  Cs5  1  0.00210479  0.32954228  0.66647928  1
  Cs  Cs6  1  -0.00993673  0.67279767  -0.00090816  1
  Cs  Cs7  1  0.00310425  0.66584398  0.33462727  1
  Cs  Cs8  1  0.00114918  0.66985753  0.66424372  1
  Cs  Cs9  1  0.33345123  0.00117689  0.00097190  1
  Cs  Cs10  1  0.33452805  0.00111112  0.33194519  1
  Cs  Cs11  1  0.33399930  0.00097715  0.66723316  1
  Cs  Cs12  1  0.33274970  0.33246031  0.00231113  1
  Cs  Cs13  1  0.33267785  0.33306201  0.33311085  1
  Cs  Cs14  1  0.33412256  0.33429652  0.66680362  1
  Cs  Cs15  1  0.33401544  0.66470608  0.00475569  1
  Cs  Cs16  1  0.33212762  0.66593924  0.33345155  1
  Cs  Cs17  1  0.33422205  0.66478110  0.66508518  1
  Cs  Cs18  1  0.66906767  -0.00388942  0.00286779  1
  Cs  Cs19  1  0.66598020  0.00179435  0.33353807  1
  Cs  Cs20  1  0.66419983  0.00024483  0.66383989  1
  Cs  Cs21  1  0.67124072  0.33750248  -0.00026755  1
  Cs  Cs22  1  0.66659276  0.33128435  0.33455858  1
  Cs  Cs23  1  0.66550135  0.33418636  0.66620207  1
  Cs  Cs24  1  0.67524888  0.66690166  -0.00171386  1
  Cs  Cs25  1  0.66554481  0.66693560  0.33477614  1
  Cs  Cs26  1  0.66492432  0.66583134  0.66616101  1
  Sn  Sn27  1  0.16726822  0.49942066  0.16620456  1
  Sn  Sn28  1  0.50037536  0.83331298  0.50056847  1
  Sn  Sn29  1  0.16664849  0.49906645  0.50004429  1
  Sn  Sn30  1  0.16671970  0.50034313  0.83400899  1
  Sn  Sn31  1  0.83339453  0.50047946  0.49984711  1
  Sn  Sn32  1  0.49995739  0.49993746  0.49919084  1
  Sn  Sn33  1  0.16694788  0.16693612  0.16690294  1
  Sn  Sn34  1  0.49982932  0.16622426  0.83381448  1
  Sn  Sn35  1  0.83270755  0.83300175  0.49968333  1
  Sn  Sn36  1  0.49943557  0.16793545  0.16638849  1
  Sn  Sn37  1  0.16753788  0.16714539  0.49932594  1
  Sn  Sn38  1  0.49957443  0.49918392  0.16737886  1
  Sn  Sn39  1  0.49915519  0.83353058  0.83283850  1
  Sn  Sn40  1  0.49901014  0.16679376  0.49992283  1
  Pb  Pb41  1  0.82972475  0.16701193  0.83319688  1
  Pb  Pb42  1  0.83677048  0.49979819  0.82998669  1
  Pb  Pb43  1  0.82998708  0.83312260  0.82998689  1
  Pb  Pb44  1  0.83330440  0.83340406  0.17022622  1
  Pb  Pb45  1  0.83352530  0.49984474  0.16929467  1
  Pb  Pb46  1  0.49991761  0.83303578  0.16690695  1
  Pb  Pb47  1  0.16664849  0.83396614  0.16655248  1
  Pb  Pb48  1  0.49872792  0.50003025  0.83398439  1
  Pb  Pb49  1  0.83402778  0.16671436  0.16677728  1
  Pb  Pb50  1  0.83396961  0.16649993  0.49997066  1
  Pb  Pb51  1  0.16987894  0.83036720  0.83338362  1
  Pb  Pb52  1  0.16868634  0.16840320  0.83385709  1
  Pb  Pb53  1  0.16704221  0.83425298  0.49987069  1
  I  I54  1  0.17409057  0.00432178  0.17515392  1
  I  I55  1  0.17073587  0.00370596  0.49460759  1
  I  I56  1  0.16513281  0.00019722  0.83233638  1
  I  I57  1  0.17214751  0.33415719  0.16913673  1
  I  I58  1  0.16962211  0.33445187  0.49980610  1
  I  I59  1  0.17107489  0.33628108  0.83063563  1
  I  I60  1  0.17250470  0.66261776  0.16961559  1
  I  I61  1  0.16907451  0.66331866  0.49923421  1
  I  I62  1  0.16992205  0.66228377  0.83036340  1
  I  I63  1  0.49570156  0.00335844  0.16946014  1
  I  I64  1  0.50066743  0.00083194  0.50055299  1
  I  I65  1  0.49924955  0.00065312  0.82836972  1
  I  I66  1  0.49595494  0.33333067  0.17049471  1
  I  I67  1  0.49987999  0.33353310  0.50027983  1
  I  I68  1  0.49771896  0.33083148  0.82958757  1
  I  I69  1  0.49475276  0.66316395  0.17088710  1
  I  I70  1  0.50017878  0.66555990  0.50056581  1
  I  I71  1  0.49764782  0.66870223  0.82783876  1
  I  I72  1  0.83206593  0.00014580  0.16979484  1
  I  I73  1  0.82770270  -0.00263915  0.49970539  1
  I  I74  1  0.83799525  -0.00020196  0.83062680  1
  I  I75  1  0.83147727  0.33345556  0.16969257  1
  I  I76  1  0.83062910  0.33627019  0.49947607  1
  I  I77  1  0.82963025  0.33369790  0.83052816  1
  I  I78  1  0.83246330  0.66628658  0.16497978  1
  I  I79  1  0.82951037  0.66573985  0.50005349  1
  I  I80  1  0.83093015  0.66650252  0.83518176  1
  I  I81  1  0.17359592  0.17313463  0.00314076  1
  I  I82  1  0.17526993  0.17498338  0.33414885  1
  I  I83  1  0.17072207  0.17154045  0.66383271  1
  I  I84  1  0.17578284  0.49549098  0.00146466  1
  I  I85  1  0.16722723  0.49667038  0.33431640  1
  I  I86  1  0.16765775  0.49674151  0.66450972  1
  I  I87  1  0.16950725  0.83332816  -0.00012738  1
  I  I88  1  0.16830250  0.82853316  0.33363489  1
  I  I89  1  0.16462375  0.83288018  0.66634979  1
  I  I90  1  0.49490712  0.16651648  0.00094203  1
  I  I91  1  0.49702820  0.16686738  0.33427366  1
  I  I92  1  0.49672212  0.16629200  0.66494306  1
  I  I93  1  0.49371907  0.49698188  0.00298351  1
  I  I94  1  0.49650185  0.49827934  0.33485587  1
  I  I95  1  0.49916435  0.49821727  0.66350302  1
  I  I96  1  0.49726880  0.83681586  -0.00258329  1
  I  I97  1  0.50402567  0.83493059  0.33685740  1
  I  I98  1  0.50358227  0.83598815  0.66477373  1
  I  I99  1  0.83422141  0.16664855  0.00002667  1
  I  I100  1  0.82793687  0.16548348  0.33368905  1
  I  I101  1  0.83469687  0.16724934  0.66613754  1
  I  I102  1  0.83194198  0.50037867  0.00005073  1
  I  I103  1  0.83635059  0.50395494  0.33746196  1
  I  I104  1  0.82972801  0.50360762  0.66173881  1
  I  I105  1  0.83275421  0.83359746  -0.00050066  1
  I  I106  1  0.82512967  0.82918523  0.33816438  1
  I  I107  1  0.83159944  0.82833151  0.66247809  1
  I  I108  1  0.00428963  0.17374699  0.17574292  1
  I  I109  1  0.00367960  0.17095682  0.49434185  1
  I  I110  1  0.00047553  0.16774826  0.83209118  1
  I  I111  1  0.00375733  0.49504649  0.16834761  1
  I  I112  1  0.00136544  0.50069291  0.50010610  1
  I  I113  1  0.00483460  0.49835619  0.83449912  1
  I  I114  1  0.00000409  0.83249526  0.16869802  1
  I  I115  1  -0.00236413  0.82813266  0.49798474  1
  I  I116  1  -0.00021615  0.83290305  0.83277268  1
  I  I117  1  0.33446327  0.17118068  0.16861356  1
  I  I118  1  0.33465745  0.16957796  0.49978504  1
  I  I119  1  0.33696082  0.16334515  0.83144575  1
  I  I120  1  0.33353344  0.49686513  0.17194000  1
  I  I121  1  0.33370038  0.50012560  0.49983140  1
  I  I122  1  0.33103091  0.50003536  0.82713464  1
  I  I123  1  0.33366619  0.83179232  0.16985881  1
  I  I124  1  0.33690744  0.83062378  0.50353482  1
  I  I125  1  0.33750523  0.83784025  0.82434521  1
  I  I126  1  0.66259865  0.17032311  0.16848164  1
  I  I127  1  0.66308949  0.16896074  0.49985721  1
  I  I128  1  0.66098425  0.16435999  0.83084875  1
  I  I129  1  0.66320260  0.49583204  0.17103022  1
  I  I130  1  0.66484026  0.50026763  0.49583789  1
  I  I131  1  0.66654833  0.50038236  0.83364818  1
  I  I132  1  0.66607952  0.83311578  0.16396382  1
  I  I133  1  0.66468838  0.82956047  0.50394944  1
  I  I134  1  0.66223269  0.83602706  0.83169818  1
