# generated using pymatgen
data_Cs27Sn14Pb13I81
_symmetry_space_group_name_H-M   'P 1'
_cell_length_a   18.98287940
_cell_length_b   18.99883631
_cell_length_c   18.98872348
_cell_angle_alpha   90.00002581
_cell_angle_beta   89.99544710
_cell_angle_gamma   89.99994811
_symmetry_Int_Tables_number   1
_chemical_formula_structural   Cs27Sn14Pb13I81
_chemical_formula_sum   'Cs27 Sn14 Pb13 I81'
_cell_volume   6848.33282247
_cell_formula_units_Z   1
loop_
 _symmetry_equiv_pos_site_id
 _symmetry_equiv_pos_as_xyz
  1  'x, y, z'
loop_
 _atom_site_type_symbol
 _atom_site_label
 _atom_site_symmetry_multiplicity
 _atom_site_fract_x
 _atom_site_fract_y
 _atom_site_fract_z
 _atom_site_occupancy
  Cs  Cs0  1  0.00167122  0.00276972  -0.00218863  1
  Cs  Cs1  1  -0.00124270  0.00186983  0.33775505  1
  Cs  Cs2  1  -0.00115463  0.00015832  0.66538746  1
  Cs  Cs3  1  -0.00165675  0.33275305  -0.00103115  1
  Cs  Cs4  1  0.00248350  0.33466681  0.33147408  1
  Cs  Cs5  1  0.00014874  0.33250504  0.66938752  1
  Cs  Cs6  1  0.00059850  0.66302628  -0.00173728  1
  Cs  Cs7  1  -0.00000167  0.65847869  0.33520275  1
  Cs  Cs8  1  -0.00094591  0.66649528  0.66702148  1
  Cs  Cs9  1  0.33253894  -0.01262881  0.00250258  1
  Cs  Cs10  1  0.33238481  -0.00145174  0.33115266  1
  Cs  Cs11  1  0.33306673  0.00065654  0.66685964  1
  Cs  Cs12  1  0.33436972  0.33155489  0.00008524  1
  Cs  Cs13  1  0.33105840  0.33711354  0.33562542  1
  Cs  Cs14  1  0.34028272  0.33576733  0.66436004  1
  Cs  Cs15  1  0.33716249  0.68342144  -0.00133176  1
  Cs  Cs16  1  0.33119679  0.66549711  0.33414455  1
  Cs  Cs17  1  0.33426155  0.66302910  0.66670228  1
  Cs  Cs18  1  0.66619022  0.00080533  0.00210380  1
  Cs  Cs19  1  0.66735281  -0.00064715  0.33389762  1
  Cs  Cs20  1  0.66892045  0.00393531  0.66358142  1
  Cs  Cs21  1  0.66756292  0.33399401  0.00128257  1
  Cs  Cs22  1  0.66544284  0.33284058  0.33029211  1
  Cs  Cs23  1  0.66139906  0.33226785  0.66742439  1
  Cs  Cs24  1  0.66486894  0.66556011  0.00238337  1
  Cs  Cs25  1  0.66899874  0.67068715  0.33050044  1
  Cs  Cs26  1  0.66894437  0.66456744  0.66600564  1
  Sn  Sn27  1  0.50017168  0.16747240  0.16657014  1
  Sn  Sn28  1  0.83332782  0.83359050  0.83452198  1
  Sn  Sn29  1  0.16608057  0.16622561  0.50113889  1
  Sn  Sn30  1  0.83359097  0.16677481  0.83324449  1
  Sn  Sn31  1  0.16645113  0.49894992  0.83382350  1
  Sn  Sn32  1  0.83374907  0.49951356  0.83237339  1
  Sn  Sn33  1  0.49885282  0.83355864  0.50039771  1
  Sn  Sn34  1  0.83289957  0.16580333  0.16664307  1
  Sn  Sn35  1  0.83391325  0.16828210  0.50007959  1
  Sn  Sn36  1  0.16764952  0.83404587  0.50025346  1
  Sn  Sn37  1  0.83304798  0.49807627  0.50081121  1
  Sn  Sn38  1  0.16641726  0.16759017  0.83234441  1
  Sn  Sn39  1  0.83413779  0.83436487  0.16565609  1
  Sn  Sn40  1  0.49947835  0.49920351  0.16630838  1
  Pb  Pb41  1  0.16993848  0.50003305  0.16274138  1
  Pb  Pb42  1  0.49962679  0.16537537  0.49785142  1
  Pb  Pb43  1  0.49927263  0.16643111  0.83586975  1
  Pb  Pb44  1  0.50217772  0.83387467  0.16862501  1
  Pb  Pb45  1  0.50333538  0.83361297  0.83022856  1
  Pb  Pb46  1  0.50298208  0.50210527  0.49793001  1
  Pb  Pb47  1  0.83258179  0.49946229  0.16618723  1
  Pb  Pb48  1  0.16278154  0.83344585  0.16971097  1
  Pb  Pb49  1  0.16471369  0.49910925  0.50209976  1
  Pb  Pb50  1  0.83394130  0.83353532  0.50010224  1
  Pb  Pb51  1  0.16642784  0.16669311  0.16635874  1
  Pb  Pb52  1  0.16427529  0.83373922  0.83110970  1
  Pb  Pb53  1  0.49984909  0.49994648  0.83562958  1
  I  I54  1  0.17275151  0.00013228  0.16136497  1
  I  I55  1  0.16289652  0.00146697  0.50548759  1
  I  I56  1  0.16134416  0.00303211  0.83136516  1
  I  I57  1  0.16221707  0.33329108  0.17218356  1
  I  I58  1  0.16311722  0.33008357  0.50090119  1
  I  I59  1  0.15607996  0.33220564  0.82798153  1
  I  I60  1  0.16642777  0.66673620  0.16760815  1
  I  I61  1  0.16792955  0.66856237  0.50054297  1
  I  I62  1  0.16092691  0.66452530  0.83239522  1
  I  I63  1  0.50369184  0.00258255  0.16788519  1
  I  I64  1  0.50323796  -0.00231109  0.49662605  1
  I  I65  1  0.49974665  -0.00001693  0.83714153  1
  I  I66  1  0.50894136  0.33217410  0.16667987  1
  I  I67  1  0.49836807  0.33335402  0.49998714  1
  I  I68  1  0.50458148  0.33316508  0.83136236  1
  I  I69  1  0.50315280  0.66508552  0.16757651  1
  I  I70  1  0.49610801  0.66978056  0.49705576  1
  I  I71  1  0.49999586  0.66678960  0.83734003  1
  I  I72  1  0.82664043  0.00150791  0.16483852  1
  I  I73  1  0.83371743  0.00277671  0.50185289  1
  I  I74  1  0.83676205  0.00126020  0.83312119  1
  I  I75  1  0.83086992  0.33025201  0.16506636  1
  I  I76  1  0.83857943  0.33175825  0.50152529  1
  I  I77  1  0.83767613  0.33265676  0.83369425  1
  I  I78  1  0.83044825  0.66856497  0.16539243  1
  I  I79  1  0.83274192  0.66489130  0.50254245  1
  I  I80  1  0.83696675  0.66605642  0.83203051  1
  I  I81  1  0.16171663  0.17214569  -0.00330046  1
  I  I82  1  0.16254145  0.16168319  0.33630547  1
  I  I83  1  0.15673496  0.16508157  0.66660791  1
  I  I84  1  0.15572509  0.49189368  -0.00489780  1
  I  I85  1  0.16502763  0.50052200  0.33337669  1
  I  I86  1  0.16350037  0.49955496  0.66984690  1
  I  I87  1  0.16896862  0.83353693  -0.00029374  1
  I  I88  1  0.16837581  0.84074045  0.33757873  1
  I  I89  1  0.16675989  0.83544978  0.66347043  1
  I  I90  1  0.50672556  0.17044948  0.00365096  1
  I  I91  1  0.50667131  0.16883805  0.33023500  1
  I  I92  1  0.50349287  0.16460959  0.66652570  1
  I  I93  1  0.50475711  0.49559567  0.00317307  1
  I  I94  1  0.50356061  0.49554773  0.33042871  1
  I  I95  1  0.49962120  0.50226287  0.66669955  1
  I  I96  1  0.49861943  0.83281388  0.00013526  1
  I  I97  1  0.50038796  0.83365047  0.33609899  1
  I  I98  1  0.49853167  0.83358380  0.66269519  1
  I  I99  1  0.83326594  0.16618012  -0.00063241  1
  I  I100  1  0.83305523  0.16508415  0.33370221  1
  I  I101  1  0.83806232  0.16534025  0.66677966  1
  I  I102  1  0.83553608  0.49838891  -0.00307679  1
  I  I103  1  0.83140232  0.49919849  0.33550716  1
  I  I104  1  0.83634984  0.49958650  0.66753977  1
  I  I105  1  0.83220467  0.83616121  -0.00043133  1
  I  I106  1  0.83174018  0.83668364  0.33152903  1
  I  I107  1  0.83341653  0.83507881  0.66897421  1
  I  I108  1  -0.00351940  0.16193887  0.16686551  1
  I  I109  1  -0.00134660  0.16303570  0.49843277  1
  I  I110  1  -0.00178946  0.16677627  0.83482486  1
  I  I111  1  -0.00000599  0.50105848  0.16937793  1
  I  I112  1  -0.00346940  0.50289293  0.49931839  1
  I  I113  1  -0.00190743  0.49958474  0.82995343  1
  I  I114  1  -0.00494852  0.84072595  0.16426334  1
  I  I115  1  0.00194869  0.83559894  0.50030961  1
  I  I116  1  -0.00386133  0.83364088  0.83414196  1
  I  I117  1  0.33598700  0.17206439  0.16784910  1
  I  I118  1  0.33020181  0.16355481  0.50361383  1
  I  I119  1  0.32961850  0.17340819  0.82801919  1
  I  I120  1  0.33755069  0.49132742  0.16861137  1
  I  I121  1  0.33332367  0.49873480  0.50062667  1
  I  I122  1  0.33010599  0.49324708  0.83349690  1
  I  I123  1  0.33327351  0.83337947  0.16545569  1
  I  I124  1  0.33241522  0.83990596  0.49892448  1
  I  I125  1  0.33309281  0.83281857  0.83519632  1
  I  I126  1  0.66888823  0.16634753  0.16693560  1
  I  I127  1  0.67006618  0.16735921  0.50295835  1
  I  I128  1  0.67035506  0.16725921  0.83008121  1
  I  I129  1  0.66499923  0.49904635  0.16557200  1
  I  I130  1  0.67104410  0.49607055  0.50730175  1
  I  I131  1  0.67029947  0.49939618  0.83046161  1
  I  I132  1  0.67001626  0.83453973  0.16644402  1
  I  I133  1  0.66569668  0.83260381  0.49879403  1
  I  I134  1  0.67172252  0.83315009  0.83493934  1
