# generated using pymatgen
data_Cs27Sn13Pb14I81
_symmetry_space_group_name_H-M   'P 1'
_cell_length_a   18.98832974
_cell_length_b   19.00317813
_cell_length_c   18.98519211
_cell_angle_alpha   89.99925740
_cell_angle_beta   90.00014930
_cell_angle_gamma   89.99933604
_symmetry_Int_Tables_number   1
_chemical_formula_structural   Cs27Sn13Pb14I81
_chemical_formula_sum   'Cs27 Sn13 Pb14 I81'
_cell_volume   6850.59037243
_cell_formula_units_Z   1
loop_
 _symmetry_equiv_pos_site_id
 _symmetry_equiv_pos_as_xyz
  1  'x, y, z'
loop_
 _atom_site_type_symbol
 _atom_site_label
 _atom_site_symmetry_multiplicity
 _atom_site_fract_x
 _atom_site_fract_y
 _atom_site_fract_z
 _atom_site_occupancy
  Cs  Cs0  1  0.00305628  0.00142595  0.00101464  1
  Cs  Cs1  1  0.00019083  0.00541281  0.33515287  1
  Cs  Cs2  1  -0.00261936  -0.00093127  0.66510248  1
  Cs  Cs3  1  0.00378494  0.32959636  0.00340436  1
  Cs  Cs4  1  -0.00163476  0.32874165  0.33125675  1
  Cs  Cs5  1  -0.00057102  0.33346386  0.66612821  1
  Cs  Cs6  1  0.00042809  0.66724241  -0.00039502  1
  Cs  Cs7  1  0.00191720  0.66505762  0.33413619  1
  Cs  Cs8  1  -0.00043044  0.66715368  0.66600997  1
  Cs  Cs9  1  0.32987256  0.00164923  -0.00072336  1
  Cs  Cs10  1  0.33657835  -0.00310559  0.33619171  1
  Cs  Cs11  1  0.33751362  0.00154880  0.66426579  1
  Cs  Cs12  1  0.33259269  0.33226401  -0.00323994  1
  Cs  Cs13  1  0.33676676  0.33510379  0.33196888  1
  Cs  Cs14  1  0.34103046  0.33974877  0.67294384  1
  Cs  Cs15  1  0.33211280  0.66587711  0.00081958  1
  Cs  Cs16  1  0.33225211  0.66737051  0.33732216  1
  Cs  Cs17  1  0.33116106  0.65941257  0.65966572  1
  Cs  Cs18  1  0.66708145  -0.00517288  0.00028397  1
  Cs  Cs19  1  0.66214424  -0.00281873  0.33080458  1
  Cs  Cs20  1  0.66980184  0.00207665  0.66700344  1
  Cs  Cs21  1  0.66539166  0.33534519  0.00225997  1
  Cs  Cs22  1  0.66612212  0.33366743  0.33199000  1
  Cs  Cs23  1  0.66460667  0.33206016  0.66632421  1
  Cs  Cs24  1  0.66718607  0.66947142  0.00175269  1
  Cs  Cs25  1  0.66451042  0.66895369  0.32744585  1
  Cs  Cs26  1  0.67046739  0.66502810  0.66912484  1
  Sn  Sn27  1  0.83380702  0.83345931  0.83273409  1
  Sn  Sn28  1  0.83337355  0.83335689  0.50021562  1
  Sn  Sn29  1  0.83387890  0.16668099  0.50076413  1
  Sn  Sn30  1  0.49986133  0.16709954  0.16623031  1
  Sn  Sn31  1  0.49938640  0.83298103  0.83277674  1
  Sn  Sn32  1  0.83342721  0.49992189  0.50040302  1
  Sn  Sn33  1  0.49885569  0.49952732  0.16630863  1
  Sn  Sn34  1  0.83380110  0.49976641  0.83307714  1
  Sn  Sn35  1  0.83358500  0.16669864  0.83320167  1
  Sn  Sn36  1  0.16695988  0.83322455  0.83314941  1
  Sn  Sn37  1  0.16626058  0.83280194  0.16650844  1
  Sn  Sn38  1  0.16702860  0.16730283  0.50095292  1
  Sn  Sn39  1  0.16726836  0.50053274  0.16659835  1
  Pb  Pb40  1  0.16891331  0.16648086  0.16860772  1
  Pb  Pb41  1  0.50292134  0.50019907  0.49771695  1
  Pb  Pb42  1  0.83122478  0.16645726  0.16676953  1
  Pb  Pb43  1  0.50230587  0.50231554  0.83551454  1
  Pb  Pb44  1  0.16466673  0.83491271  0.50044787  1
  Pb  Pb45  1  0.16427639  0.50191568  0.83509164  1
  Pb  Pb46  1  0.50288947  0.83308790  0.50309666  1
  Pb  Pb47  1  0.49713604  0.83295386  0.16469886  1
  Pb  Pb48  1  0.16488595  0.16460267  0.83066381  1
  Pb  Pb49  1  0.50247249  0.16472329  0.83539424  1
  Pb  Pb50  1  0.50053895  0.16680088  0.49851512  1
  Pb  Pb51  1  0.83373419  0.50005275  0.16655581  1
  Pb  Pb52  1  0.83609460  0.83346779  0.16657251  1
  Pb  Pb53  1  0.16436518  0.49731582  0.49791919  1
  I  I54  1  0.16666215  -0.00250529  0.16289900  1
  I  I55  1  0.15869684  0.00239579  0.49722417  1
  I  I56  1  0.16328463  -0.00368459  0.84135994  1
  I  I57  1  0.16735381  0.33571652  0.16923987  1
  I  I58  1  0.15759764  0.32995973  0.49627819  1
  I  I59  1  0.16368891  0.33328670  0.83551025  1
  I  I60  1  0.17126146  0.66681297  0.16299856  1
  I  I61  1  0.16467198  0.66656897  0.50029093  1
  I  I62  1  0.16290021  0.67028966  0.83505798  1
  I  I63  1  0.50093051  0.00161295  0.16610930  1
  I  I64  1  0.50212484  -0.00007572  0.49513799  1
  I  I65  1  0.50338058  -0.00321185  0.83694822  1
  I  I66  1  0.49554848  0.33411805  0.16728595  1
  I  I67  1  0.50276620  0.33342743  0.50081875  1
  I  I68  1  0.50246222  0.33352913  0.83334289  1
  I  I69  1  0.49978767  0.66425142  0.16506817  1
  I  I70  1  0.50078333  0.66673811  0.49618821  1
  I  I71  1  0.50452853  0.67004943  0.83719599  1
  I  I72  1  0.83216746  -0.00009306  0.16654284  1
  I  I73  1  0.83750302  0.00012959  0.50685025  1
  I  I74  1  0.83288389  -0.00090742  0.82752789  1
  I  I75  1  0.83725205  0.33337391  0.16596250  1
  I  I76  1  0.83712378  0.33290114  0.50548436  1
  I  I77  1  0.83264003  0.33326325  0.82710195  1
  I  I78  1  0.82844610  0.66669878  0.16708591  1
  I  I79  1  0.83273139  0.66691959  0.50686249  1
  I  I80  1  0.83326852  0.66765001  0.82784011  1
  I  I81  1  0.16506737  0.16735060  -0.00009915  1
  I  I82  1  0.15701938  0.16433582  0.33599922  1
  I  I83  1  0.16236106  0.16329752  0.66302556  1
  I  I84  1  0.16723166  0.50087954  0.00323232  1
  I  I85  1  0.16832167  0.50781400  0.32989741  1
  I  I86  1  0.16721743  0.50144839  0.66662726  1
  I  I87  1  0.16325438  0.83037906  -0.00058605  1
  I  I88  1  0.16505664  0.83083471  0.33098240  1
  I  I89  1  0.16581360  0.83616108  0.66974269  1
  I  I90  1  0.50069984  0.17078071  0.00310121  1
  I  I91  1  0.50275885  0.16934498  0.33041207  1
  I  I92  1  0.49881315  0.16444361  0.66688229  1
  I  I93  1  0.49919519  0.49626459  0.00335368  1
  I  I94  1  0.49899215  0.49722259  0.32953902  1
  I  I95  1  0.49882889  0.50090522  0.66698157  1
  I  I96  1  0.50824045  0.83324438  -0.00292190  1
  I  I97  1  0.50126819  0.83393993  0.33317321  1
  I  I98  1  0.49573310  0.83503490  0.67110636  1
  I  I99  1  0.83141919  0.16563414  -0.00321789  1
  I  I100  1  0.83657175  0.16712325  0.33681137  1
  I  I101  1  0.83660949  0.16524785  0.66645875  1
  I  I102  1  0.83263273  0.50190387  -0.00297134  1
  I  I103  1  0.83328401  0.49940547  0.33623207  1
  I  I104  1  0.83357185  0.50133383  0.66695047  1
  I  I105  1  0.83091792  0.83282926  -0.00372295  1
  I  I106  1  0.83501998  0.83350123  0.33642535  1
  I  I107  1  0.83516376  0.83350344  0.66799046  1
  I  I108  1  0.00014709  0.16733616  0.16544996  1
  I  I109  1  -0.00227220  0.16554339  0.50140057  1
  I  I110  1  -0.00383290  0.16418640  0.83341381  1
  I  I111  1  0.00252691  0.50523762  0.16664948  1
  I  I112  1  -0.00393369  0.50290538  0.50170923  1
  I  I113  1  -0.00407163  0.50312584  0.83184575  1
  I  I114  1  0.00360258  0.82741180  0.16083868  1
  I  I115  1  -0.00364201  0.83168052  0.50571476  1
  I  I116  1  -0.00134214  0.83306894  0.83393307  1
  I  I117  1  0.33631990  0.16745092  0.16872778  1
  I  I118  1  0.33082965  0.16326805  0.49532036  1
  I  I119  1  0.33336018  0.16379668  0.83231558  1
  I  I120  1  0.33311081  0.50024046  0.16630694  1
  I  I121  1  0.33316668  0.49832299  0.50044765  1
  I  I122  1  0.33328423  0.50173558  0.83296199  1
  I  I123  1  0.32961351  0.83299287  0.16101857  1
  I  I124  1  0.33314373  0.83676723  0.50024670  1
  I  I125  1  0.33267685  0.83502425  0.84216702  1
  I  I126  1  0.66364728  0.17319871  0.16812959  1
  I  I127  1  0.67067082  0.16636018  0.50337472  1
  I  I128  1  0.67091849  0.16409655  0.82672803  1
  I  I129  1  0.66454606  0.49555196  0.16696808  1
  I  I130  1  0.67145595  0.49709063  0.50245481  1
  I  I131  1  0.67067382  0.50274143  0.83181199  1
  I  I132  1  0.66656054  0.83264739  0.16640933  1
  I  I133  1  0.67157310  0.83689318  0.50406252  1
  I  I134  1  0.66852357  0.83366227  0.82947562  1
