# generated using pymatgen
data_Cs27Sn13Pb14I81
_symmetry_space_group_name_H-M   'P 1'
_cell_length_a   19.01552896
_cell_length_b   19.03159648
_cell_length_c   19.01589206
_cell_angle_alpha   89.99817953
_cell_angle_beta   89.99451909
_cell_angle_gamma   89.99944597
_symmetry_Int_Tables_number   1
_chemical_formula_structural   Cs27Sn13Pb14I81
_chemical_formula_sum   'Cs27 Sn13 Pb14 I81'
_cell_volume   6881.77284037
_cell_formula_units_Z   1
loop_
 _symmetry_equiv_pos_site_id
 _symmetry_equiv_pos_as_xyz
  1  'x, y, z'
loop_
 _atom_site_type_symbol
 _atom_site_label
 _atom_site_symmetry_multiplicity
 _atom_site_fract_x
 _atom_site_fract_y
 _atom_site_fract_z
 _atom_site_occupancy
  Cs  Cs0  1  0.00499983  0.00862325  0.00019246  1
  Cs  Cs1  1  -0.00490429  -0.00150502  0.33385884  1
  Cs  Cs2  1  0.00048976  -0.00272683  0.66476202  1
  Cs  Cs3  1  0.00835647  0.34191815  0.01096573  1
  Cs  Cs4  1  0.00106377  0.33259512  0.32946055  1
  Cs  Cs5  1  -0.00256137  0.33416574  0.66550806  1
  Cs  Cs6  1  0.00350853  0.64801568  -0.00116461  1
  Cs  Cs7  1  -0.00260826  0.67015282  0.33625519  1
  Cs  Cs8  1  0.00254566  0.66837100  0.66456992  1
  Cs  Cs9  1  0.33268214  0.00078065  -0.00082147  1
  Cs  Cs10  1  0.33465707  -0.00344433  0.33176414  1
  Cs  Cs11  1  0.33140587  -0.00156467  0.66855739  1
  Cs  Cs12  1  0.32909698  0.33245837  0.00192199  1
  Cs  Cs13  1  0.33444584  0.33482472  0.33871019  1
  Cs  Cs14  1  0.33566327  0.33152571  0.66044141  1
  Cs  Cs15  1  0.33446544  0.66708856  0.00208971  1
  Cs  Cs16  1  0.33409250  0.66862982  0.33117378  1
  Cs  Cs17  1  0.33258047  0.67035904  0.66670704  1
  Cs  Cs18  1  0.66452523  -0.00064392  -0.00205588  1
  Cs  Cs19  1  0.66974698  -0.00454420  0.32745452  1
  Cs  Cs20  1  0.66850925  0.00224311  0.67072819  1
  Cs  Cs21  1  0.66781696  0.33333763  -0.00185118  1
  Cs  Cs22  1  0.66472397  0.33173129  0.33881522  1
  Cs  Cs23  1  0.66644353  0.33157545  0.66492540  1
  Cs  Cs24  1  0.66597305  0.66721009  -0.00041400  1
  Cs  Cs25  1  0.66782770  0.67426144  0.32943396  1
  Cs  Cs26  1  0.66648440  0.66699005  0.66992028  1
  Sn  Sn27  1  0.50066849  0.83362485  0.83237333  1
  Sn  Sn28  1  0.50045354  0.16704406  0.83416965  1
  Sn  Sn29  1  0.50029079  0.16793245  0.16556661  1
  Sn  Sn30  1  0.49978659  0.49939399  0.83394159  1
  Sn  Sn31  1  0.83325706  0.16640846  0.83317138  1
  Sn  Sn32  1  0.16545958  0.16692111  0.50026813  1
  Sn  Sn33  1  0.16573922  0.83345501  0.16603432  1
  Sn  Sn34  1  0.50049234  0.49842150  0.16584750  1
  Sn  Sn35  1  0.83420245  0.16732228  0.50080093  1
  Sn  Sn36  1  0.50040968  0.83367515  0.50124810  1
  Sn  Sn37  1  0.16568982  0.49936594  0.50025093  1
  Sn  Sn38  1  0.83348346  0.83414861  0.83414310  1
  Sn  Sn39  1  0.83370861  0.49935930  0.50021057  1
  Pb  Pb40  1  0.16938849  0.16517454  0.16972480  1
  Pb  Pb41  1  0.16601852  0.16691499  0.83108139  1
  Pb  Pb42  1  0.83032474  0.49987677  0.16977980  1
  Pb  Pb43  1  0.83111328  0.16673183  0.16599014  1
  Pb  Pb44  1  0.16851804  0.83364362  0.49871869  1
  Pb  Pb45  1  0.16976130  0.49966920  0.83036582  1
  Pb  Pb46  1  0.50057872  0.50217891  0.50009042  1
  Pb  Pb47  1  0.83141012  0.49916988  0.83150628  1
  Pb  Pb48  1  0.16935153  0.50161771  0.16975823  1
  Pb  Pb49  1  0.50078766  0.16436045  0.50021930  1
  Pb  Pb50  1  0.83118825  0.83385787  0.50201063  1
  Pb  Pb51  1  0.83659939  0.83335039  0.16190797  1
  Pb  Pb52  1  0.16582868  0.83331285  0.83574915  1
  Pb  Pb53  1  0.49934536  0.83355551  0.16529759  1
  I  I54  1  0.17224911  -0.00205237  0.16896622  1
  I  I55  1  0.16366501  0.00265032  0.49872543  1
  I  I56  1  0.17322558  0.00010146  0.83095697  1
  I  I57  1  0.16614255  0.33342643  0.16517155  1
  I  I58  1  0.16541875  0.33311316  0.50012053  1
  I  I59  1  0.16751327  0.33327536  0.83653670  1
  I  I60  1  0.17196099  0.66884539  0.16858851  1
  I  I61  1  0.16380540  0.66431111  0.49827521  1
  I  I62  1  0.16654975  0.66660701  0.83057850  1
  I  I63  1  0.49784542  0.00215276  0.16503004  1
  I  I64  1  0.49816479  -0.00301676  0.50327109  1
  I  I65  1  0.50418962  0.00024115  0.83317415  1
  I  I66  1  0.49954656  0.33311710  0.15846720  1
  I  I67  1  0.49886685  0.33320857  0.50141253  1
  I  I68  1  0.50449131  0.33263090  0.83801100  1
  I  I69  1  0.49726600  0.66481321  0.16511477  1
  I  I70  1  0.49886515  0.66959538  0.50382917  1
  I  I71  1  0.50409004  0.66715673  0.83247071  1
  I  I72  1  0.82981572  -0.00002426  0.17515363  1
  I  I73  1  0.83714480  0.00301892  0.50209775  1
  I  I74  1  0.82167705  0.00083320  0.82529006  1
  I  I75  1  0.83600719  0.33326650  0.16100503  1
  I  I76  1  0.83559110  0.33233056  0.50696209  1
  I  I77  1  0.82541660  0.33010908  0.82806531  1
  I  I78  1  0.82929836  0.66682068  0.16866662  1
  I  I79  1  0.83674174  0.66453962  0.50108175  1
  I  I80  1  0.82692008  0.66884138  0.83181872  1
  I  I81  1  0.16453385  0.16435086  0.00014265  1
  I  I82  1  0.16222123  0.17071054  0.33731147  1
  I  I83  1  0.17050536  0.16923566  0.66323216  1
  I  I84  1  0.16451688  0.50198070  0.00021942  1
  I  I85  1  0.16644634  0.49562341  0.33711928  1
  I  I86  1  0.16550054  0.49795766  0.66259901  1
  I  I87  1  0.17289836  0.83468231  0.00294522  1
  I  I88  1  0.17401190  0.83299200  0.33157019  1
  I  I89  1  0.16746804  0.83258424  0.66685343  1
  I  I90  1  0.50609209  0.16366887  -0.00162075  1
  I  I91  1  0.49825146  0.17018011  0.33148349  1
  I  I92  1  0.50046880  0.16945491  0.66954451  1
  I  I93  1  0.50067005  0.50343413  -0.00086137  1
  I  I94  1  0.49880129  0.49649763  0.33139922  1
  I  I95  1  0.49992534  0.49762637  0.66924780  1
  I  I96  1  0.50266416  0.83309964  -0.00357465  1
  I  I97  1  0.49715201  0.83270193  0.33462832  1
  I  I98  1  0.50145003  0.83247995  0.66824648  1
  I  I99  1  0.82781452  0.15878039  -0.00375890  1
  I  I100  1  0.83589448  0.17135676  0.33643222  1
  I  I101  1  0.82907764  0.16673807  0.66670269  1
  I  I102  1  0.83484858  0.50104499  -0.00011557  1
  I  I103  1  0.83517724  0.49321287  0.33788241  1
  I  I104  1  0.83394581  0.49868822  0.66376223  1
  I  I105  1  0.82040234  0.84129861  -0.00527532  1
  I  I106  1  0.83042134  0.83306508  0.33306204  1
  I  I107  1  0.83007597  0.83453298  0.66955986  1
  I  I108  1  0.00003869  0.16441561  0.16347440  1
  I  I109  1  -0.00092256  0.16987480  0.50689000  1
  I  I110  1  -0.00372393  0.15717941  0.82837470  1
  I  I111  1  0.00013643  0.50198642  0.16383092  1
  I  I112  1  -0.00018209  0.49670423  0.50101741  1
  I  I113  1  -0.00012908  0.50189639  0.83455513  1
  I  I114  1  0.00368705  0.83490561  0.17210164  1
  I  I115  1  -0.00025772  0.83231563  0.50009970  1
  I  I116  1  -0.00358906  0.84148880  0.83269191  1
  I  I117  1  0.33718380  0.16943657  0.16064946  1
  I  I118  1  0.33189821  0.17076967  0.49901821  1
  I  I119  1  0.33679826  0.16479445  0.83599272  1
  I  I120  1  0.33698048  0.49705790  0.16454758  1
  I  I121  1  0.33177519  0.49584738  0.49981070  1
  I  I122  1  0.33834539  0.50170642  0.83524372  1
  I  I123  1  0.33220206  0.83302605  0.16732915  1
  I  I124  1  0.33628305  0.83301252  0.50638893  1
  I  I125  1  0.33667499  0.83393950  0.82992158  1
  I  I126  1  0.66295165  0.16832181  0.16937612  1
  I  I127  1  0.66923126  0.17191845  0.50144844  1
  I  I128  1  0.66551634  0.16559129  0.82979480  1
  I  I129  1  0.66234581  0.49863965  0.16461070  1
  I  I130  1  0.66880738  0.49434183  0.50065141  1
  I  I131  1  0.66319042  0.50104096  0.83365819  1
  I  I132  1  0.66689144  0.83282013  0.17108914  1
  I  I133  1  0.66343897  0.83207869  0.49940525  1
  I  I134  1  0.66483672  0.83408247  0.82831410  1
