# generated using pymatgen
data_Cs27Sn14Pb13I81
_symmetry_space_group_name_H-M   'P 1'
_cell_length_a   18.98769496
_cell_length_b   18.96892601
_cell_length_c   18.96953879
_cell_angle_alpha   90.00004727
_cell_angle_beta   89.99933264
_cell_angle_gamma   90.00070897
_symmetry_Int_Tables_number   1
_chemical_formula_structural   Cs27Sn14Pb13I81
_chemical_formula_sum   'Cs27 Sn14 Pb13 I81'
_cell_volume   6832.37603577
_cell_formula_units_Z   1
loop_
 _symmetry_equiv_pos_site_id
 _symmetry_equiv_pos_as_xyz
  1  'x, y, z'
loop_
 _atom_site_type_symbol
 _atom_site_label
 _atom_site_symmetry_multiplicity
 _atom_site_fract_x
 _atom_site_fract_y
 _atom_site_fract_z
 _atom_site_occupancy
  Cs  Cs0  1  -0.00436583  0.00043866  -0.00281954  1
  Cs  Cs1  1  0.00030158  -0.00080117  0.33376451  1
  Cs  Cs2  1  -0.00401845  -0.00169181  0.66894037  1
  Cs  Cs3  1  -0.00156109  0.32950147  0.00454454  1
  Cs  Cs4  1  0.00658648  0.34021152  0.32835358  1
  Cs  Cs5  1  0.00148012  0.33683997  0.66477604  1
  Cs  Cs6  1  0.00240193  0.66982321  -0.00304356  1
  Cs  Cs7  1  -0.00125716  0.66383846  0.33531163  1
  Cs  Cs8  1  0.00016008  0.66559501  0.66658484  1
  Cs  Cs9  1  0.33229583  -0.00160737  -0.00136245  1
  Cs  Cs10  1  0.33276876  0.00223562  0.33520189  1
  Cs  Cs11  1  0.33378072  0.00165123  0.66571069  1
  Cs  Cs12  1  0.33304861  0.33463737  0.00033472  1
  Cs  Cs13  1  0.32527670  0.32344848  0.32634139  1
  Cs  Cs14  1  0.33295139  0.33149021  0.66752037  1
  Cs  Cs15  1  0.33465377  0.66660532  -0.00163659  1
  Cs  Cs16  1  0.33277375  0.66880626  0.33207459  1
  Cs  Cs17  1  0.33629267  0.66681084  0.66885570  1
  Cs  Cs18  1  0.67113914  0.00116927  -0.00058753  1
  Cs  Cs19  1  0.66608053  -0.00145920  0.33650026  1
  Cs  Cs20  1  0.66786705  0.00109868  0.66473098  1
  Cs  Cs21  1  0.66885337  0.33189842  0.00440187  1
  Cs  Cs22  1  0.66777520  0.33193140  0.32331054  1
  Cs  Cs23  1  0.66527863  0.33587938  0.66793126  1
  Cs  Cs24  1  0.66335248  0.66640637  -0.00029507  1
  Cs  Cs25  1  0.66860165  0.66849059  0.33477965  1
  Cs  Cs26  1  0.66462700  0.66475079  0.66533550  1
  Sn  Sn27  1  0.83332761  0.16732914  0.49975415  1
  Sn  Sn28  1  0.49961873  0.16683199  0.83311915  1
  Sn  Sn29  1  0.83332419  0.83304343  0.16744986  1
  Sn  Sn30  1  0.16680871  0.49891161  0.83312426  1
  Sn  Sn31  1  0.16711457  0.16737230  0.83289653  1
  Sn  Sn32  1  0.50004773  0.83325117  0.16699733  1
  Sn  Sn33  1  0.49954252  0.49966116  0.49960555  1
  Sn  Sn34  1  0.49978727  0.83260033  0.49996478  1
  Sn  Sn35  1  0.50035540  0.83393600  0.83308680  1
  Sn  Sn36  1  0.16684923  0.83315633  0.49957492  1
  Sn  Sn37  1  0.83329680  0.83397566  0.49937930  1
  Sn  Sn38  1  0.16661826  0.83327138  0.16757696  1
  Sn  Sn39  1  0.50008271  0.49943260  0.83261114  1
  Sn  Sn40  1  0.83315770  0.50005956  0.83343727  1
  Pb  Pb41  1  0.49971244  0.50175848  0.16733940  1
  Pb  Pb42  1  0.83321459  0.16923196  0.83148797  1
  Pb  Pb43  1  0.16424398  0.16445569  0.50224498  1
  Pb  Pb44  1  0.50148181  0.16733253  0.50156096  1
  Pb  Pb45  1  0.16858569  0.83348078  0.83298706  1
  Pb  Pb46  1  0.50000227  0.16366276  0.16374606  1
  Pb  Pb47  1  0.83114616  0.49996798  0.50114333  1
  Pb  Pb48  1  0.16656402  0.16366857  0.16387558  1
  Pb  Pb49  1  0.83052729  0.83154447  0.83274304  1
  Pb  Pb50  1  0.83335727  0.50288878  0.16408166  1
  Pb  Pb51  1  0.16688619  0.50261765  0.16403286  1
  Pb  Pb52  1  0.83354730  0.16425267  0.17003018  1
  Pb  Pb53  1  0.16984085  0.50207585  0.50179286  1
  I  I54  1  0.16793960  -0.00473005  0.16781965  1
  I  I55  1  0.17259198  -0.00418525  0.49902342  1
  I  I56  1  0.17222265  0.00183451  0.83362188  1
  I  I57  1  0.16648649  0.33318902  0.16775385  1
  I  I58  1  0.16577308  0.33344935  0.50062916  1
  I  I59  1  0.17250698  0.33389304  0.83174647  1
  I  I60  1  0.16758372  0.67115655  0.16732242  1
  I  I61  1  0.16189577  0.67071460  0.49911874  1
  I  I62  1  0.16806549  0.66457386  0.83395450  1
  I  I63  1  0.50002137  -0.00524085  0.16774103  1
  I  I64  1  0.49901842  -0.00356293  0.50116041  1
  I  I65  1  0.49465320  -0.00074573  0.83349404  1
  I  I66  1  0.50076139  0.33314646  0.16679074  1
  I  I67  1  0.50377137  0.33622511  0.50979063  1
  I  I68  1  0.49910496  0.33441577  0.82668676  1
  I  I69  1  0.49998153  0.67097481  0.16091026  1
  I  I70  1  0.50200568  0.66884667  0.50597147  1
  I  I71  1  0.49962990  0.66680517  0.83315381  1
  I  I72  1  0.83250424  -0.00451570  0.16465671  1
  I  I73  1  0.83058726  -0.00271789  0.49834251  1
  I  I74  1  0.83353530  -0.00021880  0.83541084  1
  I  I75  1  0.83279662  0.33334131  0.16701126  1
  I  I76  1  0.83019348  0.33128233  0.50710031  1
  I  I77  1  0.82806960  0.33684844  0.82965053  1
  I  I78  1  0.83199713  0.67131002  0.17372622  1
  I  I79  1  0.83399156  0.67016026  0.49732783  1
  I  I80  1  0.83398504  0.66384753  0.83211757  1
  I  I81  1  0.17056379  0.16847773  -0.00426745  1
  I  I82  1  0.16600338  0.16726746  0.33345597  1
  I  I83  1  0.17148366  0.16728677  0.67019920  1
  I  I84  1  0.17062383  0.49982592  -0.00462228  1
  I  I85  1  0.16736015  0.49949967  0.33354232  1
  I  I86  1  0.16557406  0.50035501  0.67032485  1
  I  I87  1  0.16709044  0.83282726  0.00200255  1
  I  I88  1  0.17146042  0.83350530  0.33378087  1
  I  I89  1  0.16651817  0.83319440  0.66415747  1
  I  I90  1  0.49741652  0.16767612  -0.00493844  1
  I  I91  1  0.50198609  0.16685782  0.33337638  1
  I  I92  1  0.49737021  0.16130218  0.67011189  1
  I  I93  1  0.49960192  0.50218700  -0.00373405  1
  I  I94  1  0.50303961  0.50845379  0.33672847  1
  I  I95  1  0.50032830  0.50681583  0.66843245  1
  I  I96  1  0.49921512  0.83286490  -0.00058600  1
  I  I97  1  0.50066421  0.82795555  0.33430994  1
  I  I98  1  0.49963058  0.83214959  0.66653377  1
  I  I99  1  0.83335812  0.16569291  -0.00013618  1
  I  I100  1  0.83042896  0.16347666  0.33774486  1
  I  I101  1  0.83283944  0.15642043  0.66423159  1
  I  I102  1  0.82932359  0.50107231  -0.00431317  1
  I  I103  1  0.83079616  0.49855690  0.33341968  1
  I  I104  1  0.83373538  0.50373834  0.66951764  1
  I  I105  1  0.83360750  0.83045034  0.00218572  1
  I  I106  1  0.82841015  0.83687856  0.33424390  1
  I  I107  1  0.83382668  0.83578525  0.66359165  1
  I  I108  1  -0.00000869  0.16243552  0.16186438  1
  I  I109  1  -0.00333426  0.15871560  0.50438050  1
  I  I110  1  0.00241474  0.16962891  0.83198712  1
  I  I111  1  0.00007352  0.50370744  0.16467786  1
  I  I112  1  0.00014855  0.50239558  0.50423322  1
  I  I113  1  0.00048723  0.49729497  0.83334928  1
  I  I114  1  -0.00010309  0.83294964  0.17270906  1
  I  I115  1  -0.00039655  0.83775936  0.49440944  1
  I  I116  1  -0.00010427  0.83267505  0.83393064  1
  I  I117  1  0.33335045  0.16330816  0.16939205  1
  I  I118  1  0.33327727  0.16486278  0.50074031  1
  I  I119  1  0.33434683  0.16971936  0.83213726  1
  I  I120  1  0.33339857  0.50487582  0.16332944  1
  I  I121  1  0.33769778  0.50804454  0.50848291  1
  I  I122  1  0.33456786  0.50094317  0.83010078  1
  I  I123  1  0.33392963  0.83257054  0.16783026  1
  I  I124  1  0.33439064  0.82874901  0.49880636  1
  I  I125  1  0.33675224  0.82925599  0.83340089  1
  I  I126  1  0.66675132  0.16462610  0.16309486  1
  I  I127  1  0.66906550  0.15798769  0.50459937  1
  I  I128  1  0.66384987  0.16554592  0.83169397  1
  I  I129  1  0.66649290  0.50293564  0.16308688  1
  I  I130  1  0.66328115  0.50859644  0.50955986  1
  I  I131  1  0.66498274  0.50213095  0.82921891  1
  I  I132  1  0.66620402  0.83280751  0.16841871  1
  I  I133  1  0.66605052  0.83343022  0.49850631  1
  I  I134  1  0.66231703  0.83360668  0.83352863  1
