# generated using pymatgen
data_Cs27Sn14Pb13I81
_symmetry_space_group_name_H-M   'P 1'
_cell_length_a   18.96306105
_cell_length_b   18.95939476
_cell_length_c   18.95908486
_cell_angle_alpha   89.99696669
_cell_angle_beta   90.00048862
_cell_angle_gamma   90.00030327
_symmetry_Int_Tables_number   1
_chemical_formula_structural   Cs27Sn14Pb13I81
_chemical_formula_sum   'Cs27 Sn14 Pb13 I81'
_cell_volume   6816.32489059
_cell_formula_units_Z   1
loop_
 _symmetry_equiv_pos_site_id
 _symmetry_equiv_pos_as_xyz
  1  'x, y, z'
loop_
 _atom_site_type_symbol
 _atom_site_label
 _atom_site_symmetry_multiplicity
 _atom_site_fract_x
 _atom_site_fract_y
 _atom_site_fract_z
 _atom_site_occupancy
  Cs  Cs0  1  0.00062863  0.00117089  -0.00138788  1
  Cs  Cs1  1  -0.00090632  -0.00151414  0.33443055  1
  Cs  Cs2  1  -0.00018255  0.00041962  0.66658077  1
  Cs  Cs3  1  -0.00160683  0.33303002  -0.00159719  1
  Cs  Cs4  1  0.00071828  0.33441402  0.33262493  1
  Cs  Cs5  1  0.00101742  0.32997034  0.66933783  1
  Cs  Cs6  1  0.00070881  0.66544257  0.00353608  1
  Cs  Cs7  1  0.00033354  0.66725044  0.33364894  1
  Cs  Cs8  1  0.00129289  0.66916116  0.66356741  1
  Cs  Cs9  1  0.33934595  -0.00159800  0.00247222  1
  Cs  Cs10  1  0.33672348  0.00372271  0.33055021  1
  Cs  Cs11  1  0.33137316  0.00132479  0.66668381  1
  Cs  Cs12  1  0.33131214  0.33301395  0.00363213  1
  Cs  Cs13  1  0.33582860  0.33252779  0.33243307  1
  Cs  Cs14  1  0.33364599  0.33173110  0.66422318  1
  Cs  Cs15  1  0.33280100  0.66805512  -0.00186780  1
  Cs  Cs16  1  0.32951604  0.66410150  0.33371947  1
  Cs  Cs17  1  0.33402164  0.66647408  0.66744370  1
  Cs  Cs18  1  0.65925672  -0.00049894  0.00101209  1
  Cs  Cs19  1  0.66638003  0.00228793  0.33171457  1
  Cs  Cs20  1  0.67002386  -0.00350165  0.66742783  1
  Cs  Cs21  1  0.67012072  0.33489219  -0.00302107  1
  Cs  Cs22  1  0.66339230  0.33119180  0.33341985  1
  Cs  Cs23  1  0.66497639  0.33665430  0.66993517  1
  Cs  Cs24  1  0.66656635  0.66494305  -0.00148356  1
  Cs  Cs25  1  0.67261022  0.66650721  0.33540561  1
  Cs  Cs26  1  0.66328156  0.66764709  0.66708896  1
  Sn  Sn27  1  0.16587595  0.50021752  0.50040758  1
  Sn  Sn28  1  0.49981037  0.16699301  0.83274474  1
  Sn  Sn29  1  0.83421489  0.83315606  0.83311755  1
  Sn  Sn30  1  0.83433350  0.16647128  0.16717397  1
  Sn  Sn31  1  0.83339181  0.83339026  0.50065221  1
  Sn  Sn32  1  0.83410674  0.49966046  0.50020774  1
  Sn  Sn33  1  0.83366758  0.16698904  0.49954591  1
  Sn  Sn34  1  0.16642962  0.50047280  0.83296410  1
  Sn  Sn35  1  0.16567834  0.16712096  0.16685405  1
  Sn  Sn36  1  0.49959968  0.83339298  0.49955839  1
  Sn  Sn37  1  0.16702398  0.83294898  0.50056143  1
  Sn  Sn38  1  0.16734516  0.49914033  0.16675361  1
  Sn  Sn39  1  0.16564898  0.83263126  0.83273477  1
  Sn  Sn40  1  0.49974764  0.50057245  0.16677410  1
  Pb  Pb41  1  0.16502720  0.16653503  0.49804502  1
  Pb  Pb42  1  0.16662486  0.83318245  0.16669870  1
  Pb  Pb43  1  0.50010444  0.83020110  0.16945085  1
  Pb  Pb44  1  0.83172466  0.16440061  0.83334341  1
  Pb  Pb45  1  0.49942980  0.83449776  0.83145672  1
  Pb  Pb46  1  0.83329811  0.83575388  0.16651874  1
  Pb  Pb47  1  0.49967934  0.50176728  0.49845725  1
  Pb  Pb48  1  0.83388888  0.49805557  0.16865576  1
  Pb  Pb49  1  0.50281833  0.16454792  0.50206085  1
  Pb  Pb50  1  0.49732646  0.49819868  0.83533820  1
  Pb  Pb51  1  0.50035143  0.16868205  0.16508584  1
  Pb  Pb52  1  0.83572329  0.50263353  0.83063648  1
  Pb  Pb53  1  0.16821537  0.16604386  0.83566964  1
  I  I54  1  0.16262778  0.00260970  0.16698927  1
  I  I55  1  0.16510923  -0.00310797  0.50354832  1
  I  I56  1  0.16403981  -0.00318026  0.82884148  1
  I  I57  1  0.16690661  0.33455770  0.16691269  1
  I  I58  1  0.16223630  0.33639590  0.50197599  1
  I  I59  1  0.16896898  0.33601373  0.83109665  1
  I  I60  1  0.17037464  0.66341176  0.16721195  1
  I  I61  1  0.16249628  0.66658206  0.49806438  1
  I  I62  1  0.16398061  0.66686541  0.83433647  1
  I  I63  1  0.49932357  0.00019145  0.16606239  1
  I  I64  1  0.49845723  -0.00358937  0.50041225  1
  I  I65  1  0.49871713  0.00216827  0.83450684  1
  I  I66  1  0.49674517  0.33626475  0.16797354  1
  I  I67  1  0.50042069  0.33339611  0.49990880  1
  I  I68  1  0.50043728  0.33067160  0.83330595  1
  I  I69  1  0.49223166  0.66253703  0.16573903  1
  I  I70  1  0.50418302  0.66981899  0.50031977  1
  I  I71  1  0.50155108  0.66662809  0.83402277  1
  I  I72  1  0.83873298  0.00382125  0.17239473  1
  I  I73  1  0.83360346  -0.00104371  0.49986323  1
  I  I74  1  0.83966050  -0.00347520  0.82672037  1
  I  I75  1  0.83465950  0.33007078  0.17181828  1
  I  I76  1  0.83817544  0.33357036  0.49473705  1
  I  I77  1  0.83310900  0.33342168  0.83204200  1
  I  I78  1  0.83357495  0.66643228  0.16804820  1
  I  I79  1  0.83400134  0.66733924  0.50312914  1
  I  I80  1  0.83318478  0.67070381  0.82832610  1
  I  I81  1  0.16119874  0.17114041  0.00358964  1
  I  I82  1  0.16586782  0.17020962  0.33005994  1
  I  I83  1  0.16647990  0.16900568  0.66662488  1
  I  I84  1  0.17159950  0.50032715  0.00032606  1
  I  I85  1  0.16650521  0.50094841  0.33394195  1
  I  I86  1  0.16230795  0.50500721  0.66580105  1
  I  I87  1  0.16210194  0.83061246  -0.00310578  1
  I  I88  1  0.16444983  0.83000643  0.33686280  1
  I  I89  1  0.16585091  0.82653236  0.66572913  1
  I  I90  1  0.50110612  0.16498300  -0.00235705  1
  I  I91  1  0.49920215  0.16589849  0.33340736  1
  I  I92  1  0.49961847  0.16689840  0.66935478  1
  I  I93  1  0.49517219  0.49908054  0.00332719  1
  I  I94  1  0.49355187  0.49919823  0.33067943  1
  I  I95  1  0.49980972  0.49951516  0.66659410  1
  I  I96  1  0.50021566  0.83485491  -0.00021078  1
  I  I97  1  0.50038502  0.83485092  0.33764356  1
  I  I98  1  0.50102625  0.83291053  0.66341360  1
  I  I99  1  0.83573930  0.16597794  0.00247380  1
  I  I100  1  0.83660827  0.16423827  0.33419803  1
  I  I101  1  0.83200584  0.16667780  0.66372894  1
  I  I102  1  0.83350337  0.49970628  -0.00013129  1
  I  I103  1  0.83853142  0.50557062  0.33699814  1
  I  I104  1  0.83705710  0.49521230  0.66224351  1
  I  I105  1  0.83854247  0.83526213  -0.00308930  1
  I  I106  1  0.83483732  0.83157590  0.33712704  1
  I  I107  1  0.83439786  0.83576271  0.66481743  1
  I  I108  1  0.00027874  0.17195787  0.16951205  1
  I  I109  1  -0.00324829  0.16244201  0.49919468  1
  I  I110  1  0.00004184  0.16746625  0.83311040  1
  I  I111  1  0.00328864  0.49797195  0.16587474  1
  I  I112  1  0.00098590  0.50496042  0.49720342  1
  I  I113  1  0.00403151  0.49951735  0.83880937  1
  I  I114  1  0.00010424  0.83008206  0.17034710  1
  I  I115  1  0.00001915  0.83249319  0.50363072  1
  I  I116  1  0.00083047  0.83172911  0.82514931  1
  I  I117  1  0.33086198  0.16878207  0.16511160  1
  I  I118  1  0.33331294  0.16592095  0.49888973  1
  I  I119  1  0.33555592  0.16473294  0.83543030  1
  I  I120  1  0.33079926  0.49420892  0.16927675  1
  I  I121  1  0.32980002  0.50491105  0.50104036  1
  I  I122  1  0.32893466  0.50608524  0.82881396  1
  I  I123  1  0.33311074  0.83869462  0.16672634  1
  I  I124  1  0.33166982  0.82787324  0.50379669  1
  I  I125  1  0.32999292  0.83076481  0.82925042  1
  I  I126  1  0.66933802  0.16711247  0.17024099  1
  I  I127  1  0.67114042  0.16666520  0.49346761  1
  I  I128  1  0.66434084  0.16423361  0.83495033  1
  I  I129  1  0.66492650  0.49853917  0.16940389  1
  I  I130  1  0.66942521  0.50132688  0.49686913  1
  I  I131  1  0.66684856  0.50036259  0.83436035  1
  I  I132  1  0.66675152  0.83372170  0.16655889  1
  I  I133  1  0.66835021  0.83328531  0.50343530  1
  I  I134  1  0.66906063  0.83664169  0.82819132  1
