# generated using pymatgen
data_Cs27Sn13Pb14I81
_symmetry_space_group_name_H-M   'P 1'
_cell_length_a   19.00389184
_cell_length_b   18.97579415
_cell_length_c   18.99852084
_cell_angle_alpha   90.00011725
_cell_angle_beta   89.99985829
_cell_angle_gamma   89.99996390
_symmetry_Int_Tables_number   1
_chemical_formula_structural   Cs27Sn13Pb14I81
_chemical_formula_sum   'Cs27 Sn13 Pb14 I81'
_cell_volume   6851.13144906
_cell_formula_units_Z   1
loop_
 _symmetry_equiv_pos_site_id
 _symmetry_equiv_pos_as_xyz
  1  'x, y, z'
loop_
 _atom_site_type_symbol
 _atom_site_label
 _atom_site_symmetry_multiplicity
 _atom_site_fract_x
 _atom_site_fract_y
 _atom_site_fract_z
 _atom_site_occupancy
  Cs  Cs0  1  -0.00436454  -0.01041278  -0.00655467  1
  Cs  Cs1  1  -0.00929946  0.00148497  0.33350099  1
  Cs  Cs2  1  -0.00636304  0.01004514  0.67221832  1
  Cs  Cs3  1  0.00045645  0.33500034  0.00197765  1
  Cs  Cs4  1  0.00284689  0.33287036  0.33256847  1
  Cs  Cs5  1  0.00254591  0.33039892  0.66634801  1
  Cs  Cs6  1  0.00285306  0.66833242  0.00085490  1
  Cs  Cs7  1  0.00161496  0.66650328  0.33301048  1
  Cs  Cs8  1  -0.00089004  0.66544761  0.66578074  1
  Cs  Cs9  1  0.33937387  -0.00916731  -0.00562854  1
  Cs  Cs10  1  0.33481170  -0.00213427  0.33265631  1
  Cs  Cs11  1  0.33162926  0.00316017  0.67086062  1
  Cs  Cs12  1  0.33362048  0.33328246  0.00189038  1
  Cs  Cs13  1  0.33238086  0.33389287  0.33379218  1
  Cs  Cs14  1  0.33241229  0.33254916  0.66520065  1
  Cs  Cs15  1  0.33147011  0.67043203  0.00057784  1
  Cs  Cs16  1  0.33297254  0.66617792  0.33525832  1
  Cs  Cs17  1  0.33462559  0.66503046  0.66288196  1
  Cs  Cs18  1  0.66488224  0.00354547  -0.00010503  1
  Cs  Cs19  1  0.67396164  0.00161507  0.32664935  1
  Cs  Cs20  1  0.67442154  -0.00152594  0.67275050  1
  Cs  Cs21  1  0.66617882  0.33052881  0.00173468  1
  Cs  Cs22  1  0.66502434  0.33364845  0.33156983  1
  Cs  Cs23  1  0.66483818  0.33566522  0.66714741  1
  Cs  Cs24  1  0.66571786  0.66776508  -0.00146360  1
  Cs  Cs25  1  0.66609802  0.66582361  0.33623923  1
  Cs  Cs26  1  0.66628534  0.66563242  0.66450858  1
  Sn  Sn27  1  0.50012743  0.16578697  0.49996619  1
  Sn  Sn28  1  0.16690653  0.49987843  0.83321988  1
  Sn  Sn29  1  0.16693937  0.16615470  0.16613106  1
  Sn  Sn30  1  0.16685377  0.83351754  0.50008630  1
  Sn  Sn31  1  0.16656975  0.50061518  0.50004267  1
  Sn  Sn32  1  0.83346213  0.49992627  0.83345775  1
  Sn  Sn33  1  0.49986313  0.49978265  0.49987390  1
  Sn  Sn34  1  0.49933754  0.83430836  0.49989930  1
  Sn  Sn35  1  0.16691001  0.49937780  0.16674443  1
  Sn  Sn36  1  0.83371015  0.49980690  0.49987916  1
  Sn  Sn37  1  0.49963574  0.49992167  0.83349696  1
  Sn  Sn38  1  0.49969802  0.50006549  0.16665575  1
  Sn  Sn39  1  0.83336652  0.50005582  0.16667896  1
  Pb  Pb40  1  0.83312145  0.83060903  0.83321859  1
  Pb  Pb41  1  0.16832201  0.16603347  0.49829425  1
  Pb  Pb42  1  0.83320752  0.83077110  0.16662042  1
  Pb  Pb43  1  0.83333829  0.16950520  0.83378615  1
  Pb  Pb44  1  0.83357306  0.83138747  0.50007549  1
  Pb  Pb45  1  0.49980520  0.16884148  0.83112395  1
  Pb  Pb46  1  0.50006152  0.83096948  0.83041612  1
  Pb  Pb47  1  0.50007936  0.83126361  0.16911985  1
  Pb  Pb48  1  0.16693711  0.16869139  0.83682568  1
  Pb  Pb49  1  0.83041367  0.16961980  0.49989552  1
  Pb  Pb50  1  0.16662704  0.83094316  0.82975957  1
  Pb  Pb51  1  0.83608840  0.16887602  0.16639757  1
  Pb  Pb52  1  0.16661550  0.83371292  0.16916987  1
  Pb  Pb53  1  0.49774070  0.16833678  0.16847182  1
  I  I54  1  0.16806594  0.00287348  0.17239353  1
  I  I55  1  0.17452758  -0.00303260  0.49607609  1
  I  I56  1  0.16645505  -0.00017242  0.83331688  1
  I  I57  1  0.16650738  0.33744820  0.16973354  1
  I  I58  1  0.16733987  0.33723447  0.50176658  1
  I  I59  1  0.16656697  0.33845770  0.82640978  1
  I  I60  1  0.16616480  0.66241626  0.16485576  1
  I  I61  1  0.17128833  0.66325696  0.49842956  1
  I  I62  1  0.16653778  0.66148765  0.83907115  1
  I  I63  1  0.49732401  0.00009981  0.16958346  1
  I  I64  1  0.49042458  -0.00044149  0.49895034  1
  I  I65  1  0.49958829  -0.00014490  0.83215331  1
  I  I66  1  0.50206193  0.33817977  0.16987060  1
  I  I67  1  0.50009076  0.33635613  0.50020989  1
  I  I68  1  0.50030304  0.33850840  0.82997320  1
  I  I69  1  0.49709999  0.66138612  0.16886132  1
  I  I70  1  0.49958803  0.66399752  0.50015161  1
  I  I71  1  0.50016310  0.66147649  0.83116939  1
  I  I72  1  0.83529309  0.00035996  0.16838398  1
  I  I73  1  0.83409849  0.00013624  0.49972533  1
  I  I74  1  0.83420259  0.00002137  0.83234245  1
  I  I75  1  0.83071777  0.33852760  0.16736981  1
  I  I76  1  0.83454764  0.33873255  0.50012064  1
  I  I77  1  0.83303171  0.33903069  0.83229394  1
  I  I78  1  0.83673915  0.66087941  0.16776975  1
  I  I79  1  0.82872970  0.66183652  0.50003056  1
  I  I80  1  0.83313756  0.66100631  0.83222609  1
  I  I81  1  0.16701892  0.17861539  0.00426327  1
  I  I82  1  0.16849342  0.17762484  0.33095554  1
  I  I83  1  0.16786040  0.16824153  0.66673130  1
  I  I84  1  0.16638148  0.49479930  0.00046911  1
  I  I85  1  0.16689906  0.50009228  0.33373684  1
  I  I86  1  0.16711927  0.50464834  0.66582453  1
  I  I87  1  0.16578762  0.83165215  -0.00012383  1
  I  I88  1  0.17192697  0.82275752  0.33692680  1
  I  I89  1  0.17248325  0.82455835  0.66196255  1
  I  I90  1  0.49969802  0.17047538  0.00008163  1
  I  I91  1  0.49831545  0.17280226  0.33669276  1
  I  I92  1  0.49720717  0.17235124  0.66265475  1
  I  I93  1  0.50019959  0.49910905  0.00020462  1
  I  I94  1  0.50019074  0.50013266  0.33440008  1
  I  I95  1  0.50044219  0.50024598  0.66538497  1
  I  I96  1  0.49968231  0.83057756  -0.00018144  1
  I  I97  1  0.49523121  0.82729103  0.33759486  1
  I  I98  1  0.49559877  0.82767585  0.66215952  1
  I  I99  1  0.83216394  0.17194990  0.00022521  1
  I  I100  1  0.83344220  0.17016833  0.33333878  1
  I  I101  1  0.83464642  0.16989872  0.66647011  1
  I  I102  1  0.83357540  0.49973008  0.00017422  1
  I  I103  1  0.83264128  0.50023364  0.33364733  1
  I  I104  1  0.83216068  0.50078349  0.66617377  1
  I  I105  1  0.83526101  0.82881308  -0.00008941  1
  I  I106  1  0.83354194  0.82931012  0.33375179  1
  I  I107  1  0.83261793  0.82851951  0.66628380  1
  I  I108  1  0.00367546  0.17738862  0.17104424  1
  I  I109  1  -0.00010558  0.16752295  0.49896458  1
  I  I110  1  0.00032121  0.17091203  0.83019459  1
  I  I111  1  0.00063459  0.49659037  0.16760349  1
  I  I112  1  0.00081512  0.50492050  0.49972432  1
  I  I113  1  0.00030031  0.50020525  0.83258050  1
  I  I114  1  0.00022745  0.82948830  0.17031716  1
  I  I115  1  0.00311198  0.82402629  0.49814697  1
  I  I116  1  0.00014695  0.82942222  0.83180614  1
  I  I117  1  0.33032152  0.17828862  0.16948719  1
  I  I118  1  0.33608804  0.17525971  0.49891822  1
  I  I119  1  0.33331434  0.17216733  0.83181920  1
  I  I120  1  0.33301754  0.49652017  0.16821920  1
  I  I121  1  0.33374424  0.50024369  0.49998664  1
  I  I122  1  0.33332003  0.49960275  0.83170976  1
  I  I123  1  0.33326813  0.82860144  0.16640581  1
  I  I124  1  0.33366155  0.82406178  0.49887033  1
  I  I125  1  0.33329588  0.82945250  0.83531742  1
  I  I126  1  0.66659365  0.16936311  0.16898014  1
  I  I127  1  0.66238866  0.16966992  0.49885759  1
  I  I128  1  0.66645547  0.17105757  0.83228309  1
  I  I129  1  0.66633450  0.50152534  0.16864732  1
  I  I130  1  0.66560788  0.50001928  0.50005940  1
  I  I131  1  0.66636130  0.50025660  0.83119675  1
  I  I132  1  0.66651734  0.82963843  0.17114585  1
  I  I133  1  0.66357868  0.82848285  0.50011244  1
  I  I134  1  0.66640621  0.82798598  0.82911693  1
