# generated using pymatgen
data_Cs27Sn13Pb14I81
_symmetry_space_group_name_H-M   'P 1'
_cell_length_a   18.97493063
_cell_length_b   18.98056188
_cell_length_c   18.97829196
_cell_angle_alpha   89.99871669
_cell_angle_beta   89.99973217
_cell_angle_gamma   89.99985821
_symmetry_Int_Tables_number   1
_chemical_formula_structural   Cs27Sn13Pb14I81
_chemical_formula_sum   'Cs27 Sn13 Pb14 I81'
_cell_volume   6835.12379626
_cell_formula_units_Z   1
loop_
 _symmetry_equiv_pos_site_id
 _symmetry_equiv_pos_as_xyz
  1  'x, y, z'
loop_
 _atom_site_type_symbol
 _atom_site_label
 _atom_site_symmetry_multiplicity
 _atom_site_fract_x
 _atom_site_fract_y
 _atom_site_fract_z
 _atom_site_occupancy
  Cs  Cs0  1  0.00186978  0.00151773  -0.00529166  1
  Cs  Cs1  1  0.00024669  0.00011602  0.33532277  1
  Cs  Cs2  1  -0.00592479  -0.00582109  0.67119154  1
  Cs  Cs3  1  0.00584402  0.33125724  0.00097191  1
  Cs  Cs4  1  0.00346477  0.33487553  0.33237229  1
  Cs  Cs5  1  0.00038575  0.33201489  0.66758990  1
  Cs  Cs6  1  -0.00128878  0.66675596  -0.00103130  1
  Cs  Cs7  1  0.00111263  0.66518090  0.33601722  1
  Cs  Cs8  1  0.00619508  0.67421930  0.66482615  1
  Cs  Cs9  1  0.33135058  0.00012776  0.00097155  1
  Cs  Cs10  1  0.33491885  0.00054314  0.33280805  1
  Cs  Cs11  1  0.33310386  0.00294558  0.66776761  1
  Cs  Cs12  1  0.32618057  0.33238320  -0.00685714  1
  Cs  Cs13  1  0.32918741  0.33205648  0.33374965  1
  Cs  Cs14  1  0.33397333  0.33177524  0.67511409  1
  Cs  Cs15  1  0.33553815  0.66630091  -0.00192165  1
  Cs  Cs16  1  0.33522763  0.66732119  0.33413399  1
  Cs  Cs17  1  0.32843664  0.66605970  0.66695485  1
  Cs  Cs18  1  0.66714885  -0.00196588  0.00283607  1
  Cs  Cs19  1  0.66565619  0.00078026  0.33301972  1
  Cs  Cs20  1  0.67281019  0.00778673  0.66579527  1
  Cs  Cs21  1  0.66682807  0.33645971  -0.00004978  1
  Cs  Cs22  1  0.66712681  0.33471228  0.33352921  1
  Cs  Cs23  1  0.66575787  0.32896463  0.66703231  1
  Cs  Cs24  1  0.66614470  0.66580064  0.00158390  1
  Cs  Cs25  1  0.66571647  0.66553214  0.33163711  1
  Cs  Cs26  1  0.66681495  0.66518920  0.66642948  1
  Sn  Sn27  1  0.83263769  0.50026498  0.50007507  1
  Sn  Sn28  1  0.83262852  0.49979172  0.16688051  1
  Sn  Sn29  1  0.50013508  0.49929742  0.16722653  1
  Sn  Sn30  1  0.83263217  0.16692423  0.16695993  1
  Sn  Sn31  1  0.50008225  0.83321180  0.16690382  1
  Sn  Sn32  1  0.83364579  0.83330353  0.16702255  1
  Sn  Sn33  1  0.50031477  0.16748502  0.16673085  1
  Sn  Sn34  1  0.50046640  0.83298676  0.50044070  1
  Sn  Sn35  1  0.16658524  0.83288574  0.16705817  1
  Sn  Sn36  1  0.50072228  0.83357053  0.83271863  1
  Sn  Sn37  1  0.16657313  0.16632823  0.49992177  1
  Sn  Sn38  1  0.50061721  0.50050545  0.49934434  1
  Sn  Sn39  1  0.83328145  0.50028212  0.83314501  1
  Pb  Pb40  1  0.50151181  0.50173020  0.83317438  1
  Pb  Pb41  1  0.16921877  0.83526817  0.49806610  1
  Pb  Pb42  1  0.83518078  0.16915161  0.49758953  1
  Pb  Pb43  1  0.83093135  0.83129406  0.83547362  1
  Pb  Pb44  1  0.50034654  0.16391514  0.83661769  1
  Pb  Pb45  1  0.16653286  0.16436772  0.16764692  1
  Pb  Pb46  1  0.16328918  0.50036652  0.83326231  1
  Pb  Pb47  1  0.16641748  0.16621430  0.82990823  1
  Pb  Pb48  1  0.16923872  0.83321363  0.83580339  1
  Pb  Pb49  1  0.83304572  0.16917487  0.83629379  1
  Pb  Pb50  1  0.16740186  0.49835726  0.49990088  1
  Pb  Pb51  1  0.83099528  0.83134931  0.49793748  1
  Pb  Pb52  1  0.49885339  0.16732694  0.49799712  1
  Pb  Pb53  1  0.16710340  0.50241164  0.16670722  1
  I  I54  1  0.16889839  -0.00333291  0.16848932  1
  I  I55  1  0.16941293  0.00259494  0.49562231  1
  I  I56  1  0.16676336  -0.00039318  0.83504860  1
  I  I57  1  0.16663196  0.33317232  0.16760891  1
  I  I58  1  0.16768840  0.33087138  0.49569423  1
  I  I59  1  0.16837056  0.33327510  0.83514630  1
  I  I60  1  0.16781967  0.67033095  0.16771247  1
  I  I61  1  0.16505590  0.66685128  0.49932246  1
  I  I62  1  0.16710291  0.66698267  0.83310817  1
  I  I63  1  0.50261824  -0.00129938  0.16688799  1
  I  I64  1  0.49666842  -0.00261506  0.49672922  1
  I  I65  1  0.49974065  -0.00427683  0.83408284  1
  I  I66  1  0.50829017  0.33438245  0.17272466  1
  I  I67  1  0.50295165  0.33683296  0.49409306  1
  I  I68  1  0.50038125  0.33345496  0.83338393  1
  I  I69  1  0.50248126  0.66714493  0.16716668  1
  I  I70  1  0.50326586  0.66646727  0.49349162  1
  I  I71  1  0.50168307  0.66950239  0.84028245  1
  I  I72  1  0.82896234  -0.00059144  0.16722413  1
  I  I73  1  0.83291792  -0.00004231  0.49779241  1
  I  I74  1  0.83328182  -0.00019794  0.83486388  1
  I  I75  1  0.82602462  0.33445178  0.16694701  1
  I  I76  1  0.82672458  0.33746998  0.49714543  1
  I  I77  1  0.83086671  0.33729451  0.83528702  1
  I  I78  1  0.83004544  0.66614536  0.16628099  1
  I  I79  1  0.83231266  0.66298861  0.49633013  1
  I  I80  1  0.83111738  0.66346160  0.83744336  1
  I  I81  1  0.16673787  0.16593996  0.00011326  1
  I  I82  1  0.16737225  0.16657802  0.33496010  1
  I  I83  1  0.16948631  0.16823728  0.66241010  1
  I  I84  1  0.16778298  0.49929828  0.00034476  1
  I  I85  1  0.16224877  0.49982344  0.33316405  1
  I  I86  1  0.16789717  0.49920640  0.66645370  1
  I  I87  1  0.16845059  0.83457451  0.00429460  1
  I  I88  1  0.16905532  0.83353991  0.32991442  1
  I  I89  1  0.16806741  0.83430365  0.66651038  1
  I  I90  1  0.50320581  0.16728118  0.00528821  1
  I  I91  1  0.50310194  0.16169381  0.32960177  1
  I  I92  1  0.49696977  0.16648624  0.66658187  1
  I  I93  1  0.50472469  0.50210487  0.00345838  1
  I  I94  1  0.50772866  0.50542499  0.33207030  1
  I  I95  1  0.50407910  0.50493544  0.66349651  1
  I  I96  1  0.50016722  0.83309562  0.00252024  1
  I  I97  1  0.49985490  0.83235824  0.33151769  1
  I  I98  1  0.49879600  0.82608645  0.66578428  1
  I  I99  1  0.82987314  0.16738554  0.00498940  1
  I  I100  1  0.82932629  0.16770998  0.32918168  1
  I  I101  1  0.83531972  0.16818793  0.66649736  1
  I  I102  1  0.82858640  0.50096571  0.00222953  1
  I  I103  1  0.82905920  0.50028240  0.33188994  1
  I  I104  1  0.82782423  0.49938951  0.66580535  1
  I  I105  1  0.83024415  0.83092675  0.00456681  1
  I  I106  1  0.83057860  0.83139496  0.32898694  1
  I  I107  1  0.83211019  0.83146617  0.66654207  1
  I  I108  1  -0.00308245  0.16800938  0.16840246  1
  I  I109  1  0.00256141  0.16884136  0.49490107  1
  I  I110  1  -0.00033381  0.16769187  0.83713004  1
  I  I111  1  -0.00375937  0.49971991  0.16736050  1
  I  I112  1  -0.00320082  0.49738663  0.49705842  1
  I  I113  1  -0.00506063  0.50015326  0.83643047  1
  I  I114  1  -0.00109452  0.83271298  0.16710060  1
  I  I115  1  -0.00018108  0.83208026  0.49719534  1
  I  I116  1  -0.00035462  0.83200962  0.83539496  1
  I  I117  1  0.33626138  0.16506914  0.16905264  1
  I  I118  1  0.33144456  0.16709634  0.49440214  1
  I  I119  1  0.33359773  0.16778495  0.83656012  1
  I  I120  1  0.33722308  0.50090897  0.17218917  1
  I  I121  1  0.33734589  0.50383740  0.49296488  1
  I  I122  1  0.33364231  0.50062111  0.83379052  1
  I  I123  1  0.33554054  0.83403799  0.16688043  1
  I  I124  1  0.33760720  0.82685530  0.49568709  1
  I  I125  1  0.33746437  0.83145858  0.83688102  1
  I  I126  1  0.66635176  0.16248542  0.16779511  1
  I  I127  1  0.66669128  0.16487234  0.50039168  1
  I  I128  1  0.66663380  0.16622658  0.82966565  1
  I  I129  1  0.66679724  0.50374633  0.16717793  1
  I  I130  1  0.66613183  0.50369364  0.49692693  1
  I  I131  1  0.66940646  0.50187967  0.83617639  1
  I  I132  1  0.66570436  0.83295860  0.16627651  1
  I  I133  1  0.66262871  0.83268296  0.49578684  1
  I  I134  1  0.66309123  0.83170748  0.83802820  1
