# generated using pymatgen
data_Cs27Sn14Pb13I81
_symmetry_space_group_name_H-M   'P 1'
_cell_length_a   18.98346935
_cell_length_b   18.96843310
_cell_length_c   18.97832343
_cell_angle_alpha   90.00237716
_cell_angle_beta   90.00013392
_cell_angle_gamma   90.00061013
_symmetry_Int_Tables_number   1
_chemical_formula_structural   Cs27Sn14Pb13I81
_chemical_formula_sum   'Cs27 Sn14 Pb13 I81'
_cell_volume   6833.84124825
_cell_formula_units_Z   1
loop_
 _symmetry_equiv_pos_site_id
 _symmetry_equiv_pos_as_xyz
  1  'x, y, z'
loop_
 _atom_site_type_symbol
 _atom_site_label
 _atom_site_symmetry_multiplicity
 _atom_site_fract_x
 _atom_site_fract_y
 _atom_site_fract_z
 _atom_site_occupancy
  Cs  Cs0  1  0.00450148  0.00037892  -0.00199245  1
  Cs  Cs1  1  -0.00301611  -0.00138014  0.33304078  1
  Cs  Cs2  1  0.00130211  0.00604655  0.66868323  1
  Cs  Cs3  1  -0.00264030  0.33006910  -0.00427307  1
  Cs  Cs4  1  0.00175874  0.33450302  0.33385210  1
  Cs  Cs5  1  0.00890369  0.32464086  0.67420680  1
  Cs  Cs6  1  0.00097439  0.66873049  0.00239190  1
  Cs  Cs7  1  -0.00209504  0.66634749  0.33292385  1
  Cs  Cs8  1  -0.00063089  0.66516342  0.66335584  1
  Cs  Cs9  1  0.33222118  -0.00201044  -0.00082395  1
  Cs  Cs10  1  0.33626400  0.00034598  0.33289912  1
  Cs  Cs11  1  0.33453125  0.00142945  0.66782543  1
  Cs  Cs12  1  0.33475556  0.33581050  0.00177723  1
  Cs  Cs13  1  0.33260583  0.33226321  0.33339106  1
  Cs  Cs14  1  0.32357261  0.33436647  0.66659152  1
  Cs  Cs15  1  0.33306890  0.66755962  0.00060991  1
  Cs  Cs16  1  0.33393016  0.66646100  0.33273781  1
  Cs  Cs17  1  0.33417461  0.66426317  0.66559740  1
  Cs  Cs18  1  0.66504258  0.00045010  0.00043858  1
  Cs  Cs19  1  0.66583080  0.00274633  0.33380079  1
  Cs  Cs20  1  0.66495717  -0.00293594  0.66496930  1
  Cs  Cs21  1  0.66898392  0.33317561  -0.00136315  1
  Cs  Cs22  1  0.66563162  0.33028688  0.33144663  1
  Cs  Cs23  1  0.66947153  0.33370401  0.67130912  1
  Cs  Cs24  1  0.66599001  0.66550584  0.00040127  1
  Cs  Cs25  1  0.66755704  0.66686970  0.33483572  1
  Cs  Cs26  1  0.66618016  0.66906229  0.66484778  1
  Sn  Sn27  1  0.49988393  0.83271636  0.49973562  1
  Sn  Sn28  1  0.50093195  0.83259710  0.16678410  1
  Sn  Sn29  1  0.83228546  0.83270012  0.16644521  1
  Sn  Sn30  1  0.16675629  0.16738565  0.16716639  1
  Sn  Sn31  1  0.50090819  0.83396914  0.83343553  1
  Sn  Sn32  1  0.83263973  0.83292438  0.83344051  1
  Sn  Sn33  1  0.83308453  0.50080264  0.16763398  1
  Sn  Sn34  1  0.83266090  0.49999221  0.49958537  1
  Sn  Sn35  1  0.83337229  0.83291663  0.50005164  1
  Sn  Sn36  1  0.50046745  0.50087584  0.16777080  1
  Sn  Sn37  1  0.16667603  0.83342193  0.50003877  1
  Sn  Sn38  1  0.16633576  0.49917603  0.16681828  1
  Sn  Sn39  1  0.50105456  0.50041660  0.49919452  1
  Sn  Sn40  1  0.50017593  0.16637454  0.83328491  1
  Pb  Pb41  1  0.16959178  0.16635185  0.83604502  1
  Pb  Pb42  1  0.16679245  0.83298369  0.83027782  1
  Pb  Pb43  1  0.16628560  0.50172922  0.49806862  1
  Pb  Pb44  1  0.83333347  0.50245156  0.83276042  1
  Pb  Pb45  1  0.83529475  0.16666300  0.16683941  1
  Pb  Pb46  1  0.50006626  0.50068684  0.83278219  1
  Pb  Pb47  1  0.16637338  0.50056947  0.83640713  1
  Pb  Pb48  1  0.83078158  0.16354399  0.83342717  1
  Pb  Pb49  1  0.49865794  0.16680708  0.16513857  1
  Pb  Pb50  1  0.16679999  0.16382002  0.49738140  1
  Pb  Pb51  1  0.16664276  0.83281737  0.16839928  1
  Pb  Pb52  1  0.50014711  0.16779357  0.50221299  1
  Pb  Pb53  1  0.83309000  0.16779056  0.49988594  1
  I  I54  1  0.16742359  0.00136860  0.16818611  1
  I  I55  1  0.16683611  -0.00444086  0.49748382  1
  I  I56  1  0.16441573  -0.00041532  0.83675419  1
  I  I57  1  0.16828234  0.33494588  0.16734791  1
  I  I58  1  0.16745689  0.33362343  0.50109725  1
  I  I59  1  0.16890426  0.33317621  0.82970002  1
  I  I60  1  0.16699671  0.66402920  0.16829089  1
  I  I61  1  0.16724517  0.66973749  0.49693510  1
  I  I62  1  0.17055392  0.66723896  0.83703111  1
  I  I63  1  0.50227154  -0.00359385  0.16925945  1
  I  I64  1  0.50096766  -0.00372897  0.49711002  1
  I  I65  1  0.50349602  -0.00281970  0.83389804  1
  I  I66  1  0.50173678  0.33689875  0.16916617  1
  I  I67  1  0.50468904  0.33743160  0.49502895  1
  I  I68  1  0.49805548  0.33129552  0.83521365  1
  I  I69  1  0.49788112  0.66725298  0.16491711  1
  I  I70  1  0.50039320  0.66817186  0.50093332  1
  I  I71  1  0.50405648  0.67035368  0.83363508  1
  I  I72  1  0.83020069  -0.00396473  0.16789062  1
  I  I73  1  0.83224596  -0.00428102  0.49893130  1
  I  I74  1  0.83231641  -0.00503121  0.83334608  1
  I  I75  1  0.83026015  0.33721351  0.17176778  1
  I  I76  1  0.82681660  0.33785817  0.49221305  1
  I  I77  1  0.83232210  0.33332878  0.83401923  1
  I  I78  1  0.83496713  0.66730973  0.16716515  1
  I  I79  1  0.83227960  0.66812316  0.49870420  1
  I  I80  1  0.82466761  0.67076070  0.83362766  1
  I  I81  1  0.16619497  0.16923242  0.00362962  1
  I  I82  1  0.16889540  0.17149100  0.32985436  1
  I  I83  1  0.16664158  0.16601737  0.66680688  1
  I  I84  1  0.16809501  0.49840833  0.00537848  1
  I  I85  1  0.16732724  0.49767537  0.32985293  1
  I  I86  1  0.16790744  0.50114179  0.66602005  1
  I  I87  1  0.16665858  0.83373860  0.00027757  1
  I  I88  1  0.16719810  0.83310984  0.33606951  1
  I  I89  1  0.16711905  0.83250863  0.66233790  1
  I  I90  1  0.49829923  0.16038512  -0.00254727  1
  I  I91  1  0.49799395  0.16336956  0.33321733  1
  I  I92  1  0.50086470  0.15944603  0.66988653  1
  I  I93  1  0.49961546  0.50315199  0.00331890  1
  I  I94  1  0.49973858  0.50802348  0.33250822  1
  I  I95  1  0.50526249  0.50449293  0.66307766  1
  I  I96  1  0.50565118  0.83333926  0.00086563  1
  I  I97  1  0.50125785  0.82928627  0.33327672  1
  I  I98  1  0.50243639  0.83372516  0.66587414  1
  I  I99  1  0.83421340  0.16710250  0.00014947  1
  I  I100  1  0.83291552  0.15981899  0.33318344  1
  I  I101  1  0.83396531  0.16723650  0.66677711  1
  I  I102  1  0.83265647  0.50398977  0.00350673  1
  I  I103  1  0.83306098  0.50894107  0.33253045  1
  I  I104  1  0.82578920  0.50628070  0.66283583  1
  I  I105  1  0.82657310  0.82959225  0.00111762  1
  I  I106  1  0.83191426  0.82986788  0.33328440  1
  I  I107  1  0.82982746  0.82974775  0.66565031  1
  I  I108  1  0.00317711  0.16924472  0.16682196  1
  I  I109  1  0.00003668  0.16534513  0.50026918  1
  I  I110  1  0.00014602  0.16590624  0.83357234  1
  I  I111  1  -0.00122986  0.50168755  0.17081706  1
  I  I112  1  -0.00307700  0.50762301  0.49396860  1
  I  I113  1  -0.00033292  0.50252633  0.83271019  1
  I  I114  1  -0.00297403  0.83086356  0.16689114  1
  I  I115  1  -0.00166505  0.82919858  0.49823372  1
  I  I116  1  -0.00335418  0.83119054  0.83541582  1
  I  I117  1  0.33083692  0.16995942  0.16539703  1
  I  I118  1  0.33351252  0.16551528  0.50060618  1
  I  I119  1  0.33696726  0.15755376  0.83333480  1
  I  I120  1  0.33463062  0.50059671  0.16964460  1
  I  I121  1  0.33617319  0.50545163  0.49635811  1
  I  I122  1  0.33368835  0.50227623  0.83302010  1
  I  I123  1  0.33637372  0.83091104  0.16651997  1
  I  I124  1  0.33519434  0.82989164  0.49907873  1
  I  I125  1  0.33706413  0.83693930  0.83482569  1
  I  I126  1  0.66657116  0.16815254  0.16483038  1
  I  I127  1  0.66647415  0.16135940  0.49891167  1
  I  I128  1  0.66318423  0.16495663  0.83562529  1
  I  I129  1  0.66644550  0.50580418  0.16992627  1
  I  I130  1  0.66639346  0.50958255  0.49155367  1
  I  I131  1  0.66654277  0.49615884  0.83882550  1
  I  I132  1  0.66626544  0.82725926  0.16916330  1
  I  I133  1  0.66642229  0.82988011  0.50077018  1
  I  I134  1  0.66580494  0.83707180  0.83002260  1
