# generated using pymatgen
data_Cs27Sn14Pb13I81
_symmetry_space_group_name_H-M   'P 1'
_cell_length_a   18.96091224
_cell_length_b   18.96095807
_cell_length_c   18.96073936
_cell_angle_alpha   90.00101319
_cell_angle_beta   90.00123140
_cell_angle_gamma   89.99850400
_symmetry_Int_Tables_number   1
_chemical_formula_structural   Cs27Sn14Pb13I81
_chemical_formula_sum   'Cs27 Sn14 Pb13 I81'
_cell_volume   6816.70930109
_cell_formula_units_Z   1
loop_
 _symmetry_equiv_pos_site_id
 _symmetry_equiv_pos_as_xyz
  1  'x, y, z'
loop_
 _atom_site_type_symbol
 _atom_site_label
 _atom_site_symmetry_multiplicity
 _atom_site_fract_x
 _atom_site_fract_y
 _atom_site_fract_z
 _atom_site_occupancy
  Cs  Cs0  1  0.00160339  -0.00117331  -0.00152953  1
  Cs  Cs1  1  -0.00090147  0.00523624  0.33312856  1
  Cs  Cs2  1  -0.00179179  -0.00152552  0.66856794  1
  Cs  Cs3  1  -0.00149499  0.33315475  0.00377153  1
  Cs  Cs4  1  -0.00037281  0.32557038  0.33365484  1
  Cs  Cs5  1  0.00371724  0.33006062  0.66140264  1
  Cs  Cs6  1  -0.00119796  0.66791582  -0.00153243  1
  Cs  Cs7  1  0.00006080  0.66583435  0.33379851  1
  Cs  Cs8  1  0.00018385  0.66947592  0.66707920  1
  Cs  Cs9  1  0.33277569  0.00050993  -0.00018569  1
  Cs  Cs10  1  0.33581095  -0.00199392  0.33084718  1
  Cs  Cs11  1  0.33586507  -0.00176682  0.67044789  1
  Cs  Cs12  1  0.33489172  0.33310017  -0.00133808  1
  Cs  Cs13  1  0.33100418  0.33499908  0.33347456  1
  Cs  Cs14  1  0.33438778  0.33448229  0.66721225  1
  Cs  Cs15  1  0.33111952  0.66641779  0.00290884  1
  Cs  Cs16  1  0.33464907  0.66671634  0.33281619  1
  Cs  Cs17  1  0.33064008  0.66597585  0.66496487  1
  Cs  Cs18  1  0.66353099  -0.00002940  -0.00159348  1
  Cs  Cs19  1  0.66554165  -0.00257677  0.33490239  1
  Cs  Cs20  1  0.66624199  0.00182648  0.66580661  1
  Cs  Cs21  1  0.66641047  0.33716234  -0.00201649  1
  Cs  Cs22  1  0.66875938  0.33361838  0.33306673  1
  Cs  Cs23  1  0.66331144  0.33319132  0.66881889  1
  Cs  Cs24  1  0.67132366  0.66251200  -0.00083720  1
  Cs  Cs25  1  0.66557108  0.66835806  0.33402167  1
  Cs  Cs26  1  0.66908862  0.66509074  0.66560352  1
  Sn  Sn27  1  0.49974408  0.16754575  0.49890148  1
  Sn  Sn28  1  0.49948206  0.49902896  0.16752883  1
  Sn  Sn29  1  0.83427344  0.16708591  0.83354137  1
  Sn  Sn30  1  0.83289720  0.50029898  0.49970360  1
  Sn  Sn31  1  0.16565291  0.16779355  0.83351217  1
  Sn  Sn32  1  0.16588254  0.83357987  0.49885455  1
  Sn  Sn33  1  0.49998531  0.16773396  0.16761755  1
  Sn  Sn34  1  0.16646114  0.49903142  0.83414834  1
  Sn  Sn35  1  0.16697647  0.50045414  0.16607727  1
  Sn  Sn36  1  0.83446156  0.83272607  0.49900375  1
  Sn  Sn37  1  0.50077313  0.49911322  0.49912595  1
  Sn  Sn38  1  0.16557115  0.83276955  0.16783858  1
  Sn  Sn39  1  0.50025503  0.83225766  0.83346137  1
  Sn  Sn40  1  0.83432527  0.83334488  0.16733070  1
  Pb  Pb41  1  0.49974387  0.16568582  0.83349726  1
  Pb  Pb42  1  0.83374045  0.50164146  0.16876067  1
  Pb  Pb43  1  0.50022948  0.83274139  0.50152956  1
  Pb  Pb44  1  0.83124372  0.83467070  0.83316061  1
  Pb  Pb45  1  0.83127973  0.16647756  0.50145781  1
  Pb  Pb46  1  0.16941625  0.16350177  0.50212634  1
  Pb  Pb47  1  0.16848490  0.16672739  0.16500133  1
  Pb  Pb48  1  0.83055755  0.16406492  0.16456174  1
  Pb  Pb49  1  0.50004981  0.83249854  0.16489060  1
  Pb  Pb50  1  0.83638307  0.49760712  0.83050941  1
  Pb  Pb51  1  0.49822374  0.50231483  0.83339329  1
  Pb  Pb52  1  0.16787477  0.83307835  0.83373793  1
  Pb  Pb53  1  0.16661429  0.50137739  0.49924135  1
  I  I54  1  0.16566456  -0.00284961  0.16809531  1
  I  I55  1  0.16264700  -0.00443057  0.49620163  1
  I  I56  1  0.16615119  0.00189988  0.83266769  1
  I  I57  1  0.17008354  0.33616101  0.16389230  1
  I  I58  1  0.16450501  0.33321372  0.49909217  1
  I  I59  1  0.16516946  0.33367187  0.83780696  1
  I  I60  1  0.16997624  0.66655894  0.16437984  1
  I  I61  1  0.16829931  0.66945776  0.50173411  1
  I  I62  1  0.17052410  0.66449603  0.83406160  1
  I  I63  1  0.50013992  0.00173761  0.16833135  1
  I  I64  1  0.49952085  0.00184018  0.49855294  1
  I  I65  1  0.49761280  -0.00195692  0.83303130  1
  I  I66  1  0.49440848  0.33434580  0.16936989  1
  I  I67  1  0.50498613  0.33431888  0.49807300  1
  I  I68  1  0.50063894  0.33369654  0.83289365  1
  I  I69  1  0.49798376  0.66371600  0.17017277  1
  I  I70  1  0.50038998  0.66390026  0.49688096  1
  I  I71  1  0.49800026  0.66951573  0.83293279  1
  I  I72  1  0.83731517  -0.00402176  0.17223305  1
  I  I73  1  0.83493333  -0.00295547  0.49850461  1
  I  I74  1  0.83805016  0.00245458  0.83158225  1
  I  I75  1  0.83535924  0.33333293  0.16754962  1
  I  I76  1  0.83071348  0.33575398  0.50224679  1
  I  I77  1  0.83186837  0.33000935  0.83244008  1
  I  I78  1  0.83167208  0.66986194  0.16730943  1
  I  I79  1  0.83024765  0.66746298  0.49760487  1
  I  I80  1  0.83294740  0.66642628  0.83409623  1
  I  I81  1  0.16690010  0.16475152  -0.00304648  1
  I  I82  1  0.16653267  0.16854651  0.33336430  1
  I  I83  1  0.16620243  0.17086623  0.67008977  1
  I  I84  1  0.17294873  0.50255965  0.00117678  1
  I  I85  1  0.16941788  0.50426001  0.33048229  1
  I  I86  1  0.16743062  0.49868438  0.66842852  1
  I  I87  1  0.16490719  0.83227309  0.00283572  1
  I  I88  1  0.16507804  0.82738805  0.33252171  1
  I  I89  1  0.16492232  0.83289368  0.66460378  1
  I  I90  1  0.49962609  0.16834218  0.00232452  1
  I  I91  1  0.50004344  0.16840040  0.33335384  1
  I  I92  1  0.50017351  0.16849583  0.66449094  1
  I  I93  1  0.49728370  0.49727927  0.00291799  1
  I  I94  1  0.49726673  0.49733746  0.33318862  1
  I  I95  1  0.50184182  0.49748176  0.66383968  1
  I  I96  1  0.49870131  0.83597997  -0.00229570  1
  I  I97  1  0.49964779  0.83455986  0.33325092  1
  I  I98  1  0.49850275  0.83547011  0.66885640  1
  I  I99  1  0.83467366  0.16416764  -0.00313312  1
  I  I100  1  0.83335845  0.16737081  0.33330842  1
  I  I101  1  0.83432639  0.16396168  0.66926467  1
  I  I102  1  0.83041896  0.50129391  0.00006511  1
  I  I103  1  0.83289715  0.50206594  0.33680038  1
  I  I104  1  0.82744487  0.50713020  0.66273873  1
  I  I105  1  0.83600536  0.83500045  0.00249821  1
  I  I106  1  0.83566405  0.83028277  0.33405892  1
  I  I107  1  0.83612368  0.83108304  0.66361835  1
  I  I108  1  -0.00001002  0.16838721  0.16631254  1
  I  I109  1  0.00013798  0.16872074  0.50073669  1
  I  I110  1  0.00084513  0.16797115  0.83267927  1
  I  I111  1  0.00299615  0.50391034  0.16331284  1
  I  I112  1  -0.00217908  0.50423416  0.50178433  1
  I  I113  1  0.00423809  0.50120599  0.83849625  1
  I  I114  1  0.00104323  0.82794021  0.16903374  1
  I  I115  1  -0.00057541  0.82725584  0.49831531  1
  I  I116  1  -0.00003007  0.83322352  0.83280123  1
  I  I117  1  0.33656607  0.16469606  0.16725982  1
  I  I118  1  0.33727368  0.17138543  0.49926115  1
  I  I119  1  0.33111624  0.16780291  0.83328589  1
  I  I120  1  0.33343315  0.50271743  0.16831296  1
  I  I121  1  0.33585329  0.49845585  0.49976674  1
  I  I122  1  0.33028531  0.49506035  0.83223270  1
  I  I123  1  0.33075235  0.83234466  0.16904072  1
  I  I124  1  0.33122679  0.83310180  0.49801001  1
  I  I125  1  0.33537301  0.83647813  0.83245943  1
  I  I126  1  0.66255419  0.17030210  0.16734252  1
  I  I127  1  0.66326005  0.16493089  0.49999649  1
  I  I128  1  0.66809650  0.16202244  0.83249891  1
  I  I129  1  0.66393424  0.49849622  0.16861528  1
  I  I130  1  0.66561846  0.50288917  0.49549201  1
  I  I131  1  0.66681562  0.49970528  0.83531858  1
  I  I132  1  0.66881527  0.83436505  0.16967058  1
  I  I133  1  0.66921350  0.83277195  0.49740894  1
  I  I134  1  0.66388566  0.83678655  0.83343928  1
