# generated using pymatgen
data_Cs27Sn14Pb13I81
_symmetry_space_group_name_H-M   'P 1'
_cell_length_a   18.98406309
_cell_length_b   18.96800155
_cell_length_c   18.97395153
_cell_angle_alpha   89.99844470
_cell_angle_beta   89.99941523
_cell_angle_gamma   89.99946892
_symmetry_Int_Tables_number   1
_chemical_formula_structural   Cs27Sn14Pb13I81
_chemical_formula_sum   'Cs27 Sn14 Pb13 I81'
_cell_volume   6832.32523182
_cell_formula_units_Z   1
loop_
 _symmetry_equiv_pos_site_id
 _symmetry_equiv_pos_as_xyz
  1  'x, y, z'
loop_
 _atom_site_type_symbol
 _atom_site_label
 _atom_site_symmetry_multiplicity
 _atom_site_fract_x
 _atom_site_fract_y
 _atom_site_fract_z
 _atom_site_occupancy
  Cs  Cs0  1  -0.00029332  -0.00002108  0.00016731  1
  Cs  Cs1  1  0.00341695  -0.00077440  0.34056569  1
  Cs  Cs2  1  -0.00138859  -0.00336025  0.65617615  1
  Cs  Cs3  1  -0.00102714  0.33374970  -0.00015420  1
  Cs  Cs4  1  -0.00017770  0.33481661  0.33431297  1
  Cs  Cs5  1  0.00066413  0.33173571  0.66575827  1
  Cs  Cs6  1  0.00133782  0.66736312  0.00055652  1
  Cs  Cs7  1  0.00035332  0.66152308  0.32968920  1
  Cs  Cs8  1  -0.00007937  0.67108190  0.67127523  1
  Cs  Cs9  1  0.33179184  0.00356298  0.00166296  1
  Cs  Cs10  1  0.32948037  -0.00105086  0.33418253  1
  Cs  Cs11  1  0.33328887  -0.00308021  0.66176934  1
  Cs  Cs12  1  0.33250978  0.33110377  -0.00141739  1
  Cs  Cs13  1  0.33332681  0.33304487  0.33259336  1
  Cs  Cs14  1  0.33477451  0.33476464  0.66875158  1
  Cs  Cs15  1  0.32938894  0.66816754  -0.00559046  1
  Cs  Cs16  1  0.33346227  0.66783603  0.33418467  1
  Cs  Cs17  1  0.34357541  0.67109190  0.67515386  1
  Cs  Cs18  1  0.66637616  0.00267851  0.00070776  1
  Cs  Cs19  1  0.66668732  0.00036297  0.33253244  1
  Cs  Cs20  1  0.66843642  -0.00630916  0.66523617  1
  Cs  Cs21  1  0.66889344  0.33119746  0.00166997  1
  Cs  Cs22  1  0.66688348  0.33432120  0.33145287  1
  Cs  Cs23  1  0.66576321  0.33340701  0.66680358  1
  Cs  Cs24  1  0.66836894  0.66802078  0.00180395  1
  Cs  Cs25  1  0.66550794  0.66456418  0.33256235  1
  Cs  Cs26  1  0.65823105  0.67496083  0.66579160  1
  Sn  Sn27  1  0.50044879  0.16690921  0.83183142  1
  Sn  Sn28  1  0.16656360  0.50008953  0.50024137  1
  Sn  Sn29  1  0.16519187  0.16769951  0.16607515  1
  Sn  Sn30  1  0.49947031  0.50084071  0.16624909  1
  Sn  Sn31  1  0.83382914  0.16733339  0.83355178  1
  Sn  Sn32  1  0.50043423  0.83233587  0.16638659  1
  Sn  Sn33  1  0.16573704  0.16676757  0.83355692  1
  Sn  Sn34  1  0.16692671  0.49890508  0.16712842  1
  Sn  Sn35  1  0.83300769  0.49951874  0.83290110  1
  Sn  Sn36  1  0.50032566  0.16720627  0.50095221  1
  Sn  Sn37  1  0.83339029  0.49978571  0.16642940  1
  Sn  Sn38  1  0.83381204  0.49989339  0.50081028  1
  Sn  Sn39  1  0.83465796  0.16632169  0.16643615  1
  Sn  Sn40  1  0.83284854  0.83367201  0.16671695  1
  Pb  Pb41  1  0.83165818  0.16859185  0.50001708  1
  Pb  Pb42  1  0.83346798  0.82948076  0.49683289  1
  Pb  Pb43  1  0.16676881  0.82866284  0.49993126  1
  Pb  Pb44  1  0.16453248  0.49836623  0.83322775  1
  Pb  Pb45  1  0.16630826  0.83325219  0.16666530  1
  Pb  Pb46  1  0.50012339  0.83662809  0.83652625  1
  Pb  Pb47  1  0.16633498  0.83704989  0.83341457  1
  Pb  Pb48  1  0.50277305  0.49798738  0.83622186  1
  Pb  Pb49  1  0.49984754  0.16678142  0.16635844  1
  Pb  Pb50  1  0.49981413  0.49867682  0.49819350  1
  Pb  Pb51  1  0.50010991  0.83607222  0.49694022  1
  Pb  Pb52  1  0.16855696  0.16877352  0.49994972  1
  Pb  Pb53  1  0.83343848  0.83378576  0.83556262  1
  I  I54  1  0.16549212  0.00344119  0.16163267  1
  I  I55  1  0.16877582  0.00025981  0.49937564  1
  I  I56  1  0.16512344  0.00584287  0.84267087  1
  I  I57  1  0.16432263  0.33355691  0.16657763  1
  I  I58  1  0.16243132  0.33644509  0.49608917  1
  I  I59  1  0.16868070  0.32996211  0.83622336  1
  I  I60  1  0.16403801  0.66311705  0.17134922  1
  I  I61  1  0.16174204  0.66087448  0.48911488  1
  I  I62  1  0.16481520  0.66625929  0.83411877  1
  I  I63  1  0.50417607  -0.00161931  0.16615080  1
  I  I64  1  0.50017515  0.00408634  0.50214590  1
  I  I65  1  0.50322610  0.00494310  0.83278543  1
  I  I66  1  0.50283916  0.33560232  0.16702948  1
  I  I67  1  0.50042245  0.33078730  0.50004638  1
  I  I68  1  0.49829419  0.32973715  0.83350340  1
  I  I69  1  0.50494452  0.66543277  0.16860710  1
  I  I70  1  0.50000136  0.66659017  0.49991283  1
  I  I71  1  0.50109961  0.66655195  0.83194479  1
  I  I72  1  0.83105385  0.00132661  0.16043814  1
  I  I73  1  0.83138644  -0.00005343  0.49969192  1
  I  I74  1  0.83234653  0.00397646  0.83972586  1
  I  I75  1  0.83279965  0.33398381  0.16598349  1
  I  I76  1  0.83570861  0.33657698  0.49363288  1
  I  I77  1  0.83287771  0.33250570  0.83983039  1
  I  I78  1  0.83250199  0.66485151  0.16711503  1
  I  I79  1  0.83649549  0.66128991  0.49944839  1
  I  I80  1  0.83462948  0.66344731  0.83544281  1
  I  I81  1  0.16868855  0.17239741  0.00122699  1
  I  I82  1  0.16435549  0.16836532  0.33017419  1
  I  I83  1  0.16457830  0.16879470  0.66944085  1
  I  I84  1  0.16614034  0.49806054  0.00329203  1
  I  I85  1  0.16142439  0.49388810  0.33107792  1
  I  I86  1  0.16044573  0.49629490  0.66426557  1
  I  I87  1  0.16705885  0.82845344  0.00051869  1
  I  I88  1  0.16730222  0.84039819  0.33287587  1
  I  I89  1  0.16617669  0.83431424  0.66656375  1
  I  I90  1  0.50034605  0.16671691  -0.00198118  1
  I  I91  1  0.50037247  0.16724957  0.33447952  1
  I  I92  1  0.49985966  0.16963608  0.66774022  1
  I  I93  1  0.49958035  0.50043412  0.00457452  1
  I  I94  1  0.50501396  0.49911674  0.32968503  1
  I  I95  1  0.49989624  0.49920106  0.66702950  1
  I  I96  1  0.50511658  0.83105175  0.00420973  1
  I  I97  1  0.50476246  0.83184647  0.32909080  1
  I  I98  1  0.49921720  0.83213318  0.66679949  1
  I  I99  1  0.83120583  0.17116468  0.00101506  1
  I  I100  1  0.83480543  0.16795882  0.32981280  1
  I  I101  1  0.83508757  0.17260325  0.66977720  1
  I  I102  1  0.83262251  0.49868354  0.00167388  1
  I  I103  1  0.83379797  0.49987964  0.33134610  1
  I  I104  1  0.83933804  0.49119606  0.66699509  1
  I  I105  1  0.82949959  0.82927121  0.00403100  1
  I  I106  1  0.82903158  0.83560259  0.32850024  1
  I  I107  1  0.83379162  0.83401097  0.66651176  1
  I  I108  1  -0.00079636  0.16992861  0.15947894  1
  I  I109  1  -0.00000096  0.16571485  0.50154988  1
  I  I110  1  -0.00088108  0.17202400  0.84100397  1
  I  I111  1  -0.00107049  0.49951260  0.16750145  1
  I  I112  1  -0.00070248  0.49742211  0.49247147  1
  I  I113  1  -0.00356103  0.49381922  0.83887869  1
  I  I114  1  -0.00309998  0.83056251  0.16551374  1
  I  I115  1  -0.00012686  0.83941655  0.49787413  1
  I  I116  1  -0.00035915  0.83348767  0.83741043  1
  I  I117  1  0.33111716  0.16981649  0.16408084  1
  I  I118  1  0.33615643  0.16977596  0.50134571  1
  I  I119  1  0.33305076  0.16672113  0.83633572  1
  I  I120  1  0.33257898  0.49804823  0.17250812  1
  I  I121  1  0.33071826  0.49599908  0.49208515  1
  I  I122  1  0.33339683  0.49771976  0.83388620  1
  I  I123  1  0.33591566  0.83161807  0.16704749  1
  I  I124  1  0.33358922  0.83351882  0.49597204  1
  I  I125  1  0.33351809  0.83274023  0.83649158  1
  I  I126  1  0.66931367  0.16953297  0.16432386  1
  I  I127  1  0.66404240  0.17039775  0.50113424  1
  I  I128  1  0.66776321  0.17123851  0.83618692  1
  I  I129  1  0.66822480  0.49915342  0.16703846  1
  I  I130  1  0.66939592  0.49694246  0.49678649  1
  I  I131  1  0.67085177  0.49289926  0.83453215  1
  I  I132  1  0.66758042  0.83051660  0.16626823  1
  I  I133  1  0.66680734  0.83163279  0.50070007  1
  I  I134  1  0.66673121  0.83519490  0.83297361  1
