# generated using pymatgen
data_Cs27Sn14Pb13I81
_symmetry_space_group_name_H-M   'P 1'
_cell_length_a   18.97681933
_cell_length_b   18.97578903
_cell_length_c   18.97497947
_cell_angle_alpha   89.99810459
_cell_angle_beta   90.00004747
_cell_angle_gamma   90.00048016
_symmetry_Int_Tables_number   1
_chemical_formula_structural   Cs27Sn14Pb13I81
_chemical_formula_sum   'Cs27 Sn14 Pb13 I81'
_cell_volume   6832.89238319
_cell_formula_units_Z   1
loop_
 _symmetry_equiv_pos_site_id
 _symmetry_equiv_pos_as_xyz
  1  'x, y, z'
loop_
 _atom_site_type_symbol
 _atom_site_label
 _atom_site_symmetry_multiplicity
 _atom_site_fract_x
 _atom_site_fract_y
 _atom_site_fract_z
 _atom_site_occupancy
  Cs  Cs0  1  0.00432578  0.00201260  0.00750880  1
  Cs  Cs1  1  0.00205173  -0.00043076  0.33194832  1
  Cs  Cs2  1  -0.00051535  0.00091075  0.66633334  1
  Cs  Cs3  1  -0.00629403  0.32762961  0.00470731  1
  Cs  Cs4  1  0.00084001  0.33573436  0.33365013  1
  Cs  Cs5  1  0.00089268  0.33286279  0.66522935  1
  Cs  Cs6  1  0.00011828  0.67026459  0.00233478  1
  Cs  Cs7  1  -0.00282810  0.66499085  0.33356626  1
  Cs  Cs8  1  0.00048304  0.66604475  0.66588404  1
  Cs  Cs9  1  0.32686631  -0.00058133  0.00583049  1
  Cs  Cs10  1  0.33407716  0.00292213  0.33312940  1
  Cs  Cs11  1  0.33172292  -0.00060064  0.66478845  1
  Cs  Cs12  1  0.33651309  0.33459322  -0.00023337  1
  Cs  Cs13  1  0.33364140  0.33425192  0.33227845  1
  Cs  Cs14  1  0.33234673  0.33537145  0.67059997  1
  Cs  Cs15  1  0.33332184  0.66628275  -0.00293937  1
  Cs  Cs16  1  0.33676698  0.66436091  0.33428139  1
  Cs  Cs17  1  0.33172334  0.66503704  0.66929096  1
  Cs  Cs18  1  0.66895234  0.00626209  -0.00309439  1
  Cs  Cs19  1  0.66266081  -0.00228261  0.33645018  1
  Cs  Cs20  1  0.66794678  -0.00135720  0.66552205  1
  Cs  Cs21  1  0.66923805  0.32569969  -0.00472761  1
  Cs  Cs22  1  0.66487816  0.33578642  0.33239362  1
  Cs  Cs23  1  0.66679832  0.33155388  0.66950161  1
  Cs  Cs24  1  0.66561801  0.66582543  0.00060807  1
  Cs  Cs25  1  0.66614879  0.66655552  0.33382258  1
  Cs  Cs26  1  0.66700535  0.66801216  0.66574066  1
  Sn  Sn27  1  0.50040504  0.83266819  0.16647891  1
  Sn  Sn28  1  0.49936130  0.50082639  0.16700322  1
  Sn  Sn29  1  0.16726214  0.50048820  0.16655295  1
  Sn  Sn30  1  0.83357841  0.50102557  0.83253558  1
  Sn  Sn31  1  0.50046433  0.83347672  0.83326247  1
  Sn  Sn32  1  0.16667160  0.83367398  0.50014583  1
  Sn  Sn33  1  0.49958698  0.83229176  0.50032606  1
  Sn  Sn34  1  0.50071654  0.50069669  0.49994653  1
  Sn  Sn35  1  0.83293615  0.83251335  0.83278216  1
  Sn  Sn36  1  0.16607299  0.16617533  0.50102536  1
  Sn  Sn37  1  0.16673227  0.16670314  0.83246515  1
  Sn  Sn38  1  0.83369949  0.83331440  0.50064242  1
  Sn  Sn39  1  0.83228310  0.49989650  0.50099338  1
  Sn  Sn40  1  0.83394357  0.16662633  0.50007089  1
  Pb  Pb41  1  0.83068234  0.83340377  0.16656693  1
  Pb  Pb42  1  0.50011148  0.16698435  0.16670486  1
  Pb  Pb43  1  0.16680438  0.49992923  0.49913514  1
  Pb  Pb44  1  0.50203232  0.50181171  0.83324887  1
  Pb  Pb45  1  0.16687239  0.16921259  0.16765367  1
  Pb  Pb46  1  0.83308287  0.16626166  0.17059762  1
  Pb  Pb47  1  0.49723341  0.16306512  0.83307610  1
  Pb  Pb48  1  0.83214871  0.50016763  0.16647461  1
  Pb  Pb49  1  0.83524290  0.16570682  0.83108698  1
  Pb  Pb50  1  0.49972215  0.16715562  0.50018784  1
  Pb  Pb51  1  0.16916043  0.83089659  0.16976508  1
  Pb  Pb52  1  0.16338765  0.49790759  0.83612320  1
  Pb  Pb53  1  0.16603703  0.83468164  0.83145079  1
  I  I54  1  0.16772067  -0.00021811  0.16519108  1
  I  I55  1  0.16407325  -0.00049631  0.50320607  1
  I  I56  1  0.16562214  0.00257395  0.83072586  1
  I  I57  1  0.17326565  0.33674709  0.16972931  1
  I  I58  1  0.16284087  0.33095769  0.50116123  1
  I  I59  1  0.16549211  0.33031381  0.82462528  1
  I  I60  1  0.16776366  0.66348942  0.16844220  1
  I  I61  1  0.16488463  0.66929152  0.49789356  1
  I  I62  1  0.16805741  0.66673474  0.83274089  1
  I  I63  1  0.50107438  -0.00366659  0.16940177  1
  I  I64  1  0.50240585  -0.00353983  0.49911028  1
  I  I65  1  0.50837140  -0.00516119  0.83105092  1
  I  I66  1  0.49603770  0.33725712  0.17374911  1
  I  I67  1  0.50288924  0.33682443  0.49396805  1
  I  I68  1  0.50129660  0.33340859  0.83388042  1
  I  I69  1  0.49606706  0.66660723  0.16953484  1
  I  I70  1  0.50272444  0.66768046  0.49847570  1
  I  I71  1  0.50035464  0.67009562  0.83217955  1
  I  I72  1  0.83211752  -0.00037657  0.16507479  1
  I  I73  1  0.83304816  -0.00136312  0.50371555  1
  I  I74  1  0.82875336  -0.00333224  0.82818330  1
  I  I75  1  0.83175123  0.33359364  0.16549409  1
  I  I76  1  0.83407166  0.33425610  0.50310084  1
  I  I77  1  0.83482741  0.33547312  0.82996110  1
  I  I78  1  0.83701534  0.66665223  0.17105337  1
  I  I79  1  0.83287422  0.66707412  0.50320942  1
  I  I80  1  0.83013943  0.66749628  0.82459995  1
  I  I81  1  0.16678500  0.16693169  -0.00219544  1
  I  I82  1  0.16235451  0.16288888  0.33690886  1
  I  I83  1  0.16262434  0.16307021  0.66471294  1
  I  I84  1  0.17367685  0.49918957  0.00352142  1
  I  I85  1  0.16668715  0.49872711  0.33139865  1
  I  I86  1  0.16913029  0.50079078  0.66666777  1
  I  I87  1  0.16649109  0.83560695  0.00017166  1
  I  I88  1  0.16470557  0.83989439  0.33804984  1
  I  I89  1  0.17097840  0.83388033  0.66296195  1
  I  I90  1  0.49830351  0.16768635  -0.00026688  1
  I  I91  1  0.49885146  0.16213255  0.33379017  1
  I  I92  1  0.50099982  0.16780740  0.66642723  1
  I  I93  1  0.49641837  0.50508898  0.00256564  1
  I  I94  1  0.50187991  0.50725256  0.33451055  1
  I  I95  1  0.50201542  0.50403745  0.66363504  1
  I  I96  1  0.50449960  0.82865405  -0.00008929  1
  I  I97  1  0.50015365  0.82960576  0.33487375  1
  I  I98  1  0.50112070  0.83011070  0.66520322  1
  I  I99  1  0.83508646  0.16775302  -0.00048455  1
  I  I100  1  0.84030139  0.16700883  0.33905480  1
  I  I101  1  0.83544435  0.16658636  0.66294696  1
  I  I102  1  0.83470740  0.50515058  -0.00297952  1
  I  I103  1  0.83287157  0.50066456  0.33681790  1
  I  I104  1  0.82829852  0.50079614  0.66469445  1
  I  I105  1  0.82916520  0.82744799  -0.00347867  1
  I  I106  1  0.83319953  0.83245120  0.33725714  1
  I  I107  1  0.82824032  0.83295485  0.66508394  1
  I  I108  1  0.00022870  0.16915438  0.16410426  1
  I  I109  1  -0.00012017  0.16377222  0.50390184  1
  I  I110  1  0.00271657  0.16567877  0.82995918  1
  I  I111  1  0.00161595  0.49736996  0.16817801  1
  I  I112  1  -0.00279316  0.50241146  0.50116901  1
  I  I113  1  -0.00424344  0.50696913  0.82622263  1
  I  I114  1  0.00019508  0.83242570  0.16644420  1
  I  I115  1  -0.00112155  0.83335733  0.50517557  1
  I  I116  1  -0.00323054  0.83032262  0.82684769  1
  I  I117  1  0.33325118  0.16445237  0.16939259  1
  I  I118  1  0.33030444  0.16240935  0.50223154  1
  I  I119  1  0.32962430  0.16657134  0.82508183  1
  I  I120  1  0.33493043  0.50288189  0.17377257  1
  I  I121  1  0.33604509  0.50340421  0.49679381  1
  I  I122  1  0.33334818  0.50007483  0.83106829  1
  I  I123  1  0.33724114  0.83210737  0.16587912  1
  I  I124  1  0.33443126  0.83379067  0.49981628  1
  I  I125  1  0.33595149  0.83520248  0.83172333  1
  I  I126  1  0.66660195  0.16971617  0.16632054  1
  I  I127  1  0.66957527  0.16416240  0.49972454  1
  I  I128  1  0.66701435  0.16872788  0.83345223  1
  I  I129  1  0.66326921  0.50562265  0.17030894  1
  I  I130  1  0.66684263  0.50300847  0.49701767  1
  I  I131  1  0.67004293  0.50062005  0.83299930  1
  I  I132  1  0.66264860  0.82504337  0.17278079  1
  I  I133  1  0.66658629  0.83337372  0.49967698  1
  I  I134  1  0.66698102  0.82955353  0.82803115  1
