# generated using pymatgen
data_Cs27Sn13Pb14I81
_symmetry_space_group_name_H-M   'P 1'
_cell_length_a   18.98227050
_cell_length_b   18.99875379
_cell_length_c   18.99308666
_cell_angle_alpha   89.99994173
_cell_angle_beta   90.00112521
_cell_angle_gamma   89.99969565
_symmetry_Int_Tables_number   1
_chemical_formula_structural   Cs27Sn13Pb14I81
_chemical_formula_sum   'Cs27 Sn13 Pb14 I81'
_cell_volume   6849.65696660
_cell_formula_units_Z   1
loop_
 _symmetry_equiv_pos_site_id
 _symmetry_equiv_pos_as_xyz
  1  'x, y, z'
loop_
 _atom_site_type_symbol
 _atom_site_label
 _atom_site_symmetry_multiplicity
 _atom_site_fract_x
 _atom_site_fract_y
 _atom_site_fract_z
 _atom_site_occupancy
  Cs  Cs0  1  -0.00052791  -0.00010742  -0.00119678  1
  Cs  Cs1  1  0.00327912  0.00056387  0.32872438  1
  Cs  Cs2  1  0.00258996  0.00280570  0.67035616  1
  Cs  Cs3  1  -0.00079468  0.33530323  -0.00092402  1
  Cs  Cs4  1  -0.00044563  0.33235404  0.33469763  1
  Cs  Cs5  1  -0.00164500  0.33079578  0.66716049  1
  Cs  Cs6  1  0.00209318  0.66509063  -0.00219036  1
  Cs  Cs7  1  -0.00224183  0.66653361  0.33422415  1
  Cs  Cs8  1  -0.00186794  0.66623073  0.66838452  1
  Cs  Cs9  1  0.33556703  0.00040837  -0.00109969  1
  Cs  Cs10  1  0.32791390  -0.00131409  0.33516746  1
  Cs  Cs11  1  0.33241516  -0.00005829  0.66663259  1
  Cs  Cs12  1  0.34058334  0.34231083  0.00139590  1
  Cs  Cs13  1  0.33366107  0.33514474  0.33680453  1
  Cs  Cs14  1  0.33578278  0.33352132  0.66361509  1
  Cs  Cs15  1  0.33714203  0.65628055  0.00127539  1
  Cs  Cs16  1  0.33372357  0.66505331  0.33219738  1
  Cs  Cs17  1  0.33492827  0.66679669  0.66733093  1
  Cs  Cs18  1  0.66110450  0.00235485  0.00770675  1
  Cs  Cs19  1  0.66694980  -0.00674696  0.32466655  1
  Cs  Cs20  1  0.66344328  -0.00036241  0.66761188  1
  Cs  Cs21  1  0.66248074  0.33057115  0.00290132  1
  Cs  Cs22  1  0.66707137  0.33225747  0.33358997  1
  Cs  Cs23  1  0.66853473  0.33279753  0.66564363  1
  Cs  Cs24  1  0.66043457  0.66631616  0.00149797  1
  Cs  Cs25  1  0.66927680  0.67654398  0.33684209  1
  Cs  Cs26  1  0.66798712  0.67033413  0.66234745  1
  Sn  Sn27  1  0.16609190  0.83193940  0.50054539  1
  Sn  Sn28  1  0.49985740  0.49949683  0.50009584  1
  Sn  Sn29  1  0.16637766  0.83357957  0.16557011  1
  Sn  Sn30  1  0.16651464  0.16672266  0.83495250  1
  Sn  Sn31  1  0.83370350  0.83401225  0.83358550  1
  Sn  Sn32  1  0.50172742  0.16666605  0.49994111  1
  Sn  Sn33  1  0.16663015  0.16687871  0.16460728  1
  Sn  Sn34  1  0.83331757  0.49985068  0.83438421  1
  Sn  Sn35  1  0.83370812  0.16611397  0.83292977  1
  Sn  Sn36  1  0.16635283  0.83369078  0.83394306  1
  Sn  Sn37  1  0.16674364  0.50097340  0.50047692  1
  Sn  Sn38  1  0.83207832  0.16596350  0.50007620  1
  Sn  Sn39  1  0.83351258  0.49997077  0.16586628  1
  Pb  Pb40  1  0.83318616  0.49860930  0.50030076  1
  Pb  Pb41  1  0.83577407  0.83115908  0.16348852  1
  Pb  Pb42  1  0.83607954  0.83686681  0.50211721  1
  Pb  Pb43  1  0.50375723  0.49993307  0.83044624  1
  Pb  Pb44  1  0.49644810  0.83327054  0.16651828  1
  Pb  Pb45  1  0.83521381  0.16795766  0.16604188  1
  Pb  Pb46  1  0.49755003  0.83377483  0.50005992  1
  Pb  Pb47  1  0.49943671  0.83341976  0.83341265  1
  Pb  Pb48  1  0.16639889  0.16651557  0.50052588  1
  Pb  Pb49  1  0.16522862  0.49961325  0.83112581  1
  Pb  Pb50  1  0.16515774  0.49989143  0.16888623  1
  Pb  Pb51  1  0.49645264  0.16673312  0.16983937  1
  Pb  Pb52  1  0.50349648  0.50001194  0.17008815  1
  Pb  Pb53  1  0.49974596  0.16670523  0.83150818  1
  I  I54  1  0.16499095  -0.00018571  0.17054248  1
  I  I55  1  0.16622997  -0.00217172  0.49985044  1
  I  I56  1  0.15838795  -0.00005259  0.83031714  1
  I  I57  1  0.16386134  0.33080405  0.16494863  1
  I  I58  1  0.16703365  0.33498527  0.49960732  1
  I  I59  1  0.16086016  0.33034068  0.83464462  1
  I  I60  1  0.16445832  0.66943947  0.16505813  1
  I  I61  1  0.17171741  0.66694072  0.49988662  1
  I  I62  1  0.16174042  0.66952055  0.83413245  1
  I  I63  1  0.50430608  0.00023519  0.16949680  1
  I  I64  1  0.50168947  0.00297068  0.50176959  1
  I  I65  1  0.50302725  0.00016144  0.82892469  1
  I  I66  1  0.49659931  0.33340283  0.16550521  1
  I  I67  1  0.49586981  0.33321678  0.50096763  1
  I  I68  1  0.49806173  0.33337437  0.83321790  1
  I  I69  1  0.49798680  0.66635649  0.16866106  1
  I  I70  1  0.49754655  0.66401169  0.50025017  1
  I  I71  1  0.49894543  0.66651167  0.83055837  1
  I  I72  1  0.83278998  -0.00022380  0.16826602  1
  I  I73  1  0.82961157  0.00462687  0.50509862  1
  I  I74  1  0.84029822  0.00061750  0.82562039  1
  I  I75  1  0.83774744  0.33559927  0.16237879  1
  I  I76  1  0.83619999  0.33086657  0.50565141  1
  I  I77  1  0.83874751  0.33239700  0.83146389  1
  I  I78  1  0.83645534  0.66350111  0.16412231  1
  I  I79  1  0.83116331  0.66702750  0.50070913  1
  I  I80  1  0.83931576  0.66699788  0.83691606  1
  I  I81  1  0.15863027  0.15771062  -0.00125756  1
  I  I82  1  0.16657787  0.16342269  0.33188493  1
  I  I83  1  0.16487118  0.16365680  0.66912162  1
  I  I84  1  0.16657465  0.50213441  -0.00016279  1
  I  I85  1  0.16695008  0.50220427  0.33682815  1
  I  I86  1  0.16721818  0.50264288  0.66320913  1
  I  I87  1  0.16068230  0.83998638  -0.00092162  1
  I  I88  1  0.16848883  0.83521563  0.33339340  1
  I  I89  1  0.16312300  0.83450242  0.66732427  1
  I  I90  1  0.50252991  0.16599349  0.00024334  1
  I  I91  1  0.50455217  0.17203919  0.33778929  1
  I  I92  1  0.49818753  0.17099392  0.66344986  1
  I  I93  1  0.49788380  0.50084720  0.00014763  1
  I  I94  1  0.49574784  0.49442879  0.33755739  1
  I  I95  1  0.49622637  0.49562126  0.66285094  1
  I  I96  1  0.49951409  0.83367878  -0.00003881  1
  I  I97  1  0.49955040  0.83308395  0.33359688  1
  I  I98  1  0.49721915  0.83256397  0.66644246  1
  I  I99  1  0.83755449  0.16542550  -0.00355754  1
  I  I100  1  0.83291275  0.17183172  0.33565794  1
  I  I101  1  0.83697491  0.17014116  0.66773323  1
  I  I102  1  0.83766849  0.49782673  -0.00134387  1
  I  I103  1  0.83500291  0.49641924  0.33184892  1
  I  I104  1  0.83415050  0.50092880  0.66930412  1
  I  I105  1  0.84060450  0.83883892  -0.00443053  1
  I  I106  1  0.83458234  0.83167229  0.33320058  1
  I  I107  1  0.83977174  0.82699526  0.67002089  1
  I  I108  1  0.00318237  0.16326285  0.16974139  1
  I  I109  1  -0.00198067  0.16805530  0.50196635  1
  I  I110  1  -0.00023782  0.16611872  0.82947406  1
  I  I111  1  -0.00242624  0.49958780  0.16566030  1
  I  I112  1  0.00216403  0.50205834  0.49990077  1
  I  I113  1  -0.00292772  0.49965479  0.83274385  1
  I  I114  1  0.00380447  0.83731033  0.17021706  1
  I  I115  1  0.00411731  0.82755339  0.49805721  1
  I  I116  1  0.00089946  0.83415995  0.83213269  1
  I  I117  1  0.32831228  0.16243814  0.16248921  1
  I  I118  1  0.33485134  0.16821692  0.49932607  1
  I  I119  1  0.32964331  0.15972166  0.83402898  1
  I  I120  1  0.33336158  0.50059003  0.16653162  1
  I  I121  1  0.33256886  0.49664698  0.49963879  1
  I  I122  1  0.33339895  0.50033830  0.83367532  1
  I  I123  1  0.32783406  0.83719689  0.16579632  1
  I  I124  1  0.32897778  0.83528916  0.50268249  1
  I  I125  1  0.32881654  0.84003731  0.83149348  1
  I  I126  1  0.66663609  0.16859455  0.16494094  1
  I  I127  1  0.66738127  0.17538202  0.50754282  1
  I  I128  1  0.67024802  0.16687652  0.82932764  1
  I  I129  1  0.67102451  0.49750729  0.16178277  1
  I  I130  1  0.66453919  0.49520250  0.50091152  1
  I  I131  1  0.67198699  0.49907732  0.83540238  1
  I  I132  1  0.66714471  0.83186968  0.16648025  1
  I  I133  1  0.66705724  0.82997450  0.50202178  1
  I  I134  1  0.67024902  0.83310107  0.83087921  1
