# generated using pymatgen
data_Cs27Sn14Pb13I81
_symmetry_space_group_name_H-M   'P 1'
_cell_length_a   18.95658670
_cell_length_b   18.96521254
_cell_length_c   18.96151074
_cell_angle_alpha   90.00143325
_cell_angle_beta   90.00233207
_cell_angle_gamma   90.00046698
_symmetry_Int_Tables_number   1
_chemical_formula_structural   Cs27Sn14Pb13I81
_chemical_formula_sum   'Cs27 Sn14 Pb13 I81'
_cell_volume   6816.96072219
_cell_formula_units_Z   1
loop_
 _symmetry_equiv_pos_site_id
 _symmetry_equiv_pos_as_xyz
  1  'x, y, z'
loop_
 _atom_site_type_symbol
 _atom_site_label
 _atom_site_symmetry_multiplicity
 _atom_site_fract_x
 _atom_site_fract_y
 _atom_site_fract_z
 _atom_site_occupancy
  Cs  Cs0  1  0.00094388  0.00358257  0.00107539  1
  Cs  Cs1  1  -0.00059470  -0.00060475  0.33226546  1
  Cs  Cs2  1  0.00149095  -0.00094213  0.66609290  1
  Cs  Cs3  1  -0.00297770  0.32785276  -0.00233024  1
  Cs  Cs4  1  -0.00070824  0.33492125  0.33458749  1
  Cs  Cs5  1  0.00084572  0.33648770  0.66654854  1
  Cs  Cs6  1  0.00299190  0.66740237  0.00464783  1
  Cs  Cs7  1  -0.00020738  0.66401719  0.33425210  1
  Cs  Cs8  1  -0.00591532  0.66498146  0.66280206  1
  Cs  Cs9  1  0.33136568  -0.00105370  -0.00075643  1
  Cs  Cs10  1  0.33499959  -0.00030320  0.33463555  1
  Cs  Cs11  1  0.33328526  0.00159957  0.66602767  1
  Cs  Cs12  1  0.33384433  0.33447600  -0.00037447  1
  Cs  Cs13  1  0.33528126  0.33514304  0.33462166  1
  Cs  Cs14  1  0.33109858  0.32944267  0.66536287  1
  Cs  Cs15  1  0.33577903  0.66424656  0.00193078  1
  Cs  Cs16  1  0.33245833  0.66575850  0.33082830  1
  Cs  Cs17  1  0.33389844  0.66797642  0.66800785  1
  Cs  Cs18  1  0.66936671  -0.00031849  0.00085301  1
  Cs  Cs19  1  0.66470800  -0.00011309  0.33325224  1
  Cs  Cs20  1  0.66667785  -0.00475481  0.66607395  1
  Cs  Cs21  1  0.66998680  0.33589631  0.00003253  1
  Cs  Cs22  1  0.66360709  0.33115813  0.33176875  1
  Cs  Cs23  1  0.66730648  0.33546880  0.66662693  1
  Cs  Cs24  1  0.66314422  0.66469865  -0.00466326  1
  Cs  Cs25  1  0.66785794  0.66771852  0.33318914  1
  Cs  Cs26  1  0.67275095  0.66717907  0.67207581  1
  Sn  Sn27  1  0.49903534  0.16589841  0.16533331  1
  Sn  Sn28  1  0.50073020  0.83405301  0.16716755  1
  Sn  Sn29  1  0.49964020  0.16640637  0.83454393  1
  Sn  Sn30  1  0.83321851  0.50105716  0.16674685  1
  Sn  Sn31  1  0.16755519  0.16643519  0.83326443  1
  Sn  Sn32  1  0.16683046  0.83298447  0.83236234  1
  Sn  Sn33  1  0.16741605  0.83382475  0.50060916  1
  Sn  Sn34  1  0.16683835  0.50026023  0.83328484  1
  Sn  Sn35  1  0.16777084  0.16666101  0.16708929  1
  Sn  Sn36  1  0.83430402  0.16636510  0.50019536  1
  Sn  Sn37  1  0.49987472  0.50173698  0.50023991  1
  Sn  Sn38  1  0.16547986  0.16598488  0.49972606  1
  Sn  Sn39  1  0.83232889  0.83232542  0.16679192  1
  Sn  Sn40  1  0.49930104  0.83190030  0.49953055  1
  Pb  Pb41  1  0.16821917  0.50037794  0.50165712  1
  Pb  Pb42  1  0.50149302  0.50005278  0.16797290  1
  Pb  Pb43  1  0.49809938  0.49742260  0.83084652  1
  Pb  Pb44  1  0.83073852  0.49779286  0.49824818  1
  Pb  Pb45  1  0.83342464  0.83484866  0.49821062  1
  Pb  Pb46  1  0.83597206  0.50008862  0.83581807  1
  Pb  Pb47  1  0.16477184  0.49672779  0.16456869  1
  Pb  Pb48  1  0.49815998  0.83521166  0.83344663  1
  Pb  Pb49  1  0.83292065  0.16627083  0.16822890  1
  Pb  Pb50  1  0.83325171  0.16643437  0.83044805  1
  Pb  Pb51  1  0.49953380  0.16586168  0.50010951  1
  Pb  Pb52  1  0.83653061  0.83347317  0.83639285  1
  Pb  Pb53  1  0.16720738  0.83490833  0.16712047  1
  I  I54  1  0.16551400  0.00318585  0.16308132  1
  I  I55  1  0.16886019  0.00061283  0.50400413  1
  I  I56  1  0.17026779  0.00113423  0.83240281  1
  I  I57  1  0.17068049  0.32836083  0.16805241  1
  I  I58  1  0.16553416  0.33022264  0.50082140  1
  I  I59  1  0.17013517  0.33148170  0.83351364  1
  I  I60  1  0.16779781  0.66669471  0.16560606  1
  I  I61  1  0.16920590  0.66988608  0.50390382  1
  I  I62  1  0.16594122  0.66757530  0.82902220  1
  I  I63  1  0.50172417  0.00012526  0.16980751  1
  I  I64  1  0.49853338  -0.00249527  0.49827035  1
  I  I65  1  0.49303524  0.00333253  0.83204272  1
  I  I66  1  0.49783978  0.33027848  0.16603475  1
  I  I67  1  0.50013255  0.33432354  0.49976657  1
  I  I68  1  0.49378761  0.32926127  0.83680504  1
  I  I69  1  0.50169099  0.66968140  0.16960685  1
  I  I70  1  0.49358371  0.66863768  0.49338320  1
  I  I71  1  0.49682393  0.66678034  0.83565891  1
  I  I72  1  0.83230273  -0.00215490  0.16857831  1
  I  I73  1  0.83331131  0.00277882  0.49682847  1
  I  I74  1  0.83554915  0.00009055  0.83612108  1
  I  I75  1  0.83430586  0.33470714  0.16853781  1
  I  I76  1  0.83782391  0.32987771  0.49724151  1
  I  I77  1  0.83532036  0.33306564  0.83601970  1
  I  I78  1  0.82924128  0.66773822  0.16797825  1
  I  I79  1  0.83576778  0.66679227  0.49917412  1
  I  I80  1  0.83453494  0.66682435  0.83055442  1
  I  I81  1  0.17048411  0.16597656  -0.00042809  1
  I  I82  1  0.16667866  0.16147491  0.33391292  1
  I  I83  1  0.16772293  0.16604734  0.66685217  1
  I  I84  1  0.16703559  0.50097687  -0.00343931  1
  I  I85  1  0.16640000  0.49916123  0.33329140  1
  I  I86  1  0.16839424  0.49402497  0.66956194  1
  I  I87  1  0.16569226  0.83569255  -0.00222016  1
  I  I88  1  0.16772416  0.83921053  0.33605771  1
  I  I89  1  0.17249062  0.83950473  0.66579401  1
  I  I90  1  0.49209947  0.16206865  0.00105566  1
  I  I91  1  0.49760410  0.16591348  0.33100421  1
  I  I92  1  0.49592293  0.16741005  0.66857942  1
  I  I93  1  0.50024785  0.50119644  -0.00017095  1
  I  I94  1  0.49912591  0.49746221  0.33595612  1
  I  I95  1  0.49953132  0.50310297  0.66303011  1
  I  I96  1  0.50194182  0.83652874  0.00290579  1
  I  I97  1  0.49781325  0.83659869  0.33331745  1
  I  I98  1  0.49674273  0.83321973  0.66387470  1
  I  I99  1  0.83607429  0.16686803  0.00015075  1
  I  I100  1  0.83733845  0.16644385  0.33590063  1
  I  I101  1  0.83645491  0.16662324  0.66258843  1
  I  I102  1  0.83206223  0.50135475  0.00372354  1
  I  I103  1  0.83470048  0.50269784  0.33050307  1
  I  I104  1  0.83293887  0.49793436  0.66653917  1
  I  I105  1  0.82831577  0.83183102  0.00448921  1
  I  I106  1  0.83437458  0.83212890  0.33022119  1
  I  I107  1  0.83104659  0.83521276  0.66645696  1
  I  I108  1  0.00266087  0.16614167  0.16422380  1
  I  I109  1  0.00257237  0.16197579  0.49905741  1
  I  I110  1  0.00389417  0.16640925  0.83672740  1
  I  I111  1  -0.00292731  0.50530207  0.16738854  1
  I  I112  1  0.00004740  0.50080458  0.50026245  1
  I  I113  1  0.00421103  0.49543281  0.83204099  1
  I  I114  1  -0.00168101  0.83229019  0.16610057  1
  I  I115  1  0.00311290  0.83702613  0.50247687  1
  I  I116  1  0.00500818  0.83751248  0.82854676  1
  I  I117  1  0.33351399  0.16141398  0.16793981  1
  I  I118  1  0.33044060  0.16561861  0.50060401  1
  I  I119  1  0.33164038  0.16644568  0.83187123  1
  I  I120  1  0.33328215  0.50145582  0.16664532  1
  I  I121  1  0.33608259  0.49781030  0.49879755  1
  I  I122  1  0.32997666  0.50043307  0.83430449  1
  I  I123  1  0.33602776  0.83694007  0.16814445  1
  I  I124  1  0.33309313  0.83670512  0.49780237  1
  I  I125  1  0.32971625  0.83391664  0.83404977  1
  I  I126  1  0.66366247  0.16584331  0.16539860  1
  I  I127  1  0.66795945  0.16726477  0.49797554  1
  I  I128  1  0.66353834  0.16675112  0.83678708  1
  I  I129  1  0.66928759  0.49769989  0.16860691  1
  I  I130  1  0.66292252  0.50232332  0.49932104  1
  I  I131  1  0.66645611  0.49741193  0.83269243  1
  I  I132  1  0.66516972  0.83698451  0.17310527  1
  I  I133  1  0.66376781  0.83363512  0.49666968  1
  I  I134  1  0.66642827  0.83570523  0.83074579  1
