# generated using pymatgen
data_Cs27Sn13Pb14I81
_symmetry_space_group_name_H-M   'P 1'
_cell_length_a   18.97038616
_cell_length_b   18.98006640
_cell_length_c   18.97947279
_cell_angle_alpha   90.00078730
_cell_angle_beta   90.00030846
_cell_angle_gamma   89.99652691
_symmetry_Int_Tables_number   1
_chemical_formula_structural   Cs27Sn13Pb14I81
_chemical_formula_sum   'Cs27 Sn13 Pb14 I81'
_cell_volume   6833.73356609
_cell_formula_units_Z   1
loop_
 _symmetry_equiv_pos_site_id
 _symmetry_equiv_pos_as_xyz
  1  'x, y, z'
loop_
 _atom_site_type_symbol
 _atom_site_label
 _atom_site_symmetry_multiplicity
 _atom_site_fract_x
 _atom_site_fract_y
 _atom_site_fract_z
 _atom_site_occupancy
  Cs  Cs0  1  -0.00136366  0.00207737  0.00154351  1
  Cs  Cs1  1  -0.00280303  0.00211170  0.32918853  1
  Cs  Cs2  1  0.00279412  -0.00245233  0.66802623  1
  Cs  Cs3  1  0.00060967  0.33368887  -0.00030654  1
  Cs  Cs4  1  -0.00400152  0.32945092  0.33010373  1
  Cs  Cs5  1  -0.00069757  0.33508003  0.66961160  1
  Cs  Cs6  1  0.00036693  0.66392865  -0.00301222  1
  Cs  Cs7  1  -0.00119515  0.66909758  0.33948010  1
  Cs  Cs8  1  0.00066055  0.66693589  0.66580366  1
  Cs  Cs9  1  0.33566450  -0.00032025  -0.00088309  1
  Cs  Cs10  1  0.33076580  -0.00090507  0.33572797  1
  Cs  Cs11  1  0.33359509  0.00098040  0.66599122  1
  Cs  Cs12  1  0.33241436  0.33668459  0.00441181  1
  Cs  Cs13  1  0.33411375  0.33359684  0.33008171  1
  Cs  Cs14  1  0.33471554  0.33275047  0.66689510  1
  Cs  Cs15  1  0.33491960  0.66326724  0.00454791  1
  Cs  Cs16  1  0.33498140  0.66740275  0.33448957  1
  Cs  Cs17  1  0.33070182  0.66578665  0.66389065  1
  Cs  Cs18  1  0.66424708  -0.00859173  -0.00101449  1
  Cs  Cs19  1  0.67524416  0.00476024  0.33087560  1
  Cs  Cs20  1  0.66388220  0.00241584  0.66998659  1
  Cs  Cs21  1  0.66697210  0.33529117  -0.00147210  1
  Cs  Cs22  1  0.66890598  0.33082090  0.33494302  1
  Cs  Cs23  1  0.66525578  0.33234715  0.66643421  1
  Cs  Cs24  1  0.66506888  0.67083824  0.00229680  1
  Cs  Cs25  1  0.66618355  0.66686245  0.33083505  1
  Cs  Cs26  1  0.66969544  0.66561134  0.66730208  1
  Sn  Sn27  1  0.16695248  0.83393163  0.83372497  1
  Sn  Sn28  1  0.83225525  0.49935453  0.83417787  1
  Sn  Sn29  1  0.16673475  0.83306545  0.16656109  1
  Sn  Sn30  1  0.49926925  0.50077993  0.50084327  1
  Sn  Sn31  1  0.16660401  0.16687895  0.50051955  1
  Sn  Sn32  1  0.83347625  0.50024163  0.16593323  1
  Sn  Sn33  1  0.16730996  0.49940005  0.49992450  1
  Sn  Sn34  1  0.16733526  0.83365889  0.49993557  1
  Sn  Sn35  1  0.49988225  0.83304490  0.50001586  1
  Sn  Sn36  1  0.16616569  0.16619554  0.83279188  1
  Sn  Sn37  1  0.50060119  0.50011575  0.83277488  1
  Sn  Sn38  1  0.83362620  0.16706103  0.83329823  1
  Sn  Sn39  1  0.49989317  0.16644221  0.16652383  1
  Pb  Pb40  1  0.16446528  0.50215155  0.16999182  1
  Pb  Pb41  1  0.16676304  0.49973135  0.83182944  1
  Pb  Pb42  1  0.49805834  0.16671966  0.49848269  1
  Pb  Pb43  1  0.83292982  0.83363327  0.50023117  1
  Pb  Pb44  1  0.83583860  0.83082959  0.16652667  1
  Pb  Pb45  1  0.83628295  0.16659965  0.50297219  1
  Pb  Pb46  1  0.83283563  0.49998416  0.50057583  1
  Pb  Pb47  1  0.49815798  0.83553573  0.16961284  1
  Pb  Pb48  1  0.50185568  0.49883066  0.16741782  1
  Pb  Pb49  1  0.16785262  0.16489273  0.16615389  1
  Pb  Pb50  1  0.49723080  0.83053090  0.83111641  1
  Pb  Pb51  1  0.83538126  0.83313738  0.83321867  1
  Pb  Pb52  1  0.49938233  0.16858542  0.83498927  1
  Pb  Pb53  1  0.83100105  0.16827308  0.16345768  1
  I  I54  1  0.16774023  -0.00298500  0.17169170  1
  I  I55  1  0.17081134  -0.00070803  0.50161677  1
  I  I56  1  0.16155959  0.00043066  0.82825039  1
  I  I57  1  0.16696844  0.33344454  0.16714275  1
  I  I58  1  0.17048933  0.33337620  0.50595636  1
  I  I59  1  0.16559464  0.33087925  0.82802168  1
  I  I60  1  0.16702487  0.67005702  0.16515039  1
  I  I61  1  0.16980698  0.66709105  0.50038106  1
  I  I62  1  0.16651886  0.66890264  0.83128705  1
  I  I63  1  0.49883335  0.00286557  0.16634342  1
  I  I64  1  0.49344891  -0.00254719  0.49836439  1
  I  I65  1  0.50265620  -0.00011330  0.83300114  1
  I  I66  1  0.49815017  0.33129674  0.16829246  1
  I  I67  1  0.49556357  0.33636698  0.50223757  1
  I  I68  1  0.49929777  0.33656233  0.82723924  1
  I  I69  1  0.50026853  0.66676596  0.16528045  1
  I  I70  1  0.49053434  0.66579599  0.50321904  1
  I  I71  1  0.50477036  0.66260363  0.83273780  1
  I  I72  1  0.83292418  0.00011517  0.16651296  1
  I  I73  1  0.83246608  0.00027384  0.50038522  1
  I  I74  1  0.83686295  0.00288916  0.83214260  1
  I  I75  1  0.83449554  0.33618472  0.16558596  1
  I  I76  1  0.83409058  0.33345247  0.49766606  1
  I  I77  1  0.83703765  0.33404215  0.83635864  1
  I  I78  1  0.83198956  0.66295517  0.16006750  1
  I  I79  1  0.83950351  0.66642872  0.50242303  1
  I  I80  1  0.83135140  0.66331404  0.83618554  1
  I  I81  1  0.16415144  0.16237453  -0.00325063  1
  I  I82  1  0.16995555  0.16595743  0.33605450  1
  I  I83  1  0.16401149  0.16220459  0.66671911  1
  I  I84  1  0.16899479  0.50078447  0.00002496  1
  I  I85  1  0.17159436  0.49975501  0.33808768  1
  I  I86  1  0.16590162  0.50423160  0.66374216  1
  I  I87  1  0.16461747  0.83845762  -0.00081462  1
  I  I88  1  0.17051169  0.83238306  0.33492624  1
  I  I89  1  0.16923372  0.83413119  0.66587504  1
  I  I90  1  0.49719869  0.16960662  0.00235274  1
  I  I91  1  0.49684348  0.16903597  0.33102769  1
  I  I92  1  0.50150450  0.16586886  0.66671495  1
  I  I93  1  0.50148174  0.49705411  -0.00232691  1
  I  I94  1  0.49655989  0.50271884  0.33661345  1
  I  I95  1  0.50133286  0.50185412  0.66610066  1
  I  I96  1  0.49757896  0.83278583  0.00001213  1
  I  I97  1  0.49142985  0.82515048  0.33734784  1
  I  I98  1  0.49296489  0.83320760  0.66321090  1
  I  I99  1  0.84178822  0.17018842  -0.00402577  1
  I  I100  1  0.83374487  0.16839626  0.33303831  1
  I  I101  1  0.83351552  0.17435368  0.67082728  1
  I  I102  1  0.82937367  0.49617881  -0.00176465  1
  I  I103  1  0.83463560  0.50111577  0.33135801  1
  I  I104  1  0.83280883  0.49629622  0.66976986  1
  I  I105  1  0.83565909  0.83447790  -0.00020724  1
  I  I106  1  0.83634275  0.83075026  0.33329070  1
  I  I107  1  0.83707603  0.83019353  0.66692841  1
  I  I108  1  -0.00006137  0.16634936  0.16892974  1
  I  I109  1  0.00497394  0.16655185  0.49954023  1
  I  I110  1  0.00107755  0.16927448  0.82967458  1
  I  I111  1  -0.00298737  0.49923902  0.16007577  1
  I  I112  1  0.00301339  0.50199826  0.50062879  1
  I  I113  1  -0.00207427  0.49920911  0.83519404  1
  I  I114  1  0.00418538  0.83492743  0.17084751  1
  I  I115  1  0.00428301  0.83125953  0.50053273  1
  I  I116  1  0.00413024  0.83179507  0.82921653  1
  I  I117  1  0.33539759  0.16844806  0.16506429  1
  I  I118  1  0.32959774  0.16598262  0.50640402  1
  I  I119  1  0.33004149  0.16371508  0.82978698  1
  I  I120  1  0.33329239  0.49949437  0.16382735  1
  I  I121  1  0.33319700  0.50125394  0.50567937  1
  I  I122  1  0.33544487  0.49999255  0.83010595  1
  I  I123  1  0.32992987  0.83251680  0.16525743  1
  I  I124  1  0.33142096  0.83168286  0.50045786  1
  I  I125  1  0.32901355  0.83895037  0.83367380  1
  I  I126  1  0.66363571  0.16780158  0.16820220  1
  I  I127  1  0.66648991  0.16699016  0.49927773  1
  I  I128  1  0.66892619  0.17090098  0.83540265  1
  I  I129  1  0.66956049  0.49850411  0.16652781  1
  I  I130  1  0.66331907  0.50511223  0.50094937  1
  I  I131  1  0.66705926  0.49361750  0.83049858  1
  I  I132  1  0.66646498  0.83411679  0.16837864  1
  I  I133  1  0.66302463  0.82589685  0.49979302  1
  I  I134  1  0.66623483  0.83604225  0.83151974  1
