# generated using pymatgen
data_Cs27Sn14Pb13I81
_symmetry_space_group_name_H-M   'P 1'
_cell_length_a   18.96856844
_cell_length_b   18.98322337
_cell_length_c   18.97491014
_cell_angle_alpha   89.99975174
_cell_angle_beta   89.99809200
_cell_angle_gamma   89.99867211
_symmetry_Int_Tables_number   1
_chemical_formula_structural   Cs27Sn14Pb13I81
_chemical_formula_sum   'Cs27 Sn14 Pb13 I81'
_cell_volume   6832.57238427
_cell_formula_units_Z   1
loop_
 _symmetry_equiv_pos_site_id
 _symmetry_equiv_pos_as_xyz
  1  'x, y, z'
loop_
 _atom_site_type_symbol
 _atom_site_label
 _atom_site_symmetry_multiplicity
 _atom_site_fract_x
 _atom_site_fract_y
 _atom_site_fract_z
 _atom_site_occupancy
  Cs  Cs0  1  -0.00131674  -0.00210317  -0.00139218  1
  Cs  Cs1  1  0.00052193  -0.00192341  0.33479189  1
  Cs  Cs2  1  -0.00227123  -0.00200976  0.66619381  1
  Cs  Cs3  1  0.00343947  0.33534172  0.00028955  1
  Cs  Cs4  1  -0.00086218  0.33750108  0.33639295  1
  Cs  Cs5  1  -0.00026592  0.33224994  0.66462843  1
  Cs  Cs6  1  -0.00069400  0.66777234  0.00280930  1
  Cs  Cs7  1  0.00045567  0.66695449  0.33321069  1
  Cs  Cs8  1  -0.00157557  0.66877930  0.66504578  1
  Cs  Cs9  1  0.33210430  0.01112905  0.00328797  1
  Cs  Cs10  1  0.33557529  0.00275061  0.33004542  1
  Cs  Cs11  1  0.33985426  -0.00153878  0.66705887  1
  Cs  Cs12  1  0.32728223  0.32422441  -0.00904462  1
  Cs  Cs13  1  0.33617947  0.33153830  0.33199588  1
  Cs  Cs14  1  0.33014296  0.33541124  0.67590335  1
  Cs  Cs15  1  0.33318233  0.66403831  -0.00128559  1
  Cs  Cs16  1  0.33380539  0.66740717  0.33475582  1
  Cs  Cs17  1  0.33617269  0.66635120  0.66653995  1
  Cs  Cs18  1  0.66836046  -0.00105635  0.00090914  1
  Cs  Cs19  1  0.66525303  0.00253395  0.33344730  1
  Cs  Cs20  1  0.66353402  -0.00036587  0.66478043  1
  Cs  Cs21  1  0.66704752  0.33294017  0.00158754  1
  Cs  Cs22  1  0.66630466  0.33314845  0.33304700  1
  Cs  Cs23  1  0.66790281  0.33266057  0.66518140  1
  Cs  Cs24  1  0.66782894  0.66705686  0.00115944  1
  Cs  Cs25  1  0.66596242  0.66547569  0.33205879  1
  Cs  Cs26  1  0.66613766  0.66761674  0.66774568  1
  Sn  Sn27  1  0.83257675  0.83405605  0.16702022  1
  Sn  Sn28  1  0.83356710  0.16655966  0.83406432  1
  Sn  Sn29  1  0.83303203  0.50101175  0.50069681  1
  Sn  Sn30  1  0.16635197  0.83365045  0.50093833  1
  Sn  Sn31  1  0.83372304  0.83331389  0.83304539  1
  Sn  Sn32  1  0.83346280  0.83259018  0.49986450  1
  Sn  Sn33  1  0.50004606  0.50009019  0.49939580  1
  Sn  Sn34  1  0.49945853  0.50051555  0.16664873  1
  Sn  Sn35  1  0.83338643  0.50016033  0.83266533  1
  Sn  Sn36  1  0.83382542  0.16602609  0.16630979  1
  Sn  Sn37  1  0.16693895  0.50018108  0.49983921  1
  Sn  Sn38  1  0.16632756  0.83320918  0.83257317  1
  Sn  Sn39  1  0.16682368  0.16615345  0.49998161  1
  Sn  Sn40  1  0.50045633  0.83235523  0.16639631  1
  Pb  Pb41  1  0.16382361  0.16370165  0.83081327  1
  Pb  Pb42  1  0.50232064  0.16713294  0.16666325  1
  Pb  Pb43  1  0.16323489  0.16673107  0.16897747  1
  Pb  Pb44  1  0.50230266  0.50009380  0.83361877  1
  Pb  Pb45  1  0.49670342  0.17008263  0.50018718  1
  Pb  Pb46  1  0.50301781  0.16651691  0.83315403  1
  Pb  Pb47  1  0.49994165  0.83172062  0.49811742  1
  Pb  Pb48  1  0.16676351  0.83322368  0.16661961  1
  Pb  Pb49  1  0.83222569  0.50020565  0.16688034  1
  Pb  Pb50  1  0.17021022  0.49995824  0.16865042  1
  Pb  Pb51  1  0.49975491  0.83337151  0.83642999  1
  Pb  Pb52  1  0.16386595  0.50256500  0.83107458  1
  Pb  Pb53  1  0.83448044  0.16642910  0.50001692  1
  I  I54  1  0.17172359  -0.00026115  0.17018364  1
  I  I55  1  0.15856989  -0.00162565  0.50291134  1
  I  I56  1  0.15984080  -0.00390743  0.82799670  1
  I  I57  1  0.16531868  0.33336233  0.16934762  1
  I  I58  1  0.16458796  0.33442248  0.49720228  1
  I  I59  1  0.16568814  0.33327738  0.83198161  1
  I  I60  1  0.16115870  0.66678007  0.16896509  1
  I  I61  1  0.16487784  0.66702196  0.50321403  1
  I  I62  1  0.16038836  0.67027220  0.82833151  1
  I  I63  1  0.50257468  -0.00278904  0.16660158  1
  I  I64  1  0.50061230  -0.00007184  0.49830347  1
  I  I65  1  0.50164037  -0.00039030  0.83427007  1
  I  I66  1  0.50327313  0.33642095  0.17361154  1
  I  I67  1  0.50435373  0.33833644  0.49249608  1
  I  I68  1  0.50137761  0.33359535  0.83474309  1
  I  I69  1  0.50765373  0.66700781  0.17112272  1
  I  I70  1  0.49732399  0.66362094  0.49779774  1
  I  I71  1  0.50291023  0.66675204  0.83195891  1
  I  I72  1  0.82810990  -0.00180614  0.16449010  1
  I  I73  1  0.83820150  -0.00312630  0.50140361  1
  I  I74  1  0.83755907  -0.00122579  0.83430440  1
  I  I75  1  0.83171781  0.33137870  0.16436990  1
  I  I76  1  0.83443222  0.33618567  0.50217705  1
  I  I77  1  0.83091769  0.33364155  0.83255957  1
  I  I78  1  0.83147866  0.66956938  0.16491171  1
  I  I79  1  0.83723836  0.66691355  0.50195069  1
  I  I80  1  0.83619891  0.66760695  0.83245557  1
  I  I81  1  0.16874268  0.16525918  -0.00049871  1
  I  I82  1  0.16384956  0.16372894  0.33710801  1
  I  I83  1  0.16264358  0.17065967  0.66315627  1
  I  I84  1  0.16620150  0.50168850  -0.00050392  1
  I  I85  1  0.15902730  0.50394143  0.33796966  1
  I  I86  1  0.17151576  0.49759519  0.66242527  1
  I  I87  1  0.16131941  0.83279012  -0.00278147  1
  I  I88  1  0.16228769  0.83203978  0.33691054  1
  I  I89  1  0.15708570  0.83282283  0.66519469  1
  I  I90  1  0.49691923  0.16906279  0.00022411  1
  I  I91  1  0.50284745  0.16501033  0.33343769  1
  I  I92  1  0.50370485  0.16712680  0.66635567  1
  I  I93  1  0.50536242  0.50546003  0.00298340  1
  I  I94  1  0.50280001  0.50441609  0.33434682  1
  I  I95  1  0.49846842  0.49997523  0.66347211  1
  I  I96  1  0.50637804  0.82599250  0.00420188  1
  I  I97  1  0.50505196  0.83103097  0.33034112  1
  I  I98  1  0.50252089  0.83204506  0.66661073  1
  I  I99  1  0.83215016  0.16299628  -0.00030787  1
  I  I100  1  0.83461388  0.16321034  0.33119278  1
  I  I101  1  0.83568707  0.16510608  0.66907586  1
  I  I102  1  0.83041162  0.50242748  -0.00238390  1
  I  I103  1  0.83555644  0.50245354  0.33659099  1
  I  I104  1  0.83180958  0.50251186  0.66530895  1
  I  I105  1  0.83352544  0.83352295  -0.00040026  1
  I  I106  1  0.83418088  0.83301697  0.33391561  1
  I  I107  1  0.83824847  0.83263173  0.66639133  1
  I  I108  1  -0.00464091  0.15933509  0.16243982  1
  I  I109  1  0.00224438  0.17087657  0.49954057  1
  I  I110  1  -0.00419661  0.16867637  0.83709683  1
  I  I111  1  -0.00015157  0.50013538  0.16768108  1
  I  I112  1  -0.00063018  0.50045776  0.50452550  1
  I  I113  1  -0.00445584  0.49804897  0.82880955  1
  I  I114  1  -0.00349638  0.83722003  0.16694055  1
  I  I115  1  -0.00108328  0.82894366  0.49843899  1
  I  I116  1  -0.00219862  0.83331752  0.83380948  1
  I  I117  1  0.33327770  0.16565153  0.16837481  1
  I  I118  1  0.32875287  0.16287108  0.49875556  1
  I  I119  1  0.33252883  0.16602207  0.83290676  1
  I  I120  1  0.33821677  0.50877253  0.17373685  1
  I  I121  1  0.33290684  0.50097844  0.49322644  1
  I  I122  1  0.33297757  0.50178123  0.83248669  1
  I  I123  1  0.33616310  0.82759209  0.16854275  1
  I  I124  1  0.33025064  0.83199226  0.50333242  1
  I  I125  1  0.33026422  0.83175647  0.82713700  1
  I  I126  1  0.67046131  0.16472314  0.16436354  1
  I  I127  1  0.66682430  0.16698464  0.50001056  1
  I  I128  1  0.67185153  0.16362965  0.83557010  1
  I  I129  1  0.66451222  0.50139061  0.17322754  1
  I  I130  1  0.66794151  0.50495556  0.50001689  1
  I  I131  1  0.67094177  0.50328666  0.82718849  1
  I  I132  1  0.66876827  0.83305472  0.16687389  1
  I  I133  1  0.67006130  0.82920686  0.50277360  1
  I  I134  1  0.67058648  0.83336421  0.83040798  1
