# generated using pymatgen
data_Cs27Sn13Pb14I81
_symmetry_space_group_name_H-M   'P 1'
_cell_length_a   18.98145955
_cell_length_b   18.97677058
_cell_length_c   18.97338087
_cell_angle_alpha   89.99685247
_cell_angle_beta   90.00089941
_cell_angle_gamma   89.99856483
_symmetry_Int_Tables_number   1
_chemical_formula_structural   Cs27Sn13Pb14I81
_chemical_formula_sum   'Cs27 Sn13 Pb14 I81'
_cell_volume   6834.34085568
_cell_formula_units_Z   1
loop_
 _symmetry_equiv_pos_site_id
 _symmetry_equiv_pos_as_xyz
  1  'x, y, z'
loop_
 _atom_site_type_symbol
 _atom_site_label
 _atom_site_symmetry_multiplicity
 _atom_site_fract_x
 _atom_site_fract_y
 _atom_site_fract_z
 _atom_site_occupancy
  Cs  Cs0  1  -0.00100908  0.00247502  0.00090410  1
  Cs  Cs1  1  0.00028383  -0.00120951  0.33178427  1
  Cs  Cs2  1  -0.00146162  -0.00084391  0.66668545  1
  Cs  Cs3  1  -0.00150155  0.33100248  0.00326778  1
  Cs  Cs4  1  -0.00161776  0.33937016  0.32715058  1
  Cs  Cs5  1  -0.00006534  0.33421778  0.66842068  1
  Cs  Cs6  1  0.00169529  0.66705086  -0.00075490  1
  Cs  Cs7  1  -0.00182552  0.66197500  0.34277627  1
  Cs  Cs8  1  -0.00087265  0.66518295  0.65958729  1
  Cs  Cs9  1  0.33173976  -0.00164355  0.00089173  1
  Cs  Cs10  1  0.33651830  -0.00044884  0.33302356  1
  Cs  Cs11  1  0.33274260  0.00377545  0.66567016  1
  Cs  Cs12  1  0.33221498  0.33606426  -0.00001587  1
  Cs  Cs13  1  0.33246292  0.33353570  0.33182516  1
  Cs  Cs14  1  0.33412237  0.32889647  0.66729473  1
  Cs  Cs15  1  0.33641748  0.66665207  -0.00134120  1
  Cs  Cs16  1  0.33173161  0.66695492  0.33389085  1
  Cs  Cs17  1  0.33272065  0.66586830  0.66844788  1
  Cs  Cs18  1  0.67001935  -0.00155281  -0.00064863  1
  Cs  Cs19  1  0.66102978  -0.00008400  0.33331771  1
  Cs  Cs20  1  0.66943407  0.00060615  0.66809893  1
  Cs  Cs21  1  0.66990537  0.33652860  0.00167242  1
  Cs  Cs22  1  0.66758404  0.33577417  0.33465550  1
  Cs  Cs23  1  0.66568191  0.33030522  0.66484504  1
  Cs  Cs24  1  0.66140222  0.66687755  -0.00144779  1
  Cs  Cs25  1  0.66855114  0.66532609  0.33255626  1
  Cs  Cs26  1  0.66796538  0.66804413  0.66944899  1
  Sn  Sn27  1  0.16665381  0.83351702  0.83359860  1
  Sn  Sn28  1  0.49988449  0.16624651  0.16503154  1
  Sn  Sn29  1  0.50000452  0.83412500  0.16726941  1
  Sn  Sn30  1  0.16576305  0.49984935  0.83320782  1
  Sn  Sn31  1  0.49967731  0.16641662  0.83506950  1
  Sn  Sn32  1  0.16503655  0.16660615  0.49993927  1
  Sn  Sn33  1  0.16718281  0.16658332  0.83293256  1
  Sn  Sn34  1  0.49966816  0.50132876  0.50022880  1
  Sn  Sn35  1  0.49976227  0.83210834  0.49991783  1
  Sn  Sn36  1  0.16638561  0.83319699  0.16640175  1
  Sn  Sn37  1  0.83408655  0.50011545  0.83339870  1
  Sn  Sn38  1  0.83348088  0.83323708  0.16677350  1
  Sn  Sn39  1  0.83504745  0.16648466  0.49961001  1
  Pb  Pb40  1  0.16846532  0.83523281  0.50004787  1
  Pb  Pb41  1  0.49958058  0.16628841  0.49979034  1
  Pb  Pb42  1  0.83387407  0.16807588  0.83220117  1
  Pb  Pb43  1  0.83084552  0.83523379  0.49799359  1
  Pb  Pb44  1  0.16859128  0.49722781  0.50227683  1
  Pb  Pb45  1  0.83629315  0.83123763  0.83512571  1
  Pb  Pb46  1  0.83338474  0.50286252  0.16425366  1
  Pb  Pb47  1  0.83132292  0.49790725  0.50203779  1
  Pb  Pb48  1  0.16833628  0.16494161  0.16644940  1
  Pb  Pb49  1  0.16669636  0.50319928  0.16418939  1
  Pb  Pb50  1  0.49815483  0.83554108  0.83341977  1
  Pb  Pb51  1  0.49987341  0.50030158  0.16886758  1
  Pb  Pb52  1  0.83072434  0.16490209  0.16908598  1
  Pb  Pb53  1  0.49964818  0.49751590  0.83154619  1
  I  I54  1  0.16646916  -0.00328616  0.16097125  1
  I  I55  1  0.16727094  0.00310587  0.50634151  1
  I  I56  1  0.17259404  0.00058163  0.83337231  1
  I  I57  1  0.16928222  0.33318989  0.16662805  1
  I  I58  1  0.16777655  0.32923673  0.50595694  1
  I  I59  1  0.16802708  0.33243791  0.82711483  1
  I  I60  1  0.17130986  0.67167600  0.16147604  1
  I  I61  1  0.16723217  0.66670787  0.50070725  1
  I  I62  1  0.16376123  0.66695783  0.83899570  1
  I  I63  1  0.49916920  -0.00112376  0.16998834  1
  I  I64  1  0.49937860  -0.00201659  0.49749703  1
  I  I65  1  0.49463503  0.00344855  0.83127485  1
  I  I66  1  0.49914945  0.33036580  0.16519128  1
  I  I67  1  0.50018822  0.33459821  0.50177227  1
  I  I68  1  0.49436889  0.32956384  0.83521528  1
  I  I69  1  0.49982798  0.67043836  0.16849776  1
  I  I70  1  0.49942550  0.66776784  0.49484034  1
  I  I71  1  0.49891395  0.66675902  0.83466175  1
  I  I72  1  0.83458980  -0.00313527  0.16550548  1
  I  I73  1  0.83380398  0.00302845  0.50223240  1
  I  I74  1  0.83316085  -0.00011448  0.83279074  1
  I  I75  1  0.83116161  0.33326353  0.16731157  1
  I  I76  1  0.83288781  0.33007129  0.50077931  1
  I  I77  1  0.83766489  0.33585634  0.83200608  1
  I  I78  1  0.82968817  0.67100107  0.16661441  1
  I  I79  1  0.83320140  0.66671942  0.49973532  1
  I  I80  1  0.83689852  0.66345640  0.83334527  1
  I  I81  1  0.16993327  0.16785825  -0.00323276  1
  I  I82  1  0.16699499  0.16329909  0.33566777  1
  I  I83  1  0.17061123  0.16464541  0.66815154  1
  I  I84  1  0.16483287  0.49406326  -0.00436017  1
  I  I85  1  0.16809554  0.49945909  0.33362580  1
  I  I86  1  0.16396799  0.50519280  0.67051093  1
  I  I87  1  0.16946926  0.83514382  -0.00024209  1
  I  I88  1  0.16738113  0.83723162  0.33064379  1
  I  I89  1  0.16956878  0.83267612  0.66954666  1
  I  I90  1  0.49430340  0.16136480  -0.00023233  1
  I  I91  1  0.49991392  0.16422522  0.33127463  1
  I  I92  1  0.49808619  0.16715309  0.66859171  1
  I  I93  1  0.50003275  0.50154694  -0.00028989  1
  I  I94  1  0.50070971  0.49769482  0.33671901  1
  I  I95  1  0.49961843  0.50352021  0.66385591  1
  I  I96  1  0.50095225  0.83614414  0.00293268  1
  I  I97  1  0.49768695  0.83703480  0.33209664  1
  I  I98  1  0.49755693  0.83236846  0.66438824  1
  I  I99  1  0.83414298  0.16712034  0.00024079  1
  I  I100  1  0.83674256  0.16624397  0.33690198  1
  I  I101  1  0.83034201  0.16666755  0.66423784  1
  I  I102  1  0.83654425  0.49743548  -0.00363710  1
  I  I103  1  0.83154388  0.49947728  0.33351308  1
  I  I104  1  0.83762443  0.50035190  0.66971149  1
  I  I105  1  0.82724778  0.83395629  0.00314222  1
  I  I106  1  0.83765727  0.83444074  0.32992448  1
  I  I107  1  0.83234343  0.83344688  0.66662454  1
  I  I108  1  -0.00000001  0.16396503  0.16488556  1
  I  I109  1  0.00110678  0.16500713  0.50775378  1
  I  I110  1  0.00342889  0.16490409  0.83034712  1
  I  I111  1  0.00010158  0.50058775  0.16880791  1
  I  I112  1  0.00015217  0.50059027  0.49981023  1
  I  I113  1  0.00146485  0.49814940  0.83305138  1
  I  I114  1  0.00081593  0.83426967  0.15953723  1
  I  I115  1  0.00011391  0.83356414  0.49878909  1
  I  I116  1  0.00448221  0.83940471  0.83868222  1
  I  I117  1  0.33636905  0.16009002  0.16840688  1
  I  I118  1  0.33137439  0.16627157  0.50278509  1
  I  I119  1  0.33226849  0.16813974  0.82995668  1
  I  I120  1  0.33337024  0.50159914  0.16466940  1
  I  I121  1  0.33631802  0.50112321  0.50188656  1
  I  I122  1  0.33037396  0.50101750  0.83190233  1
  I  I123  1  0.33393249  0.83775463  0.16647843  1
  I  I124  1  0.33639265  0.83366297  0.49455715  1
  I  I125  1  0.33006031  0.82953625  0.83842092  1
  I  I126  1  0.66261632  0.16026772  0.16319172  1
  I  I127  1  0.66789378  0.16674823  0.50020657  1
  I  I128  1  0.66419803  0.16830401  0.83352537  1
  I  I129  1  0.66650828  0.50143251  0.16359572  1
  I  I130  1  0.66352545  0.50021471  0.50246017  1
  I  I131  1  0.66844582  0.49788501  0.83159860  1
  I  I132  1  0.66531204  0.83763014  0.17185879  1
  I  I133  1  0.66274289  0.83350260  0.49517386  1
  I  I134  1  0.66659618  0.83307626  0.83385898  1
