# generated using pymatgen
data_Cs27Sn14Pb13I81
_symmetry_space_group_name_H-M   'P 1'
_cell_length_a   18.97441291
_cell_length_b   18.97360811
_cell_length_c   18.97835109
_cell_angle_alpha   90.00187529
_cell_angle_beta   90.00121415
_cell_angle_gamma   89.99980675
_symmetry_Int_Tables_number   1
_chemical_formula_structural   Cs27Sn14Pb13I81
_chemical_formula_sum   'Cs27 Sn14 Pb13 I81'
_cell_volume   6832.45452394
_cell_formula_units_Z   1
loop_
 _symmetry_equiv_pos_site_id
 _symmetry_equiv_pos_as_xyz
  1  'x, y, z'
loop_
 _atom_site_type_symbol
 _atom_site_label
 _atom_site_symmetry_multiplicity
 _atom_site_fract_x
 _atom_site_fract_y
 _atom_site_fract_z
 _atom_site_occupancy
  Cs  Cs0  1  -0.00036000  0.00097874  0.00517245  1
  Cs  Cs1  1  -0.00039500  -0.00164534  0.33388432  1
  Cs  Cs2  1  -0.00276196  -0.00135367  0.66157932  1
  Cs  Cs3  1  0.00043607  0.33441812  0.00205111  1
  Cs  Cs4  1  0.00008264  0.33254350  0.32957504  1
  Cs  Cs5  1  0.00174417  0.33513237  0.66789291  1
  Cs  Cs6  1  -0.00112474  0.66490102  -0.00255724  1
  Cs  Cs7  1  0.00094233  0.66745893  0.33657300  1
  Cs  Cs8  1  0.00200742  0.66616980  0.66611036  1
  Cs  Cs9  1  0.33435311  -0.00461465  0.00401948  1
  Cs  Cs10  1  0.33065583  -0.00046400  0.33173793  1
  Cs  Cs11  1  0.33607357  0.00208798  0.66610923  1
  Cs  Cs12  1  0.33072253  0.33027034  -0.00311026  1
  Cs  Cs13  1  0.33388635  0.33456392  0.33593009  1
  Cs  Cs14  1  0.33341454  0.33331154  0.66538827  1
  Cs  Cs15  1  0.33140730  0.67748000  -0.00097992  1
  Cs  Cs16  1  0.33637132  0.66599205  0.33116196  1
  Cs  Cs17  1  0.32938081  0.66787885  0.66857134  1
  Cs  Cs18  1  0.66458062  -0.00292170  -0.00259633  1
  Cs  Cs19  1  0.66974268  0.00212611  0.33880757  1
  Cs  Cs20  1  0.66676889  0.00052285  0.66645837  1
  Cs  Cs21  1  0.66846022  0.33357574  -0.00135727  1
  Cs  Cs22  1  0.66698448  0.33673897  0.32990265  1
  Cs  Cs23  1  0.66529265  0.33230640  0.66733070  1
  Cs  Cs24  1  0.66749572  0.66919096  0.00304694  1
  Cs  Cs25  1  0.66297517  0.66113891  0.32924583  1
  Cs  Cs26  1  0.66797590  0.66451185  0.66678738  1
  Sn  Sn27  1  0.49937546  0.16602405  0.49975313  1
  Sn  Sn28  1  0.50031035  0.16713533  0.16669850  1
  Sn  Sn29  1  0.83338800  0.83336979  0.83377144  1
  Sn  Sn30  1  0.16703249  0.16748966  0.50074291  1
  Sn  Sn31  1  0.49967308  0.16735065  0.83359130  1
  Sn  Sn32  1  0.16590313  0.49894883  0.49902444  1
  Sn  Sn33  1  0.83331225  0.83340306  0.16658723  1
  Sn  Sn34  1  0.83399407  0.49950146  0.50056467  1
  Sn  Sn35  1  0.16707435  0.49997460  0.16726058  1
  Sn  Sn36  1  0.50032044  0.49979340  0.83366143  1
  Sn  Sn37  1  0.83366003  0.16659047  0.83310820  1
  Sn  Sn38  1  0.49995306  0.83385969  0.50027872  1
  Sn  Sn39  1  0.83236675  0.49990718  0.83255766  1
  Sn  Sn40  1  0.16669248  0.16649840  0.83261852  1
  Pb  Pb41  1  0.83106045  0.16487135  0.16406742  1
  Pb  Pb42  1  0.83487334  0.50154163  0.16623016  1
  Pb  Pb43  1  0.16680739  0.49853525  0.83299625  1
  Pb  Pb44  1  0.83123933  0.83058194  0.50025558  1
  Pb  Pb45  1  0.49743097  0.49809577  0.16300511  1
  Pb  Pb46  1  0.16429697  0.83060627  0.16684125  1
  Pb  Pb47  1  0.49956378  0.49938071  0.50185396  1
  Pb  Pb48  1  0.83340927  0.16902001  0.50174868  1
  Pb  Pb49  1  0.16907388  0.83352321  0.50007254  1
  Pb  Pb50  1  0.50215365  0.83586261  0.16929860  1
  Pb  Pb51  1  0.16357135  0.83728661  0.83304781  1
  Pb  Pb52  1  0.16855551  0.16802309  0.16709352  1
  Pb  Pb53  1  0.50184046  0.83349641  0.83167383  1
  I  I54  1  0.16677514  0.00015710  0.16633329  1
  I  I55  1  0.16881644  0.00357846  0.50496202  1
  I  I56  1  0.16981418  0.00549412  0.82748756  1
  I  I57  1  0.16502343  0.33581553  0.16781806  1
  I  I58  1  0.16947970  0.33285114  0.50111526  1
  I  I59  1  0.16367810  0.33027664  0.83212696  1
  I  I60  1  0.16745329  0.66261219  0.17245121  1
  I  I61  1  0.16392181  0.66338016  0.49685351  1
  I  I62  1  0.16749285  0.66668045  0.83328226  1
  I  I63  1  0.49896675  0.00375202  0.15963022  1
  I  I64  1  0.49610119  0.00253825  0.50283184  1
  I  I65  1  0.50091250  0.00357630  0.83405429  1
  I  I66  1  0.50107488  0.33016962  0.17189533  1
  I  I67  1  0.49855458  0.33018509  0.50029181  1
  I  I68  1  0.50495352  0.33166510  0.83074254  1
  I  I69  1  0.49975947  0.66664117  0.16763957  1
  I  I70  1  0.50182815  0.66805714  0.50263325  1
  I  I71  1  0.50464734  0.66409880  0.83009315  1
  I  I72  1  0.83290757  -0.00292524  0.16143249  1
  I  I73  1  0.83514605  0.00015705  0.50076238  1
  I  I74  1  0.83249236  0.00082556  0.83782155  1
  I  I75  1  0.83329399  0.33337262  0.16612207  1
  I  I76  1  0.83232138  0.33686797  0.50581714  1
  I  I77  1  0.83162993  0.33335160  0.82816586  1
  I  I78  1  0.83334430  0.66921081  0.16039549  1
  I  I79  1  0.83751569  0.66287340  0.50638633  1
  I  I80  1  0.82800076  0.66554930  0.83332137  1
  I  I81  1  0.16677250  0.16939159  -0.00287103  1
  I  I82  1  0.17217735  0.16924999  0.33658331  1
  I  I83  1  0.17142020  0.17309569  0.66639782  1
  I  I84  1  0.16595178  0.49714025  0.00135061  1
  I  I85  1  0.16087919  0.49376693  0.33528191  1
  I  I86  1  0.16547049  0.49734385  0.66415303  1
  I  I87  1  0.16993010  0.83239975  -0.00019724  1
  I  I88  1  0.16307323  0.83819765  0.33352637  1
  I  I89  1  0.16417101  0.82742047  0.66663529  1
  I  I90  1  0.50068641  0.17214861  -0.00181461  1
  I  I91  1  0.49448878  0.16152428  0.33468002  1
  I  I92  1  0.49946807  0.16654164  0.66718367  1
  I  I93  1  0.50599829  0.49390213  -0.00475212  1
  I  I94  1  0.50296472  0.49938455  0.33333752  1
  I  I95  1  0.50060569  0.49404212  0.66965546  1
  I  I96  1  0.49955039  0.83369134  -0.00007694  1
  I  I97  1  0.50264599  0.83752822  0.33695780  1
  I  I98  1  0.50255684  0.83949249  0.66412014  1
  I  I99  1  0.83438596  0.17251105  -0.00462804  1
  I  I100  1  0.83276728  0.16595945  0.33340242  1
  I  I101  1  0.82888314  0.16237786  0.67025836  1
  I  I102  1  0.83155954  0.49783832  -0.00347513  1
  I  I103  1  0.83496478  0.50223185  0.33581254  1
  I  I104  1  0.83537673  0.50173096  0.66801749  1
  I  I105  1  0.83186111  0.83164578  -0.00175435  1
  I  I106  1  0.83145737  0.83151939  0.33140706  1
  I  I107  1  0.83149693  0.83539058  0.66956245  1
  I  I108  1  -0.00004928  0.16615125  0.16597268  1
  I  I109  1  0.00271205  0.16938303  0.50538244  1
  I  I110  1  -0.00021083  0.16746719  0.82835624  1
  I  I111  1  0.00265892  0.49886322  0.16606916  1
  I  I112  1  0.00037160  0.49579769  0.50275409  1
  I  I113  1  -0.00281566  0.49909321  0.83256877  1
  I  I114  1  -0.00359128  0.83505370  0.16213868  1
  I  I115  1  -0.00028950  0.83539768  0.49987687  1
  I  I116  1  -0.00467979  0.83025536  0.83565058  1
  I  I117  1  0.33644774  0.16737929  0.16152470  1
  I  I118  1  0.33371361  0.16882183  0.50546751  1
  I  I119  1  0.33437546  0.17356413  0.83158251  1
  I  I120  1  0.33009609  0.49824362  0.17398739  1
  I  I121  1  0.33076296  0.49834133  0.49833054  1
  I  I122  1  0.33567550  0.49334408  0.83213628  1
  I  I123  1  0.33360684  0.83299338  0.16735346  1
  I  I124  1  0.33691908  0.83346732  0.50078306  1
  I  I125  1  0.33340222  0.83123158  0.83223606  1
  I  I126  1  0.66304111  0.16738241  0.16819775  1
  I  I127  1  0.66373362  0.16386032  0.50176571  1
  I  I128  1  0.66624952  0.16742349  0.83301075  1
  I  I129  1  0.66650312  0.50035764  0.16940795  1
  I  I130  1  0.66863162  0.50067289  0.50366617  1
  I  I131  1  0.66785953  0.49473419  0.82753484  1
  I  I132  1  0.66964169  0.83169898  0.16097306  1
  I  I133  1  0.66377842  0.84045797  0.50152204  1
  I  I134  1  0.66994155  0.83731310  0.83539147  1
