# generated using pymatgen
data_Cs27Sn13Pb14I81
_symmetry_space_group_name_H-M   'P 1'
_cell_length_a   18.97574589
_cell_length_b   18.97094463
_cell_length_c   18.98480758
_cell_angle_alpha   90.00037656
_cell_angle_beta   89.99872338
_cell_angle_gamma   89.99860297
_symmetry_Int_Tables_number   1
_chemical_formula_structural   Cs27Sn13Pb14I81
_chemical_formula_sum   'Cs27 Sn13 Pb14 I81'
_cell_volume   6834.29957924
_cell_formula_units_Z   1
loop_
 _symmetry_equiv_pos_site_id
 _symmetry_equiv_pos_as_xyz
  1  'x, y, z'
loop_
 _atom_site_type_symbol
 _atom_site_label
 _atom_site_symmetry_multiplicity
 _atom_site_fract_x
 _atom_site_fract_y
 _atom_site_fract_z
 _atom_site_occupancy
  Cs  Cs0  1  -0.00102821  0.00285203  -0.00144770  1
  Cs  Cs1  1  -0.00180577  -0.00314466  0.33511291  1
  Cs  Cs2  1  -0.00258226  0.00596990  0.66647255  1
  Cs  Cs3  1  -0.00046813  0.32907732  -0.00053816  1
  Cs  Cs4  1  0.00147986  0.33549154  0.33238610  1
  Cs  Cs5  1  -0.00065504  0.33278109  0.66737849  1
  Cs  Cs6  1  -0.00141304  0.66776770  0.00001078  1
  Cs  Cs7  1  0.00152018  0.66680910  0.33348626  1
  Cs  Cs8  1  0.00363575  0.66359334  0.66581292  1
  Cs  Cs9  1  0.33151477  0.00093894  0.00112550  1
  Cs  Cs10  1  0.33517285  0.00171488  0.33371030  1
  Cs  Cs11  1  0.33436299  -0.00164400  0.66498233  1
  Cs  Cs12  1  0.33487425  0.32961032  0.00452941  1
  Cs  Cs13  1  0.33389174  0.33214101  0.32558677  1
  Cs  Cs14  1  0.33413008  0.33472719  0.66839642  1
  Cs  Cs15  1  0.33454309  0.66751805  -0.00000025  1
  Cs  Cs16  1  0.32998665  0.66525920  0.33081664  1
  Cs  Cs17  1  0.33306809  0.66712890  0.66726720  1
  Cs  Cs18  1  0.67047737  -0.00627054  -0.00279823  1
  Cs  Cs19  1  0.66689470  0.00150859  0.34201434  1
  Cs  Cs20  1  0.66867138  -0.00255694  0.65962784  1
  Cs  Cs21  1  0.66482237  0.33508468  0.00148429  1
  Cs  Cs22  1  0.66472319  0.33122798  0.33217317  1
  Cs  Cs23  1  0.66647874  0.33403208  0.66622795  1
  Cs  Cs24  1  0.66712999  0.66730689  -0.00072909  1
  Cs  Cs25  1  0.66933956  0.66739382  0.33280905  1
  Cs  Cs26  1  0.66355349  0.66713935  0.66800764  1
  Sn  Sn27  1  0.83233262  0.49998860  0.50012625  1
  Sn  Sn28  1  0.16703407  0.16648565  0.49997804  1
  Sn  Sn29  1  0.83325448  0.49999829  0.83331442  1
  Sn  Sn30  1  0.16655434  0.83304777  0.83337400  1
  Sn  Sn31  1  0.50028246  0.16657976  0.83313283  1
  Sn  Sn32  1  0.16678997  0.83440868  0.50029120  1
  Sn  Sn33  1  0.83345049  0.49910981  0.16654515  1
  Sn  Sn34  1  0.49974292  0.83338774  0.16683675  1
  Sn  Sn35  1  0.83309678  0.16702891  0.16666593  1
  Sn  Sn36  1  0.50025574  0.49992946  0.50011217  1
  Sn  Sn37  1  0.16746352  0.83323658  0.16638633  1
  Sn  Sn38  1  0.16694913  0.50010848  0.83381401  1
  Sn  Sn39  1  0.49978997  0.49910391  0.83286037  1
  Pb  Pb40  1  0.83573576  0.83072977  0.50038896  1
  Pb  Pb41  1  0.50248684  0.16380997  0.16453647  1
  Pb  Pb42  1  0.83512055  0.16940842  0.49817276  1
  Pb  Pb43  1  0.83599363  0.83118738  0.83284899  1
  Pb  Pb44  1  0.16839305  0.16672753  0.83183586  1
  Pb  Pb45  1  0.16714951  0.49992129  0.50149673  1
  Pb  Pb46  1  0.49802252  0.16918112  0.50188229  1
  Pb  Pb47  1  0.49771383  0.83075742  0.49791798  1
  Pb  Pb48  1  0.83338483  0.83344161  0.16680827  1
  Pb  Pb49  1  0.16434901  0.50169389  0.16365078  1
  Pb  Pb50  1  0.16483273  0.16398691  0.16879191  1
  Pb  Pb51  1  0.83067753  0.16887674  0.83470183  1
  Pb  Pb52  1  0.50199748  0.50151217  0.16639828  1
  Pb  Pb53  1  0.49811139  0.83309297  0.83451881  1
  I  I54  1  0.16762591  -0.00410928  0.16094431  1
  I  I55  1  0.16690489  -0.00120844  0.50157944  1
  I  I56  1  0.16970663  -0.00285891  0.83531736  1
  I  I57  1  0.16708934  0.33331716  0.16775368  1
  I  I58  1  0.16526754  0.33163974  0.50342641  1
  I  I59  1  0.16428069  0.33641395  0.82948680  1
  I  I60  1  0.16764288  0.66981799  0.17164983  1
  I  I61  1  0.16586646  0.66895963  0.49877856  1
  I  I62  1  0.16763383  0.66612960  0.83098604  1
  I  I63  1  0.49608616  -0.00364834  0.16410595  1
  I  I64  1  0.50043311  -0.00006417  0.50099118  1
  I  I65  1  0.49624202  0.00207866  0.83724778  1
  I  I66  1  0.49955751  0.33337793  0.16799764  1
  I  I67  1  0.50134994  0.33730747  0.50155225  1
  I  I68  1  0.49794252  0.33583801  0.83027861  1
  I  I69  1  0.49712158  0.66918669  0.16454991  1
  I  I70  1  0.50202591  0.66283071  0.50727571  1
  I  I71  1  0.50157883  0.66322835  0.83115501  1
  I  I72  1  0.83476862  0.00236855  0.16576130  1
  I  I73  1  0.83306402  0.00025656  0.49693082  1
  I  I74  1  0.83354766  0.00031848  0.83733568  1
  I  I75  1  0.83320263  0.33505529  0.16605527  1
  I  I76  1  0.83347835  0.33763969  0.50289247  1
  I  I77  1  0.83933966  0.33775981  0.83129500  1
  I  I78  1  0.83387560  0.66363262  0.16600383  1
  I  I79  1  0.83253911  0.66216397  0.49717167  1
  I  I80  1  0.82853817  0.66201542  0.83705549  1
  I  I81  1  0.16625408  0.16620446  0.00004654  1
  I  I82  1  0.16637064  0.16352401  0.33655043  1
  I  I83  1  0.16627829  0.16174601  0.66412425  1
  I  I84  1  0.16788506  0.50511189  -0.00452261  1
  I  I85  1  0.16586929  0.50149482  0.33319757  1
  I  I86  1  0.16291803  0.50538719  0.66960676  1
  I  I87  1  0.17016769  0.82680048  -0.00021472  1
  I  I88  1  0.16961551  0.83699813  0.33330700  1
  I  I89  1  0.16591376  0.83086483  0.66699245  1
  I  I90  1  0.49811720  0.17524516  -0.00306013  1
  I  I91  1  0.49963227  0.16746178  0.33331685  1
  I  I92  1  0.49916145  0.16901023  0.66978868  1
  I  I93  1  0.50037644  0.49864891  -0.00309472  1
  I  I94  1  0.50402401  0.50292343  0.33563113  1
  I  I95  1  0.50425492  0.49774228  0.66790502  1
  I  I96  1  0.49444494  0.83091615  0.00241456  1
  I  I97  1  0.49464898  0.83118685  0.33019795  1
  I  I98  1  0.49794529  0.83363479  0.66657693  1
  I  I99  1  0.83474022  0.17216245  0.00264513  1
  I  I100  1  0.83392998  0.17241104  0.33036524  1
  I  I101  1  0.83448554  0.16781202  0.66652836  1
  I  I102  1  0.83391456  0.49732803  -0.00051157  1
  I  I103  1  0.82934120  0.49720143  0.33343453  1
  I  I104  1  0.83376619  0.50196176  0.66721817  1
  I  I105  1  0.83560353  0.83061894  0.00006067  1
  I  I106  1  0.83641965  0.82930843  0.33330939  1
  I  I107  1  0.83397296  0.83231281  0.66663994  1
  I  I108  1  -0.00287408  0.17070152  0.16546864  1
  I  I109  1  0.00303489  0.16390011  0.50126508  1
  I  I110  1  -0.00005308  0.16711101  0.83357282  1
  I  I111  1  -0.00371215  0.49944273  0.16822476  1
  I  I112  1  -0.00223324  0.50082301  0.50082887  1
  I  I113  1  -0.00003159  0.50604568  0.83291188  1
  I  I114  1  0.00301666  0.83185776  0.16681347  1
  I  I115  1  0.00425884  0.83368220  0.49658215  1
  I  I116  1  0.00464223  0.82805169  0.83682291  1
  I  I117  1  0.33343227  0.16741324  0.16701963  1
  I  I118  1  0.33022598  0.16435301  0.50034456  1
  I  I119  1  0.33598769  0.17384868  0.83338307  1
  I  I120  1  0.33323629  0.50032824  0.16752634  1
  I  I121  1  0.33559828  0.50133306  0.50641347  1
  I  I122  1  0.33366936  0.50144062  0.82684422  1
  I  I123  1  0.33205136  0.83176059  0.16612998  1
  I  I124  1  0.32951050  0.83327547  0.50244469  1
  I  I125  1  0.32984538  0.82650663  0.83179194  1
  I  I126  1  0.66995788  0.17101574  0.16639151  1
  I  I127  1  0.66661200  0.16598251  0.49958727  1
  I  I128  1  0.66300648  0.17302962  0.83456701  1
  I  I129  1  0.67001333  0.50021796  0.16259285  1
  I  I130  1  0.66702939  0.49979882  0.50485415  1
  I  I131  1  0.66650701  0.49525082  0.83297129  1
  I  I132  1  0.66443844  0.83126642  0.16434080  1
  I  I133  1  0.66638837  0.83399364  0.49716045  1
  I  I134  1  0.66639650  0.83190516  0.83782165  1
