# generated using pymatgen
data_Cs27Sn13Pb14I81
_symmetry_space_group_name_H-M   'P 1'
_cell_length_a   18.98222477
_cell_length_b   18.97433555
_cell_length_c   18.97445899
_cell_angle_alpha   89.99842092
_cell_angle_beta   90.00140210
_cell_angle_gamma   89.99937873
_symmetry_Int_Tables_number   1
_chemical_formula_structural   Cs27Sn13Pb14I81
_chemical_formula_sum   'Cs27 Sn13 Pb14 I81'
_cell_volume   6834.12770377
_cell_formula_units_Z   1
loop_
 _symmetry_equiv_pos_site_id
 _symmetry_equiv_pos_as_xyz
  1  'x, y, z'
loop_
 _atom_site_type_symbol
 _atom_site_label
 _atom_site_symmetry_multiplicity
 _atom_site_fract_x
 _atom_site_fract_y
 _atom_site_fract_z
 _atom_site_occupancy
  Cs  Cs0  1  0.00037824  0.00070944  -0.00103988  1
  Cs  Cs1  1  -0.00225452  -0.00310958  0.33315816  1
  Cs  Cs2  1  -0.00038989  -0.00095102  0.66696179  1
  Cs  Cs3  1  0.00038121  0.33345317  -0.00031547  1
  Cs  Cs4  1  -0.00057534  0.33417052  0.33085162  1
  Cs  Cs5  1  0.00640767  0.33314654  0.66978949  1
  Cs  Cs6  1  -0.00035045  0.66575158  0.00135536  1
  Cs  Cs7  1  -0.00152990  0.66796699  0.33262442  1
  Cs  Cs8  1  -0.00131760  0.66861182  0.66642856  1
  Cs  Cs9  1  0.33538726  -0.00497480  0.00061424  1
  Cs  Cs10  1  0.33658586  -0.00017386  0.33217723  1
  Cs  Cs11  1  0.33212338  0.00234946  0.66646273  1
  Cs  Cs12  1  0.32671896  0.33397702  -0.00139892  1
  Cs  Cs13  1  0.33492737  0.33338725  0.34083166  1
  Cs  Cs14  1  0.32644124  0.33587096  0.65856669  1
  Cs  Cs15  1  0.33879766  0.67131110  0.00181907  1
  Cs  Cs16  1  0.33226916  0.66695344  0.33143416  1
  Cs  Cs17  1  0.33743770  0.66224921  0.66605782  1
  Cs  Cs18  1  0.66412652  0.00312125  -0.00115739  1
  Cs  Cs19  1  0.66695887  0.00505797  0.33421959  1
  Cs  Cs20  1  0.66845745  -0.00127973  0.66794080  1
  Cs  Cs21  1  0.66869783  0.33150155  0.00099194  1
  Cs  Cs22  1  0.66541227  0.33106122  0.33187764  1
  Cs  Cs23  1  0.66519337  0.33431495  0.66751315  1
  Cs  Cs24  1  0.66441547  0.66531365  -0.00306093  1
  Cs  Cs25  1  0.67109418  0.66538091  0.33526441  1
  Cs  Cs26  1  0.66504958  0.66652333  0.66913200  1
  Sn  Sn27  1  0.83368780  0.16819044  0.50116503  1
  Sn  Sn28  1  0.16683347  0.49913589  0.16679345  1
  Sn  Sn29  1  0.83398980  0.83403009  0.83461062  1
  Sn  Sn30  1  0.49900842  0.83344437  0.49994175  1
  Sn  Sn31  1  0.83296983  0.83297629  0.16530721  1
  Sn  Sn32  1  0.16670260  0.16704217  0.16699971  1
  Sn  Sn33  1  0.83360789  0.49846369  0.49975609  1
  Sn  Sn34  1  0.16803798  0.83326436  0.50088791  1
  Sn  Sn35  1  0.50019059  0.49971413  0.16656781  1
  Sn  Sn36  1  0.83271483  0.16607862  0.83236224  1
  Sn  Sn37  1  0.83308708  0.50077218  0.16720274  1
  Sn  Sn38  1  0.49994003  0.16735555  0.83299325  1
  Sn  Sn39  1  0.16611295  0.83311451  0.83241769  1
  Pb  Pb40  1  0.50216163  0.16505567  0.50216722  1
  Pb  Pb41  1  0.83445711  0.16688545  0.16621445  1
  Pb  Pb42  1  0.16642335  0.16472815  0.83488374  1
  Pb  Pb43  1  0.50339457  0.83174982  0.16879369  1
  Pb  Pb44  1  0.16677703  0.50326109  0.83572100  1
  Pb  Pb45  1  0.49711418  0.16911242  0.16471205  1
  Pb  Pb46  1  0.83338883  0.83329521  0.50042885  1
  Pb  Pb47  1  0.16421140  0.16441446  0.49773681  1
  Pb  Pb48  1  0.83343070  0.49976884  0.83335804  1
  Pb  Pb49  1  0.50024843  0.83480201  0.83151531  1
  Pb  Pb50  1  0.49979983  0.49675690  0.83524993  1
  Pb  Pb51  1  0.16425407  0.50239417  0.49784154  1
  Pb  Pb52  1  0.50241669  0.50177383  0.49805990  1
  Pb  Pb53  1  0.16508369  0.83306561  0.16653769  1
  I  I54  1  0.16258151  0.00149941  0.16623533  1
  I  I55  1  0.16615991  -0.00351568  0.50045940  1
  I  I56  1  0.16373820  -0.00320587  0.83333496  1
  I  I57  1  0.16247262  0.33430619  0.16509646  1
  I  I58  1  0.16695190  0.33340673  0.50035570  1
  I  I59  1  0.16559398  0.33320759  0.83455526  1
  I  I60  1  0.16614421  0.66407040  0.16697887  1
  I  I61  1  0.16626198  0.67034264  0.50109038  1
  I  I62  1  0.15883508  0.67135608  0.83143389  1
  I  I63  1  0.49951474  0.00009363  0.16688676  1
  I  I64  1  0.49937834  -0.00297528  0.49895753  1
  I  I65  1  0.50297338  0.00249861  0.83411393  1
  I  I66  1  0.50749693  0.33694406  0.16642481  1
  I  I67  1  0.50028094  0.33336767  0.49982959  1
  I  I68  1  0.50946344  0.32904341  0.83488368  1
  I  I69  1  0.49514050  0.66371608  0.16633957  1
  I  I70  1  0.49937612  0.66976367  0.50072761  1
  I  I71  1  0.50053953  0.66679578  0.83337433  1
  I  I72  1  0.83728833  -0.00218749  0.16716991  1
  I  I73  1  0.83363602  0.00180559  0.50012867  1
  I  I74  1  0.83370252  -0.00043919  0.83314000  1
  I  I75  1  0.83275572  0.33622596  0.16789025  1
  I  I76  1  0.83245552  0.33339372  0.49776897  1
  I  I77  1  0.82916989  0.33023174  0.83341636  1
  I  I78  1  0.83648409  0.66587562  0.16838957  1
  I  I79  1  0.83384479  0.66483947  0.49688059  1
  I  I80  1  0.83746793  0.66969643  0.83414327  1
  I  I81  1  0.16308934  0.16872059  0.00272945  1
  I  I82  1  0.16392856  0.16861587  0.33001788  1
  I  I83  1  0.16736025  0.16622965  0.66659328  1
  I  I84  1  0.16162391  0.49768289  0.00430075  1
  I  I85  1  0.16691659  0.49919706  0.32955294  1
  I  I86  1  0.16486899  0.49908151  0.66632846  1
  I  I87  1  0.16275604  0.83368254  -0.00210790  1
  I  I88  1  0.16694277  0.83289733  0.33527896  1
  I  I89  1  0.16197076  0.83543127  0.66699757  1
  I  I90  1  0.50854620  0.16487955  -0.00287627  1
  I  I91  1  0.50125075  0.16574252  0.33341781  1
  I  I92  1  0.50277175  0.16457100  0.66998265  1
  I  I93  1  0.50374702  0.50235925  0.00381441  1
  I  I94  1  0.49882465  0.50038641  0.32986468  1
  I  I95  1  0.50304081  0.50162350  0.66631895  1
  I  I96  1  0.49779766  0.83311236  0.00002524  1
  I  I97  1  0.49523725  0.83346169  0.33641426  1
  I  I98  1  0.50238331  0.83344383  0.66382056  1
  I  I99  1  0.83163914  0.16476665  -0.00260064  1
  I  I100  1  0.83579435  0.16573504  0.33518856  1
  I  I101  1  0.83008689  0.16409168  0.66737939  1
  I  I102  1  0.83403485  0.50153484  0.00336812  1
  I  I103  1  0.83377752  0.50184683  0.33193815  1
  I  I104  1  0.83266024  0.50110055  0.66393802  1
  I  I105  1  0.83945280  0.83332865  -0.00061442  1
  I  I106  1  0.83457563  0.83193870  0.33151564  1
  I  I107  1  0.83460063  0.83453572  0.66913115  1
  I  I108  1  0.00203389  0.17100932  0.16493074  1
  I  I109  1  -0.00383623  0.16722248  0.50567193  1
  I  I110  1  -0.00302987  0.16358436  0.83134398  1
  I  I111  1  -0.00093147  0.50084702  0.17048527  1
  I  I112  1  -0.00367316  0.49978547  0.49337721  1
  I  I113  1  -0.00015698  0.49638904  0.83622880  1
  I  I114  1  -0.00289483  0.82849687  0.16818585  1
  I  I115  1  0.00159225  0.83328215  0.50016587  1
  I  I116  1  -0.00132231  0.83894872  0.83161489  1
  I  I117  1  0.32948571  0.16955304  0.16431558  1
  I  I118  1  0.33315464  0.16653662  0.50065823  1
  I  I119  1  0.33530483  0.16391476  0.83817979  1
  I  I120  1  0.33271210  0.49588663  0.16443146  1
  I  I121  1  0.33319000  0.50017324  0.49807937  1
  I  I122  1  0.33324770  0.50025381  0.83626270  1
  I  I123  1  0.33340809  0.83233753  0.16454411  1
  I  I124  1  0.33240851  0.83352217  0.50443135  1
  I  I125  1  0.33084992  0.83526902  0.83260665  1
  I  I126  1  0.66673373  0.16664735  0.16806935  1
  I  I127  1  0.67045048  0.16623497  0.49905664  1
  I  I128  1  0.66877241  0.15998772  0.83129610  1
  I  I129  1  0.66817429  0.50554932  0.17052897  1
  I  I130  1  0.67048431  0.50002352  0.49347261  1
  I  I131  1  0.66693150  0.50508334  0.83571426  1
  I  I132  1  0.67142999  0.82876751  0.16314237  1
  I  I133  1  0.66540329  0.83293513  0.49905045  1
  I  I134  1  0.66980205  0.83526414  0.83510650  1
