# generated using pymatgen
data_Cs27Sn14Pb13I81
_symmetry_space_group_name_H-M   'P 1'
_cell_length_a   18.97681071
_cell_length_b   18.97661557
_cell_length_c   18.97236947
_cell_angle_alpha   90.00227688
_cell_angle_beta   89.99908493
_cell_angle_gamma   90.00222920
_symmetry_Int_Tables_number   1
_chemical_formula_structural   Cs27Sn14Pb13I81
_chemical_formula_sum   'Cs27 Sn14 Pb13 I81'
_cell_volume   6832.24699464
_cell_formula_units_Z   1
loop_
 _symmetry_equiv_pos_site_id
 _symmetry_equiv_pos_as_xyz
  1  'x, y, z'
loop_
 _atom_site_type_symbol
 _atom_site_label
 _atom_site_symmetry_multiplicity
 _atom_site_fract_x
 _atom_site_fract_y
 _atom_site_fract_z
 _atom_site_occupancy
  Cs  Cs0  1  -0.00229760  -0.00104921  -0.00330084  1
  Cs  Cs1  1  0.00126556  0.00475475  0.33411618  1
  Cs  Cs2  1  0.00136844  -0.00081648  0.66893532  1
  Cs  Cs3  1  0.00076911  0.33428901  0.00222197  1
  Cs  Cs4  1  0.00150055  0.32455297  0.33614458  1
  Cs  Cs5  1  -0.00306867  0.33013945  0.66158155  1
  Cs  Cs6  1  0.00009385  0.66703324  -0.00288506  1
  Cs  Cs7  1  0.00055442  0.66645898  0.33381912  1
  Cs  Cs8  1  0.00094652  0.66865951  0.66850484  1
  Cs  Cs9  1  0.33829419  -0.00058222  -0.00029829  1
  Cs  Cs10  1  0.33356920  -0.00157025  0.33495268  1
  Cs  Cs11  1  0.33421093  0.00192265  0.66537061  1
  Cs  Cs12  1  0.33259205  0.33762493  -0.00336150  1
  Cs  Cs13  1  0.32733692  0.32962471  0.33084779  1
  Cs  Cs14  1  0.33668243  0.33300834  0.67249847  1
  Cs  Cs15  1  0.32952572  0.66418678  0.00078866  1
  Cs  Cs16  1  0.33340298  0.66868860  0.33385432  1
  Cs  Cs17  1  0.33247080  0.66268274  0.66434469  1
  Cs  Cs18  1  0.66592222  -0.00009385  0.00071531  1
  Cs  Cs19  1  0.66549038  -0.00117705  0.33149829  1
  Cs  Cs20  1  0.66362300  -0.00123532  0.67048009  1
  Cs  Cs21  1  0.66591284  0.33313342  -0.00166456  1
  Cs  Cs22  1  0.67092436  0.33489181  0.33437757  1
  Cs  Cs23  1  0.66613962  0.33762732  0.66763793  1
  Cs  Cs24  1  0.66999723  0.66882985  0.00342941  1
  Cs  Cs25  1  0.66634551  0.66710978  0.33339620  1
  Cs  Cs26  1  0.66669386  0.66348673  0.65998764  1
  Sn  Sn27  1  0.49981662  0.83289337  0.16573446  1
  Sn  Sn28  1  0.83304837  0.50046873  0.16618892  1
  Sn  Sn29  1  0.16625446  0.83350631  0.16707491  1
  Sn  Sn30  1  0.16574768  0.16653267  0.83385501  1
  Sn  Sn31  1  0.83405724  0.16763388  0.83370414  1
  Sn  Sn32  1  0.83418146  0.83364191  0.49894745  1
  Sn  Sn33  1  0.16652660  0.50036716  0.49972384  1
  Sn  Sn34  1  0.50046200  0.16700536  0.49894187  1
  Sn  Sn35  1  0.50046124  0.50009942  0.16694674  1
  Sn  Sn36  1  0.49992117  0.83231746  0.83386553  1
  Sn  Sn37  1  0.83388640  0.83287347  0.16767749  1
  Sn  Sn38  1  0.50014624  0.16707982  0.16769528  1
  Sn  Sn39  1  0.83344658  0.49928372  0.83395919  1
  Sn  Sn40  1  0.16571076  0.83262670  0.49922174  1
  Pb  Pb41  1  0.83157047  0.83289394  0.83335435  1
  Pb  Pb42  1  0.16398951  0.49782309  0.83107795  1
  Pb  Pb43  1  0.16899493  0.83455889  0.83305712  1
  Pb  Pb44  1  0.16851757  0.16599208  0.50181603  1
  Pb  Pb45  1  0.16914766  0.16386710  0.16424419  1
  Pb  Pb46  1  0.49777759  0.49723574  0.49685100  1
  Pb  Pb47  1  0.83144926  0.16663089  0.16501229  1
  Pb  Pb48  1  0.83086517  0.16371746  0.50241023  1
  Pb  Pb49  1  0.50226585  0.50305587  0.83567604  1
  Pb  Pb50  1  0.49972505  0.83425426  0.49946363  1
  Pb  Pb51  1  0.83515256  0.50194876  0.49906758  1
  Pb  Pb52  1  0.50044620  0.16565101  0.83390186  1
  Pb  Pb53  1  0.16578605  0.50193109  0.16827600  1
  I  I54  1  0.16623293  -0.00441758  0.17333008  1
  I  I55  1  0.16493983  -0.00311861  0.49707673  1
  I  I56  1  0.16085906  0.00229021  0.83161613  1
  I  I57  1  0.16743040  0.33322076  0.16819327  1
  I  I58  1  0.16841694  0.33516680  0.50121778  1
  I  I59  1  0.16847726  0.33003586  0.83179992  1
  I  I60  1  0.17189813  0.67033380  0.16756000  1
  I  I61  1  0.16414890  0.66854034  0.49673813  1
  I  I62  1  0.16652794  0.66664245  0.83439751  1
  I  I63  1  0.49993395  -0.00118795  0.16605150  1
  I  I64  1  0.49826000  0.00198692  0.49554569  1
  I  I65  1  0.50273055  -0.00220259  0.83904735  1
  I  I66  1  0.50544880  0.33351972  0.17155555  1
  I  I67  1  0.49827123  0.32967725  0.49712407  1
  I  I68  1  0.49825749  0.33370742  0.83371856  1
  I  I69  1  0.50116286  0.66777099  0.16135295  1
  I  I70  1  0.50133040  0.66648597  0.50110244  1
  I  I71  1  0.50077516  0.67074070  0.83794090  1
  I  I72  1  0.83175311  -0.00322667  0.16830945  1
  I  I73  1  0.83901255  -0.00413190  0.49467620  1
  I  I74  1  0.83451810  0.00168529  0.83293481  1
  I  I75  1  0.82773497  0.33607882  0.16349279  1
  I  I76  1  0.83493890  0.33324710  0.49820596  1
  I  I77  1  0.83590365  0.33350153  0.83901491  1
  I  I78  1  0.82791753  0.66756310  0.16433961  1
  I  I79  1  0.83295472  0.67006604  0.50128456  1
  I  I80  1  0.83063982  0.66452889  0.83522235  1
  I  I81  1  0.16491427  0.16493263  -0.00320873  1
  I  I82  1  0.16693667  0.16809571  0.33315680  1
  I  I83  1  0.16609059  0.16387799  0.66942223  1
  I  I84  1  0.16888150  0.50026216  0.00015848  1
  I  I85  1  0.16602924  0.50187032  0.33601815  1
  I  I86  1  0.16594102  0.50813578  0.66338602  1
  I  I87  1  0.16510914  0.83538503  0.00293181  1
  I  I88  1  0.16916320  0.83028451  0.33302636  1
  I  I89  1  0.16324032  0.83182846  0.66375149  1
  I  I90  1  0.50032930  0.16576909  0.00290315  1
  I  I91  1  0.49913484  0.16221915  0.33189846  1
  I  I92  1  0.49902359  0.16162207  0.66523442  1
  I  I93  1  0.49986430  0.49486823  0.00391730  1
  I  I94  1  0.50725697  0.50741883  0.32895749  1
  I  I95  1  0.50069300  0.49977685  0.66654525  1
  I  I96  1  0.50089880  0.83755346  0.00258399  1
  I  I97  1  0.50023306  0.83242764  0.32990508  1
  I  I98  1  0.50107144  0.83888129  0.66821864  1
  I  I99  1  0.83370202  0.16433794  -0.00292457  1
  I  I100  1  0.83368132  0.16902667  0.33328407  1
  I  I101  1  0.83406151  0.17067202  0.67027026  1
  I  I102  1  0.82947296  0.50263190  0.00118213  1
  I  I103  1  0.82879696  0.50414462  0.33000523  1
  I  I104  1  0.83527897  0.49776547  0.66871544  1
  I  I105  1  0.83432272  0.83277888  0.00304519  1
  I  I106  1  0.83043172  0.82770346  0.33163394  1
  I  I107  1  0.83593790  0.83421148  0.66448497  1
  I  I108  1  0.00003443  0.16682419  0.16677083  1
  I  I109  1  -0.00011281  0.16777119  0.50041091  1
  I  I110  1  -0.00081373  0.16779748  0.83254156  1
  I  I111  1  -0.00329082  0.50623540  0.16287366  1
  I  I112  1  0.00282570  0.50198378  0.49867170  1
  I  I113  1  -0.00378260  0.50089872  0.84114787  1
  I  I114  1  -0.00082160  0.82811883  0.17078829  1
  I  I115  1  0.00039263  0.83046506  0.49312371  1
  I  I116  1  -0.00012474  0.83337227  0.83542402  1
  I  I117  1  0.33730836  0.16623495  0.16796689  1
  I  I118  1  0.33613826  0.16302755  0.49827605  1
  I  I119  1  0.33200446  0.16258606  0.83234672  1
  I  I120  1  0.33581297  0.50119996  0.16894565  1
  I  I121  1  0.33026906  0.50829196  0.49884266  1
  I  I122  1  0.33334829  0.49837892  0.83378133  1
  I  I123  1  0.33415895  0.83426666  0.16668379  1
  I  I124  1  0.33078606  0.83214212  0.49708164  1
  I  I125  1  0.33666438  0.83784251  0.83805865  1
  I  I126  1  0.66334325  0.16066417  0.16701770  1
  I  I127  1  0.66335305  0.16396655  0.49742205  1
  I  I128  1  0.66895082  0.16811808  0.83357948  1
  I  I129  1  0.66685445  0.50511590  0.16333097  1
  I  I130  1  0.66679759  0.50070653  0.50243557  1
  I  I131  1  0.67005063  0.49295168  0.83337619  1
  I  I132  1  0.66651607  0.83323993  0.16627106  1
  I  I133  1  0.66877097  0.83538335  0.49786047  1
  I  I134  1  0.66397238  0.83735851  0.83788050  1
