# generated using pymatgen
data_Cs27Sn13Pb14I81
_symmetry_space_group_name_H-M   'P 1'
_cell_length_a   18.97363751
_cell_length_b   18.97950717
_cell_length_c   18.98254337
_cell_angle_alpha   89.99935352
_cell_angle_beta   89.99972562
_cell_angle_gamma   90.00035422
_symmetry_Int_Tables_number   1
_chemical_formula_structural   Cs27Sn13Pb14I81
_chemical_formula_sum   'Cs27 Sn13 Pb14 I81'
_cell_volume   6835.80918040
_cell_formula_units_Z   1
loop_
 _symmetry_equiv_pos_site_id
 _symmetry_equiv_pos_as_xyz
  1  'x, y, z'
loop_
 _atom_site_type_symbol
 _atom_site_label
 _atom_site_symmetry_multiplicity
 _atom_site_fract_x
 _atom_site_fract_y
 _atom_site_fract_z
 _atom_site_occupancy
  Cs  Cs0  1  -0.00013004  0.00221443  -0.00040190  1
  Cs  Cs1  1  -0.00111189  -0.00741335  0.33409489  1
  Cs  Cs2  1  0.00043960  0.00051699  0.66687285  1
  Cs  Cs3  1  -0.00119854  0.33143034  -0.00059235  1
  Cs  Cs4  1  0.00148816  0.33923660  0.33459613  1
  Cs  Cs5  1  -0.00173312  0.33452355  0.66635639  1
  Cs  Cs6  1  -0.00323704  0.66540619  0.00697964  1
  Cs  Cs7  1  0.00223090  0.67003535  0.33202636  1
  Cs  Cs8  1  -0.00065841  0.66473414  0.66073438  1
  Cs  Cs9  1  0.33262339  0.00072888  -0.00235978  1
  Cs  Cs10  1  0.33408203  0.00170827  0.33289402  1
  Cs  Cs11  1  0.33123468  -0.00123104  0.67030539  1
  Cs  Cs12  1  0.33256561  0.33214314  -0.00063951  1
  Cs  Cs13  1  0.33524489  0.33278844  0.33290177  1
  Cs  Cs14  1  0.33190307  0.33355801  0.66859400  1
  Cs  Cs15  1  0.33534448  0.66709067  -0.00021879  1
  Cs  Cs16  1  0.32890241  0.66609221  0.33409140  1
  Cs  Cs17  1  0.33566586  0.66708661  0.66623811  1
  Cs  Cs18  1  0.66717535  -0.00054399  -0.00080653  1
  Cs  Cs19  1  0.66780236  0.00380903  0.33617024  1
  Cs  Cs20  1  0.66788383  -0.00073742  0.66609220  1
  Cs  Cs21  1  0.66761223  0.33389083  0.00043873  1
  Cs  Cs22  1  0.66408013  0.32782227  0.33753508  1
  Cs  Cs23  1  0.66894530  0.33413650  0.66473128  1
  Cs  Cs24  1  0.66656454  0.66621099  -0.00052662  1
  Cs  Cs25  1  0.66895276  0.66883089  0.33133792  1
  Cs  Cs26  1  0.66379273  0.66505027  0.66865445  1
  Sn  Sn27  1  0.16663452  0.16656645  0.49863277  1
  Sn  Sn28  1  0.16705139  0.50159754  0.83370103  1
  Sn  Sn29  1  0.49924244  0.49875985  0.83348751  1
  Sn  Sn30  1  0.16546656  0.16661026  0.16814556  1
  Sn  Sn31  1  0.49979244  0.83275776  0.16795109  1
  Sn  Sn32  1  0.49981849  0.83275292  0.49859405  1
  Sn  Sn33  1  0.49988734  0.50082747  0.16672773  1
  Sn  Sn34  1  0.49970250  0.50091157  0.49986005  1
  Sn  Sn35  1  0.83222396  0.16588718  0.83402119  1
  Sn  Sn36  1  0.50112558  0.16763989  0.83326415  1
  Sn  Sn37  1  0.16488543  0.83137543  0.83366459  1
  Sn  Sn38  1  0.83448896  0.16677102  0.16622287  1
  Sn  Sn39  1  0.83489467  0.83366028  0.83341322  1
  Pb  Pb40  1  0.16880645  0.83489718  0.50212679  1
  Pb  Pb41  1  0.83621211  0.16662593  0.49997844  1
  Pb  Pb42  1  0.16607008  0.16699863  0.83354369  1
  Pb  Pb43  1  0.50018731  0.16668224  0.16471211  1
  Pb  Pb44  1  0.83348470  0.50008420  0.83337090  1
  Pb  Pb45  1  0.83080095  0.49744090  0.16686109  1
  Pb  Pb46  1  0.83098927  0.83539152  0.16469335  1
  Pb  Pb47  1  0.83088795  0.50024176  0.49956606  1
  Pb  Pb48  1  0.50018447  0.83300779  0.83339599  1
  Pb  Pb49  1  0.83088214  0.83320455  0.50243217  1
  Pb  Pb50  1  0.16876893  0.49837526  0.50200881  1
  Pb  Pb51  1  0.16865951  0.49802745  0.16456036  1
  Pb  Pb52  1  0.16873594  0.83525680  0.16445982  1
  Pb  Pb53  1  0.49831673  0.16656851  0.50292902  1
  I  I54  1  0.16712220  0.00345366  0.16588674  1
  I  I55  1  0.17051226  0.00288587  0.50039621  1
  I  I56  1  0.16820578  -0.00163799  0.83324841  1
  I  I57  1  0.16664563  0.32976883  0.16598708  1
  I  I58  1  0.16996220  0.33034854  0.50019081  1
  I  I59  1  0.17027285  0.33526526  0.83330246  1
  I  I60  1  0.16716791  0.66667149  0.16588494  1
  I  I61  1  0.16720049  0.66663139  0.50150579  1
  I  I62  1  0.17077967  0.66652195  0.83263442  1
  I  I63  1  0.49973198  -0.00205558  0.16817390  1
  I  I64  1  0.49854584  -0.00236238  0.49755503  1
  I  I65  1  0.49947432  0.00188145  0.83401719  1
  I  I66  1  0.49978869  0.33572654  0.16734366  1
  I  I67  1  0.49839626  0.33594845  0.49832945  1
  I  I68  1  0.49837227  0.33415467  0.83393183  1
  I  I69  1  0.49968217  0.66618370  0.16296818  1
  I  I70  1  0.49948294  0.66607567  0.50412550  1
  I  I71  1  0.49907445  0.66404756  0.83313880  1
  I  I72  1  0.83383455  0.00346469  0.16255680  1
  I  I73  1  0.82886968  0.00013881  0.50019551  1
  I  I74  1  0.83197995  0.00108660  0.83694611  1
  I  I75  1  0.83475862  0.32916120  0.15746277  1
  I  I76  1  0.83016542  0.33294084  0.50359991  1
  I  I77  1  0.83186836  0.33031924  0.83689610  1
  I  I78  1  0.83208762  0.66688195  0.16385588  1
  I  I79  1  0.83479945  0.66689105  0.50369137  1
  I  I80  1  0.83176500  0.66939803  0.83233956  1
  I  I81  1  0.16702801  0.16666360  0.00169866  1
  I  I82  1  0.16460912  0.16684216  0.33249079  1
  I  I83  1  0.16952340  0.16650035  0.66548525  1
  I  I84  1  0.17443969  0.50016931  -0.00364475  1
  I  I85  1  0.16941132  0.49788933  0.33325405  1
  I  I86  1  0.17354420  0.49976441  0.67033369  1
  I  I87  1  0.16776259  0.83374265  -0.00378978  1
  I  I88  1  0.16749716  0.83449721  0.33321362  1
  I  I89  1  0.16738817  0.83428412  0.67047578  1
  I  I90  1  0.49826129  0.16929251  -0.00325776  1
  I  I91  1  0.50170050  0.16866306  0.33335927  1
  I  I92  1  0.50242797  0.16928282  0.67094506  1
  I  I93  1  0.49641192  0.49975970  -0.00086683  1
  I  I94  1  0.50126967  0.50365423  0.33324842  1
  I  I95  1  0.49624752  0.50040697  0.66755455  1
  I  I96  1  0.49994317  0.83138734  0.00163923  1
  I  I97  1  0.49936386  0.82671327  0.33313993  1
  I  I98  1  0.49978007  0.83106365  0.66510869  1
  I  I99  1  0.83479481  0.16330898  -0.00128798  1
  I  I100  1  0.83259049  0.16773752  0.33031238  1
  I  I101  1  0.83021716  0.16353609  0.66998945  1
  I  I102  1  0.82940213  0.50078304  -0.00023344  1
  I  I103  1  0.83110842  0.49624453  0.33307637  1
  I  I104  1  0.83055001  0.49669915  0.66714253  1
  I  I105  1  0.83319709  0.83630224  -0.00354043  1
  I  I106  1  0.83212893  0.83595083  0.33309260  1
  I  I107  1  0.83402642  0.84127636  0.67095932  1
  I  I108  1  -0.00010711  0.16634230  0.16099401  1
  I  I109  1  0.00383884  0.16667635  0.50377407  1
  I  I110  1  -0.00246347  0.16553394  0.83445790  1
  I  I111  1  0.00022684  0.49915266  0.16322574  1
  I  I112  1  0.00067994  0.49652783  0.50434247  1
  I  I113  1  0.00290912  0.49851835  0.83305030  1
  I  I114  1  -0.00001472  0.83365422  0.16610006  1
  I  I115  1  0.00022979  0.83577388  0.50076198  1
  I  I116  1  0.00012178  0.83703231  0.83353908  1
  I  I117  1  0.33153249  0.16686325  0.16705294  1
  I  I118  1  0.33083408  0.16682349  0.49668461  1
  I  I119  1  0.33520580  0.16699156  0.83380516  1
  I  I120  1  0.33732863  0.50017405  0.16680728  1
  I  I121  1  0.33737643  0.50266282  0.49985835  1
  I  I122  1  0.33503651  0.49874249  0.83319698  1
  I  I123  1  0.33694913  0.83271629  0.16595699  1
  I  I124  1  0.33701305  0.83029350  0.50059694  1
  I  I125  1  0.33173410  0.83449820  0.83312281  1
  I  I126  1  0.66855451  0.16683146  0.16182946  1
  I  I127  1  0.66648559  0.16720148  0.49868857  1
  I  I128  1  0.66674328  0.16569179  0.83853843  1
  I  I129  1  0.66184854  0.50168963  0.16158383  1
  I  I130  1  0.66139738  0.50123907  0.50521991  1
  I  I131  1  0.66319449  0.49901383  0.83302478  1
  I  I132  1  0.66277197  0.83190753  0.16631553  1
  I  I133  1  0.66232362  0.83119403  0.49957904  1
  I  I134  1  0.66841161  0.83600760  0.83340553  1
