# generated using pymatgen
data_Cs27Sn13Pb14I81
_symmetry_space_group_name_H-M   'P 1'
_cell_length_a   19.00304145
_cell_length_b   18.98280611
_cell_length_c   18.98910443
_cell_angle_alpha   90.00135108
_cell_angle_beta   90.00027047
_cell_angle_gamma   89.99969846
_symmetry_Int_Tables_number   1
_chemical_formula_structural   Cs27Sn13Pb14I81
_chemical_formula_sum   'Cs27 Sn13 Pb14 I81'
_cell_volume   6849.95960282
_cell_formula_units_Z   1
loop_
 _symmetry_equiv_pos_site_id
 _symmetry_equiv_pos_as_xyz
  1  'x, y, z'
loop_
 _atom_site_type_symbol
 _atom_site_label
 _atom_site_symmetry_multiplicity
 _atom_site_fract_x
 _atom_site_fract_y
 _atom_site_fract_z
 _atom_site_occupancy
  Cs  Cs0  1  -0.00001116  0.00307538  -0.00357584  1
  Cs  Cs1  1  0.00030115  -0.00157918  0.33630199  1
  Cs  Cs2  1  -0.00071944  0.00044558  0.66578190  1
  Cs  Cs3  1  0.00071975  0.32722270  0.00794337  1
  Cs  Cs4  1  0.00028674  0.33699858  0.32929504  1
  Cs  Cs5  1  0.00024325  0.33547562  0.66475502  1
  Cs  Cs6  1  -0.00012764  0.66830715  -0.00331135  1
  Cs  Cs7  1  0.00030643  0.66645047  0.33251323  1
  Cs  Cs8  1  -0.00044959  0.66546249  0.66880192  1
  Cs  Cs9  1  0.33201176  0.00124835  0.00058332  1
  Cs  Cs10  1  0.33384649  -0.00254676  0.33517900  1
  Cs  Cs11  1  0.33184141  -0.00032414  0.66543271  1
  Cs  Cs12  1  0.34185936  0.32397444  0.00439130  1
  Cs  Cs13  1  0.33170902  0.34184107  0.32776476  1
  Cs  Cs14  1  0.33634432  0.33704989  0.66935419  1
  Cs  Cs15  1  0.33357364  0.66846698  -0.00283614  1
  Cs  Cs16  1  0.33326850  0.66400909  0.33550833  1
  Cs  Cs17  1  0.33429239  0.66458850  0.66729740  1
  Cs  Cs18  1  0.66851443  0.00302652  -0.00246992  1
  Cs  Cs19  1  0.66570504  -0.00175127  0.33698970  1
  Cs  Cs20  1  0.67004506  0.00040335  0.66406125  1
  Cs  Cs21  1  0.65776474  0.32794866  0.00870445  1
  Cs  Cs22  1  0.66901091  0.33221585  0.32513559  1
  Cs  Cs23  1  0.66494042  0.33514888  0.66850666  1
  Cs  Cs24  1  0.66631604  0.66644366  -0.00086919  1
  Cs  Cs25  1  0.66590704  0.66764063  0.33337806  1
  Cs  Cs26  1  0.66639848  0.66565380  0.66751382  1
  Sn  Sn27  1  0.49931700  0.83357376  0.83360654  1
  Sn  Sn28  1  0.16736395  0.83285631  0.83305567  1
  Sn  Sn29  1  0.83331392  0.50015064  0.50077173  1
  Sn  Sn30  1  0.83423655  0.83280997  0.49952524  1
  Sn  Sn31  1  0.16572732  0.49986263  0.83396082  1
  Sn  Sn32  1  0.49943472  0.16709436  0.50003513  1
  Sn  Sn33  1  0.16649885  0.83316705  0.16669890  1
  Sn  Sn34  1  0.50000699  0.83340579  0.16570091  1
  Sn  Sn35  1  0.83417102  0.49935157  0.83356779  1
  Sn  Sn36  1  0.83353488  0.83326852  0.16712916  1
  Sn  Sn37  1  0.16586296  0.83351189  0.50020922  1
  Sn  Sn38  1  0.16710206  0.16673864  0.50025285  1
  Sn  Sn39  1  0.83359427  0.16714537  0.50030485  1
  Pb  Pb40  1  0.83346298  0.50241161  0.16602882  1
  Pb  Pb41  1  0.83343762  0.17058020  0.83135190  1
  Pb  Pb42  1  0.83354609  0.16342827  0.16927586  1
  Pb  Pb43  1  0.16650553  0.16693064  0.83112562  1
  Pb  Pb44  1  0.50313683  0.49676731  0.49990218  1
  Pb  Pb45  1  0.16661232  0.50243188  0.16281512  1
  Pb  Pb46  1  0.16666490  0.16398401  0.16984681  1
  Pb  Pb47  1  0.16490374  0.50025107  0.50162938  1
  Pb  Pb48  1  0.50001672  0.16352990  0.83091639  1
  Pb  Pb49  1  0.49982617  0.83418304  0.50023573  1
  Pb  Pb50  1  0.50001021  0.50183141  0.83342521  1
  Pb  Pb51  1  0.49981010  0.16337071  0.16970148  1
  Pb  Pb52  1  0.49984863  0.50297763  0.16660324  1
  Pb  Pb53  1  0.83358137  0.83230997  0.83306214  1
  I  I54  1  0.16636562  -0.00499832  0.16148640  1
  I  I55  1  0.16186653  -0.00183983  0.50155045  1
  I  I56  1  0.17079157  -0.00371763  0.83494034  1
  I  I57  1  0.16641009  0.33330837  0.16742993  1
  I  I58  1  0.16524543  0.33072016  0.50356255  1
  I  I59  1  0.16064894  0.33652395  0.82767424  1
  I  I60  1  0.16653026  0.67150583  0.17404695  1
  I  I61  1  0.16238236  0.67030978  0.49783911  1
  I  I62  1  0.16646982  0.66883013  0.83063281  1
  I  I63  1  0.49974938  -0.00468076  0.16293631  1
  I  I64  1  0.50488825  0.00196115  0.50006038  1
  I  I65  1  0.49365212  -0.00468982  0.83772257  1
  I  I66  1  0.50079720  0.33273344  0.16715541  1
  I  I67  1  0.49746654  0.32876878  0.50234025  1
  I  I68  1  0.49957003  0.33323409  0.83112225  1
  I  I69  1  0.50058884  0.67182889  0.16507268  1
  I  I70  1  0.50044790  0.66669351  0.49952806  1
  I  I71  1  0.49839895  0.67037371  0.83527164  1
  I  I72  1  0.83356542  -0.00496857  0.17167046  1
  I  I73  1  0.83356220  -0.00077549  0.49496650  1
  I  I74  1  0.83300775  -0.00004106  0.83289789  1
  I  I75  1  0.83283776  0.33325762  0.16759533  1
  I  I76  1  0.83320697  0.33318090  0.50746630  1
  I  I77  1  0.84077543  0.33848152  0.82496011  1
  I  I78  1  0.83337659  0.67084512  0.17414519  1
  I  I79  1  0.83830208  0.66790889  0.49961303  1
  I  I80  1  0.83423512  0.66466763  0.82630272  1
  I  I81  1  0.16674542  0.16593311  0.00009805  1
  I  I82  1  0.16501466  0.16017130  0.33826104  1
  I  I83  1  0.16511679  0.15813591  0.66269828  1
  I  I84  1  0.15845633  0.50879920  -0.00497752  1
  I  I85  1  0.16556013  0.50018863  0.33319742  1
  I  I86  1  0.16449690  0.50763207  0.66931437  1
  I  I87  1  0.16739783  0.82720415  -0.00029042  1
  I  I88  1  0.16592928  0.83906771  0.33402593  1
  I  I89  1  0.16671014  0.83398240  0.66624097  1
  I  I90  1  0.50038283  0.16856364  0.00031667  1
  I  I91  1  0.50211098  0.16194243  0.33740114  1
  I  I92  1  0.50085486  0.16269540  0.66290632  1
  I  I93  1  0.50339527  0.49853869  -0.00023479  1
  I  I94  1  0.50098032  0.50306566  0.33357958  1
  I  I95  1  0.49893664  0.50360984  0.66659525  1
  I  I96  1  0.49699402  0.83163489  0.00012117  1
  I  I97  1  0.49870911  0.83607616  0.33117776  1
  I  I98  1  0.49667598  0.83483491  0.66892215  1
  I  I99  1  0.83291140  0.16582852  0.00026233  1
  I  I100  1  0.83339636  0.17131087  0.33817308  1
  I  I101  1  0.83379416  0.15810951  0.66215572  1
  I  I102  1  0.83781578  0.50666798  -0.00319067  1
  I  I103  1  0.83289431  0.49809434  0.33644537  1
  I  I104  1  0.83721269  0.50340596  0.66554511  1
  I  I105  1  0.83492633  0.82970076  0.00232593  1
  I  I106  1  0.83544612  0.83232519  0.33492654  1
  I  I107  1  0.83564323  0.83574042  0.66335229  1
  I  I108  1  0.00003781  0.16447669  0.16821758  1
  I  I109  1  -0.00021097  0.16301582  0.50103117  1
  I  I110  1  -0.00002492  0.15977476  0.83010539  1
  I  I111  1  0.00000977  0.50310276  0.16953230  1
  I  I112  1  -0.00317697  0.49771157  0.50213300  1
  I  I113  1  0.00013482  0.50979575  0.82677543  1
  I  I114  1  0.00024784  0.83246138  0.16901413  1
  I  I115  1  -0.00013311  0.83760615  0.49767437  1
  I  I116  1  0.00281740  0.83121090  0.83457440  1
  I  I117  1  0.33327514  0.16422460  0.16924039  1
  I  I118  1  0.33237822  0.15644607  0.50092246  1
  I  I119  1  0.33322759  0.17058607  0.82864938  1
  I  I120  1  0.33300752  0.50290314  0.16753861  1
  I  I121  1  0.33322488  0.50075904  0.50168031  1
  I  I122  1  0.33024370  0.50516490  0.83113250  1
  I  I123  1  0.33275265  0.83393432  0.16669681  1
  I  I124  1  0.33038333  0.83842898  0.49824709  1
  I  I125  1  0.33184197  0.82805717  0.83483747  1
  I  I126  1  0.66671724  0.16421065  0.16940866  1
  I  I127  1  0.66779927  0.16384852  0.50071952  1
  I  I128  1  0.66676835  0.16445891  0.82864325  1
  I  I129  1  0.66696257  0.50349068  0.16597573  1
  I  I130  1  0.67152712  0.50428328  0.50701256  1
  I  I131  1  0.66974076  0.50350362  0.82651971  1
  I  I132  1  0.66699186  0.83277494  0.16832087  1
  I  I133  1  0.66956327  0.83450731  0.49757607  1
  I  I134  1  0.66481967  0.83175995  0.83561270  1
