# generated using pymatgen
data_Cs27Sn14Pb13I81
_symmetry_space_group_name_H-M   'P 1'
_cell_length_a   18.97871912
_cell_length_b   18.96702247
_cell_length_c   18.98248604
_cell_angle_alpha   90.00281792
_cell_angle_beta   90.00086507
_cell_angle_gamma   90.00071264
_symmetry_Int_Tables_number   1
_chemical_formula_structural   Cs27Sn14Pb13I81
_chemical_formula_sum   'Cs27 Sn14 Pb13 I81'
_cell_volume   6833.12154141
_cell_formula_units_Z   1
loop_
 _symmetry_equiv_pos_site_id
 _symmetry_equiv_pos_as_xyz
  1  'x, y, z'
loop_
 _atom_site_type_symbol
 _atom_site_label
 _atom_site_symmetry_multiplicity
 _atom_site_fract_x
 _atom_site_fract_y
 _atom_site_fract_z
 _atom_site_occupancy
  Cs  Cs0  1  -0.00099753  -0.00090049  -0.00237212  1
  Cs  Cs1  1  0.00257321  0.00007814  0.33282274  1
  Cs  Cs2  1  -0.00061099  -0.00156607  0.66874749  1
  Cs  Cs3  1  0.00211976  0.33154436  0.00054310  1
  Cs  Cs4  1  -0.00033502  0.33465080  0.33345058  1
  Cs  Cs5  1  0.00092676  0.33254629  0.66598172  1
  Cs  Cs6  1  -0.00390017  0.67444763  0.00112633  1
  Cs  Cs7  1  -0.00378007  0.66633429  0.32998630  1
  Cs  Cs8  1  -0.00018899  0.67118645  0.66701241  1
  Cs  Cs9  1  0.33417446  0.00063453  0.00262458  1
  Cs  Cs10  1  0.34295487  -0.00767923  0.33393241  1
  Cs  Cs11  1  0.33338951  -0.00333009  0.66487595  1
  Cs  Cs12  1  0.33253100  0.33393740  -0.00036586  1
  Cs  Cs13  1  0.33131198  0.33385059  0.33130846  1
  Cs  Cs14  1  0.33064596  0.33636125  0.66900684  1
  Cs  Cs15  1  0.33291641  0.66238813  0.00032372  1
  Cs  Cs16  1  0.33330903  0.66940773  0.33543838  1
  Cs  Cs17  1  0.33398400  0.66450468  0.66479671  1
  Cs  Cs18  1  0.66710946  -0.00094396  0.00104539  1
  Cs  Cs19  1  0.65392466  0.00092604  0.33757359  1
  Cs  Cs20  1  0.66700296  0.00009861  0.66436858  1
  Cs  Cs21  1  0.66613209  0.33307839  -0.00244904  1
  Cs  Cs22  1  0.66989013  0.33232139  0.33646284  1
  Cs  Cs23  1  0.66857602  0.33292582  0.66699833  1
  Cs  Cs24  1  0.67048498  0.66793363  0.00010411  1
  Cs  Cs25  1  0.67178087  0.66631494  0.33035253  1
  Cs  Cs26  1  0.66606793  0.66592015  0.66861289  1
  Sn  Sn27  1  0.16703990  0.16696345  0.49974459  1
  Sn  Sn28  1  0.83366028  0.16670121  0.16639444  1
  Sn  Sn29  1  0.83345226  0.83368997  0.49983649  1
  Sn  Sn30  1  0.16617861  0.16702230  0.16686627  1
  Sn  Sn31  1  0.83502640  0.49922081  0.83340300  1
  Sn  Sn32  1  0.49958834  0.83431540  0.83355834  1
  Sn  Sn33  1  0.16720086  0.49924889  0.49985534  1
  Sn  Sn34  1  0.49962357  0.16563573  0.83311315  1
  Sn  Sn35  1  0.49962373  0.49931456  0.49855844  1
  Sn  Sn36  1  0.83356178  0.16752522  0.83403278  1
  Sn  Sn37  1  0.16719791  0.49948866  0.16656747  1
  Sn  Sn38  1  0.16503878  0.49958186  0.83359452  1
  Sn  Sn39  1  0.49954791  0.49931462  0.16803538  1
  Sn  Sn40  1  0.16674603  0.16724559  0.83329892  1
  Pb  Pb41  1  0.16512835  0.83297574  0.49995817  1
  Pb  Pb42  1  0.83419703  0.50118175  0.50234875  1
  Pb  Pb43  1  0.16667976  0.83356486  0.16661904  1
  Pb  Pb44  1  0.49705151  0.16921554  0.50260788  1
  Pb  Pb45  1  0.83147323  0.83406398  0.83224708  1
  Pb  Pb46  1  0.49964393  0.16882208  0.16477643  1
  Pb  Pb47  1  0.16888598  0.83337484  0.83341199  1
  Pb  Pb48  1  0.50193486  0.83029853  0.50191377  1
  Pb  Pb49  1  0.83393811  0.49794728  0.16415301  1
  Pb  Pb50  1  0.83556933  0.16502210  0.49991908  1
  Pb  Pb51  1  0.83315958  0.83758744  0.16945793  1
  Pb  Pb52  1  0.49973909  0.49937063  0.83349255  1
  Pb  Pb53  1  0.49992793  0.82996047  0.16409582  1
  I  I54  1  0.16150861  0.00423345  0.16475018  1
  I  I55  1  0.16301514  0.00326514  0.50219591  1
  I  I56  1  0.16352348  0.00394994  0.83303663  1
  I  I57  1  0.16702117  0.33341512  0.16565075  1
  I  I58  1  0.16920750  0.33401060  0.50157620  1
  I  I59  1  0.16840368  0.33301545  0.83297364  1
  I  I60  1  0.17110362  0.66260568  0.16651658  1
  I  I61  1  0.17004050  0.66274627  0.50135739  1
  I  I62  1  0.16451327  0.66286812  0.83271291  1
  I  I63  1  0.49992983  0.00029690  0.16716493  1
  I  I64  1  0.49924406  0.00023936  0.49959857  1
  I  I65  1  0.50038897  0.00175922  0.83316722  1
  I  I66  1  0.49723292  0.33673686  0.16655523  1
  I  I67  1  0.50015509  0.33709107  0.49949625  1
  I  I68  1  0.49991766  0.33074915  0.83355446  1
  I  I69  1  0.49328218  0.66184988  0.16736780  1
  I  I70  1  0.49243591  0.66254296  0.50074959  1
  I  I71  1  0.50081576  0.66780298  0.83256525  1
  I  I72  1  0.84113173  0.00524551  0.15743693  1
  I  I73  1  0.83580783  -0.00229794  0.50340211  1
  I  I74  1  0.83639611  0.00367030  0.83546891  1
  I  I75  1  0.83537637  0.33005649  0.16514910  1
  I  I76  1  0.83094774  0.33322004  0.49974238  1
  I  I77  1  0.83132221  0.33228400  0.83505754  1
  I  I78  1  0.83330656  0.66657312  0.16491789  1
  I  I79  1  0.83411153  0.66869036  0.50418617  1
  I  I80  1  0.83533093  0.66414301  0.83127329  1
  I  I81  1  0.16633771  0.17293685  -0.00067740  1
  I  I82  1  0.15919349  0.17424750  0.33273010  1
  I  I83  1  0.16676982  0.17294243  0.66767022  1
  I  I84  1  0.16926419  0.49361309  -0.00020629  1
  I  I85  1  0.17195248  0.49342580  0.33328356  1
  I  I86  1  0.16796672  0.49418506  0.66699727  1
  I  I87  1  0.16624648  0.83202660  -0.00016050  1
  I  I88  1  0.16590700  0.83427320  0.33337766  1
  I  I89  1  0.16666751  0.83314257  0.66679277  1
  I  I90  1  0.49603159  0.16687050  -0.00347371  1
  I  I91  1  0.50151766  0.16564187  0.33347080  1
  I  I92  1  0.50169172  0.16609131  0.67076576  1
  I  I93  1  0.49611951  0.49962576  0.00176731  1
  I  I94  1  0.49164406  0.50002090  0.33340131  1
  I  I95  1  0.49652727  0.50034990  0.66508714  1
  I  I96  1  0.50157488  0.83579595  -0.00366676  1
  I  I97  1  0.50119236  0.83482709  0.33343661  1
  I  I98  1  0.50048028  0.83514999  0.66958675  1
  I  I99  1  0.83797859  0.17040153  -0.00160843  1
  I  I100  1  0.83925711  0.16585306  0.33071830  1
  I  I101  1  0.83395997  0.16892195  0.66992845  1
  I  I102  1  0.83478120  0.49909221  -0.00387005  1
  I  I103  1  0.83414963  0.50053658  0.33318423  1
  I  I104  1  0.83524173  0.49405164  0.67034583  1
  I  I105  1  0.83170806  0.83096829  0.00004380  1
  I  I106  1  0.83473193  0.83021595  0.33663467  1
  I  I107  1  0.83293888  0.83422646  0.66482656  1
  I  I108  1  0.00147738  0.17245829  0.16183236  1
  I  I109  1  0.00367344  0.17336622  0.50447087  1
  I  I110  1  0.00066720  0.17171877  0.83364270  1
  I  I111  1  0.00338258  0.49737572  0.16997166  1
  I  I112  1  0.00361085  0.49696295  0.49812283  1
  I  I113  1  0.00130759  0.49231463  0.83211062  1
  I  I114  1  -0.00028723  0.82787666  0.16612270  1
  I  I115  1  -0.00237600  0.83135791  0.50341872  1
  I  I116  1  -0.00012351  0.83409814  0.83184724  1
  I  I117  1  0.33006779  0.16993277  0.16438178  1
  I  I118  1  0.32889503  0.16794995  0.49966025  1
  I  I119  1  0.33190638  0.16814309  0.83348193  1
  I  I120  1  0.33165419  0.49425165  0.16366284  1
  I  I121  1  0.33188718  0.49689925  0.50325373  1
  I  I122  1  0.33040054  0.49714195  0.83324665  1
  I  I123  1  0.33349816  0.83846659  0.16704236  1
  I  I124  1  0.33359793  0.83485177  0.50106635  1
  I  I125  1  0.33659532  0.83642115  0.83193553  1
  I  I126  1  0.66887901  0.16834970  0.16031404  1
  I  I127  1  0.66642527  0.16657689  0.50044628  1
  I  I128  1  0.66746255  0.16820695  0.83811922  1
  I  I129  1  0.66458956  0.49894455  0.16859684  1
  I  I130  1  0.66453975  0.50302981  0.49858325  1
  I  I131  1  0.66841298  0.49711871  0.83278357  1
  I  I132  1  0.66663718  0.83187630  0.16616932  1
  I  I133  1  0.66929316  0.83352573  0.50212018  1
  I  I134  1  0.66381527  0.83496188  0.83141685  1
