# generated using pymatgen
data_Cs27Sn14Pb13I81
_symmetry_space_group_name_H-M   'P 1'
_cell_length_a   18.98032985
_cell_length_b   18.97244623
_cell_length_c   18.97449238
_cell_angle_alpha   90.00124208
_cell_angle_beta   90.00015831
_cell_angle_gamma   89.99961801
_symmetry_Int_Tables_number   1
_chemical_formula_structural   Cs27Sn14Pb13I81
_chemical_formula_sum   'Cs27 Sn14 Pb13 I81'
_cell_volume   6832.77708344
_cell_formula_units_Z   1
loop_
 _symmetry_equiv_pos_site_id
 _symmetry_equiv_pos_as_xyz
  1  'x, y, z'
loop_
 _atom_site_type_symbol
 _atom_site_label
 _atom_site_symmetry_multiplicity
 _atom_site_fract_x
 _atom_site_fract_y
 _atom_site_fract_z
 _atom_site_occupancy
  Cs  Cs0  1  0.00003298  0.00261570  -0.00144720  1
  Cs  Cs1  1  -0.00019195  -0.00005774  0.33337144  1
  Cs  Cs2  1  0.00094889  -0.00169852  0.66579791  1
  Cs  Cs3  1  -0.00349272  0.32841789  -0.00156521  1
  Cs  Cs4  1  0.00167546  0.33348848  0.33088776  1
  Cs  Cs5  1  -0.00121342  0.34193671  0.67319868  1
  Cs  Cs6  1  0.00188498  0.66884695  0.00372679  1
  Cs  Cs7  1  0.00041073  0.66736742  0.33322933  1
  Cs  Cs8  1  0.00013368  0.66298509  0.66658974  1
  Cs  Cs9  1  0.33311271  -0.00022228  -0.00125081  1
  Cs  Cs10  1  0.33260865  0.00098759  0.33378818  1
  Cs  Cs11  1  0.33475591  0.00036769  0.66652758  1
  Cs  Cs12  1  0.33420476  0.33295412  -0.00065692  1
  Cs  Cs13  1  0.33341970  0.33051439  0.33528201  1
  Cs  Cs14  1  0.33529594  0.34139031  0.66549918  1
  Cs  Cs15  1  0.33604096  0.66457624  0.00200591  1
  Cs  Cs16  1  0.33203996  0.66603385  0.32868409  1
  Cs  Cs17  1  0.32970535  0.66237226  0.67019633  1
  Cs  Cs18  1  0.66673638  0.00049349  -0.00048474  1
  Cs  Cs19  1  0.66787391  -0.00087558  0.33563807  1
  Cs  Cs20  1  0.66439702  -0.00158465  0.66432244  1
  Cs  Cs21  1  0.66973810  0.33183756  -0.00366918  1
  Cs  Cs22  1  0.66380303  0.33135427  0.33739039  1
  Cs  Cs23  1  0.66501799  0.34356539  0.66549301  1
  Cs  Cs24  1  0.66242644  0.66707997  0.00152015  1
  Cs  Cs25  1  0.66713893  0.66773949  0.33042358  1
  Cs  Cs26  1  0.66944690  0.66676317  0.66797675  1
  Sn  Sn27  1  0.16745608  0.16636916  0.16718129  1
  Sn  Sn28  1  0.49953165  0.16600216  0.16585624  1
  Sn  Sn29  1  0.83416066  0.83295495  0.16642296  1
  Sn  Sn30  1  0.16572470  0.49966130  0.16692958  1
  Sn  Sn31  1  0.16591681  0.83378087  0.16734064  1
  Sn  Sn32  1  0.50060243  0.83431662  0.83246858  1
  Sn  Sn33  1  0.83377052  0.50055174  0.16709404  1
  Sn  Sn34  1  0.83285794  0.83393824  0.83349786  1
  Sn  Sn35  1  0.16527612  0.16607358  0.49990858  1
  Sn  Sn36  1  0.16684635  0.83425777  0.49924246  1
  Sn  Sn37  1  0.83469983  0.16633647  0.50046519  1
  Sn  Sn38  1  0.83362940  0.83409779  0.50019547  1
  Sn  Sn39  1  0.49995349  0.16588508  0.83356346  1
  Sn  Sn40  1  0.49953799  0.83349336  0.50070497  1
  Pb  Pb41  1  0.83335007  0.50327774  0.83664837  1
  Pb  Pb42  1  0.50017890  0.50055723  0.83355902  1
  Pb  Pb43  1  0.50039810  0.49659854  0.16675508  1
  Pb  Pb44  1  0.83097952  0.16445422  0.82958356  1
  Pb  Pb45  1  0.16876735  0.16653882  0.83229446  1
  Pb  Pb46  1  0.49996668  0.50434085  0.49958575  1
  Pb  Pb47  1  0.16642097  0.49989628  0.83700208  1
  Pb  Pb48  1  0.16681605  0.83350237  0.83318690  1
  Pb  Pb49  1  0.83351082  0.50035547  0.49745355  1
  Pb  Pb50  1  0.49962037  0.16524044  0.50049582  1
  Pb  Pb51  1  0.16652279  0.49992944  0.49777391  1
  Pb  Pb52  1  0.49996467  0.83516641  0.16663540  1
  Pb  Pb53  1  0.83351662  0.16623905  0.16819972  1
  I  I54  1  0.16677886  -0.00039060  0.17077962  1
  I  I55  1  0.16592876  -0.00105513  0.49124167  1
  I  I56  1  0.16539228  -0.00018920  0.83979387  1
  I  I57  1  0.16716160  0.33237170  0.17083352  1
  I  I58  1  0.16345690  0.32978800  0.49488417  1
  I  I59  1  0.16930734  0.33306405  0.83236803  1
  I  I60  1  0.16208220  0.66803613  0.17032378  1
  I  I61  1  0.16621576  0.67043621  0.49661377  1
  I  I62  1  0.16942572  0.66712046  0.83236977  1
  I  I63  1  0.49606051  0.00282530  0.16593691  1
  I  I64  1  0.50066174  -0.00314488  0.50053651  1
  I  I65  1  0.50341338  -0.00114328  0.83397836  1
  I  I66  1  0.49646109  0.32856290  0.16192480  1
  I  I67  1  0.50050574  0.33304492  0.50011498  1
  I  I68  1  0.49840552  0.33028274  0.83867299  1
  I  I69  1  0.49740678  0.66696985  0.16661319  1
  I  I70  1  0.50094715  0.67281678  0.50507012  1
  I  I71  1  0.50402989  0.67062339  0.82911635  1
  I  I72  1  0.83564095  -0.00333311  0.16576255  1
  I  I73  1  0.83354449  -0.00196486  0.49640964  1
  I  I74  1  0.83161364  -0.00385166  0.83973588  1
  I  I75  1  0.83631461  0.33510072  0.16926008  1
  I  I76  1  0.83680592  0.33032495  0.49664144  1
  I  I77  1  0.83172998  0.33321849  0.83348145  1
  I  I78  1  0.84047117  0.66885515  0.16843488  1
  I  I79  1  0.83355748  0.67079314  0.50193526  1
  I  I80  1  0.82686583  0.67167516  0.82721331  1
  I  I81  1  0.16883126  0.16602272  0.00338938  1
  I  I82  1  0.16954454  0.16541998  0.33236211  1
  I  I83  1  0.16443731  0.15812128  0.66273725  1
  I  I84  1  0.16339761  0.50188498  0.00552106  1
  I  I85  1  0.16241272  0.50113333  0.32956862  1
  I  I86  1  0.16847325  0.50005686  0.66647385  1
  I  I87  1  0.16377953  0.83333223  0.00360349  1
  I  I88  1  0.16439949  0.83372202  0.33284446  1
  I  I89  1  0.16503778  0.83935359  0.66315983  1
  I  I90  1  0.49475964  0.16047720  0.00055622  1
  I  I91  1  0.49853220  0.16551997  0.33137230  1
  I  I92  1  0.50058802  0.16173943  0.66893837  1
  I  I93  1  0.49860899  0.50570280  0.00038123  1
  I  I94  1  0.50061955  0.49931124  0.33282948  1
  I  I95  1  0.49962532  0.49365640  0.66666846  1
  I  I96  1  0.50337361  0.83547392  -0.00219474  1
  I  I97  1  0.50249651  0.83568344  0.33571609  1
  I  I98  1  0.50349188  0.84032504  0.66655390  1
  I  I99  1  0.83475309  0.16634048  -0.00012656  1
  I  I100  1  0.83149401  0.16024756  0.33593936  1
  I  I101  1  0.83834531  0.15915938  0.66178342  1
  I  I102  1  0.83803297  0.50367433  0.00457107  1
  I  I103  1  0.83760696  0.50687915  0.32965774  1
  I  I104  1  0.83169898  0.49972214  0.66671460  1
  I  I105  1  0.83272452  0.82836066  0.00093578  1
  I  I106  1  0.83316261  0.83290599  0.33345584  1
  I  I107  1  0.83193912  0.83930105  0.66566697  1
  I  I108  1  0.00291136  0.16659597  0.16956381  1
  I  I109  1  0.00079759  0.15654401  0.49152431  1
  I  I110  1  -0.00029814  0.16543701  0.83680879  1
  I  I111  1  0.00059497  0.50056992  0.16774802  1
  I  I112  1  0.00003047  0.50398279  0.50127290  1
  I  I113  1  -0.00036446  0.50147074  0.83033474  1
  I  I114  1  0.00017109  0.83393469  0.16910052  1
  I  I115  1  -0.00013196  0.83741233  0.49841505  1
  I  I116  1  -0.00291708  0.83233948  0.83209572  1
  I  I117  1  0.33181694  0.16589572  0.16909449  1
  I  I118  1  0.33053920  0.16123394  0.49707358  1
  I  I119  1  0.33676847  0.15811264  0.83434918  1
  I  I120  1  0.33011355  0.50439742  0.16711569  1
  I  I121  1  0.33312227  0.49848720  0.49709092  1
  I  I122  1  0.33347390  0.50290217  0.83504362  1
  I  I123  1  0.33042261  0.83130839  0.16958852  1
  I  I124  1  0.33245325  0.83837055  0.49891376  1
  I  I125  1  0.33636641  0.83728473  0.83050722  1
  I  I126  1  0.66471656  0.16552974  0.16513007  1
  I  I127  1  0.66864468  0.16095803  0.49785874  1
  I  I128  1  0.66322282  0.16319714  0.84087478  1
  I  I129  1  0.66974120  0.50647182  0.16671626  1
  I  I130  1  0.66688862  0.49702925  0.49617758  1
  I  I131  1  0.66685295  0.49782117  0.83656817  1
  I  I132  1  0.66939991  0.83044972  0.16920445  1
  I  I133  1  0.66762896  0.83768700  0.49940741  1
  I  I134  1  0.66675362  0.83714669  0.83077504  1
