# generated using pymatgen
data_Cs27Sn13Pb14I81
_symmetry_space_group_name_H-M   'P 1'
_cell_length_a   18.96935403
_cell_length_b   18.98383074
_cell_length_c   18.97753426
_cell_angle_alpha   89.99889056
_cell_angle_beta   89.99929574
_cell_angle_gamma   90.00165394
_symmetry_Int_Tables_number   1
_chemical_formula_structural   Cs27Sn13Pb14I81
_chemical_formula_sum   'Cs27 Sn13 Pb14 I81'
_cell_volume   6834.01895193
_cell_formula_units_Z   1
loop_
 _symmetry_equiv_pos_site_id
 _symmetry_equiv_pos_as_xyz
  1  'x, y, z'
loop_
 _atom_site_type_symbol
 _atom_site_label
 _atom_site_symmetry_multiplicity
 _atom_site_fract_x
 _atom_site_fract_y
 _atom_site_fract_z
 _atom_site_occupancy
  Cs  Cs0  1  0.00733866  -0.00100679  -0.00494816  1
  Cs  Cs1  1  0.00077079  0.00069314  0.33100721  1
  Cs  Cs2  1  -0.00163350  -0.00054494  0.67767662  1
  Cs  Cs3  1  -0.00028488  0.33085012  -0.00413672  1
  Cs  Cs4  1  0.00209726  0.33469493  0.33413416  1
  Cs  Cs5  1  0.00765781  0.33958963  0.67250959  1
  Cs  Cs6  1  0.00401764  0.66961873  -0.00231675  1
  Cs  Cs7  1  -0.00260888  0.66439719  0.33383468  1
  Cs  Cs8  1  -0.00706826  0.66134852  0.67069919  1
  Cs  Cs9  1  0.33016069  -0.00169129  0.00096497  1
  Cs  Cs10  1  0.33319944  -0.00072062  0.33392453  1
  Cs  Cs11  1  0.33665886  -0.00005661  0.66345339  1
  Cs  Cs12  1  0.33422342  0.33774289  -0.00132479  1
  Cs  Cs13  1  0.33200893  0.33254604  0.33486191  1
  Cs  Cs14  1  0.32757341  0.33580105  0.66443233  1
  Cs  Cs15  1  0.33278653  0.66507238  -0.00203242  1
  Cs  Cs16  1  0.33501234  0.66862709  0.33286316  1
  Cs  Cs17  1  0.33278855  0.66617636  0.66606270  1
  Cs  Cs18  1  0.66641757  0.00189849  0.00120844  1
  Cs  Cs19  1  0.66598042  0.00072028  0.33376982  1
  Cs  Cs20  1  0.66529942  -0.00004239  0.66571924  1
  Cs  Cs21  1  0.66621550  0.33445797  0.00105955  1
  Cs  Cs22  1  0.66578573  0.33046318  0.33094659  1
  Cs  Cs23  1  0.66767783  0.33161368  0.66838606  1
  Cs  Cs24  1  0.66460886  0.66278370  0.00277561  1
  Cs  Cs25  1  0.66769084  0.66726683  0.33250455  1
  Cs  Cs26  1  0.67300306  0.66691837  0.66558571  1
  Sn  Sn27  1  0.50050093  0.49993968  0.49989552  1
  Sn  Sn28  1  0.49950697  0.83301138  0.50008100  1
  Sn  Sn29  1  0.50035973  0.16585084  0.16643774  1
  Sn  Sn30  1  0.50068222  0.16699367  0.50000511  1
  Sn  Sn31  1  0.16612084  0.83354139  0.50003995  1
  Sn  Sn32  1  0.83284120  0.83406705  0.16686760  1
  Sn  Sn33  1  0.50037205  0.83397057  0.83345986  1
  Sn  Sn34  1  0.83329468  0.16663778  0.49963220  1
  Sn  Sn35  1  0.50067842  0.83412439  0.16636321  1
  Sn  Sn36  1  0.50010894  0.16594580  0.83347214  1
  Sn  Sn37  1  0.83282647  0.16619083  0.16760269  1
  Sn  Sn38  1  0.83462301  0.49962578  0.16703511  1
  Sn  Sn39  1  0.16570331  0.50001020  0.16711481  1
  Pb  Pb40  1  0.50031219  0.49988592  0.16831837  1
  Pb  Pb41  1  0.83037184  0.83343706  0.83659538  1
  Pb  Pb42  1  0.16939243  0.83322581  0.82993344  1
  Pb  Pb43  1  0.83120611  0.16670540  0.83352355  1
  Pb  Pb44  1  0.83129744  0.49703267  0.49806148  1
  Pb  Pb45  1  0.83290287  0.49987683  0.83637882  1
  Pb  Pb46  1  0.16691132  0.50033578  0.83602842  1
  Pb  Pb47  1  0.17023854  0.16648847  0.83321040  1
  Pb  Pb48  1  0.16691926  0.83168049  0.16833727  1
  Pb  Pb49  1  0.16847265  0.50259866  0.49826298  1
  Pb  Pb50  1  0.50027788  0.50007474  0.82998664  1
  Pb  Pb51  1  0.16674921  0.16866468  0.16684121  1
  Pb  Pb52  1  0.83327346  0.83561828  0.49831830  1
  Pb  Pb53  1  0.16593622  0.16440676  0.49994726  1
  I  I54  1  0.16536335  -0.00018802  0.16726296  1
  I  I55  1  0.17593332  -0.00310461  0.49681964  1
  I  I56  1  0.16431136  -0.00034228  0.83560781  1
  I  I57  1  0.16486287  0.33648458  0.16827314  1
  I  I58  1  0.16926460  0.33346688  0.49871815  1
  I  I59  1  0.16924942  0.33342736  0.83290367  1
  I  I60  1  0.16407229  0.66396918  0.16889683  1
  I  I61  1  0.17519871  0.67018864  0.49728151  1
  I  I62  1  0.17103146  0.66697332  0.83436515  1
  I  I63  1  0.50626887  -0.00010561  0.17029700  1
  I  I64  1  0.49950215  0.00003272  0.49970432  1
  I  I65  1  0.50063659  0.00000750  0.82976465  1
  I  I66  1  0.50249975  0.33035638  0.16704430  1
  I  I67  1  0.50439931  0.33191361  0.49811327  1
  I  I68  1  0.50110662  0.32999571  0.83544572  1
  I  I69  1  0.50260424  0.66946946  0.16753303  1
  I  I70  1  0.49492134  0.66803414  0.49818070  1
  I  I71  1  0.49917446  0.67005486  0.83542407  1
  I  I72  1  0.82592700  0.00051458  0.17138659  1
  I  I73  1  0.82575892  0.00337536  0.49280989  1
  I  I74  1  0.83460514  0.00003582  0.83505144  1
  I  I75  1  0.83139119  0.33233664  0.17063344  1
  I  I76  1  0.82539938  0.32917756  0.49280458  1
  I  I77  1  0.82920970  0.33305545  0.83561485  1
  I  I78  1  0.83111062  0.66719909  0.16676062  1
  I  I79  1  0.83117529  0.66677005  0.49720355  1
  I  I80  1  0.82992844  0.66685987  0.83343124  1
  I  I81  1  0.16672370  0.16674725  0.00024124  1
  I  I82  1  0.17237684  0.16667610  0.33330581  1
  I  I83  1  0.16630279  0.16700502  0.66644571  1
  I  I84  1  0.16500633  0.50130840  0.00431629  1
  I  I85  1  0.16348240  0.50009698  0.33041334  1
  I  I86  1  0.16911392  0.49993490  0.66638279  1
  I  I87  1  0.16730371  0.83154994  -0.00000435  1
  I  I88  1  0.17566974  0.83318546  0.33576532  1
  I  I89  1  0.17425250  0.83449089  0.66225604  1
  I  I90  1  0.50386080  0.16050569  0.00125122  1
  I  I91  1  0.50365183  0.16436010  0.33328280  1
  I  I92  1  0.50379094  0.16309489  0.66545808  1
  I  I93  1  0.49963037  0.49993357  0.00023165  1
  I  I94  1  0.50012161  0.50052918  0.33600824  1
  I  I95  1  0.49882536  0.49980251  0.66208341  1
  I  I96  1  0.50481514  0.83956990  0.00123209  1
  I  I97  1  0.49960964  0.83531117  0.33326333  1
  I  I98  1  0.49441625  0.83669270  0.66567193  1
  I  I99  1  0.82807385  0.16810286  0.00390652  1
  I  I100  1  0.82396658  0.16654658  0.33203281  1
  I  I101  1  0.82664909  0.16468276  0.66363912  1
  I  I102  1  0.83386494  0.49706905  0.00536017  1
  I  I103  1  0.83512424  0.50212230  0.32964910  1
  I  I104  1  0.83173714  0.49937786  0.66620162  1
  I  I105  1  0.82863768  0.83538737  0.00524432  1
  I  I106  1  0.82680341  0.83160614  0.32986885  1
  I  I107  1  0.83291970  0.83487991  0.66658340  1
  I  I108  1  -0.00373098  0.16447452  0.17256300  1
  I  I109  1  -0.00344397  0.16454614  0.49091967  1
  I  I110  1  -0.00017178  0.16727190  0.83367662  1
  I  I111  1  -0.00133590  0.50046328  0.16866431  1
  I  I112  1  -0.00025633  0.50046291  0.49945836  1
  I  I113  1  -0.00003897  0.49986132  0.82985719  1
  I  I114  1  -0.00290831  0.83534054  0.17032067  1
  I  I115  1  0.00196824  0.83523709  0.49407962  1
  I  I116  1  -0.00009164  0.83282948  0.83346514  1
  I  I117  1  0.33730491  0.16325931  0.16802338  1
  I  I118  1  0.33733098  0.16782768  0.49900458  1
  I  I119  1  0.33892025  0.16244749  0.83352344  1
  I  I120  1  0.33192718  0.50050874  0.16885543  1
  I  I121  1  0.33686257  0.49524538  0.49652285  1
  I  I122  1  0.33393599  0.49913659  0.83736253  1
  I  I123  1  0.33712551  0.83597974  0.16594646  1
  I  I124  1  0.33676373  0.83519579  0.49738911  1
  I  I125  1  0.33802486  0.83755302  0.83928061  1
  I  I126  1  0.66557246  0.16814896  0.16770931  1
  I  I127  1  0.66436131  0.16461383  0.49810818  1
  I  I128  1  0.66261405  0.16239326  0.83317677  1
  I  I129  1  0.66903530  0.50013461  0.16828711  1
  I  I130  1  0.66307906  0.50561757  0.49702283  1
  I  I131  1  0.66612188  0.50019214  0.83669555  1
  I  I132  1  0.66522894  0.83166570  0.16888321  1
  I  I133  1  0.66286419  0.83218051  0.50105227  1
  I  I134  1  0.66204136  0.83772599  0.82735725  1
