# generated using pymatgen
data_Cs27Sn13Pb14I81
_symmetry_space_group_name_H-M   'P 1'
_cell_length_a   18.97363494
_cell_length_b   18.97280559
_cell_length_c   18.98182693
_cell_angle_alpha   89.99834946
_cell_angle_beta   90.00023020
_cell_angle_gamma   89.99747777
_symmetry_Int_Tables_number   1
_chemical_formula_structural   Cs27Sn13Pb14I81
_chemical_formula_sum   'Cs27 Sn13 Pb14 I81'
_cell_volume   6833.13664658
_cell_formula_units_Z   1
loop_
 _symmetry_equiv_pos_site_id
 _symmetry_equiv_pos_as_xyz
  1  'x, y, z'
loop_
 _atom_site_type_symbol
 _atom_site_label
 _atom_site_symmetry_multiplicity
 _atom_site_fract_x
 _atom_site_fract_y
 _atom_site_fract_z
 _atom_site_occupancy
  Cs  Cs0  1  -0.00340963  0.00129572  -0.00613822  1
  Cs  Cs1  1  -0.00116293  0.00383183  0.33956602  1
  Cs  Cs2  1  0.00218101  -0.00080750  0.66509243  1
  Cs  Cs3  1  0.00269078  0.33518299  0.00092238  1
  Cs  Cs4  1  -0.00040957  0.33290660  0.33326150  1
  Cs  Cs5  1  0.00157528  0.33395572  0.66584857  1
  Cs  Cs6  1  0.00091687  0.66467158  0.00028746  1
  Cs  Cs7  1  -0.00153837  0.66500479  0.33250175  1
  Cs  Cs8  1  -0.00117035  0.66651608  0.66671468  1
  Cs  Cs9  1  0.33589168  -0.00488274  0.00044814  1
  Cs  Cs10  1  0.33395477  -0.00060201  0.33460296  1
  Cs  Cs11  1  0.32895660  -0.00117377  0.66494948  1
  Cs  Cs12  1  0.33063763  0.33270283  0.00088344  1
  Cs  Cs13  1  0.33512622  0.33250809  0.33142239  1
  Cs  Cs14  1  0.33528997  0.33496621  0.66851398  1
  Cs  Cs15  1  0.33356295  0.67652579  0.00467109  1
  Cs  Cs16  1  0.33247197  0.66919007  0.32948669  1
  Cs  Cs17  1  0.33497384  0.66464340  0.66758121  1
  Cs  Cs18  1  0.66675293  -0.00028969  -0.00751404  1
  Cs  Cs19  1  0.66599661  -0.00099106  0.33255528  1
  Cs  Cs20  1  0.66796586  0.00089020  0.67270249  1
  Cs  Cs21  1  0.66616466  0.33041328  0.00067756  1
  Cs  Cs22  1  0.66639222  0.33323352  0.33229996  1
  Cs  Cs23  1  0.66237109  0.33487642  0.66919022  1
  Cs  Cs24  1  0.66689700  0.66910992  0.00103132  1
  Cs  Cs25  1  0.66743220  0.66704879  0.33473809  1
  Cs  Cs26  1  0.66628853  0.66383872  0.66370106  1
  Sn  Sn27  1  0.50086832  0.83437927  0.49989462  1
  Sn  Sn28  1  0.16625197  0.49958810  0.83279928  1
  Sn  Sn29  1  0.50064820  0.49951650  0.16652271  1
  Sn  Sn30  1  0.83359409  0.83302739  0.16743646  1
  Sn  Sn31  1  0.83401138  0.50027718  0.50000883  1
  Sn  Sn32  1  0.16623680  0.49996191  0.50036183  1
  Sn  Sn33  1  0.49931125  0.16719543  0.16726296  1
  Sn  Sn34  1  0.50032001  0.16578447  0.49949118  1
  Sn  Sn35  1  0.16693757  0.16740492  0.83432293  1
  Sn  Sn36  1  0.16717774  0.16655552  0.16604344  1
  Sn  Sn37  1  0.83230870  0.50046308  0.16663154  1
  Sn  Sn38  1  0.83368429  0.49974348  0.83335816  1
  Sn  Sn39  1  0.83236966  0.83279111  0.49905031  1
  Pb  Pb40  1  0.49930302  0.50012968  0.83688783  1
  Pb  Pb41  1  0.83601538  0.16968616  0.83306861  1
  Pb  Pb42  1  0.83066115  0.16694618  0.50014093  1
  Pb  Pb43  1  0.16894732  0.16906037  0.49995490  1
  Pb  Pb44  1  0.50224262  0.83404750  0.16834508  1
  Pb  Pb45  1  0.50014296  0.83317270  0.82970671  1
  Pb  Pb46  1  0.16299485  0.83718454  0.16691645  1
  Pb  Pb47  1  0.16649764  0.49893230  0.16651244  1
  Pb  Pb48  1  0.83302571  0.16639776  0.16667952  1
  Pb  Pb49  1  0.50001567  0.50008488  0.49802351  1
  Pb  Pb50  1  0.16626507  0.83037341  0.49984223  1
  Pb  Pb51  1  0.16651300  0.83264018  0.83338123  1
  Pb  Pb52  1  0.49735324  0.16678605  0.83372279  1
  Pb  Pb53  1  0.83342371  0.83062894  0.83270800  1
  I  I54  1  0.17337423  0.00501628  0.16152835  1
  I  I55  1  0.16441160  0.00020713  0.50072138  1
  I  I56  1  0.16852661  0.00322002  0.83759974  1
  I  I57  1  0.16650306  0.33098996  0.16597990  1
  I  I58  1  0.16150083  0.33694609  0.50078025  1
  I  I59  1  0.16215920  0.33435050  0.83342589  1
  I  I60  1  0.17005996  0.66666790  0.16618644  1
  I  I61  1  0.16719710  0.66225397  0.50561484  1
  I  I62  1  0.16181881  0.66257623  0.82864239  1
  I  I63  1  0.49650631  0.00298644  0.16967213  1
  I  I64  1  0.50404012  0.00015485  0.49346074  1
  I  I65  1  0.49886050  0.00020313  0.83806862  1
  I  I66  1  0.50216274  0.33305278  0.17285103  1
  I  I67  1  0.49924342  0.33139063  0.49699959  1
  I  I68  1  0.50296958  0.33355787  0.82796002  1
  I  I69  1  0.50186999  0.66435449  0.16784982  1
  I  I70  1  0.50173794  0.66868846  0.49861619  1
  I  I71  1  0.49721305  0.66624244  0.83364773  1
  I  I72  1  0.83449039  -0.00293735  0.17343504  1
  I  I73  1  0.83158004  -0.00317496  0.49348610  1
  I  I74  1  0.83417962  -0.00006892  0.83408722  1
  I  I75  1  0.83248737  0.33663475  0.16764299  1
  I  I76  1  0.83636285  0.33710901  0.49842329  1
  I  I77  1  0.83436375  0.33808168  0.83362286  1
  I  I78  1  0.82799617  0.66470185  0.16752063  1
  I  I79  1  0.83100429  0.66556789  0.49934495  1
  I  I80  1  0.84051416  0.66235911  0.83379841  1
  I  I81  1  0.17099843  0.17437916  0.00027721  1
  I  I82  1  0.16872744  0.16883364  0.33095366  1
  I  I83  1  0.16737154  0.16981673  0.66893322  1
  I  I84  1  0.16247099  0.49601143  -0.00241122  1
  I  I85  1  0.16344863  0.49854045  0.33536638  1
  I  I86  1  0.15917668  0.49463688  0.66685186  1
  I  I87  1  0.16581737  0.82827080  0.00033861  1
  I  I88  1  0.16840996  0.83228460  0.33337250  1
  I  I89  1  0.16547451  0.83823873  0.66641110  1
  I  I90  1  0.49868563  0.17220521  0.00341156  1
  I  I91  1  0.49426049  0.16763251  0.33241291  1
  I  I92  1  0.49992924  0.16327481  0.66380001  1
  I  I93  1  0.50412491  0.49325782  0.00479277  1
  I  I94  1  0.50343634  0.49808021  0.33031221  1
  I  I95  1  0.50202602  0.49975705  0.66649248  1
  I  I96  1  0.50097829  0.83318320  0.00040931  1
  I  I97  1  0.50266922  0.83387166  0.33623332  1
  I  I98  1  0.50663109  0.83803696  0.66141342  1
  I  I99  1  0.82928908  0.16557707  0.00011324  1
  I  I100  1  0.83851816  0.17149062  0.33329270  1
  I  I101  1  0.83294843  0.16593243  0.66651215  1
  I  I102  1  0.83426594  0.50303468  0.00069545  1
  I  I103  1  0.83374485  0.50390600  0.33347188  1
  I  I104  1  0.83827036  0.50350403  0.66581386  1
  I  I105  1  0.83387309  0.82960241  0.00278396  1
  I  I106  1  0.82972360  0.82409612  0.33409270  1
  I  I107  1  0.82933003  0.82904913  0.66303089  1
  I  I108  1  0.00257610  0.16798273  0.16247577  1
  I  I109  1  0.00021684  0.16461807  0.49946451  1
  I  I110  1  0.00402576  0.16845084  0.83986798  1
  I  I111  1  -0.00293985  0.50186180  0.16705489  1
  I  I112  1  -0.00140792  0.50437716  0.49858472  1
  I  I113  1  -0.00034944  0.49614167  0.83427361  1
  I  I114  1  -0.00471576  0.82522134  0.17297000  1
  I  I115  1  -0.00356534  0.83062705  0.49665582  1
  I  I116  1  -0.00022135  0.83662689  0.83133455  1
  I  I117  1  0.33418066  0.17410456  0.16720366  1
  I  I118  1  0.33677673  0.16284497  0.49791820  1
  I  I119  1  0.32962098  0.17583458  0.83392726  1
  I  I120  1  0.33550182  0.49656844  0.16834092  1
  I  I121  1  0.33118578  0.49881420  0.50364886  1
  I  I122  1  0.32980976  0.49479847  0.82747988  1
  I  I123  1  0.33350667  0.82979385  0.16776322  1
  I  I124  1  0.33611053  0.83617986  0.50005734  1
  I  I125  1  0.33324888  0.83017833  0.83282466  1
  I  I126  1  0.66363783  0.16934299  0.17221946  1
  I  I127  1  0.66276613  0.16852732  0.49217819  1
  I  I128  1  0.66651883  0.16725723  0.83397462  1
  I  I129  1  0.66774152  0.49755808  0.16790996  1
  I  I130  1  0.66956316  0.50105142  0.50179137  1
  I  I131  1  0.66970926  0.50167356  0.82969889  1
  I  I132  1  0.67005113  0.83178353  0.16960577  1
  I  I133  1  0.66772605  0.83017573  0.49536205  1
  I  I134  1  0.66707010  0.83264394  0.83619678  1
