# generated using pymatgen
data_Cs27Sn13Pb14I81
_symmetry_space_group_name_H-M   'P 1'
_cell_length_a   18.99042952
_cell_length_b   19.00174160
_cell_length_c   18.98645408
_cell_angle_alpha   89.99919653
_cell_angle_beta   90.00257593
_cell_angle_gamma   89.99856875
_symmetry_Int_Tables_number   1
_chemical_formula_structural   Cs27Sn13Pb14I81
_chemical_formula_sum   'Cs27 Sn13 Pb14 I81'
_cell_volume   6851.28538787
_cell_formula_units_Z   1
loop_
 _symmetry_equiv_pos_site_id
 _symmetry_equiv_pos_as_xyz
  1  'x, y, z'
loop_
 _atom_site_type_symbol
 _atom_site_label
 _atom_site_symmetry_multiplicity
 _atom_site_fract_x
 _atom_site_fract_y
 _atom_site_fract_z
 _atom_site_occupancy
  Cs  Cs0  1  0.00572081  -0.00362352  -0.00042793  1
  Cs  Cs1  1  0.00058574  0.00075292  0.33531458  1
  Cs  Cs2  1  -0.00394315  0.00430018  0.66415807  1
  Cs  Cs3  1  0.00383093  0.33815184  -0.00163322  1
  Cs  Cs4  1  0.00453613  0.32930631  0.33501321  1
  Cs  Cs5  1  0.00116185  0.32933363  0.66888304  1
  Cs  Cs6  1  0.00728982  0.66526051  -0.00873729  1
  Cs  Cs7  1  -0.00589339  0.66965243  0.33177028  1
  Cs  Cs8  1  -0.00112217  0.66591050  0.67511959  1
  Cs  Cs9  1  0.33210006  -0.00037961  -0.00384092  1
  Cs  Cs10  1  0.33401980  -0.00072964  0.33245045  1
  Cs  Cs11  1  0.33685301  -0.00087259  0.67002920  1
  Cs  Cs12  1  0.33344389  0.33233848  0.00074948  1
  Cs  Cs13  1  0.32972447  0.33408162  0.33635686  1
  Cs  Cs14  1  0.33190718  0.33615334  0.66299077  1
  Cs  Cs15  1  0.32677434  0.66733008  -0.00213438  1
  Cs  Cs16  1  0.33426646  0.66592560  0.33606672  1
  Cs  Cs17  1  0.33132704  0.66419001  0.66408850  1
  Cs  Cs18  1  0.66446887  0.00174116  -0.00143171  1
  Cs  Cs19  1  0.66683158  -0.00133353  0.33266014  1
  Cs  Cs20  1  0.66602127  0.00277165  0.67253896  1
  Cs  Cs21  1  0.66556240  0.33366106  0.00148495  1
  Cs  Cs22  1  0.66624094  0.33502559  0.33071538  1
  Cs  Cs23  1  0.66845314  0.33047309  0.66947170  1
  Cs  Cs24  1  0.66714405  0.66440844  0.00288801  1
  Cs  Cs25  1  0.66675126  0.66693682  0.33282331  1
  Cs  Cs26  1  0.66740531  0.66746729  0.66488116  1
  Sn  Sn27  1  0.50058283  0.83327341  0.16719900  1
  Sn  Sn28  1  0.83293015  0.16653137  0.16667131  1
  Sn  Sn29  1  0.50066508  0.16651158  0.16769086  1
  Sn  Sn30  1  0.83314814  0.50024030  0.49916425  1
  Sn  Sn31  1  0.83302528  0.83262720  0.49942528  1
  Sn  Sn32  1  0.50013119  0.50026359  0.16586676  1
  Sn  Sn33  1  0.50058066  0.16590142  0.49903444  1
  Sn  Sn34  1  0.16694348  0.16657390  0.83323556  1
  Sn  Sn35  1  0.16638801  0.83316338  0.49969596  1
  Sn  Sn36  1  0.50052956  0.50031066  0.83432654  1
  Sn  Sn37  1  0.50032137  0.83434811  0.49919874  1
  Sn  Sn38  1  0.83291336  0.50019383  0.16766353  1
  Sn  Sn39  1  0.83255422  0.83328413  0.16679685  1
  Pb  Pb40  1  0.83118758  0.49999042  0.83371105  1
  Pb  Pb41  1  0.50188180  0.50019833  0.49915400  1
  Pb  Pb42  1  0.83105400  0.16643552  0.49795924  1
  Pb  Pb43  1  0.16961825  0.49790964  0.83312268  1
  Pb  Pb44  1  0.49889043  0.16874104  0.83369306  1
  Pb  Pb45  1  0.83291223  0.83347518  0.83395389  1
  Pb  Pb46  1  0.16957234  0.16432113  0.50149799  1
  Pb  Pb47  1  0.16703236  0.16651044  0.16543314  1
  Pb  Pb48  1  0.16634626  0.50019762  0.16724222  1
  Pb  Pb49  1  0.50020275  0.83084334  0.83367506  1
  Pb  Pb50  1  0.16669165  0.83327388  0.16872949  1
  Pb  Pb51  1  0.83540272  0.16671295  0.83715684  1
  Pb  Pb52  1  0.16267133  0.50265334  0.49961992  1
  Pb  Pb53  1  0.16680517  0.83545489  0.82998499  1
  I  I54  1  0.16598196  -0.00009012  0.16523127  1
  I  I55  1  0.16076819  -0.00332257  0.49994071  1
  I  I56  1  0.16979023  0.00272299  0.83577429  1
  I  I57  1  0.16657612  0.33325367  0.16598289  1
  I  I58  1  0.16743677  0.33314219  0.50188620  1
  I  I59  1  0.16654263  0.33052361  0.83329107  1
  I  I60  1  0.16785670  0.66680979  0.16578966  1
  I  I61  1  0.17544966  0.67046733  0.49946448  1
  I  I62  1  0.16645983  0.66664415  0.83326903  1
  I  I63  1  0.50582862  -0.00019408  0.17204655  1
  I  I64  1  0.50092974  -0.00118092  0.49268733  1
  I  I65  1  0.49773471  0.00011581  0.83482087  1
  I  I66  1  0.50616522  0.33319194  0.16584527  1
  I  I67  1  0.50161076  0.33125580  0.49762574  1
  I  I68  1  0.49938755  0.33621391  0.83750547  1
  I  I69  1  0.50621582  0.66704249  0.16721714  1
  I  I70  1  0.49810804  0.66979708  0.49776876  1
  I  I71  1  0.50067520  0.66324851  0.83751440  1
  I  I72  1  0.82724315  -0.00070754  0.17077090  1
  I  I73  1  0.83595272  -0.00326145  0.49571105  1
  I  I74  1  0.83307489  0.00018600  0.83184694  1
  I  I75  1  0.82581283  0.33388025  0.17001166  1
  I  I76  1  0.82973889  0.33560219  0.49580272  1
  I  I77  1  0.83373114  0.33337520  0.83087845  1
  I  I78  1  0.82542235  0.66687729  0.17285885  1
  I  I79  1  0.83078302  0.66796165  0.49176336  1
  I  I80  1  0.83433222  0.66659389  0.83642357  1
  I  I81  1  0.16882521  0.16654189  -0.00233960  1
  I  I82  1  0.16552514  0.16621617  0.33354401  1
  I  I83  1  0.16883923  0.16601550  0.66916745  1
  I  I84  1  0.16219093  0.50091110  -0.00003359  1
  I  I85  1  0.17373647  0.49738360  0.33368734  1
  I  I86  1  0.16867681  0.50029709  0.66639074  1
  I  I87  1  0.16635319  0.83377989  -0.00014165  1
  I  I88  1  0.16710421  0.83520646  0.33656107  1
  I  I89  1  0.16779194  0.83313836  0.66207540  1
  I  I90  1  0.50253589  0.16427588  0.00368727  1
  I  I91  1  0.50291234  0.16749979  0.33209765  1
  I  I92  1  0.49812275  0.16301217  0.66402013  1
  I  I93  1  0.50627257  0.49862340  0.00259180  1
  I  I94  1  0.50262778  0.49990001  0.33002951  1
  I  I95  1  0.50096651  0.49930857  0.66791125  1
  I  I96  1  0.50564888  0.83688123  0.00395976  1
  I  I97  1  0.50051293  0.83222238  0.33317486  1
  I  I98  1  0.50076659  0.83697410  0.66299536  1
  I  I99  1  0.82465337  0.16688228  0.00545318  1
  I  I100  1  0.83190734  0.16675804  0.32977792  1
  I  I101  1  0.83238342  0.16677149  0.66646781  1
  I  I102  1  0.83078031  0.50013644  0.00394523  1
  I  I103  1  0.82620032  0.50210847  0.33196427  1
  I  I104  1  0.83135340  0.50664108  0.66370227  1
  I  I105  1  0.82713531  0.83306470  0.00448625  1
  I  I106  1  0.83256992  0.83201288  0.33315648  1
  I  I107  1  0.83284330  0.82787892  0.66273119  1
  I  I108  1  -0.00332304  0.16678891  0.16513005  1
  I  I109  1  -0.00026792  0.16621604  0.50007678  1
  I  I110  1  0.00301946  0.16640459  0.83253131  1
  I  I111  1  -0.00418219  0.49951027  0.17122563  1
  I  I112  1  -0.00537954  0.50394467  0.49275666  1
  I  I113  1  0.00000863  0.49957512  0.83375456  1
  I  I114  1  -0.00373449  0.83426132  0.17109752  1
  I  I115  1  -0.00153289  0.82879018  0.49547143  1
  I  I116  1  0.00001273  0.83272255  0.83491400  1
  I  I117  1  0.33730067  0.16659145  0.16894972  1
  I  I118  1  0.33763067  0.16301342  0.49362429  1
  I  I119  1  0.33135327  0.16750395  0.83482508  1
  I  I120  1  0.33727256  0.49955646  0.16210950  1
  I  I121  1  0.33357149  0.50037292  0.50098922  1
  I  I122  1  0.33739657  0.50027987  0.83990620  1
  I  I123  1  0.33711819  0.83395349  0.17055184  1
  I  I124  1  0.33505498  0.83864503  0.49632182  1
  I  I125  1  0.33358513  0.83280069  0.83392654  1
  I  I126  1  0.66560075  0.16681819  0.16991993  1
  I  I127  1  0.66318191  0.16133993  0.49963728  1
  I  I128  1  0.66646810  0.16772089  0.83119481  1
  I  I129  1  0.66630636  0.50000241  0.16637623  1
  I  I130  1  0.66947616  0.50624850  0.49816966  1
  I  I131  1  0.66359704  0.49794116  0.83580755  1
  I  I132  1  0.66625478  0.83304254  0.17451423  1
  I  I133  1  0.66655083  0.83215091  0.49486804  1
  I  I134  1  0.66637090  0.83503932  0.82740663  1
