# generated using pymatgen
data_Cs27Sn14Pb13I81
_symmetry_space_group_name_H-M   'P 1'
_cell_length_a   18.97360021
_cell_length_b   18.97473071
_cell_length_c   18.97806686
_cell_angle_alpha   90.00095876
_cell_angle_beta   89.99919093
_cell_angle_gamma   89.99950158
_symmetry_Int_Tables_number   1
_chemical_formula_structural   Cs27Sn14Pb13I81
_chemical_formula_sum   'Cs27 Sn14 Pb13 I81'
_cell_volume   6832.46378943
_cell_formula_units_Z   1
loop_
 _symmetry_equiv_pos_site_id
 _symmetry_equiv_pos_as_xyz
  1  'x, y, z'
loop_
 _atom_site_type_symbol
 _atom_site_label
 _atom_site_symmetry_multiplicity
 _atom_site_fract_x
 _atom_site_fract_y
 _atom_site_fract_z
 _atom_site_occupancy
  Cs  Cs0  1  0.00093844  0.00392626  -0.00108359  1
  Cs  Cs1  1  0.00178047  0.00147503  0.33471884  1
  Cs  Cs2  1  0.00132453  0.00083605  0.66550077  1
  Cs  Cs3  1  -0.00019476  0.33136649  0.00100094  1
  Cs  Cs4  1  0.00006461  0.33149335  0.33105244  1
  Cs  Cs5  1  -0.00015912  0.33174743  0.66859360  1
  Cs  Cs6  1  0.00003510  0.66453173  -0.00266988  1
  Cs  Cs7  1  0.00077375  0.66763008  0.33436857  1
  Cs  Cs8  1  -0.00344804  0.66451021  0.66764683  1
  Cs  Cs9  1  0.33331075  -0.00094889  -0.00055857  1
  Cs  Cs10  1  0.33003523  -0.00170770  0.33523989  1
  Cs  Cs11  1  0.33292746  0.00035871  0.66425120  1
  Cs  Cs12  1  0.33376846  0.33534970  0.00235380  1
  Cs  Cs13  1  0.33454574  0.33363337  0.33117944  1
  Cs  Cs14  1  0.34073115  0.33513109  0.66737114  1
  Cs  Cs15  1  0.33383783  0.66632528  -0.00124111  1
  Cs  Cs16  1  0.33145415  0.66829517  0.33289535  1
  Cs  Cs17  1  0.33138545  0.66570352  0.66632720  1
  Cs  Cs18  1  0.66419007  -0.00666339  -0.00114863  1
  Cs  Cs19  1  0.66795414  -0.00181307  0.33192587  1
  Cs  Cs20  1  0.66418314  0.00205328  0.67112682  1
  Cs  Cs21  1  0.66743615  0.33206501  0.00342499  1
  Cs  Cs22  1  0.66514138  0.33441332  0.33274197  1
  Cs  Cs23  1  0.65739819  0.33694388  0.66520565  1
  Cs  Cs24  1  0.66601809  0.67775748  -0.00297476  1
  Cs  Cs25  1  0.67021392  0.66742329  0.33304466  1
  Cs  Cs26  1  0.67574012  0.65952487  0.67134791  1
  Sn  Sn27  1  0.50011699  0.83289677  0.50035806  1
  Sn  Sn28  1  0.16639679  0.83232759  0.16642220  1
  Sn  Sn29  1  0.83206289  0.16710247  0.16669772  1
  Sn  Sn30  1  0.83351939  0.16674239  0.50024714  1
  Sn  Sn31  1  0.16725039  0.83303582  0.50030783  1
  Sn  Sn32  1  0.16654610  0.49947019  0.49934457  1
  Sn  Sn33  1  0.83327275  0.49971462  0.16652020  1
  Sn  Sn34  1  0.16640247  0.16629209  0.83211237  1
  Sn  Sn35  1  0.50031716  0.49998048  0.16678711  1
  Sn  Sn36  1  0.16645823  0.50099378  0.16752344  1
  Sn  Sn37  1  0.50103230  0.16666226  0.16692574  1
  Sn  Sn38  1  0.16626663  0.16751036  0.50109166  1
  Sn  Sn39  1  0.16659890  0.83419906  0.83302506  1
  Sn  Sn40  1  0.83367899  0.16708258  0.83312632  1
  Pb  Pb41  1  0.16656647  0.16688066  0.16670763  1
  Pb  Pb42  1  0.49739167  0.83327125  0.82975950  1
  Pb  Pb43  1  0.50014881  0.50022044  0.83637180  1
  Pb  Pb44  1  0.83359959  0.83555625  0.50015786  1
  Pb  Pb45  1  0.16673420  0.49936005  0.83320450  1
  Pb  Pb46  1  0.83604059  0.83595389  0.83312697  1
  Pb  Pb47  1  0.83621090  0.83362616  0.16672555  1
  Pb  Pb48  1  0.49960400  0.16669141  0.83609546  1
  Pb  Pb49  1  0.49761365  0.83315443  0.16837835  1
  Pb  Pb50  1  0.49981772  0.16513627  0.49770595  1
  Pb  Pb51  1  0.83568174  0.49719894  0.49790497  1
  Pb  Pb52  1  0.49791288  0.50284739  0.49771911  1
  Pb  Pb53  1  0.83335434  0.49691575  0.83621957  1
  I  I54  1  0.16700078  -0.00185078  0.16924069  1
  I  I55  1  0.16650890  0.00012954  0.49914295  1
  I  I56  1  0.16268749  0.00050967  0.83167062  1
  I  I57  1  0.16682849  0.33579769  0.16946434  1
  I  I58  1  0.16116506  0.33261196  0.49785232  1
  I  I59  1  0.16182231  0.32986757  0.83187366  1
  I  I60  1  0.16712825  0.66593164  0.16999090  1
  I  I61  1  0.17214101  0.66710894  0.49789657  1
  I  I62  1  0.16880116  0.66944234  0.83217410  1
  I  I63  1  0.50334246  0.00235301  0.16766945  1
  I  I64  1  0.49167421  -0.00232002  0.49602858  1
  I  I65  1  0.50171164  0.00007117  0.83773832  1
  I  I66  1  0.49721503  0.33340306  0.16764524  1
  I  I67  1  0.49864046  0.33352051  0.50025584  1
  I  I68  1  0.49605563  0.33299885  0.83017842  1
  I  I69  1  0.50088423  0.66385166  0.16864102  1
  I  I70  1  0.49083354  0.67027371  0.49627190  1
  I  I71  1  0.49678124  0.66700131  0.83694865  1
  I  I72  1  0.83053226  0.00376584  0.16661695  1
  I  I73  1  0.84058938  0.00411963  0.49587523  1
  I  I74  1  0.83580984  0.00434637  0.83715088  1
  I  I75  1  0.83604576  0.33229106  0.16666348  1
  I  I76  1  0.83972303  0.32895530  0.50057318  1
  I  I77  1  0.84329097  0.32873830  0.83282123  1
  I  I78  1  0.83174852  0.66365395  0.16815240  1
  I  I79  1  0.83441525  0.66634583  0.49690202  1
  I  I80  1  0.83405143  0.66653234  0.83518523  1
  I  I81  1  0.16403230  0.16329721  -0.00186179  1
  I  I82  1  0.16425394  0.16392815  0.33566935  1
  I  I83  1  0.15860114  0.16267484  0.66580121  1
  I  I84  1  0.16689711  0.50243103  0.00355671  1
  I  I85  1  0.16653690  0.50245023  0.33237812  1
  I  I86  1  0.16635312  0.50256380  0.66348002  1
  I  I87  1  0.16525005  0.83445513  0.00025819  1
  I  I88  1  0.17005950  0.83376804  0.33398465  1
  I  I89  1  0.17098057  0.83536470  0.66583377  1
  I  I90  1  0.50186783  0.17029612  0.00424336  1
  I  I91  1  0.50240207  0.17016901  0.32984465  1
  I  I92  1  0.50225324  0.16463788  0.66647259  1
  I  I93  1  0.49457659  0.49519826  0.00531153  1
  I  I94  1  0.50055336  0.49511515  0.32954830  1
  I  I95  1  0.49742092  0.50023481  0.66607289  1
  I  I96  1  0.49814533  0.83326372  0.00006931  1
  I  I97  1  0.49085534  0.83467850  0.33575839  1
  I  I98  1  0.49191366  0.83708127  0.66230356  1
  I  I99  1  0.83604672  0.17125875  0.00057728  1
  I  I100  1  0.83536047  0.16983590  0.33288874  1
  I  I101  1  0.84161934  0.16332844  0.66645077  1
  I  I102  1  0.83830199  0.49336308  0.00475093  1
  I  I103  1  0.83268979  0.49333423  0.32960711  1
  I  I104  1  0.83595349  0.50015782  0.66653376  1
  I  I105  1  0.83512683  0.83542282  0.00013467  1
  I  I106  1  0.83687176  0.83732162  0.33329038  1
  I  I107  1  0.83493719  0.83442006  0.66659622  1
  I  I108  1  -0.00218059  0.16903297  0.16659073  1
  I  I109  1  0.00144655  0.16448086  0.49720448  1
  I  I110  1  0.00080834  0.16270988  0.83563283  1
  I  I111  1  0.00066034  0.49855099  0.17024717  1
  I  I112  1  0.00415868  0.50517851  0.49367898  1
  I  I113  1  0.00029739  0.50225814  0.83678149  1
  I  I114  1  0.00461625  0.83096513  0.17058002  1
  I  I115  1  0.00410580  0.83241909  0.49924728  1
  I  I116  1  0.00453355  0.83483360  0.83096343  1
  I  I117  1  0.33483763  0.16938436  0.16717158  1
  I  I118  1  0.32976985  0.16721078  0.50223794  1
  I  I119  1  0.32980649  0.16241170  0.82996934  1
  I  I120  1  0.33247374  0.49858266  0.17048790  1
  I  I121  1  0.32921602  0.49494342  0.49383864  1
  I  I122  1  0.33281198  0.49696824  0.83653448  1
  I  I123  1  0.32925291  0.83113516  0.16574704  1
  I  I124  1  0.33016101  0.83648455  0.49869985  1
  I  I125  1  0.32875382  0.84080989  0.83674289  1
  I  I126  1  0.66787146  0.17481904  0.16773167  1
  I  I127  1  0.66942227  0.16374117  0.50096043  1
  I  I128  1  0.66983253  0.16824413  0.83115683  1
  I  I129  1  0.66690854  0.49165413  0.16655704  1
  I  I130  1  0.66675575  0.50054200  0.49837141  1
  I  I131  1  0.66694060  0.49764440  0.83232825  1
  I  I132  1  0.66662518  0.83151556  0.16893283  1
  I  I133  1  0.66415785  0.83699344  0.49557054  1
  I  I134  1  0.66668425  0.83480031  0.83364818  1
