# generated using pymatgen
data_Cs27Sn14Pb13I81
_symmetry_space_group_name_H-M   'P 1'
_cell_length_a   18.97694857
_cell_length_b   18.97811423
_cell_length_c   18.97198110
_cell_angle_alpha   89.99862071
_cell_angle_beta   89.99853176
_cell_angle_gamma   89.99922041
_symmetry_Int_Tables_number   1
_chemical_formula_structural   Cs27Sn14Pb13I81
_chemical_formula_sum   'Cs27 Sn14 Pb13 I81'
_cell_volume   6832.69633922
_cell_formula_units_Z   1
loop_
 _symmetry_equiv_pos_site_id
 _symmetry_equiv_pos_as_xyz
  1  'x, y, z'
loop_
 _atom_site_type_symbol
 _atom_site_label
 _atom_site_symmetry_multiplicity
 _atom_site_fract_x
 _atom_site_fract_y
 _atom_site_fract_z
 _atom_site_occupancy
  Cs  Cs0  1  -0.00153754  0.00208934  -0.00204891  1
  Cs  Cs1  1  -0.00109526  -0.00240936  0.33585028  1
  Cs  Cs2  1  -0.00076322  -0.00149350  0.66610932  1
  Cs  Cs3  1  0.00210629  0.33272177  0.00194148  1
  Cs  Cs4  1  -0.00075660  0.33319475  0.33167212  1
  Cs  Cs5  1  -0.00107875  0.33491793  0.66659783  1
  Cs  Cs6  1  -0.00030645  0.66588131  -0.00125076  1
  Cs  Cs7  1  0.00483721  0.67076294  0.33124278  1
  Cs  Cs8  1  0.00064106  0.66702854  0.66809359  1
  Cs  Cs9  1  0.33649622  0.00293786  -0.00452597  1
  Cs  Cs10  1  0.33337194  -0.00224743  0.33640524  1
  Cs  Cs11  1  0.33422628  0.00078840  0.66677382  1
  Cs  Cs12  1  0.32960019  0.32863320  0.00152991  1
  Cs  Cs13  1  0.33544184  0.33400524  0.33197016  1
  Cs  Cs14  1  0.33397458  0.33333270  0.66780596  1
  Cs  Cs15  1  0.33547345  0.66983045  0.00084562  1
  Cs  Cs16  1  0.32843946  0.66889982  0.33256993  1
  Cs  Cs17  1  0.33178358  0.66587442  0.66685429  1
  Cs  Cs18  1  0.66620739  -0.00322404  0.00061878  1
  Cs  Cs19  1  0.66749938  0.00252135  0.33402426  1
  Cs  Cs20  1  0.66859063  0.00076579  0.66462361  1
  Cs  Cs21  1  0.66792940  0.33454304  0.00284112  1
  Cs  Cs22  1  0.66608977  0.33280824  0.33385426  1
  Cs  Cs23  1  0.66660510  0.34078877  0.66633128  1
  Cs  Cs24  1  0.66342780  0.66916668  0.00071122  1
  Cs  Cs25  1  0.66588677  0.66511017  0.33172050  1
  Cs  Cs26  1  0.66619893  0.65790905  0.66736517  1
  Sn  Sn27  1  0.16603000  0.83291581  0.83323646  1
  Sn  Sn28  1  0.50153186  0.83365439  0.50025111  1
  Sn  Sn29  1  0.83381617  0.83383993  0.83213754  1
  Sn  Sn30  1  0.83204928  0.83349817  0.50102545  1
  Sn  Sn31  1  0.83309525  0.16651875  0.50035199  1
  Sn  Sn32  1  0.50040537  0.16627501  0.49954680  1
  Sn  Sn33  1  0.50091178  0.16729369  0.16748057  1
  Sn  Sn34  1  0.16652025  0.16775443  0.49999263  1
  Sn  Sn35  1  0.50064654  0.49917322  0.16688164  1
  Sn  Sn36  1  0.16638794  0.49896618  0.50053680  1
  Sn  Sn37  1  0.83278424  0.49959310  0.16690452  1
  Sn  Sn38  1  0.83262589  0.16733442  0.16683920  1
  Sn  Sn39  1  0.16658979  0.50047973  0.83276477  1
  Sn  Sn40  1  0.83302249  0.16638258  0.83292690  1
  Pb  Pb41  1  0.16633621  0.83364426  0.50163469  1
  Pb  Pb42  1  0.50014897  0.83428955  0.16939543  1
  Pb  Pb43  1  0.49694371  0.49971990  0.83658188  1
  Pb  Pb44  1  0.83539581  0.50043669  0.49781792  1
  Pb  Pb45  1  0.16666066  0.83390103  0.16263577  1
  Pb  Pb46  1  0.16669085  0.16626495  0.16936900  1
  Pb  Pb47  1  0.50319388  0.16677372  0.83301086  1
  Pb  Pb48  1  0.16683749  0.49992159  0.16647056  1
  Pb  Pb49  1  0.16439877  0.16658557  0.83083198  1
  Pb  Pb50  1  0.49769877  0.49981370  0.49816644  1
  Pb  Pb51  1  0.83485788  0.50027018  0.83569685  1
  Pb  Pb52  1  0.50091013  0.83343370  0.83029563  1
  Pb  Pb53  1  0.83341913  0.83392608  0.16671609  1
  I  I54  1  0.16615307  0.00040074  0.16847685  1
  I  I55  1  0.16645727  0.00273153  0.50036115  1
  I  I56  1  0.16385332  -0.00236363  0.83187620  1
  I  I57  1  0.16594460  0.33316645  0.16180498  1
  I  I58  1  0.16610319  0.33260438  0.50554082  1
  I  I59  1  0.16532986  0.33549842  0.83157199  1
  I  I60  1  0.16642032  0.66641056  0.17328725  1
  I  I61  1  0.16689838  0.66474324  0.50112276  1
  I  I62  1  0.16032279  0.66676591  0.82701998  1
  I  I63  1  0.50535990  0.00376139  0.16873747  1
  I  I64  1  0.49825731  0.00161833  0.49429600  1
  I  I65  1  0.49348619  0.00011234  0.83895631  1
  I  I66  1  0.50428097  0.33206692  0.17317602  1
  I  I67  1  0.50250787  0.33006784  0.49772148  1
  I  I68  1  0.49976442  0.33317203  0.82765351  1
  I  I69  1  0.50368974  0.66407729  0.16709352  1
  I  I70  1  0.50287547  0.66907573  0.49918384  1
  I  I71  1  0.50411232  0.66665151  0.83351794  1
  I  I72  1  0.82897623  0.00361885  0.16691044  1
  I  I73  1  0.83540404  0.00138653  0.49822644  1
  I  I74  1  0.83975969  0.00005207  0.83434134  1
  I  I75  1  0.83006928  0.33174319  0.16691448  1
  I  I76  1  0.83122678  0.33009783  0.50229753  1
  I  I77  1  0.83463346  0.33054244  0.83056932  1
  I  I78  1  0.83019448  0.66411906  0.16675581  1
  I  I79  1  0.83071704  0.66963014  0.50355450  1
  I  I80  1  0.83634040  0.66950178  0.82961954  1
  I  I81  1  0.16666500  0.16680523  -0.00031645  1
  I  I82  1  0.16232502  0.17272238  0.33775620  1
  I  I83  1  0.16740788  0.16756524  0.66267827  1
  I  I84  1  0.16574228  0.50553859  -0.00268426  1
  I  I85  1  0.16647070  0.49553886  0.33586544  1
  I  I86  1  0.16562686  0.49994595  0.66629197  1
  I  I87  1  0.15969297  0.82631043  -0.00545560  1
  I  I88  1  0.16613830  0.83162650  0.33395957  1
  I  I89  1  0.16426799  0.83181928  0.66925191  1
  I  I90  1  0.50330497  0.17113132  0.00320492  1
  I  I91  1  0.50452758  0.16696766  0.33414812  1
  I  I92  1  0.49924712  0.16141653  0.66293725  1
  I  I93  1  0.50296023  0.49402472  0.00453078  1
  I  I94  1  0.50215198  0.49795687  0.33041213  1
  I  I95  1  0.50017058  0.49988887  0.66642210  1
  I  I96  1  0.49856836  0.83291621  -0.00003312  1
  I  I97  1  0.50582580  0.83540057  0.33740711  1
  I  I98  1  0.50028006  0.84116141  0.66238673  1
  I  I99  1  0.83000268  0.16644548  0.00042376  1
  I  I100  1  0.83309769  0.16664623  0.33415677  1
  I  I101  1  0.83481839  0.16090715  0.66555509  1
  I  I102  1  0.83262171  0.49547156  0.00347493  1
  I  I103  1  0.83198071  0.49518792  0.33011233  1
  I  I104  1  0.83364551  0.49755379  0.66657926  1
  I  I105  1  0.83917413  0.83640248  -0.00297996  1
  I  I106  1  0.82988609  0.83684553  0.33658016  1
  I  I107  1  0.83438218  0.84220541  0.66612876  1
  I  I108  1  -0.00364137  0.17114215  0.16696408  1
  I  I109  1  -0.00132656  0.16609673  0.49988968  1
  I  I110  1  -0.00375152  0.16550488  0.83430766  1
  I  I111  1  -0.00257638  0.49496515  0.16676173  1
  I  I112  1  0.00312912  0.49596570  0.50110321  1
  I  I113  1  0.00268704  0.50116816  0.83144110  1
  I  I114  1  -0.00039989  0.83210079  0.17349647  1
  I  I115  1  -0.00281671  0.83700101  0.50127792  1
  I  I116  1  -0.00119503  0.83351255  0.82677791  1
  I  I117  1  0.33676920  0.17173567  0.17094430  1
  I  I118  1  0.33407960  0.16592151  0.49503427  1
  I  I119  1  0.33319427  0.16628488  0.83421074  1
  I  I120  1  0.33608597  0.49492148  0.16726018  1
  I  I121  1  0.32986864  0.49670819  0.50122515  1
  I  I122  1  0.32894600  0.50629961  0.82998206  1
  I  I123  1  0.33364531  0.83145286  0.16888871  1
  I  I124  1  0.33526299  0.83680236  0.49981013  1
  I  I125  1  0.33076361  0.82817625  0.83235612  1
  I  I126  1  0.66751547  0.17111418  0.17171391  1
  I  I127  1  0.66730746  0.16076833  0.49829910  1
  I  I128  1  0.67138531  0.15992711  0.82996720  1
  I  I129  1  0.66705442  0.49522588  0.16753715  1
  I  I130  1  0.66674491  0.49894520  0.50052852  1
  I  I131  1  0.66686019  0.50058946  0.83238708  1
  I  I132  1  0.66686412  0.83105504  0.16122687  1
  I  I133  1  0.66787698  0.84219604  0.50435930  1
  I  I134  1  0.67034710  0.83896600  0.83284143  1
