# generated using pymatgen
data_Cs27Sn14Pb13I81
_symmetry_space_group_name_H-M   'P 1'
_cell_length_a   18.97111794
_cell_length_b   18.97076494
_cell_length_c   18.98360820
_cell_angle_alpha   90.00032666
_cell_angle_beta   90.00185890
_cell_angle_gamma   89.99635481
_symmetry_Int_Tables_number   1
_chemical_formula_structural   Cs27Sn14Pb13I81
_chemical_formula_sum   'Cs27 Sn14 Pb13 I81'
_cell_volume   6832.13639082
_cell_formula_units_Z   1
loop_
 _symmetry_equiv_pos_site_id
 _symmetry_equiv_pos_as_xyz
  1  'x, y, z'
loop_
 _atom_site_type_symbol
 _atom_site_label
 _atom_site_symmetry_multiplicity
 _atom_site_fract_x
 _atom_site_fract_y
 _atom_site_fract_z
 _atom_site_occupancy
  Cs  Cs0  1  0.00011302  -0.00127451  -0.00536933  1
  Cs  Cs1  1  0.00113285  -0.00338116  0.33724010  1
  Cs  Cs2  1  0.00057831  0.00323948  0.66720477  1
  Cs  Cs3  1  -0.00163784  0.33155207  0.00018436  1
  Cs  Cs4  1  0.00228121  0.33703012  0.33276561  1
  Cs  Cs5  1  0.00167802  0.33047938  0.66623618  1
  Cs  Cs6  1  0.00108043  0.66840833  -0.00001817  1
  Cs  Cs7  1  -0.00175431  0.66501924  0.33385808  1
  Cs  Cs8  1  -0.00240855  0.66611297  0.66503410  1
  Cs  Cs9  1  0.33180794  -0.00969039  0.00461620  1
  Cs  Cs10  1  0.33696120  -0.00114581  0.33094323  1
  Cs  Cs11  1  0.33133306  0.00178604  0.66761365  1
  Cs  Cs12  1  0.33532964  0.33713582  0.00371386  1
  Cs  Cs13  1  0.33169444  0.33304244  0.33334712  1
  Cs  Cs14  1  0.33388768  0.33329423  0.66556753  1
  Cs  Cs15  1  0.33295346  0.66870910  -0.00210191  1
  Cs  Cs16  1  0.33147447  0.66625345  0.33376282  1
  Cs  Cs17  1  0.33791348  0.66530792  0.66827781  1
  Cs  Cs18  1  0.66804938  0.00711158  0.00612442  1
  Cs  Cs19  1  0.66303689  0.00037861  0.33334316  1
  Cs  Cs20  1  0.66757523  0.00017607  0.66399669  1
  Cs  Cs21  1  0.66624392  0.32800281  0.00194477  1
  Cs  Cs22  1  0.66772793  0.33368906  0.33149691  1
  Cs  Cs23  1  0.66387982  0.33301656  0.66643350  1
  Cs  Cs24  1  0.66742167  0.66602852  -0.00743655  1
  Cs  Cs25  1  0.67048474  0.66638261  0.33627966  1
  Cs  Cs26  1  0.66595014  0.66717984  0.66755243  1
  Sn  Sn27  1  0.49927248  0.49924090  0.49889437  1
  Sn  Sn28  1  0.83319450  0.83304709  0.83315264  1
  Sn  Sn29  1  0.49985868  0.50047215  0.16771501  1
  Sn  Sn30  1  0.16638535  0.16677798  0.16659554  1
  Sn  Sn31  1  0.83408826  0.83425574  0.50007080  1
  Sn  Sn32  1  0.50063036  0.16758788  0.50082064  1
  Sn  Sn33  1  0.83318110  0.83317030  0.16675984  1
  Sn  Sn34  1  0.49925553  0.16631241  0.83296285  1
  Sn  Sn35  1  0.16572856  0.49975595  0.83318643  1
  Sn  Sn36  1  0.83415596  0.49991315  0.83314876  1
  Sn  Sn37  1  0.16725770  0.49939852  0.16656644  1
  Sn  Sn38  1  0.16746717  0.50087502  0.50030670  1
  Sn  Sn39  1  0.83279501  0.16632913  0.49971173  1
  Sn  Sn40  1  0.16629095  0.83234271  0.50023098  1
  Pb  Pb41  1  0.83595402  0.16450222  0.16956182  1
  Pb  Pb42  1  0.50280883  0.83674250  0.83333440  1
  Pb  Pb43  1  0.83340903  0.50162185  0.16412800  1
  Pb  Pb44  1  0.49798651  0.16848969  0.16735220  1
  Pb  Pb45  1  0.16934594  0.16895443  0.83599567  1
  Pb  Pb46  1  0.83321027  0.49990245  0.50172523  1
  Pb  Pb47  1  0.50275591  0.82969991  0.16670350  1
  Pb  Pb48  1  0.16721869  0.16682069  0.49861978  1
  Pb  Pb49  1  0.16476443  0.83106054  0.83048983  1
  Pb  Pb50  1  0.49987190  0.83321510  0.50011245  1
  Pb  Pb51  1  0.16488731  0.83249904  0.16872119  1
  Pb  Pb52  1  0.49995965  0.49870591  0.83321553  1
  Pb  Pb53  1  0.83193242  0.16672664  0.83130052  1
  I  I54  1  0.16535763  0.00175430  0.16992936  1
  I  I55  1  0.16452552  -0.00213537  0.49721887  1
  I  I56  1  0.16597672  -0.00001185  0.83365930  1
  I  I57  1  0.16969487  0.33563479  0.16993226  1
  I  I58  1  0.16697364  0.33647944  0.50094766  1
  I  I59  1  0.16001363  0.33743389  0.82734112  1
  I  I60  1  0.16916257  0.66314900  0.16556038  1
  I  I61  1  0.16532863  0.66518736  0.49741745  1
  I  I62  1  0.16649311  0.66262492  0.83872516  1
  I  I63  1  0.49844228  0.00006733  0.16655628  1
  I  I64  1  0.50139621  0.00287027  0.50404280  1
  I  I65  1  0.50134138  0.00443822  0.82515311  1
  I  I66  1  0.49877024  0.33661041  0.16787877  1
  I  I67  1  0.50011085  0.33390036  0.50046496  1
  I  I68  1  0.50280810  0.33120507  0.83081055  1
  I  I69  1  0.49211427  0.66182398  0.17247329  1
  I  I70  1  0.49915728  0.66340149  0.49614933  1
  I  I71  1  0.49948764  0.66648543  0.83323031  1
  I  I72  1  0.83525446  -0.00344170  0.16149005  1
  I  I73  1  0.83414059  -0.00116049  0.50207306  1
  I  I74  1  0.83090479  -0.00276152  0.83413370  1
  I  I75  1  0.83181313  0.33343855  0.16628849  1
  I  I76  1  0.83245693  0.33124045  0.50265784  1
  I  I77  1  0.83596871  0.33586079  0.83136856  1
  I  I78  1  0.83524372  0.66947382  0.17319674  1
  I  I79  1  0.83450552  0.66917787  0.49878661  1
  I  I80  1  0.83641275  0.66677361  0.83091737  1
  I  I81  1  0.16736790  0.17252958  0.00356436  1
  I  I82  1  0.16742488  0.17291329  0.33110693  1
  I  I83  1  0.16506878  0.16716818  0.66659160  1
  I  I84  1  0.16688419  0.49472921  0.00052544  1
  I  I85  1  0.17121867  0.49982041  0.33375371  1
  I  I86  1  0.16674638  0.50487785  0.66574213  1
  I  I87  1  0.16459556  0.83341571  -0.00007513  1
  I  I88  1  0.15977000  0.82804691  0.33657993  1
  I  I89  1  0.16087456  0.82956930  0.66252835  1
  I  I90  1  0.50043657  0.16987653  -0.00164794  1
  I  I91  1  0.50288497  0.16873594  0.33642754  1
  I  I92  1  0.50379102  0.17347975  0.66476108  1
  I  I93  1  0.49738538  0.49842307  0.00209712  1
  I  I94  1  0.49274118  0.49450175  0.33457829  1
  I  I95  1  0.49699012  0.49780767  0.66388087  1
  I  I96  1  0.50067333  0.83319673  0.00003342  1
  I  I97  1  0.50293860  0.83813341  0.33353252  1
  I  I98  1  0.50239016  0.82759829  0.66651720  1
  I  I99  1  0.83137344  0.16570631  0.00008150  1
  I  I100  1  0.82673712  0.16221454  0.33742832  1
  I  I101  1  0.83291557  0.16162610  0.66333844  1
  I  I102  1  0.83622302  0.50569091  -0.00365978  1
  I  I103  1  0.83501072  0.50122937  0.33346605  1
  I  I104  1  0.83638125  0.50506234  0.66943468  1
  I  I105  1  0.83268528  0.82651193  -0.00060096  1
  I  I106  1  0.83731850  0.83700945  0.33471578  1
  I  I107  1  0.83712444  0.83284198  0.66590884  1
  I  I108  1  0.00334578  0.17571688  0.16842873  1
  I  I109  1  -0.00197642  0.16502984  0.49850860  1
  I  I110  1  0.00015537  0.16570435  0.83267830  1
  I  I111  1  0.00310978  0.49811212  0.17026047  1
  I  I112  1  0.00267272  0.50085430  0.49728559  1
  I  I113  1  0.00054306  0.50361035  0.83288812  1
  I  I114  1  -0.00301834  0.83080111  0.16619113  1
  I  I115  1  -0.00110108  0.83300609  0.49940420  1
  I  I116  1  -0.00355698  0.83249036  0.83497511  1
  I  I117  1  0.33028074  0.16924766  0.16979898  1
  I  I118  1  0.33599523  0.16841507  0.50227465  1
  I  I119  1  0.33678230  0.17035590  0.82378029  1
  I  I120  1  0.33216435  0.49590746  0.16601681  1
  I  I121  1  0.33263905  0.49983301  0.50135896  1
  I  I122  1  0.33066959  0.49718169  0.83301702  1
  I  I123  1  0.33307054  0.83607230  0.16904814  1
  I  I124  1  0.33050670  0.83182771  0.49847927  1
  I  I125  1  0.33316721  0.83230669  0.83204393  1
  I  I126  1  0.66668877  0.16730754  0.16507329  1
  I  I127  1  0.66619940  0.16659256  0.50328179  1
  I  I128  1  0.66408699  0.16977583  0.83183579  1
  I  I129  1  0.66422621  0.50169606  0.17095421  1
  I  I130  1  0.66413015  0.49911321  0.49732291  1
  I  I131  1  0.66894178  0.50366306  0.83237589  1
  I  I132  1  0.67086200  0.83320866  0.17027872  1
  I  I133  1  0.66995835  0.83375580  0.50040579  1
  I  I134  1  0.67119527  0.82391318  0.82902579  1
