# generated using pymatgen
data_Cs27Sn14Pb13I81
_symmetry_space_group_name_H-M   'P 1'
_cell_length_a   18.95946726
_cell_length_b   18.96353088
_cell_length_c   18.95911853
_cell_angle_alpha   89.99683602
_cell_angle_beta   90.00070437
_cell_angle_gamma   89.99801881
_symmetry_Int_Tables_number   1
_chemical_formula_structural   Cs27Sn14Pb13I81
_chemical_formula_sum   'Cs27 Sn14 Pb13 I81'
_cell_volume   6816.53194083
_cell_formula_units_Z   1
loop_
 _symmetry_equiv_pos_site_id
 _symmetry_equiv_pos_as_xyz
  1  'x, y, z'
loop_
 _atom_site_type_symbol
 _atom_site_label
 _atom_site_symmetry_multiplicity
 _atom_site_fract_x
 _atom_site_fract_y
 _atom_site_fract_z
 _atom_site_occupancy
  Cs  Cs0  1  -0.00019064  -0.00033164  -0.00077689  1
  Cs  Cs1  1  0.00508461  -0.00230164  0.33415870  1
  Cs  Cs2  1  -0.00344005  0.00052593  0.66653714  1
  Cs  Cs3  1  -0.00228941  0.33414218  0.00058303  1
  Cs  Cs4  1  -0.00113181  0.33315685  0.33627400  1
  Cs  Cs5  1  0.00208586  0.33461611  0.66426750  1
  Cs  Cs6  1  0.00294422  0.66667880  0.00224694  1
  Cs  Cs7  1  -0.00110009  0.66999836  0.32772857  1
  Cs  Cs8  1  -0.00252217  0.66412765  0.66738698  1
  Cs  Cs9  1  0.33360669  -0.00157734  0.00036094  1
  Cs  Cs10  1  0.33007535  0.00010857  0.33197852  1
  Cs  Cs11  1  0.33466939  0.00216252  0.66768987  1
  Cs  Cs12  1  0.33461463  0.33251961  -0.00186034  1
  Cs  Cs13  1  0.33518525  0.33407898  0.33641931  1
  Cs  Cs14  1  0.33024346  0.33293613  0.66665907  1
  Cs  Cs15  1  0.33054861  0.67055014  -0.00226121  1
  Cs  Cs16  1  0.33657188  0.66741973  0.33464996  1
  Cs  Cs17  1  0.33468560  0.66328970  0.66762800  1
  Cs  Cs18  1  0.66699588  0.00303543  -0.00176554  1
  Cs  Cs19  1  0.66586414  0.00011615  0.33550272  1
  Cs  Cs20  1  0.66848062  -0.00158718  0.66684859  1
  Cs  Cs21  1  0.66810918  0.33230136  0.00648680  1
  Cs  Cs22  1  0.66706663  0.33493213  0.32570920  1
  Cs  Cs23  1  0.66780883  0.33219170  0.66762943  1
  Cs  Cs24  1  0.66649731  0.66522686  -0.00038274  1
  Cs  Cs25  1  0.66487533  0.66451500  0.33659870  1
  Cs  Cs26  1  0.66728493  0.66886548  0.66430174  1
  Sn  Sn27  1  0.83156240  0.83382438  0.16631971  1
  Sn  Sn28  1  0.16688209  0.83289210  0.50190408  1
  Sn  Sn29  1  0.50149604  0.83350570  0.16602710  1
  Sn  Sn30  1  0.49959622  0.16680852  0.83266446  1
  Sn  Sn31  1  0.16709424  0.83419701  0.83177903  1
  Sn  Sn32  1  0.16681630  0.16829437  0.16566732  1
  Sn  Sn33  1  0.50110193  0.49974182  0.83341105  1
  Sn  Sn34  1  0.83221861  0.16732985  0.50011071  1
  Sn  Sn35  1  0.83319020  0.49922706  0.50051081  1
  Sn  Sn36  1  0.16708527  0.16585292  0.83420420  1
  Sn  Sn37  1  0.49955736  0.83342557  0.83388422  1
  Sn  Sn38  1  0.50105877  0.16670283  0.50058630  1
  Sn  Sn39  1  0.16723415  0.49846747  0.16674896  1
  Sn  Sn40  1  0.83244698  0.49987975  0.83290452  1
  Pb  Pb41  1  0.50215203  0.49730699  0.50225323  1
  Pb  Pb42  1  0.49812765  0.83529889  0.50069266  1
  Pb  Pb43  1  0.83582927  0.16436270  0.16933582  1
  Pb  Pb44  1  0.16734538  0.83366331  0.16588232  1
  Pb  Pb45  1  0.83339656  0.16881123  0.83183333  1
  Pb  Pb46  1  0.16454685  0.50269418  0.49752413  1
  Pb  Pb47  1  0.49809828  0.16479907  0.16632762  1
  Pb  Pb48  1  0.16676934  0.16549111  0.50065212  1
  Pb  Pb49  1  0.83472882  0.50160499  0.16668506  1
  Pb  Pb50  1  0.16678258  0.49978545  0.83448677  1
  Pb  Pb51  1  0.83323906  0.83131974  0.83500078  1
  Pb  Pb52  1  0.83510482  0.83327699  0.49812640  1
  Pb  Pb53  1  0.49762702  0.50237492  0.16418359  1
  I  I54  1  0.16671608  0.00196726  0.16619080  1
  I  I55  1  0.16465432  -0.00238770  0.49782132  1
  I  I56  1  0.17368811  0.00002463  0.83588271  1
  I  I57  1  0.16562693  0.33239856  0.16075611  1
  I  I58  1  0.16722917  0.33337044  0.50108793  1
  I  I59  1  0.16983430  0.33058821  0.83581402  1
  I  I60  1  0.16529131  0.66543056  0.16619734  1
  I  I61  1  0.16571787  0.67048996  0.50366940  1
  I  I62  1  0.16950895  0.66923912  0.83293123  1
  I  I63  1  0.49982026  -0.00322454  0.16126962  1
  I  I64  1  0.50507117  0.00319924  0.50546791  1
  I  I65  1  0.49427096  0.00000281  0.83378053  1
  I  I66  1  0.49967359  0.33326268  0.16601806  1
  I  I67  1  0.49867421  0.32927088  0.50484798  1
  I  I68  1  0.49816696  0.33239527  0.82807862  1
  I  I69  1  0.49983706  0.67046214  0.16224135  1
  I  I70  1  0.50015402  0.66665324  0.49995934  1
  I  I71  1  0.49866970  0.66752213  0.83859351  1
  I  I72  1  0.83310217  -0.00332488  0.16712391  1
  I  I73  1  0.83182350  0.00244103  0.49845528  1
  I  I74  1  0.83238280  0.00007323  0.83259772  1
  I  I75  1  0.83424364  0.33318194  0.16584982  1
  I  I76  1  0.83177917  0.33321374  0.50400236  1
  I  I77  1  0.83088024  0.33676390  0.83248574  1
  I  I78  1  0.83448248  0.66948388  0.16807508  1
  I  I79  1  0.83630268  0.66425784  0.50243012  1
  I  I80  1  0.83066019  0.66337432  0.82811717  1
  I  I81  1  0.17192955  0.16349660  -0.00135834  1
  I  I82  1  0.16608105  0.16631698  0.33150830  1
  I  I83  1  0.16831177  0.16378304  0.66968605  1
  I  I84  1  0.16442311  0.50222474  0.00221036  1
  I  I85  1  0.16433969  0.49670939  0.32980009  1
  I  I86  1  0.16713542  0.49885773  0.66672288  1
  I  I87  1  0.16817434  0.83398925  -0.00281305  1
  I  I88  1  0.16544461  0.83407744  0.33453391  1
  I  I89  1  0.17099444  0.83896108  0.66862852  1
  I  I90  1  0.49683794  0.16729875  -0.00337383  1
  I  I91  1  0.50138408  0.16375074  0.33560111  1
  I  I92  1  0.49747817  0.16443415  0.66833537  1
  I  I93  1  0.50600783  0.49500299  -0.00421284  1
  I  I94  1  0.50005132  0.50082051  0.33327894  1
  I  I95  1  0.49978732  0.50557356  0.67073385  1
  I  I96  1  0.49670021  0.83492180  -0.00162981  1
  I  I97  1  0.50014157  0.83536371  0.33121372  1
  I  I98  1  0.49700152  0.83219034  0.67018299  1
  I  I99  1  0.83213118  0.16759780  0.00003753  1
  I  I100  1  0.82894250  0.17256832  0.33724882  1
  I  I101  1  0.83473255  0.16686304  0.66378906  1
  I  I102  1  0.83131602  0.50215592  -0.00251660  1
  I  I103  1  0.83689131  0.49780311  0.33579698  1
  I  I104  1  0.83138170  0.49799247  0.66693183  1
  I  I105  1  0.83583457  0.83104157  0.00270128  1
  I  I106  1  0.83188904  0.83168581  0.33026778  1
  I  I107  1  0.83286856  0.83375927  0.66671517  1
  I  I108  1  0.00384710  0.16639007  0.16197105  1
  I  I109  1  -0.00207041  0.16856823  0.49934188  1
  I  I110  1  0.00295276  0.16293520  0.83555658  1
  I  I111  1  0.00265747  0.50090906  0.16390838  1
  I  I112  1  -0.00333866  0.49367734  0.50690755  1
  I  I113  1  -0.00209564  0.50054199  0.83152958  1
  I  I114  1  -0.00115513  0.83253175  0.16785808  1
  I  I115  1  0.00306419  0.83598296  0.50228797  1
  I  I116  1  0.00288637  0.83628848  0.83266073  1
  I  I117  1  0.33001727  0.16621350  0.16726371  1
  I  I118  1  0.33554656  0.16351480  0.50141844  1
  I  I119  1  0.33380961  0.16744192  0.83130793  1
  I  I120  1  0.32987685  0.49928954  0.16479879  1
  I  I121  1  0.33343044  0.49944188  0.50026022  1
  I  I122  1  0.33596356  0.50073213  0.83613904  1
  I  I123  1  0.33552071  0.83353799  0.16467188  1
  I  I124  1  0.33028549  0.83607682  0.49775588  1
  I  I125  1  0.33370540  0.83221739  0.83624689  1
  I  I126  1  0.66659519  0.16623155  0.16498931  1
  I  I127  1  0.66627541  0.16783971  0.50606657  1
  I  I128  1  0.66358825  0.16325543  0.83033912  1
  I  I129  1  0.66639980  0.50082297  0.16753489  1
  I  I130  1  0.67022740  0.50072507  0.50071247  1
  I  I131  1  0.66601003  0.50123998  0.82999474  1
  I  I132  1  0.66575261  0.83293087  0.16176601  1
  I  I133  1  0.66655699  0.83279964  0.50061765  1
  I  I134  1  0.66350476  0.83585718  0.83602429  1
