# generated using pymatgen
data_Cs27Sn13Pb14I81
_symmetry_space_group_name_H-M   'P 1'
_cell_length_a   18.99914225
_cell_length_b   18.97702265
_cell_length_c   18.99899972
_cell_angle_alpha   89.99843649
_cell_angle_beta   90.00132736
_cell_angle_gamma   90.00117310
_symmetry_Int_Tables_number   1
_chemical_formula_structural   Cs27Sn13Pb14I81
_chemical_formula_sum   'Cs27 Sn13 Pb14 I81'
_cell_volume   6850.03525245
_cell_formula_units_Z   1
loop_
 _symmetry_equiv_pos_site_id
 _symmetry_equiv_pos_as_xyz
  1  'x, y, z'
loop_
 _atom_site_type_symbol
 _atom_site_label
 _atom_site_symmetry_multiplicity
 _atom_site_fract_x
 _atom_site_fract_y
 _atom_site_fract_z
 _atom_site_occupancy
  Cs  Cs0  1  -0.00020500  0.00151017  0.00272366  1
  Cs  Cs1  1  0.00097224  0.00216619  0.33237878  1
  Cs  Cs2  1  -0.00327856  -0.00224207  0.66375090  1
  Cs  Cs3  1  0.00246355  0.32474023  0.00303301  1
  Cs  Cs4  1  -0.00769898  0.32547550  0.33726581  1
  Cs  Cs5  1  0.00843454  0.32822579  0.65809836  1
  Cs  Cs6  1  0.00070653  0.66729132  -0.00098988  1
  Cs  Cs7  1  -0.00071400  0.66754048  0.33099391  1
  Cs  Cs8  1  0.00086320  0.66804637  0.66931665  1
  Cs  Cs9  1  0.33570373  0.00162764  0.00157738  1
  Cs  Cs10  1  0.33532559  -0.00051910  0.33240192  1
  Cs  Cs11  1  0.33789331  -0.00092512  0.66538198  1
  Cs  Cs12  1  0.32856565  0.32829139  -0.00482398  1
  Cs  Cs13  1  0.33375743  0.33335896  0.33662448  1
  Cs  Cs14  1  0.32553841  0.33662358  0.66760498  1
  Cs  Cs15  1  0.33297667  0.66709716  0.00129179  1
  Cs  Cs16  1  0.33584375  0.66527864  0.33048786  1
  Cs  Cs17  1  0.33243913  0.66570696  0.66764402  1
  Cs  Cs18  1  0.66455605  0.00055132  -0.00231847  1
  Cs  Cs19  1  0.66202806  -0.00154904  0.33443324  1
  Cs  Cs20  1  0.66458051  0.00030969  0.66735357  1
  Cs  Cs21  1  0.66980930  0.33204824  -0.00018760  1
  Cs  Cs22  1  0.67162231  0.34357887  0.33240605  1
  Cs  Cs23  1  0.66786993  0.33166955  0.66690524  1
  Cs  Cs24  1  0.66675842  0.66666241  -0.00006331  1
  Cs  Cs25  1  0.66496986  0.65969331  0.33018397  1
  Cs  Cs26  1  0.66681735  0.66778968  0.66861082  1
  Sn  Sn27  1  0.16632436  0.50028651  0.16697379  1
  Sn  Sn28  1  0.49992691  0.83228459  0.83265051  1
  Sn  Sn29  1  0.83328223  0.83295981  0.83360255  1
  Sn  Sn30  1  0.50013649  0.83322863  0.50056999  1
  Sn  Sn31  1  0.16597427  0.83244783  0.16667149  1
  Sn  Sn32  1  0.83277063  0.83297412  0.49962335  1
  Sn  Sn33  1  0.16674308  0.83323077  0.83351816  1
  Sn  Sn34  1  0.50040307  0.16713013  0.16791995  1
  Sn  Sn35  1  0.83369652  0.83319535  0.16660299  1
  Sn  Sn36  1  0.16700073  0.83302721  0.49975181  1
  Sn  Sn37  1  0.50071093  0.50088271  0.83346924  1
  Sn  Sn38  1  0.50025415  0.16647509  0.49877180  1
  Sn  Sn39  1  0.83352205  0.50041025  0.83311560  1
  Pb  Pb40  1  0.83353493  0.50259784  0.50293089  1
  Pb  Pb41  1  0.50007573  0.16706491  0.83253835  1
  Pb  Pb42  1  0.83577325  0.50212982  0.16408524  1
  Pb  Pb43  1  0.16642361  0.50262508  0.49699601  1
  Pb  Pb44  1  0.16650727  0.16320758  0.83306140  1
  Pb  Pb45  1  0.16859929  0.16626881  0.16703300  1
  Pb  Pb46  1  0.83025848  0.16425561  0.50004119  1
  Pb  Pb47  1  0.16581582  0.50187242  0.83506587  1
  Pb  Pb48  1  0.49784818  0.49692562  0.16358536  1
  Pb  Pb49  1  0.83044048  0.16393888  0.16676225  1
  Pb  Pb50  1  0.49997607  0.50030547  0.50249419  1
  Pb  Pb51  1  0.16935173  0.16381659  0.49985452  1
  Pb  Pb52  1  0.83345641  0.16691971  0.83306347  1
  Pb  Pb53  1  0.50004704  0.83387955  0.16653744  1
  I  I54  1  0.16346522  -0.00400004  0.16618090  1
  I  I55  1  0.16380405  -0.00523689  0.49786531  1
  I  I56  1  0.16789669  -0.00614759  0.83682640  1
  I  I57  1  0.17076327  0.33596015  0.16226158  1
  I  I58  1  0.16900585  0.33325017  0.49966185  1
  I  I59  1  0.16837599  0.33378848  0.83666295  1
  I  I60  1  0.16453113  0.66969254  0.16605841  1
  I  I61  1  0.17026492  0.67181901  0.50368969  1
  I  I62  1  0.16726905  0.67099024  0.83107744  1
  I  I63  1  0.49821971  0.00148649  0.16539872  1
  I  I64  1  0.49954072  -0.00255173  0.50232056  1
  I  I65  1  0.50024695  -0.00343117  0.83253517  1
  I  I66  1  0.49751630  0.32950386  0.17244372  1
  I  I67  1  0.49957425  0.33047904  0.49698419  1
  I  I68  1  0.50568653  0.33646465  0.83519273  1
  I  I69  1  0.50127261  0.66655357  0.16876448  1
  I  I70  1  0.49966322  0.67059052  0.50258005  1
  I  I71  1  0.50043688  0.66918755  0.82834683  1
  I  I72  1  0.84088204  -0.00490810  0.16336059  1
  I  I73  1  0.83666713  -0.00510758  0.50386089  1
  I  I74  1  0.83224014  -0.00478950  0.83301428  1
  I  I75  1  0.83492621  0.33351092  0.16388025  1
  I  I76  1  0.83190262  0.33338716  0.50139868  1
  I  I77  1  0.82442001  0.33691619  0.83556967  1
  I  I78  1  0.83311682  0.67096235  0.16873173  1
  I  I79  1  0.82976769  0.67186052  0.49797130  1
  I  I80  1  0.83175026  0.66957472  0.83300854  1
  I  I81  1  0.17087329  0.16391285  0.00026875  1
  I  I82  1  0.16710203  0.16323942  0.33338128  1
  I  I83  1  0.16994232  0.16755571  0.66641139  1
  I  I84  1  0.16812552  0.50890021  0.00252548  1
  I  I85  1  0.16928770  0.50884715  0.32941996  1
  I  I86  1  0.16797538  0.50038471  0.66687610  1
  I  I87  1  0.16464175  0.82946960  0.00003516  1
  I  I88  1  0.16450680  0.83018374  0.33314827  1
  I  I89  1  0.16505930  0.83486622  0.66688195  1
  I  I90  1  0.49887686  0.16441058  0.00172200  1
  I  I91  1  0.49809862  0.15599922  0.33420872  1
  I  I92  1  0.50074519  0.16139483  0.66389714  1
  I  I93  1  0.50316897  0.50782740  -0.00377524  1
  I  I94  1  0.49850687  0.50259730  0.33322762  1
  I  I95  1  0.50249757  0.50164123  0.67043974  1
  I  I96  1  0.49995274  0.83233585  -0.00284330  1
  I  I97  1  0.49945345  0.83715940  0.33590764  1
  I  I98  1  0.49961672  0.83616678  0.66689763  1
  I  I99  1  0.82985621  0.16257165  0.00005663  1
  I  I100  1  0.83516193  0.16417478  0.33335578  1
  I  I101  1  0.82966067  0.16284053  0.66651764  1
  I  I102  1  0.82800569  0.50929238  -0.00354223  1
  I  I103  1  0.83357097  0.50189579  0.33312421  1
  I  I104  1  0.82830275  0.50829450  0.67096234  1
  I  I105  1  0.83562607  0.83004477  -0.00073401  1
  I  I106  1  0.83663739  0.83594237  0.33346079  1
  I  I107  1  0.83547901  0.83056132  0.66710494  1
  I  I108  1  -0.00005380  0.16767169  0.16499334  1
  I  I109  1  -0.00006019  0.16617799  0.50081857  1
  I  I110  1  -0.00003152  0.16695108  0.83520733  1
  I  I111  1  0.00329353  0.50529872  0.16330782  1
  I  I112  1  0.00003653  0.50233616  0.50366599  1
  I  I113  1  -0.00285287  0.50875951  0.83523693  1
  I  I114  1  0.00045813  0.82997762  0.16581446  1
  I  I115  1  -0.00003425  0.83115784  0.50351557  1
  I  I116  1  -0.00039803  0.82976920  0.83104726  1
  I  I117  1  0.33619249  0.16172704  0.16932407  1
  I  I118  1  0.33711417  0.15859371  0.49675353  1
  I  I119  1  0.33367248  0.16662311  0.83451098  1
  I  I120  1  0.33059437  0.51023689  0.16416940  1
  I  I121  1  0.33333488  0.50268066  0.50311920  1
  I  I122  1  0.33561528  0.50455015  0.83438417  1
  I  I123  1  0.33064896  0.83214478  0.16608101  1
  I  I124  1  0.33367407  0.83766751  0.50307260  1
  I  I125  1  0.33384109  0.83014570  0.83092325  1
  I  I126  1  0.66288138  0.16330553  0.16923901  1
  I  I127  1  0.66259843  0.15767816  0.49800051  1
  I  I128  1  0.66644485  0.16048457  0.83412579  1
  I  I129  1  0.66678714  0.50032292  0.16744169  1
  I  I130  1  0.66659869  0.50272213  0.49665752  1
  I  I131  1  0.66633759  0.51025011  0.83380016  1
  I  I132  1  0.66913373  0.83676592  0.16564763  1
  I  I133  1  0.66630006  0.83860534  0.50403492  1
  I  I134  1  0.66648210  0.83069116  0.83114843  1
