# generated using pymatgen
data_Cs27Sn13Pb14I81
_symmetry_space_group_name_H-M   'P 1'
_cell_length_a   18.97999228
_cell_length_b   18.97830770
_cell_length_c   18.97139541
_cell_angle_alpha   89.99998781
_cell_angle_beta   90.00317114
_cell_angle_gamma   90.00025859
_symmetry_Int_Tables_number   1
_chemical_formula_structural   Cs27Sn13Pb14I81
_chemical_formula_sum   'Cs27 Sn13 Pb14 I81'
_cell_volume   6833.65092395
_cell_formula_units_Z   1
loop_
 _symmetry_equiv_pos_site_id
 _symmetry_equiv_pos_as_xyz
  1  'x, y, z'
loop_
 _atom_site_type_symbol
 _atom_site_label
 _atom_site_symmetry_multiplicity
 _atom_site_fract_x
 _atom_site_fract_y
 _atom_site_fract_z
 _atom_site_occupancy
  Cs  Cs0  1  -0.00002393  -0.00086210  -0.00133546  1
  Cs  Cs1  1  -0.00072305  -0.00415508  0.33039838  1
  Cs  Cs2  1  -0.00264154  0.00042869  0.66987499  1
  Cs  Cs3  1  -0.00001458  0.33373305  0.00038672  1
  Cs  Cs4  1  0.00080314  0.33313633  0.33355859  1
  Cs  Cs5  1  -0.00022369  0.33483225  0.66669458  1
  Cs  Cs6  1  0.00054138  0.66585131  -0.00307435  1
  Cs  Cs7  1  0.00413641  0.67568662  0.33289776  1
  Cs  Cs8  1  -0.00012784  0.66439683  0.66771340  1
  Cs  Cs9  1  0.33368869  0.00107016  -0.00185973  1
  Cs  Cs10  1  0.33267474  -0.00079990  0.33248870  1
  Cs  Cs11  1  0.33859503  0.00336564  0.66949065  1
  Cs  Cs12  1  0.33318022  0.33253126  -0.00101802  1
  Cs  Cs13  1  0.33266133  0.33217959  0.33561730  1
  Cs  Cs14  1  0.33400949  0.33131944  0.66519390  1
  Cs  Cs15  1  0.33891131  0.66623283  0.00195347  1
  Cs  Cs16  1  0.32907240  0.67547152  0.33335644  1
  Cs  Cs17  1  0.33346215  0.66743937  0.66437674  1
  Cs  Cs18  1  0.66726819  -0.00116377  0.00032003  1
  Cs  Cs19  1  0.66824464  -0.00173867  0.33413456  1
  Cs  Cs20  1  0.66694281  -0.00126660  0.66603398  1
  Cs  Cs21  1  0.66608679  0.33795179  0.00426663  1
  Cs  Cs22  1  0.66574864  0.33174311  0.33397734  1
  Cs  Cs23  1  0.66801904  0.33411968  0.66436371  1
  Cs  Cs24  1  0.65763842  0.66207153  0.00539916  1
  Cs  Cs25  1  0.66550701  0.67201627  0.32676381  1
  Cs  Cs26  1  0.66771777  0.66740168  0.66741000  1
  Sn  Sn27  1  0.49922035  0.16723263  0.16738588  1
  Sn  Sn28  1  0.83326298  0.16730038  0.83288984  1
  Sn  Sn29  1  0.50098940  0.49970666  0.49976357  1
  Sn  Sn30  1  0.83257546  0.49959433  0.49998999  1
  Sn  Sn31  1  0.16637791  0.50063339  0.83405848  1
  Sn  Sn32  1  0.83373632  0.83254996  0.83335327  1
  Sn  Sn33  1  0.83365367  0.16750450  0.50069874  1
  Sn  Sn34  1  0.16639834  0.83218235  0.83302905  1
  Sn  Sn35  1  0.16619104  0.16676854  0.49941244  1
  Sn  Sn36  1  0.83383762  0.50002800  0.83286766  1
  Sn  Sn37  1  0.50025039  0.16751858  0.49906500  1
  Sn  Sn38  1  0.16628155  0.49926744  0.16625891  1
  Sn  Sn39  1  0.16728785  0.16768335  0.16740921  1
  Pb  Pb40  1  0.49974247  0.83676324  0.16674963  1
  Pb  Pb41  1  0.50015424  0.83311628  0.83322420  1
  Pb  Pb42  1  0.50017751  0.83341426  0.50007373  1
  Pb  Pb43  1  0.16494092  0.16717779  0.83349249  1
  Pb  Pb44  1  0.49989307  0.49977258  0.83103511  1
  Pb  Pb45  1  0.83359149  0.16682185  0.16726005  1
  Pb  Pb46  1  0.16665989  0.83376866  0.16383902  1
  Pb  Pb47  1  0.16625880  0.49867659  0.50006512  1
  Pb  Pb48  1  0.83343356  0.83296798  0.16311608  1
  Pb  Pb49  1  0.83570389  0.50001822  0.16759325  1
  Pb  Pb50  1  0.83338583  0.83283443  0.50187777  1
  Pb  Pb51  1  0.49695620  0.49794507  0.17009017  1
  Pb  Pb52  1  0.16657394  0.83709894  0.50332037  1
  Pb  Pb53  1  0.50341105  0.16704091  0.83338161  1
  I  I54  1  0.17035016  0.00354684  0.16972465  1
  I  I55  1  0.16656099  0.00546952  0.49486841  1
  I  I56  1  0.16149089  -0.00154420  0.83250234  1
  I  I57  1  0.16917335  0.33239440  0.16368745  1
  I  I58  1  0.16652978  0.33026673  0.50149903  1
  I  I59  1  0.16195085  0.33594056  0.83419680  1
  I  I60  1  0.16481835  0.66381497  0.16523482  1
  I  I61  1  0.16702225  0.66662554  0.49706114  1
  I  I62  1  0.15770243  0.66533029  0.83779153  1
  I  I63  1  0.49379209  0.00507596  0.17277927  1
  I  I64  1  0.50054833  0.00417867  0.49686588  1
  I  I65  1  0.49931615  0.00036718  0.83178108  1
  I  I66  1  0.49852798  0.32991733  0.16828172  1
  I  I67  1  0.50117496  0.33189020  0.49754810  1
  I  I68  1  0.49808423  0.33323376  0.83486189  1
  I  I69  1  0.49948776  0.66625561  0.16716708  1
  I  I70  1  0.50471918  0.66323891  0.50311637  1
  I  I71  1  0.50353372  0.66633419  0.83108379  1
  I  I72  1  0.83478689  0.00036441  0.16625069  1
  I  I73  1  0.83240428  0.00350582  0.50396936  1
  I  I74  1  0.83745933  0.00046050  0.82971717  1
  I  I75  1  0.83295432  0.33321180  0.16019563  1
  I  I76  1  0.83271720  0.33238869  0.50865512  1
  I  I77  1  0.83805770  0.33392358  0.82854847  1
  I  I78  1  0.83545605  0.66632147  0.16872276  1
  I  I79  1  0.82932839  0.66293435  0.50483230  1
  I  I80  1  0.83957993  0.66546432  0.82803562  1
  I  I81  1  0.16981716  0.16711035  0.00242520  1
  I  I82  1  0.16572146  0.17318677  0.33345244  1
  I  I83  1  0.16886565  0.16677888  0.66410593  1
  I  I84  1  0.16062935  0.49716181  -0.00104842  1
  I  I85  1  0.16701718  0.49504736  0.33122924  1
  I  I86  1  0.16483725  0.50195911  0.66935624  1
  I  I87  1  0.16044623  0.83531907  -0.00392570  1
  I  I88  1  0.16757879  0.83053633  0.33332702  1
  I  I89  1  0.16159614  0.82723585  0.67096787  1
  I  I90  1  0.49497902  0.16513836  0.00282584  1
  I  I91  1  0.50066150  0.17114814  0.33467249  1
  I  I92  1  0.49635902  0.16932061  0.66315968  1
  I  I93  1  0.50248935  0.49902907  0.00048735  1
  I  I94  1  0.50627354  0.49578085  0.33773023  1
  I  I95  1  0.49876672  0.49195919  0.66315060  1
  I  I96  1  0.50108687  0.83521376  -0.00004495  1
  I  I97  1  0.49952889  0.83079559  0.33342635  1
  I  I98  1  0.49874431  0.83754682  0.66667267  1
  I  I99  1  0.83455920  0.16622023  -0.00297110  1
  I  I100  1  0.83322617  0.17251396  0.33697171  1
  I  I101  1  0.83427700  0.16687260  0.66599831  1
  I  I102  1  0.83648690  0.49879573  -0.00336872  1
  I  I103  1  0.83055994  0.49128957  0.33714675  1
  I  I104  1  0.83582638  0.49847532  0.66738744  1
  I  I105  1  0.83915833  0.83637064  -0.00545393  1
  I  I106  1  0.83269018  0.83427102  0.33343407  1
  I  I107  1  0.83803148  0.83462710  0.67024147  1
  I  I108  1  0.00313532  0.16981605  0.16920736  1
  I  I109  1  -0.00064262  0.17114363  0.50101638  1
  I  I110  1  -0.00310861  0.16668789  0.82936351  1
  I  I111  1  0.00368381  0.49203216  0.16616353  1
  I  I112  1  -0.00276101  0.49400270  0.50285841  1
  I  I113  1  -0.00061293  0.50013723  0.83098163  1
  I  I114  1  0.00037191  0.83689098  0.16960863  1
  I  I115  1  0.00006598  0.83344621  0.49821504  1
  I  I116  1  -0.00057141  0.83338306  0.83284908  1
  I  I117  1  0.33241804  0.17016974  0.17415230  1
  I  I118  1  0.33348388  0.17072953  0.49629638  1
  I  I119  1  0.33325585  0.16545795  0.83051025  1
  I  I120  1  0.32931698  0.49694185  0.16011627  1
  I  I121  1  0.33516056  0.49395441  0.50084709  1
  I  I122  1  0.32993861  0.50440782  0.83574511  1
  I  I123  1  0.33295827  0.83135684  0.16350220  1
  I  I124  1  0.33316366  0.83195278  0.50331357  1
  I  I125  1  0.32997668  0.82962447  0.83362173  1
  I  I126  1  0.66412407  0.16587769  0.16924031  1
  I  I127  1  0.66700231  0.17052144  0.50057278  1
  I  I128  1  0.67161428  0.16594495  0.82941721  1
  I  I129  1  0.66633216  0.49868464  0.16301809  1
  I  I130  1  0.66782076  0.49022482  0.50771112  1
  I  I131  1  0.67021151  0.49997389  0.83083955  1
  I  I132  1  0.66652387  0.83474798  0.16427684  1
  I  I133  1  0.66689384  0.83816363  0.50385863  1
  I  I134  1  0.67040199  0.83473040  0.83167854  1
