# generated using pymatgen
data_Cs27Sn13Pb14I81
_symmetry_space_group_name_H-M   'P 1'
_cell_length_a   18.97205476
_cell_length_b   18.98121121
_cell_length_c   18.97666990
_cell_angle_alpha   89.99995954
_cell_angle_beta   89.99950526
_cell_angle_gamma   90.00015608
_symmetry_Int_Tables_number   1
_chemical_formula_structural   Cs27Sn13Pb14I81
_chemical_formula_sum   'Cs27 Sn13 Pb14 I81'
_cell_volume   6833.73753044
_cell_formula_units_Z   1
loop_
 _symmetry_equiv_pos_site_id
 _symmetry_equiv_pos_as_xyz
  1  'x, y, z'
loop_
 _atom_site_type_symbol
 _atom_site_label
 _atom_site_symmetry_multiplicity
 _atom_site_fract_x
 _atom_site_fract_y
 _atom_site_fract_z
 _atom_site_occupancy
  Cs  Cs0  1  0.00217332  -0.00126238  -0.00072149  1
  Cs  Cs1  1  0.00065719  -0.00208672  0.34035744  1
  Cs  Cs2  1  -0.00063387  0.00214313  0.66069196  1
  Cs  Cs3  1  0.00111760  0.33313124  -0.00222843  1
  Cs  Cs4  1  -0.00872709  0.33375150  0.33305220  1
  Cs  Cs5  1  0.00105347  0.33185395  0.66842015  1
  Cs  Cs6  1  0.00260062  0.66721093  -0.00046769  1
  Cs  Cs7  1  0.00023420  0.66817821  0.33476229  1
  Cs  Cs8  1  -0.00380386  0.66623054  0.66758149  1
  Cs  Cs9  1  0.33136477  0.00088256  0.00157328  1
  Cs  Cs10  1  0.33388309  -0.00378311  0.33330837  1
  Cs  Cs11  1  0.33405989  0.00524457  0.66513478  1
  Cs  Cs12  1  0.33317538  0.33389540  0.00106551  1
  Cs  Cs13  1  0.33522623  0.33415098  0.33256884  1
  Cs  Cs14  1  0.33234284  0.33290770  0.66701764  1
  Cs  Cs15  1  0.33281038  0.66537040  -0.00123768  1
  Cs  Cs16  1  0.33163931  0.66913673  0.33408267  1
  Cs  Cs17  1  0.33599384  0.66348355  0.66743457  1
  Cs  Cs18  1  0.66787002  -0.00108722  0.00000043  1
  Cs  Cs19  1  0.66510109  0.00302445  0.33074017  1
  Cs  Cs20  1  0.66640778  -0.00308144  0.66847781  1
  Cs  Cs21  1  0.66625600  0.33314901  0.00588616  1
  Cs  Cs22  1  0.67323756  0.33229656  0.32616977  1
  Cs  Cs23  1  0.66654725  0.33250705  0.66649332  1
  Cs  Cs24  1  0.66454960  0.66791173  -0.00257191  1
  Cs  Cs25  1  0.66881283  0.66519284  0.33322763  1
  Cs  Cs26  1  0.66708744  0.67045062  0.66931324  1
  Sn  Sn27  1  0.49993424  0.83304821  0.49933064  1
  Sn  Sn28  1  0.50088986  0.16696946  0.83325924  1
  Sn  Sn29  1  0.16697737  0.49972145  0.49996004  1
  Sn  Sn30  1  0.50010437  0.16732558  0.50032392  1
  Sn  Sn31  1  0.50083048  0.83295974  0.16696602  1
  Sn  Sn32  1  0.83245519  0.16726441  0.83349187  1
  Sn  Sn33  1  0.83281027  0.83326294  0.16661267  1
  Sn  Sn34  1  0.16667455  0.49889218  0.16696033  1
  Sn  Sn35  1  0.16646734  0.16742769  0.16723423  1
  Sn  Sn36  1  0.83352772  0.49926184  0.83351998  1
  Sn  Sn37  1  0.16685550  0.83296613  0.83258284  1
  Sn  Sn38  1  0.49983532  0.49967735  0.49991220  1
  Sn  Sn39  1  0.16610490  0.50086888  0.83310288  1
  Pb  Pb40  1  0.16682530  0.83300606  0.16565866  1
  Pb  Pb41  1  0.83546541  0.83355694  0.83475324  1
  Pb  Pb42  1  0.83056279  0.83329494  0.49747215  1
  Pb  Pb43  1  0.83052685  0.16672207  0.50242137  1
  Pb  Pb44  1  0.83602138  0.16455198  0.16431531  1
  Pb  Pb45  1  0.16668318  0.16714454  0.83425288  1
  Pb  Pb46  1  0.16865877  0.16938607  0.49717891  1
  Pb  Pb47  1  0.49805412  0.50237346  0.16909765  1
  Pb  Pb48  1  0.49993276  0.49781109  0.83170850  1
  Pb  Pb49  1  0.49789112  0.83557351  0.83323055  1
  Pb  Pb50  1  0.16880700  0.83105390  0.50288738  1
  Pb  Pb51  1  0.83312439  0.49997893  0.50241617  1
  Pb  Pb52  1  0.49849624  0.16495851  0.16681919  1
  Pb  Pb53  1  0.83580867  0.50209119  0.16399700  1
  I  I54  1  0.16784626  0.00150626  0.16149195  1
  I  I55  1  0.16832245  0.00009660  0.50009685  1
  I  I56  1  0.16791357  -0.00150878  0.83844436  1
  I  I57  1  0.16854339  0.33453291  0.16279577  1
  I  I58  1  0.17336559  0.33739901  0.50655281  1
  I  I59  1  0.16588343  0.33639550  0.83211705  1
  I  I60  1  0.16718113  0.66383573  0.16695985  1
  I  I61  1  0.17267926  0.66291274  0.49524701  1
  I  I62  1  0.16251183  0.66475926  0.83632914  1
  I  I63  1  0.49938604  -0.00294382  0.17124971  1
  I  I64  1  0.50075539  0.00007956  0.50031684  1
  I  I65  1  0.50298081  0.00332100  0.82850829  1
  I  I66  1  0.49935198  0.33347527  0.16729448  1
  I  I67  1  0.49399881  0.33348932  0.50696699  1
  I  I68  1  0.49808305  0.32999216  0.82804450  1
  I  I69  1  0.50069305  0.67032080  0.17030611  1
  I  I70  1  0.49474213  0.66644169  0.49548819  1
  I  I71  1  0.50148722  0.66660598  0.83235945  1
  I  I72  1  0.83126185  -0.00299131  0.16309499  1
  I  I73  1  0.83351353  -0.00000553  0.50291577  1
  I  I74  1  0.83060865  0.00257191  0.83560085  1
  I  I75  1  0.83296259  0.33344606  0.16712724  1
  I  I76  1  0.83107974  0.33342643  0.49776152  1
  I  I77  1  0.83664352  0.33366283  0.83287934  1
  I  I78  1  0.83087563  0.66966480  0.16418756  1
  I  I79  1  0.83121864  0.66657804  0.50275327  1
  I  I80  1  0.83710212  0.66416230  0.83428305  1
  I  I81  1  0.16933560  0.17091239  0.00198463  1
  I  I82  1  0.16934089  0.16899707  0.32953722  1
  I  I83  1  0.16591408  0.16636219  0.66641857  1
  I  I84  1  0.16214177  0.50056946  -0.00062870  1
  I  I85  1  0.17344117  0.49635225  0.33340576  1
  I  I86  1  0.16763883  0.50501204  0.66725499  1
  I  I87  1  0.16888487  0.82819344  -0.00216681  1
  I  I88  1  0.16557843  0.83277361  0.33363557  1
  I  I89  1  0.16747633  0.82940884  0.67061774  1
  I  I90  1  0.50130878  0.16465143  -0.00244368  1
  I  I91  1  0.49585132  0.16710672  0.33612160  1
  I  I92  1  0.50198489  0.16419314  0.66638973  1
  I  I93  1  0.49845232  0.50027038  0.00001287  1
  I  I94  1  0.49416985  0.49585151  0.33735808  1
  I  I95  1  0.49399401  0.50454812  0.66355155  1
  I  I96  1  0.50127468  0.83565134  0.00224602  1
  I  I97  1  0.50192772  0.83546155  0.33379150  1
  I  I98  1  0.49681849  0.83182362  0.66397791  1
  I  I99  1  0.82687499  0.17062048  -0.00356878  1
  I  I100  1  0.83303958  0.16583786  0.33303396  1
  I  I101  1  0.83446192  0.16931855  0.67068233  1
  I  I102  1  0.83891377  0.49668987  -0.00386215  1
  I  I103  1  0.83424970  0.50123446  0.33308278  1
  I  I104  1  0.83957179  0.49747957  0.67044488  1
  I  I105  1  0.82722875  0.83315653  0.00245557  1
  I  I106  1  0.83465762  0.83302745  0.32957133  1
  I  I107  1  0.83310809  0.83298019  0.66686364  1
  I  I108  1  0.00367620  0.16910441  0.16285144  1
  I  I109  1  0.00016630  0.16735180  0.50080108  1
  I  I110  1  -0.00198212  0.16787510  0.83743426  1
  I  I111  1  0.00414239  0.49915445  0.17077243  1
  I  I112  1  0.00326176  0.50049420  0.49855463  1
  I  I113  1  0.00140791  0.49825420  0.83196496  1
  I  I114  1  -0.00156905  0.83286404  0.16143402  1
  I  I115  1  0.00026421  0.83209729  0.49874815  1
  I  I116  1  0.00324084  0.83276704  0.83788349  1
  I  I117  1  0.33070314  0.16813060  0.16296701  1
  I  I118  1  0.33687870  0.16457105  0.50724887  1
  I  I119  1  0.33560062  0.16579657  0.83047466  1
  I  I120  1  0.32972160  0.49904505  0.16061889  1
  I  I121  1  0.33314610  0.50053657  0.50260104  1
  I  I122  1  0.33030876  0.50240030  0.83468640  1
  I  I123  1  0.33561517  0.83378416  0.16980245  1
  I  I124  1  0.33693926  0.83531770  0.49323046  1
  I  I125  1  0.33029557  0.82767587  0.83640355  1
  I  I126  1  0.66671057  0.16626308  0.16775188  1
  I  I127  1  0.66194116  0.16908341  0.50039781  1
  I  I128  1  0.66644830  0.17079152  0.82943439  1
  I  I129  1  0.66672523  0.49969461  0.16666601  1
  I  I130  1  0.66325432  0.50086883  0.50275918  1
  I  I131  1  0.66900676  0.49828523  0.83091559  1
  I  I132  1  0.66566174  0.83465882  0.16931321  1
  I  I133  1  0.66197748  0.83017419  0.50129197  1
  I  I134  1  0.66646322  0.83129730  0.83245275  1
