# generated using pymatgen
data_Cs27Sn13Pb14I81
_symmetry_space_group_name_H-M   'P 1'
_cell_length_a   18.97500629
_cell_length_b   18.98099082
_cell_length_c   18.97469090
_cell_angle_alpha   89.99780265
_cell_angle_beta   89.99857596
_cell_angle_gamma   90.00111634
_symmetry_Int_Tables_number   1
_chemical_formula_structural   Cs27Sn13Pb14I81
_chemical_formula_sum   'Cs27 Sn13 Pb14 I81'
_cell_volume   6834.00853837
_cell_formula_units_Z   1
loop_
 _symmetry_equiv_pos_site_id
 _symmetry_equiv_pos_as_xyz
  1  'x, y, z'
loop_
 _atom_site_type_symbol
 _atom_site_label
 _atom_site_symmetry_multiplicity
 _atom_site_fract_x
 _atom_site_fract_y
 _atom_site_fract_z
 _atom_site_occupancy
  Cs  Cs0  1  -0.00169730  0.00071238  -0.00392939  1
  Cs  Cs1  1  0.00021915  -0.00033638  0.33336598  1
  Cs  Cs2  1  -0.00100970  0.00399041  0.67108927  1
  Cs  Cs3  1  -0.00033551  0.33244161  -0.00149654  1
  Cs  Cs4  1  0.00185128  0.33287964  0.33375005  1
  Cs  Cs5  1  -0.00111613  0.33128797  0.66718023  1
  Cs  Cs6  1  -0.00739672  0.66661487  0.00119084  1
  Cs  Cs7  1  0.00105726  0.66737471  0.33429056  1
  Cs  Cs8  1  0.00212036  0.66606076  0.66162282  1
  Cs  Cs9  1  0.33344103  0.00090326  -0.00182463  1
  Cs  Cs10  1  0.33352404  -0.00139737  0.33263743  1
  Cs  Cs11  1  0.33214870  -0.00254217  0.67162928  1
  Cs  Cs12  1  0.33403855  0.33133711  0.00259770  1
  Cs  Cs13  1  0.33541364  0.33235187  0.33210397  1
  Cs  Cs14  1  0.33394381  0.33498162  0.66612982  1
  Cs  Cs15  1  0.33411797  0.66856435  -0.00326202  1
  Cs  Cs16  1  0.33094665  0.66902363  0.33498279  1
  Cs  Cs17  1  0.33493366  0.66745440  0.66706904  1
  Cs  Cs18  1  0.66799147  -0.00331974  -0.00135356  1
  Cs  Cs19  1  0.66558591  0.00166821  0.33420077  1
  Cs  Cs20  1  0.66933152  0.00366779  0.66755581  1
  Cs  Cs21  1  0.66410584  0.34239237  0.00166989  1
  Cs  Cs22  1  0.65647353  0.32998045  0.33278462  1
  Cs  Cs23  1  0.66652145  0.33069890  0.66641697  1
  Cs  Cs24  1  0.67510959  0.66022947  -0.00622578  1
  Cs  Cs25  1  0.66936307  0.66768814  0.33183592  1
  Cs  Cs26  1  0.66328676  0.66477838  0.67171913  1
  Sn  Sn27  1  0.16672388  0.50038698  0.16655387  1
  Sn  Sn28  1  0.16679525  0.16643198  0.49946112  1
  Sn  Sn29  1  0.49985603  0.16683504  0.83347716  1
  Sn  Sn30  1  0.16655553  0.83393210  0.49940124  1
  Sn  Sn31  1  0.49976349  0.83283527  0.16689265  1
  Sn  Sn32  1  0.83350729  0.83273181  0.49980927  1
  Sn  Sn33  1  0.16660847  0.50028540  0.83342938  1
  Sn  Sn34  1  0.16723843  0.83341729  0.16709911  1
  Sn  Sn35  1  0.50002846  0.83327623  0.49919505  1
  Sn  Sn36  1  0.83375714  0.16676933  0.16699361  1
  Sn  Sn37  1  0.16563679  0.16623448  0.16741760  1
  Sn  Sn38  1  0.16612436  0.49974705  0.49978806  1
  Sn  Sn39  1  0.83374921  0.50018980  0.49927353  1
  Pb  Pb40  1  0.49767776  0.49775127  0.83322758  1
  Pb  Pb41  1  0.83355504  0.83331970  0.82980139  1
  Pb  Pb42  1  0.49987333  0.50243651  0.49977047  1
  Pb  Pb43  1  0.16636605  0.83094503  0.83372787  1
  Pb  Pb44  1  0.49703111  0.16396686  0.50162632  1
  Pb  Pb45  1  0.83367532  0.83480583  0.16856132  1
  Pb  Pb46  1  0.49760660  0.50359196  0.16682628  1
  Pb  Pb47  1  0.83061448  0.16712576  0.83660219  1
  Pb  Pb48  1  0.83558007  0.49761389  0.16965193  1
  Pb  Pb49  1  0.49995486  0.83462476  0.83372131  1
  Pb  Pb50  1  0.83601705  0.49978200  0.83021701  1
  Pb  Pb51  1  0.49953175  0.16441143  0.16512957  1
  Pb  Pb52  1  0.16776310  0.16873530  0.83374979  1
  Pb  Pb53  1  0.83528488  0.16696414  0.49825914  1
  I  I54  1  0.16726835  -0.00020141  0.17424794  1
  I  I55  1  0.16705325  -0.00090600  0.49323152  1
  I  I56  1  0.16833347  0.00017075  0.83214303  1
  I  I57  1  0.16226933  0.33315252  0.16950507  1
  I  I58  1  0.16190673  0.33391495  0.49803427  1
  I  I59  1  0.16838673  0.33648657  0.83187215  1
  I  I60  1  0.17191751  0.66703024  0.17042003  1
  I  I61  1  0.16609858  0.66707466  0.49804017  1
  I  I62  1  0.16779089  0.66308084  0.83147223  1
  I  I63  1  0.49328876  -0.00325370  0.17075635  1
  I  I64  1  0.50020544  -0.00403500  0.49620551  1
  I  I65  1  0.49639692  0.00225262  0.83303121  1
  I  I66  1  0.49940850  0.33323890  0.16462500  1
  I  I67  1  0.49983029  0.33306021  0.50191699  1
  I  I68  1  0.49833653  0.33016113  0.83401083  1
  I  I69  1  0.49389946  0.67149292  0.17193708  1
  I  I70  1  0.49411055  0.67066913  0.49722291  1
  I  I71  1  0.49871612  0.66658175  0.83250178  1
  I  I72  1  0.83949678  0.00249077  0.16961824  1
  I  I73  1  0.83438887  -0.00273988  0.49797508  1
  I  I74  1  0.83431399  0.00036019  0.83086633  1
  I  I75  1  0.83975006  0.32999962  0.16828693  1
  I  I76  1  0.84100242  0.33587435  0.49966154  1
  I  I77  1  0.83350969  0.33341683  0.83012987  1
  I  I78  1  0.83343010  0.66654698  0.16590833  1
  I  I79  1  0.84006517  0.66723187  0.49879474  1
  I  I80  1  0.83243749  0.66642571  0.83765617  1
  I  I81  1  0.16519579  0.16655494  0.00345644  1
  I  I82  1  0.16412665  0.16973027  0.33307405  1
  I  I83  1  0.16846632  0.16607926  0.66374116  1
  I  I84  1  0.16946876  0.49868806  0.00115071  1
  I  I85  1  0.16303664  0.50058336  0.33389102  1
  I  I86  1  0.16346197  0.49986448  0.66486476  1
  I  I87  1  0.17279902  0.83454264  0.00381189  1
  I  I88  1  0.16746064  0.83029139  0.33419576  1
  I  I89  1  0.16755142  0.83343037  0.66283965  1
  I  I90  1  0.49606835  0.16355164  -0.00214557  1
  I  I91  1  0.50106226  0.16745609  0.33329103  1
  I  I92  1  0.49742869  0.16469335  0.66901137  1
  I  I93  1  0.49754066  0.50166413  0.00017923  1
  I  I94  1  0.49782824  0.49521446  0.33332182  1
  I  I95  1  0.49630994  0.50246052  0.66633971  1
  I  I96  1  0.49164348  0.83663769  0.00333662  1
  I  I97  1  0.49682152  0.83461696  0.33400931  1
  I  I98  1  0.49784318  0.83413773  0.66333443  1
  I  I99  1  0.84259208  0.16476958  0.00424359  1
  I  I100  1  0.83638604  0.16564499  0.33058265  1
  I  I101  1  0.83408606  0.16593404  0.66638450  1
  I  I102  1  0.83458473  0.49896948  0.00037337  1
  I  I103  1  0.84125459  0.50510410  0.33730873  1
  I  I104  1  0.84005886  0.50367278  0.66222821  1
  I  I105  1  0.83301019  0.83511207  0.00042728  1
  I  I106  1  0.83497802  0.83017738  0.33683407  1
  I  I107  1  0.83473697  0.83107537  0.66108348  1
  I  I108  1  0.00276004  0.16462341  0.17059930  1
  I  I109  1  0.00390530  0.16289233  0.49907041  1
  I  I110  1  0.00008143  0.16752442  0.83159950  1
  I  I111  1  0.00453812  0.50533975  0.16562440  1
  I  I112  1  0.00233118  0.50529887  0.49992019  1
  I  I113  1  0.00413927  0.49829777  0.83547663  1
  I  I114  1  0.00360707  0.83144259  0.17125357  1
  I  I115  1  0.00160611  0.83136011  0.49589285  1
  I  I116  1  0.00031499  0.83504009  0.83450698  1
  I  I117  1  0.32965305  0.16864619  0.16906176  1
  I  I118  1  0.32862219  0.16877492  0.49375477  1
  I  I119  1  0.33521595  0.16666492  0.83461085  1
  I  I120  1  0.32842432  0.49394678  0.17063439  1
  I  I121  1  0.32926753  0.50039532  0.49985846  1
  I  I122  1  0.32939204  0.50038500  0.82970776  1
  I  I123  1  0.33146575  0.83497572  0.17481383  1
  I  I124  1  0.33173670  0.83338865  0.49630921  1
  I  I125  1  0.33306829  0.83284943  0.82872535  1
  I  I126  1  0.66873437  0.16368621  0.16592623  1
  I  I127  1  0.66659389  0.16684259  0.49937057  1
  I  I128  1  0.66319907  0.16419098  0.83229131  1
  I  I129  1  0.66694829  0.49833252  0.16774138  1
  I  I130  1  0.66966256  0.50460674  0.50031903  1
  I  I131  1  0.66687752  0.49953737  0.83208911  1
  I  I132  1  0.66436497  0.83858362  0.17247119  1
  I  I133  1  0.66664862  0.82909825  0.49555826  1
  I  I134  1  0.66658278  0.83440699  0.83417740  1
