# generated using pymatgen
data_Cs27Sn13Pb14I81
_symmetry_space_group_name_H-M   'P 1'
_cell_length_a   18.98782571
_cell_length_b   18.98386725
_cell_length_c   19.00380936
_cell_angle_alpha   90.00001978
_cell_angle_beta   89.99949374
_cell_angle_gamma   89.99706145
_symmetry_Int_Tables_number   1
_chemical_formula_structural   Cs27Sn13Pb14I81
_chemical_formula_sum   'Cs27 Sn13 Pb14 I81'
_cell_volume   6850.15801086
_cell_formula_units_Z   1
loop_
 _symmetry_equiv_pos_site_id
 _symmetry_equiv_pos_as_xyz
  1  'x, y, z'
loop_
 _atom_site_type_symbol
 _atom_site_label
 _atom_site_symmetry_multiplicity
 _atom_site_fract_x
 _atom_site_fract_y
 _atom_site_fract_z
 _atom_site_occupancy
  Cs  Cs0  1  -0.00055936  0.00049884  -0.00087260  1
  Cs  Cs1  1  0.00040279  -0.00409647  0.33560379  1
  Cs  Cs2  1  0.00087967  -0.00765889  0.66664696  1
  Cs  Cs3  1  -0.00250039  0.33132920  -0.00031795  1
  Cs  Cs4  1  -0.00423203  0.33294267  0.33302155  1
  Cs  Cs5  1  -0.00219199  0.33501942  0.66744351  1
  Cs  Cs6  1  0.00874954  0.67465847  -0.00388090  1
  Cs  Cs7  1  0.00668820  0.67560295  0.33524672  1
  Cs  Cs8  1  0.00793987  0.67378601  0.66872088  1
  Cs  Cs9  1  0.33372942  0.00249150  0.00117347  1
  Cs  Cs10  1  0.33126676  0.00195615  0.33586912  1
  Cs  Cs11  1  0.33877283  0.00287266  0.66219979  1
  Cs  Cs12  1  0.33128503  0.33300430  0.00136944  1
  Cs  Cs13  1  0.32887030  0.33327851  0.33407428  1
  Cs  Cs14  1  0.33352318  0.33236888  0.66340360  1
  Cs  Cs15  1  0.32879586  0.66640137  0.00619379  1
  Cs  Cs16  1  0.33136621  0.66524668  0.32415192  1
  Cs  Cs17  1  0.33313899  0.66554801  0.66821663  1
  Cs  Cs18  1  0.66695978  0.00005705  0.00030322  1
  Cs  Cs19  1  0.66756072  -0.00186549  0.33193420  1
  Cs  Cs20  1  0.66250713  -0.00227731  0.66723047  1
  Cs  Cs21  1  0.66901019  0.33373503  -0.00118130  1
  Cs  Cs22  1  0.67009111  0.33557203  0.33373804  1
  Cs  Cs23  1  0.66710064  0.33534509  0.66724263  1
  Cs  Cs24  1  0.66456948  0.66686288  0.00006907  1
  Cs  Cs25  1  0.66432941  0.66652181  0.33467633  1
  Cs  Cs26  1  0.66580337  0.66489687  0.66583622  1
  Sn  Sn27  1  0.16585020  0.16721567  0.16597829  1
  Sn  Sn28  1  0.50047865  0.83180784  0.50042722  1
  Sn  Sn29  1  0.16567112  0.16716563  0.83337415  1
  Sn  Sn30  1  0.83297580  0.16687898  0.50052726  1
  Sn  Sn31  1  0.83332260  0.49984487  0.50024715  1
  Sn  Sn32  1  0.83297305  0.49987311  0.83340116  1
  Sn  Sn33  1  0.83395976  0.16700641  0.83286551  1
  Sn  Sn34  1  0.50048838  0.50062778  0.83304438  1
  Sn  Sn35  1  0.50050021  0.50067792  0.50050368  1
  Sn  Sn36  1  0.50051405  0.16738215  0.16687524  1
  Sn  Sn37  1  0.50041298  0.83199856  0.83307656  1
  Sn  Sn38  1  0.83325271  0.16720524  0.16667003  1
  Sn  Sn39  1  0.83358314  0.50034705  0.16639026  1
  Pb  Pb40  1  0.16664831  0.83662133  0.16648039  1
  Pb  Pb41  1  0.50036006  0.16756278  0.83479416  1
  Pb  Pb42  1  0.50027520  0.83565356  0.16668831  1
  Pb  Pb43  1  0.50178133  0.49777899  0.16658027  1
  Pb  Pb44  1  0.17073144  0.83320545  0.50018110  1
  Pb  Pb45  1  0.17049678  0.83678528  0.83322384  1
  Pb  Pb46  1  0.83320402  0.83260125  0.16648391  1
  Pb  Pb47  1  0.16622200  0.49984196  0.50005838  1
  Pb  Pb48  1  0.83128760  0.83227857  0.50016827  1
  Pb  Pb49  1  0.16264162  0.49746690  0.16659248  1
  Pb  Pb50  1  0.16319704  0.16696329  0.50037006  1
  Pb  Pb51  1  0.83115494  0.83277610  0.83336478  1
  Pb  Pb52  1  0.50242707  0.16762369  0.49760969  1
  Pb  Pb53  1  0.16659253  0.49767606  0.83323522  1
  I  I54  1  0.16395945  0.00510988  0.16227071  1
  I  I55  1  0.16677689  0.00035915  0.49903469  1
  I  I56  1  0.15996227  0.00452292  0.83881721  1
  I  I57  1  0.16965983  0.32923183  0.16248218  1
  I  I58  1  0.17431175  0.33297735  0.49977620  1
  I  I59  1  0.16731529  0.32966213  0.83832130  1
  I  I60  1  0.16613385  0.66647219  0.16742628  1
  I  I61  1  0.15935588  0.66670125  0.50047509  1
  I  I62  1  0.16306510  0.66687081  0.83265945  1
  I  I63  1  0.50290541  0.00399927  0.16566272  1
  I  I64  1  0.50118574  -0.00166935  0.50365323  1
  I  I65  1  0.49935345  -0.00150168  0.83028598  1
  I  I66  1  0.49916805  0.32974221  0.16568830  1
  I  I67  1  0.50262814  0.33651474  0.50470498  1
  I  I68  1  0.50190364  0.33627885  0.82957215  1
  I  I69  1  0.50256265  0.66629261  0.16679288  1
  I  I70  1  0.50796740  0.66541392  0.50432364  1
  I  I71  1  0.50772999  0.66534390  0.82929618  1
  I  I72  1  0.83358686  0.00431539  0.16656193  1
  I  I73  1  0.83256609  0.00281638  0.49816772  1
  I  I74  1  0.83569035  0.00340383  0.83498875  1
  I  I75  1  0.83278508  0.33187309  0.16689315  1
  I  I76  1  0.82745031  0.33349456  0.49944352  1
  I  I77  1  0.83062388  0.33292229  0.83384160  1
  I  I78  1  0.82918743  0.66271104  0.16731756  1
  I  I79  1  0.83003855  0.66269582  0.49947115  1
  I  I80  1  0.82977331  0.66281431  0.83314326  1
  I  I81  1  0.16188117  0.16699557  0.00033780  1
  I  I82  1  0.16718683  0.16663880  0.33036271  1
  I  I83  1  0.16337236  0.16701337  0.66977694  1
  I  I84  1  0.16925431  0.50085009  -0.00004433  1
  I  I85  1  0.16874453  0.49677045  0.33318877  1
  I  I86  1  0.16284579  0.49579793  0.66681428  1
  I  I87  1  0.16942102  0.83149724  -0.00036532  1
  I  I88  1  0.16789451  0.83600673  0.33333490  1
  I  I89  1  0.16304939  0.83680206  0.66696611  1
  I  I90  1  0.50448289  0.16619337  0.00251592  1
  I  I91  1  0.49993469  0.16586634  0.32994459  1
  I  I92  1  0.49909137  0.16504387  0.66649443  1
  I  I93  1  0.50487250  0.50219733  -0.00291789  1
  I  I94  1  0.50501030  0.50293207  0.33614391  1
  I  I95  1  0.50840428  0.50279490  0.66689503  1
  I  I96  1  0.50093312  0.83045444  -0.00297780  1
  I  I97  1  0.50152232  0.82992602  0.33634042  1
  I  I98  1  0.50169103  0.83172857  0.66681156  1
  I  I99  1  0.83354162  0.17202213  0.00013694  1
  I  I100  1  0.83201258  0.17260597  0.33274242  1
  I  I101  1  0.83684643  0.17318060  0.66734249  1
  I  I102  1  0.82711137  0.49052270  -0.00074688  1
  I  I103  1  0.82760669  0.49037593  0.33377032  1
  I  I104  1  0.82702904  0.49047807  0.66691340  1
  I  I105  1  0.82908081  0.83503620  -0.00017282  1
  I  I106  1  0.83000189  0.83567871  0.33341785  1
  I  I107  1  0.83400363  0.83755453  0.66673944  1
  I  I108  1  -0.00133937  0.17135531  0.16536511  1
  I  I109  1  -0.00494100  0.17378331  0.49523433  1
  I  I110  1  -0.00193034  0.17272973  0.83873625  1
  I  I111  1  -0.00550604  0.49188185  0.16677632  1
  I  I112  1  -0.00436377  0.49224756  0.50006055  1
  I  I113  1  -0.00377800  0.49562902  0.83299966  1
  I  I114  1  0.00002253  0.83417116  0.16704207  1
  I  I115  1  0.00005412  0.83401282  0.49847649  1
  I  I116  1  0.00034019  0.83109666  0.83420284  1
  I  I117  1  0.33300563  0.16483543  0.16059027  1
  I  I118  1  0.33348150  0.16546027  0.49895050  1
  I  I119  1  0.33156344  0.16547329  0.84014209  1
  I  I120  1  0.33322381  0.49769019  0.16732067  1
  I  I121  1  0.33711701  0.50336567  0.50570413  1
  I  I122  1  0.33682024  0.50166707  0.82767748  1
  I  I123  1  0.33361182  0.83525723  0.16723374  1
  I  I124  1  0.33875172  0.83009339  0.50517144  1
  I  I125  1  0.33813232  0.82859147  0.82874502  1
  I  I126  1  0.66839800  0.16923730  0.16590303  1
  I  I127  1  0.67042228  0.16806937  0.50067769  1
  I  I128  1  0.66976513  0.16741588  0.83501165  1
  I  I129  1  0.66982113  0.49159745  0.16647604  1
  I  I130  1  0.66725734  0.49910061  0.50069516  1
  I  I131  1  0.66740852  0.49662462  0.83259419  1
  I  I132  1  0.66647208  0.83987214  0.16640908  1
  I  I133  1  0.66349412  0.83327151  0.50405709  1
  I  I134  1  0.66336316  0.83617236  0.82958555  1
