# generated using pymatgen
data_Cs27Sn13Pb14I81
_symmetry_space_group_name_H-M   'P 1'
_cell_length_a   19.00004081
_cell_length_b   18.99045798
_cell_length_c   18.98389787
_cell_angle_alpha   90.00026486
_cell_angle_beta   89.99964681
_cell_angle_gamma   89.99996379
_symmetry_Int_Tables_number   1
_chemical_formula_structural   Cs27Sn13Pb14I81
_chemical_formula_sum   'Cs27 Sn13 Pb14 I81'
_cell_volume   6849.76009178
_cell_formula_units_Z   1
loop_
 _symmetry_equiv_pos_site_id
 _symmetry_equiv_pos_as_xyz
  1  'x, y, z'
loop_
 _atom_site_type_symbol
 _atom_site_label
 _atom_site_symmetry_multiplicity
 _atom_site_fract_x
 _atom_site_fract_y
 _atom_site_fract_z
 _atom_site_occupancy
  Cs  Cs0  1  0.00014546  -0.00340386  -0.00090245  1
  Cs  Cs1  1  0.00168050  -0.00838972  0.34099648  1
  Cs  Cs2  1  -0.00078371  0.00203819  0.66261948  1
  Cs  Cs3  1  0.00064956  0.33414399  -0.00078632  1
  Cs  Cs4  1  0.00295285  0.33287768  0.33385063  1
  Cs  Cs5  1  -0.00840577  0.33408165  0.66620310  1
  Cs  Cs6  1  0.00161895  0.67008803  -0.00043974  1
  Cs  Cs7  1  0.00041830  0.67469411  0.33349484  1
  Cs  Cs8  1  -0.00324317  0.66232402  0.67032626  1
  Cs  Cs9  1  0.33358012  0.00179197  -0.00050862  1
  Cs  Cs10  1  0.33042888  0.00137019  0.33538152  1
  Cs  Cs11  1  0.33288288  -0.00133071  0.66617384  1
  Cs  Cs12  1  0.33231891  0.33183190  0.00218612  1
  Cs  Cs13  1  0.33243477  0.33234778  0.33188108  1
  Cs  Cs14  1  0.33185024  0.33428248  0.66645033  1
  Cs  Cs15  1  0.33281723  0.66647799  -0.00268035  1
  Cs  Cs16  1  0.33115867  0.66678626  0.33451027  1
  Cs  Cs17  1  0.34369453  0.66504490  0.66990129  1
  Cs  Cs18  1  0.66591660  0.00136153  -0.00055024  1
  Cs  Cs19  1  0.66777803  -0.00176075  0.33253160  1
  Cs  Cs20  1  0.66829766  -0.00120563  0.66702847  1
  Cs  Cs21  1  0.66864322  0.33088286  0.00307618  1
  Cs  Cs22  1  0.66495249  0.33442532  0.32952184  1
  Cs  Cs23  1  0.67682430  0.33889701  0.66412499  1
  Cs  Cs24  1  0.66456414  0.66961580  -0.00030618  1
  Cs  Cs25  1  0.66917602  0.66691178  0.33925378  1
  Cs  Cs26  1  0.65797709  0.66093607  0.65844788  1
  Sn  Sn27  1  0.16677773  0.49994767  0.49933852  1
  Sn  Sn28  1  0.49963348  0.83347728  0.16677608  1
  Sn  Sn29  1  0.16604907  0.83424424  0.83329115  1
  Sn  Sn30  1  0.49977635  0.16650217  0.16660364  1
  Sn  Sn31  1  0.83337726  0.83320265  0.83327786  1
  Sn  Sn32  1  0.16635766  0.49943727  0.16761008  1
  Sn  Sn33  1  0.83438438  0.16659403  0.16672594  1
  Sn  Sn34  1  0.50021963  0.16700164  0.50038571  1
  Sn  Sn35  1  0.83389130  0.49965837  0.16638647  1
  Sn  Sn36  1  0.16593755  0.16671858  0.16620522  1
  Sn  Sn37  1  0.49979999  0.50038638  0.16646373  1
  Sn  Sn38  1  0.16706958  0.16599756  0.83397310  1
  Sn  Sn39  1  0.49964420  0.16714917  0.83285705  1
  Pb  Pb40  1  0.16672604  0.49924583  0.83369009  1
  Pb  Pb41  1  0.50014667  0.49642444  0.83567919  1
  Pb  Pb42  1  0.83303455  0.50280933  0.83616843  1
  Pb  Pb43  1  0.49968075  0.83599690  0.49708557  1
  Pb  Pb44  1  0.83121104  0.83336901  0.16547167  1
  Pb  Pb45  1  0.83325031  0.83323948  0.50373489  1
  Pb  Pb46  1  0.49991411  0.83543750  0.83493121  1
  Pb  Pb47  1  0.16697634  0.83009855  0.50396803  1
  Pb  Pb48  1  0.83065036  0.16666040  0.49656042  1
  Pb  Pb49  1  0.83375138  0.16533448  0.83546351  1
  Pb  Pb50  1  0.16870680  0.83351078  0.16514463  1
  Pb  Pb51  1  0.49796913  0.49731357  0.49732932  1
  Pb  Pb52  1  0.83603533  0.49991275  0.49658044  1
  Pb  Pb53  1  0.16820713  0.16821256  0.50035373  1
  I  I54  1  0.16817807  0.00326955  0.16357631  1
  I  I55  1  0.16779526  -0.00000258  0.49700160  1
  I  I56  1  0.16767107  0.00155070  0.84087403  1
  I  I57  1  0.17092250  0.33250670  0.16455744  1
  I  I58  1  0.16928910  0.33588150  0.49757802  1
  I  I59  1  0.17271640  0.32990217  0.83652929  1
  I  I60  1  0.16723185  0.66372897  0.16856938  1
  I  I61  1  0.16640113  0.66269373  0.48995519  1
  I  I62  1  0.16177308  0.66896866  0.83501236  1
  I  I63  1  0.50063709  0.00210673  0.16577973  1
  I  I64  1  0.49797471  0.00402732  0.49636617  1
  I  I65  1  0.49867957  0.00354625  0.83857277  1
  I  I66  1  0.49994884  0.33220744  0.16653408  1
  I  I67  1  0.49812956  0.32973828  0.49661184  1
  I  I68  1  0.49201414  0.32826546  0.83731033  1
  I  I69  1  0.49974547  0.66594574  0.16479366  1
  I  I70  1  0.49956087  0.66629479  0.49937730  1
  I  I71  1  0.49865879  0.66668051  0.83638552  1
  I  I72  1  0.83084275  0.00288018  0.16398212  1
  I  I73  1  0.83387338  0.00018837  0.49550466  1
  I  I74  1  0.83404066  -0.00218816  0.83887530  1
  I  I75  1  0.82823549  0.33278349  0.16545050  1
  I  I76  1  0.83333389  0.33327756  0.50487139  1
  I  I77  1  0.83349986  0.33325659  0.83220703  1
  I  I78  1  0.83332702  0.66374601  0.16445159  1
  I  I79  1  0.83299915  0.66641268  0.49690283  1
  I  I80  1  0.84219261  0.67044234  0.83774413  1
  I  I81  1  0.17204898  0.16876555  0.00146232  1
  I  I82  1  0.16888400  0.16992112  0.32986656  1
  I  I83  1  0.17299864  0.16404849  0.66991208  1
  I  I84  1  0.16744352  0.49839919  0.00367500  1
  I  I85  1  0.16798804  0.49280310  0.33037906  1
  I  I86  1  0.16760418  0.50006208  0.66436195  1
  I  I87  1  0.16432261  0.83314723  -0.00256686  1
  I  I88  1  0.16807070  0.83597300  0.33337146  1
  I  I89  1  0.16319238  0.84124024  0.67166902  1
  I  I90  1  0.49906323  0.16654573  0.00188714  1
  I  I91  1  0.49996677  0.16748328  0.33082430  1
  I  I92  1  0.49196785  0.16408297  0.66752207  1
  I  I93  1  0.49585310  0.49773417  0.00469494  1
  I  I94  1  0.50228111  0.49669570  0.32865550  1
  I  I95  1  0.49749488  0.50002064  0.66635620  1
  I  I96  1  0.49992516  0.83572469  0.00306767  1
  I  I97  1  0.50059615  0.83534066  0.32872383  1
  I  I98  1  0.50022210  0.83489030  0.66677425  1
  I  I99  1  0.82792535  0.17008633  0.00372645  1
  I  I100  1  0.83301491  0.17060149  0.32799948  1
  I  I101  1  0.83281561  0.16474395  0.66673360  1
  I  I102  1  0.83612414  0.49460268  0.00453348  1
  I  I103  1  0.82843783  0.49568330  0.32835758  1
  I  I104  1  0.83553525  0.50077199  0.66643534  1
  I  I105  1  0.83724526  0.83357598  -0.00207103  1
  I  I106  1  0.83141794  0.83327419  0.33312340  1
  I  I107  1  0.83857154  0.83704278  0.67161225  1
  I  I108  1  0.00106380  0.17542035  0.15987807  1
  I  I109  1  0.00000867  0.16803727  0.50022678  1
  I  I110  1  0.00318269  0.16509579  0.83949628  1
  I  I111  1  0.00073537  0.49161910  0.16942767  1
  I  I112  1  0.00362880  0.49747711  0.49482391  1
  I  I113  1  0.00011841  0.49601119  0.83527277  1
  I  I114  1  0.00014414  0.83316023  0.16627970  1
  I  I115  1  0.00036375  0.83473589  0.49452582  1
  I  I116  1  0.00108254  0.83892197  0.83699443  1
  I  I117  1  0.33376910  0.16930112  0.16554622  1
  I  I118  1  0.33605196  0.16795829  0.49351212  1
  I  I119  1  0.33298616  0.16094758  0.84007529  1
  I  I120  1  0.33317082  0.49600861  0.16992228  1
  I  I121  1  0.33052647  0.49890094  0.49304661  1
  I  I122  1  0.33326662  0.50581225  0.83541288  1
  I  I123  1  0.33645253  0.83469455  0.16330041  1
  I  I124  1  0.33329637  0.83302561  0.50176053  1
  I  I125  1  0.33086470  0.83550831  0.83558866  1
  I  I126  1  0.66527512  0.16946405  0.16615385  1
  I  I127  1  0.66244667  0.16683563  0.50012928  1
  I  I128  1  0.66395285  0.16437705  0.83692836  1
  I  I129  1  0.66607902  0.49523819  0.16362671  1
  I  I130  1  0.66658116  0.49986654  0.49996850  1
  I  I131  1  0.66653545  0.50069280  0.83534920  1
  I  I132  1  0.66345028  0.83549966  0.16248542  1
  I  I133  1  0.66630957  0.83298212  0.50152294  1
  I  I134  1  0.66846658  0.83603249  0.83844197  1
