# generated using pymatgen
data_Cs27Sn13Pb14I81
_symmetry_space_group_name_H-M   'P 1'
_cell_length_a   18.97583195
_cell_length_b   18.98010187
_cell_length_c   18.97583192
_cell_angle_alpha   90.00016639
_cell_angle_beta   90.00285986
_cell_angle_gamma   90.00016638
_symmetry_Int_Tables_number   1
_chemical_formula_structural   Cs27Sn13Pb14I81
_chemical_formula_sum   'Cs27 Sn13 Pb14 I81'
_cell_volume   6834.39678226
_cell_formula_units_Z   1
loop_
 _symmetry_equiv_pos_site_id
 _symmetry_equiv_pos_as_xyz
  1  'x, y, z'
loop_
 _atom_site_type_symbol
 _atom_site_label
 _atom_site_symmetry_multiplicity
 _atom_site_fract_x
 _atom_site_fract_y
 _atom_site_fract_z
 _atom_site_occupancy
  Cs  Cs0  1  -0.00067970  -0.00132623  -0.00067972  1
  Cs  Cs1  1  -0.00022533  0.00340332  0.32970706  1
  Cs  Cs2  1  0.00023117  0.00196294  0.66881183  1
  Cs  Cs3  1  -0.00219582  0.33248652  -0.00219585  1
  Cs  Cs4  1  0.00574732  0.33325349  0.33943479  1
  Cs  Cs5  1  -0.00053415  0.33472783  0.66338242  1
  Cs  Cs6  1  0.00131290  0.66963636  0.00131290  1
  Cs  Cs7  1  0.00196980  0.66441769  0.32824879  1
  Cs  Cs8  1  0.00048884  0.66352590  0.66819323  1
  Cs  Cs9  1  0.32970695  0.00340337  -0.00022514  1
  Cs  Cs10  1  0.33460235  0.00312081  0.33460231  1
  Cs  Cs11  1  0.33548220  -0.00321813  0.66726818  1
  Cs  Cs12  1  0.33943461  0.33325340  0.00574739  1
  Cs  Cs13  1  0.32637332  0.33427484  0.32637317  1
  Cs  Cs14  1  0.33249574  0.33290466  0.66872394  1
  Cs  Cs15  1  0.32824885  0.66441764  0.00196983  1
  Cs  Cs16  1  0.33515086  0.66336476  0.33515085  1
  Cs  Cs17  1  0.33386767  0.67073069  0.66534184  1
  Cs  Cs18  1  0.66881175  0.00196300  0.00023114  1
  Cs  Cs19  1  0.66726813  -0.00321803  0.33548223  1
  Cs  Cs20  1  0.66555123  -0.00011520  0.66555120  1
  Cs  Cs21  1  0.66338254  0.33472777  -0.00053416  1
  Cs  Cs22  1  0.66872405  0.33290454  0.33249581  1
  Cs  Cs23  1  0.66916855  0.33663047  0.66916869  1
  Cs  Cs24  1  0.66819315  0.66352591  0.00048888  1
  Cs  Cs25  1  0.66534182  0.67073066  0.33386765  1
  Cs  Cs26  1  0.66661202  0.66619727  0.66661206  1
  Sn  Sn27  1  0.49974945  0.83357468  0.16608995  1
  Sn  Sn28  1  0.83237763  0.83392821  0.83237768  1
  Sn  Sn29  1  0.16608995  0.83357472  0.49974945  1
  Sn  Sn30  1  0.16682897  0.49868977  0.83327087  1
  Sn  Sn31  1  0.50075364  0.83333667  0.83413035  1
  Sn  Sn32  1  0.83327087  0.49868973  0.16682897  1
  Sn  Sn33  1  0.83315551  0.16795673  0.16629813  1
  Sn  Sn34  1  0.83413030  0.83333670  0.50075364  1
  Sn  Sn35  1  0.83377960  0.16613320  0.83377965  1
  Sn  Sn36  1  0.50012589  0.83341157  0.50012591  1
  Sn  Sn37  1  0.16629813  0.16795674  0.83315551  1
  Sn  Sn38  1  0.50005738  0.16730722  0.50005740  1
  Sn  Sn39  1  0.50014875  0.49938992  0.50014875  1
  Pb  Pb40  1  0.16897284  0.16464893  0.50233662  1
  Pb  Pb41  1  0.49788806  0.50267421  0.83169386  1
  Pb  Pb42  1  0.16403563  0.16658249  0.16403569  1
  Pb  Pb43  1  0.83189128  0.83371224  0.16632409  1
  Pb  Pb44  1  0.16423096  0.49983642  0.16423096  1
  Pb  Pb45  1  0.83181188  0.16493392  0.50050352  1
  Pb  Pb46  1  0.50186442  0.50198268  0.16887358  1
  Pb  Pb47  1  0.83169381  0.50267426  0.49788808  1
  Pb  Pb48  1  0.16982345  0.83350228  0.16982347  1
  Pb  Pb49  1  0.50050349  0.16493395  0.83181191  1
  Pb  Pb50  1  0.83470895  0.50017313  0.83470900  1
  Pb  Pb51  1  0.16887357  0.50198263  0.50186442  1
  Pb  Pb52  1  0.16632410  0.83371222  0.83189130  1
  Pb  Pb53  1  0.50233668  0.16464896  0.16897281  1
  I  I54  1  0.16400776  -0.00007270  0.16400765  1
  I  I55  1  0.17023325  -0.00347005  0.50336404  1
  I  I56  1  0.16532240  0.00209037  0.83133893  1
  I  I57  1  0.16951808  0.33319939  0.16951807  1
  I  I58  1  0.16896532  0.33323877  0.49995065  1
  I  I59  1  0.15986625  0.33236856  0.83138522  1
  I  I60  1  0.16289340  0.66678548  0.16289341  1
  I  I61  1  0.16974390  0.67017815  0.50389168  1
  I  I62  1  0.16736559  0.66529854  0.83106996  1
  I  I63  1  0.50336398  -0.00347002  0.17023320  1
  I  I64  1  0.50026694  -0.00225428  0.50026683  1
  I  I65  1  0.49941016  -0.00361040  0.82907691  1
  I  I66  1  0.49995079  0.33323873  0.16896496  1
  I  I67  1  0.50185681  0.33321178  0.50185711  1
  I  I68  1  0.50200037  0.33334492  0.82959707  1
  I  I69  1  0.50389159  0.67017812  0.16974403  1
  I  I70  1  0.49998102  0.66896393  0.49998081  1
  I  I71  1  0.50451856  0.67116106  0.82953820  1
  I  I72  1  0.83133898  0.00209032  0.16532256  1
  I  I73  1  0.82907697  -0.00361035  0.49940986  1
  I  I74  1  0.83532733  -0.00046455  0.83532747  1
  I  I75  1  0.83138502  0.33236859  0.15986596  1
  I  I76  1  0.82959703  0.33334490  0.50200063  1
  I  I77  1  0.83549482  0.33046136  0.83549484  1
  I  I78  1  0.83107007  0.66529849  0.16736569  1
  I  I79  1  0.82953815  0.67116109  0.50451867  1
  I  I80  1  0.83092223  0.66986350  0.83092200  1
  I  I81  1  0.16690049  0.16718506  -0.00427121  1
  I  I82  1  0.16622585  0.16482606  0.33354426  1
  I  I83  1  0.15926566  0.16909765  0.67014315  1
  I  I84  1  0.16758034  0.49939850  -0.00376340  1
  I  I85  1  0.16695332  0.50230073  0.33343444  1
  I  I86  1  0.16496955  0.49742773  0.66963318  1
  I  I87  1  0.16717967  0.83278537  -0.00015312  1
  I  I88  1  0.16561950  0.83268358  0.33800094  1
  I  I89  1  0.17253246  0.83357367  0.66410324  1
  I  I90  1  0.49809086  0.16345749  -0.00008067  1
  I  I91  1  0.50245738  0.16131560  0.33701783  1
  I  I92  1  0.50170603  0.16133638  0.66377105  1
  I  I93  1  0.49935604  0.50279615  0.00004963  1
  I  I94  1  0.50082258  0.50532966  0.33695041  1
  I  I95  1  0.50097476  0.50454649  0.66355563  1
  I  I96  1  0.50673801  0.83379603  -0.00094348  1
  I  I97  1  0.50138558  0.83310133  0.33529736  1
  I  I98  1  0.50038690  0.83361276  0.66543253  1
  I  I99  1  0.83676464  0.16266726  -0.00121747  1
  I  I100  1  0.82918311  0.16697014  0.33122329  1
  I  I101  1  0.83550620  0.16274758  0.66974489  1
  I  I102  1  0.83337572  0.50227579  0.00252076  1
  I  I103  1  0.83190584  0.49627396  0.33014818  1
  I  I104  1  0.83322702  0.49889190  0.66660934  1
  I  I105  1  0.82876812  0.83418630  -0.00300900  1
  I  I106  1  0.83030352  0.83329752  0.33587540  1
  I  I107  1  0.82790792  0.83818721  0.66713289  1
  I  I108  1  -0.00427124  0.16718502  0.16689991  1
  I  I109  1  -0.00008067  0.16345769  0.49809078  1
  I  I110  1  -0.00121747  0.16266726  0.83676509  1
  I  I111  1  -0.00376339  0.49939846  0.16758063  1
  I  I112  1  0.00004966  0.50279593  0.49935585  1
  I  I113  1  0.00252075  0.50227562  0.83337560  1
  I  I114  1  -0.00015312  0.83278545  0.16717966  1
  I  I115  1  -0.00094349  0.83379601  0.50673783  1
  I  I116  1  -0.00300899  0.83418645  0.82876826  1
  I  I117  1  0.33354424  0.16482618  0.16622586  1
  I  I118  1  0.33701784  0.16131532  0.50245800  1
  I  I119  1  0.33122328  0.16696983  0.82918262  1
  I  I120  1  0.33343445  0.50230067  0.16695303  1
  I  I121  1  0.33695036  0.50533002  0.50082302  1
  I  I122  1  0.33014816  0.49627420  0.83190585  1
  I  I123  1  0.33800099  0.83268359  0.16561936  1
  I  I124  1  0.33529736  0.83310123  0.50138576  1
  I  I125  1  0.33587539  0.83329764  0.83030340  1
  I  I126  1  0.67014316  0.16909750  0.15926621  1
  I  I127  1  0.66377103  0.16133640  0.50170529  1
  I  I128  1  0.66974488  0.16274780  0.83550620  1
  I  I129  1  0.66963320  0.49742795  0.16496966  1
  I  I130  1  0.66355567  0.50454634  0.50097444  1
  I  I131  1  0.66660934  0.49889191  0.83322702  1
  I  I132  1  0.66410323  0.83357371  0.17253263  1
  I  I133  1  0.66543261  0.83361283  0.50038684  1
  I  I134  1  0.66713291  0.83818701  0.82790781  1
