# generated using pymatgen
data_Cs27Sn13Pb14I81
_symmetry_space_group_name_H-M   'P 1'
_cell_length_a   18.97917352
_cell_length_b   18.97175328
_cell_length_c   18.97744839
_cell_angle_alpha   90.00177691
_cell_angle_beta   90.00070896
_cell_angle_gamma   90.00088409
_symmetry_Int_Tables_number   1
_chemical_formula_structural   Cs27Sn13Pb14I81
_chemical_formula_sum   'Cs27 Sn13 Pb14 I81'
_cell_volume   6833.17563397
_cell_formula_units_Z   1
loop_
 _symmetry_equiv_pos_site_id
 _symmetry_equiv_pos_as_xyz
  1  'x, y, z'
loop_
 _atom_site_type_symbol
 _atom_site_label
 _atom_site_symmetry_multiplicity
 _atom_site_fract_x
 _atom_site_fract_y
 _atom_site_fract_z
 _atom_site_occupancy
  Cs  Cs0  1  0.00007383  0.00153307  -0.00091827  1
  Cs  Cs1  1  0.00081983  0.00054835  0.33248088  1
  Cs  Cs2  1  0.00068354  -0.00073555  0.66785813  1
  Cs  Cs3  1  0.00074498  0.33440687  0.00118498  1
  Cs  Cs4  1  0.00213916  0.33079993  0.33275398  1
  Cs  Cs5  1  -0.00206049  0.33092525  0.66640404  1
  Cs  Cs6  1  0.00302740  0.65655320  -0.00062380  1
  Cs  Cs7  1  -0.00893348  0.66844330  0.33251091  1
  Cs  Cs8  1  -0.00093608  0.66952332  0.66833835  1
  Cs  Cs9  1  0.33463654  0.00072024  0.00182314  1
  Cs  Cs10  1  0.33275864  0.00033126  0.33283015  1
  Cs  Cs11  1  0.33292984  -0.00163592  0.66688707  1
  Cs  Cs12  1  0.33948142  0.33972533  -0.00010138  1
  Cs  Cs13  1  0.33222317  0.33352910  0.33595764  1
  Cs  Cs14  1  0.33578395  0.33273323  0.66288701  1
  Cs  Cs15  1  0.33010170  0.65806964  0.00090841  1
  Cs  Cs16  1  0.33457249  0.66460646  0.33339998  1
  Cs  Cs17  1  0.33139336  0.67038161  0.66725380  1
  Cs  Cs18  1  0.66531965  -0.00065737  -0.00080577  1
  Cs  Cs19  1  0.66664473  -0.00165462  0.32999893  1
  Cs  Cs20  1  0.66618000  0.00027779  0.66869482  1
  Cs  Cs21  1  0.65804506  0.33819665  -0.00293518  1
  Cs  Cs22  1  0.66647811  0.33318730  0.33596395  1
  Cs  Cs23  1  0.66606840  0.33465746  0.66651325  1
  Cs  Cs24  1  0.66753435  0.66423658  0.00698261  1
  Cs  Cs25  1  0.67442374  0.66970254  0.32752987  1
  Cs  Cs26  1  0.66839657  0.66626168  0.66605295  1
  Sn  Sn27  1  0.83278990  0.83396242  0.83376464  1
  Sn  Sn28  1  0.83373775  0.16621780  0.83387858  1
  Sn  Sn29  1  0.83361092  0.16649099  0.16595617  1
  Sn  Sn30  1  0.83343474  0.16617146  0.49999593  1
  Sn  Sn31  1  0.16668573  0.49982712  0.50011793  1
  Sn  Sn32  1  0.16662170  0.16654133  0.83355337  1
  Sn  Sn33  1  0.50070227  0.83342508  0.83311550  1
  Sn  Sn34  1  0.49946548  0.50072377  0.50011877  1
  Sn  Sn35  1  0.50000528  0.16606541  0.50006049  1
  Sn  Sn36  1  0.16629218  0.16585177  0.16620219  1
  Sn  Sn37  1  0.16660756  0.16697364  0.50023219  1
  Sn  Sn38  1  0.50009979  0.83317923  0.50041682  1
  Sn  Sn39  1  0.16665201  0.83382175  0.16659523  1
  Pb  Pb40  1  0.83096700  0.83598458  0.50175763  1
  Pb  Pb41  1  0.50005110  0.50367066  0.83053129  1
  Pb  Pb42  1  0.83327513  0.49952816  0.83321365  1
  Pb  Pb43  1  0.83357109  0.49781611  0.50009065  1
  Pb  Pb44  1  0.16649484  0.49915082  0.16960656  1
  Pb  Pb45  1  0.83588203  0.83557983  0.16337605  1
  Pb  Pb46  1  0.16666106  0.49653674  0.83009616  1
  Pb  Pb47  1  0.49997256  0.16527840  0.83127769  1
  Pb  Pb48  1  0.49978477  0.16671866  0.16910733  1
  Pb  Pb49  1  0.16819916  0.83337787  0.49832891  1
  Pb  Pb50  1  0.16674789  0.83514670  0.83562826  1
  Pb  Pb51  1  0.50004146  0.50009757  0.16996338  1
  Pb  Pb52  1  0.49772201  0.83340810  0.16629437  1
  Pb  Pb53  1  0.83353499  0.49626202  0.16663099  1
  I  I54  1  0.16405500  0.00255153  0.17008237  1
  I  I55  1  0.16736887  0.00365645  0.50115944  1
  I  I56  1  0.16523358  0.00368957  0.82717618  1
  I  I57  1  0.16179980  0.32928205  0.16633447  1
  I  I58  1  0.17124775  0.33076925  0.49863612  1
  I  I59  1  0.16036093  0.32800819  0.83762239  1
  I  I60  1  0.16920421  0.66899179  0.16727287  1
  I  I61  1  0.17330816  0.66426738  0.49795155  1
  I  I62  1  0.16625797  0.66670029  0.83409290  1
  I  I63  1  0.50027292  0.00016573  0.17115787  1
  I  I64  1  0.49930052  0.00074544  0.50358463  1
  I  I65  1  0.50073955  -0.00251207  0.82596043  1
  I  I66  1  0.49886925  0.33304322  0.16693953  1
  I  I67  1  0.49889656  0.33224455  0.49869687  1
  I  I68  1  0.50020354  0.33340057  0.83246042  1
  I  I69  1  0.49735219  0.66695464  0.16844426  1
  I  I70  1  0.49244105  0.66681855  0.50500456  1
  I  I71  1  0.50489803  0.67159941  0.82726938  1
  I  I72  1  0.83562787  0.00389497  0.17039575  1
  I  I73  1  0.83532610  0.00459613  0.49853156  1
  I  I74  1  0.83309192  0.00177122  0.83180963  1
  I  I75  1  0.84142592  0.32767808  0.16648297  1
  I  I76  1  0.82957411  0.32863107  0.50236192  1
  I  I77  1  0.83825533  0.32884769  0.83217034  1
  I  I78  1  0.83462037  0.66705484  0.16621933  1
  I  I79  1  0.83385291  0.66704825  0.50175018  1
  I  I80  1  0.82903063  0.67000761  0.83164243  1
  I  I81  1  0.15820225  0.15988746  0.00018085  1
  I  I82  1  0.16461856  0.16690992  0.33417782  1
  I  I83  1  0.16423742  0.17047897  0.66583976  1
  I  I84  1  0.16655655  0.49993631  0.00007390  1
  I  I85  1  0.17249125  0.49226786  0.33732539  1
  I  I86  1  0.17108815  0.49496759  0.66218069  1
  I  I87  1  0.16815959  0.84156717  0.00313680  1
  I  I88  1  0.16906840  0.84054798  0.33076196  1
  I  I89  1  0.16605856  0.83417084  0.66680549  1
  I  I90  1  0.49962979  0.16406044  -0.00020982  1
  I  I91  1  0.49958445  0.16466553  0.33806442  1
  I  I92  1  0.49929360  0.16825839  0.66264532  1
  I  I93  1  0.50012110  0.50028214  -0.00026786  1
  I  I94  1  0.49461082  0.49971082  0.33845745  1
  I  I95  1  0.49623247  0.49525972  0.66240115  1
  I  I96  1  0.50359566  0.83716388  -0.00315388  1
  I  I97  1  0.49721675  0.83433928  0.33662160  1
  I  I98  1  0.50193894  0.83469214  0.66561147  1
  I  I99  1  0.84271212  0.16149292  -0.00054869  1
  I  I100  1  0.83604951  0.16811409  0.33394112  1
  I  I101  1  0.83638441  0.16374302  0.66651236  1
  I  I102  1  0.83365495  0.49865331  -0.00007235  1
  I  I103  1  0.83242890  0.49967342  0.33363857  1
  I  I104  1  0.83362953  0.49672426  0.66642097  1
  I  I105  1  0.82564538  0.84145696  -0.00410929  1
  I  I106  1  0.83221789  0.83428428  0.33298161  1
  I  I107  1  0.83365212  0.83995580  0.66965916  1
  I  I108  1  0.00073557  0.16289706  0.17163447  1
  I  I109  1  0.00061812  0.17138243  0.49990762  1
  I  I110  1  -0.00031807  0.16125460  0.82830034  1
  I  I111  1  0.00032050  0.50277041  0.16974825  1
  I  I112  1  0.00304773  0.49327264  0.49915870  1
  I  I113  1  0.00015170  0.50492915  0.83040228  1
  I  I114  1  0.00336353  0.83754110  0.16828358  1
  I  I115  1  -0.00013357  0.83294363  0.50063876  1
  I  I116  1  -0.00250359  0.83779874  0.83391473  1
  I  I117  1  0.32977824  0.16303681  0.16755644  1
  I  I118  1  0.33284760  0.16745548  0.50007304  1
  I  I119  1  0.33062769  0.16443836  0.83220839  1
  I  I120  1  0.33300457  0.49781461  0.16525107  1
  I  I121  1  0.33355712  0.49311731  0.49989394  1
  I  I122  1  0.33330703  0.49970882  0.83462368  1
  I  I123  1  0.33009309  0.84215674  0.16643390  1
  I  I124  1  0.33649337  0.83853911  0.50551482  1
  I  I125  1  0.33576463  0.83586165  0.82877756  1
  I  I126  1  0.66982775  0.16638520  0.16765240  1
  I  I127  1  0.66660325  0.16677075  0.50025595  1
  I  I128  1  0.66961802  0.16426728  0.83251864  1
  I  I129  1  0.66678622  0.49934515  0.16906021  1
  I  I130  1  0.66354648  0.49750946  0.50102958  1
  I  I131  1  0.66651915  0.49389272  0.82973494  1
  I  I132  1  0.66700200  0.83448855  0.16882912  1
  I  I133  1  0.66265529  0.83344235  0.50094357  1
  I  I134  1  0.66685162  0.84133433  0.82762657  1
