# generated using pymatgen
data_Cs27Sn14Pb13I81
_symmetry_space_group_name_H-M   'P 1'
_cell_length_a   18.96210813
_cell_length_b   18.96577851
_cell_length_c   18.95722864
_cell_angle_alpha   89.99954241
_cell_angle_beta   89.99836516
_cell_angle_gamma   90.00006612
_symmetry_Int_Tables_number   1
_chemical_formula_structural   Cs27Sn14Pb13I81
_chemical_formula_sum   'Cs27 Sn14 Pb13 I81'
_cell_volume   6817.60979896
_cell_formula_units_Z   1
loop_
 _symmetry_equiv_pos_site_id
 _symmetry_equiv_pos_as_xyz
  1  'x, y, z'
loop_
 _atom_site_type_symbol
 _atom_site_label
 _atom_site_symmetry_multiplicity
 _atom_site_fract_x
 _atom_site_fract_y
 _atom_site_fract_z
 _atom_site_occupancy
  Cs  Cs0  1  -0.00690042  -0.00119709  0.00761773  1
  Cs  Cs1  1  0.00039155  -0.00176581  0.32907706  1
  Cs  Cs2  1  0.00168171  0.00020972  0.66543955  1
  Cs  Cs3  1  0.00138013  0.33286003  0.00134555  1
  Cs  Cs4  1  -0.00099672  0.33200190  0.33620713  1
  Cs  Cs5  1  0.00148428  0.33513465  0.66555749  1
  Cs  Cs6  1  -0.00019016  0.66719642  0.00009875  1
  Cs  Cs7  1  0.00014914  0.66972043  0.33343051  1
  Cs  Cs8  1  0.00092186  0.66400022  0.66687980  1
  Cs  Cs9  1  0.33601792  0.00097554  0.00009055  1
  Cs  Cs10  1  0.33339298  -0.00148678  0.33281423  1
  Cs  Cs11  1  0.33348807  -0.00141734  0.66702066  1
  Cs  Cs12  1  0.33207711  0.33479498  0.00036936  1
  Cs  Cs13  1  0.33641548  0.33315414  0.33015037  1
  Cs  Cs14  1  0.32986730  0.33229515  0.66773083  1
  Cs  Cs15  1  0.33181990  0.66287675  0.00104513  1
  Cs  Cs16  1  0.33738332  0.67017057  0.33077086  1
  Cs  Cs17  1  0.33273986  0.66936985  0.66581193  1
  Cs  Cs18  1  0.66957720  -0.00194899  -0.00372067  1
  Cs  Cs19  1  0.66602857  0.00117800  0.33171922  1
  Cs  Cs20  1  0.66513990  -0.00024456  0.67307284  1
  Cs  Cs21  1  0.66696422  0.33191312  -0.00190854  1
  Cs  Cs22  1  0.66542653  0.33435336  0.33466370  1
  Cs  Cs23  1  0.66757381  0.33313212  0.66560960  1
  Cs  Cs24  1  0.66819610  0.66833136  -0.00023368  1
  Cs  Cs25  1  0.66415484  0.66445215  0.33474651  1
  Cs  Cs26  1  0.66568149  0.66748852  0.66580491  1
  Sn  Sn27  1  0.50012104  0.16588239  0.16689947  1
  Sn  Sn28  1  0.49976757  0.16675673  0.49968904  1
  Sn  Sn29  1  0.49982899  0.49991551  0.83275779  1
  Sn  Sn30  1  0.83370165  0.49966859  0.16701886  1
  Sn  Sn31  1  0.83408034  0.50013425  0.50003259  1
  Sn  Sn32  1  0.16688778  0.16736288  0.50048214  1
  Sn  Sn33  1  0.50006083  0.83402807  0.16655609  1
  Sn  Sn34  1  0.83321437  0.83345009  0.50038689  1
  Sn  Sn35  1  0.16667330  0.49984989  0.83237619  1
  Sn  Sn36  1  0.83343777  0.16617641  0.50025893  1
  Sn  Sn37  1  0.16656852  0.49962137  0.50010922  1
  Sn  Sn38  1  0.16627097  0.83369079  0.83360660  1
  Sn  Sn39  1  0.16618934  0.16627594  0.83309132  1
  Sn  Sn40  1  0.83332968  0.49975242  0.83329967  1
  Pb  Pb41  1  0.16868831  0.83334498  0.16393336  1
  Pb  Pb42  1  0.49801170  0.83093201  0.83529559  1
  Pb  Pb43  1  0.50227720  0.83617615  0.49869614  1
  Pb  Pb44  1  0.83104804  0.16865771  0.16891406  1
  Pb  Pb45  1  0.16858801  0.16676299  0.16719412  1
  Pb  Pb46  1  0.49941618  0.49825255  0.50182549  1
  Pb  Pb47  1  0.16442923  0.49993554  0.16747396  1
  Pb  Pb48  1  0.49810619  0.16832422  0.83308895  1
  Pb  Pb49  1  0.83128499  0.83113958  0.16891991  1
  Pb  Pb50  1  0.50210929  0.49951573  0.16447460  1
  Pb  Pb51  1  0.83604341  0.16858104  0.83122899  1
  Pb  Pb52  1  0.16511104  0.83337341  0.50130907  1
  Pb  Pb53  1  0.83549555  0.83121637  0.83128965  1
  I  I54  1  0.16465955  0.00016313  0.16673300  1
  I  I55  1  0.16608761  0.00321534  0.50460795  1
  I  I56  1  0.16934291  0.00097396  0.82715052  1
  I  I57  1  0.16974474  0.33342969  0.16210062  1
  I  I58  1  0.16167124  0.33340808  0.50806723  1
  I  I59  1  0.16677977  0.33444515  0.82888769  1
  I  I60  1  0.16978684  0.66645102  0.16686196  1
  I  I61  1  0.16096739  0.66356274  0.50506893  1
  I  I62  1  0.16650389  0.66470671  0.82974699  1
  I  I63  1  0.49903492  0.00095187  0.17155732  1
  I  I64  1  0.49844677  0.00449980  0.49943150  1
  I  I65  1  0.49750662  0.00013707  0.83207522  1
  I  I66  1  0.50097563  0.33079367  0.17035510  1
  I  I67  1  0.50374080  0.33006771  0.49458450  1
  I  I68  1  0.49852464  0.33641496  0.83497228  1
  I  I69  1  0.50158522  0.66835777  0.16421411  1
  I  I70  1  0.50025398  0.66660460  0.49880028  1
  I  I71  1  0.49867863  0.66280282  0.83469036  1
  I  I72  1  0.83392343  0.00009284  0.16848668  1
  I  I73  1  0.83385916  0.00106055  0.49942002  1
  I  I74  1  0.83440174  0.00008712  0.83157965  1
  I  I75  1  0.83131344  0.33672619  0.16787035  1
  I  I76  1  0.83401709  0.33403917  0.50013582  1
  I  I77  1  0.83459454  0.33736159  0.83136562  1
  I  I78  1  0.83083743  0.66309672  0.16811230  1
  I  I79  1  0.83809720  0.66469087  0.50027203  1
  I  I80  1  0.83530387  0.66243986  0.83088695  1
  I  I81  1  0.16984396  0.16967972  -0.00309570  1
  I  I82  1  0.16461511  0.17207615  0.33733917  1
  I  I83  1  0.16850009  0.16882129  0.66567853  1
  I  I84  1  0.16618626  0.49916946  -0.00353902  1
  I  I85  1  0.16193343  0.49446936  0.33721678  1
  I  I86  1  0.16230207  0.49879065  0.66725185  1
  I  I87  1  0.16670264  0.83071248  -0.00445045  1
  I  I88  1  0.16623721  0.83269886  0.33347924  1
  I  I89  1  0.16679066  0.83168473  0.66946263  1
  I  I90  1  0.49750972  0.16558420  0.00219701  1
  I  I91  1  0.49864341  0.16494719  0.33444938  1
  I  I92  1  0.50181562  0.16967239  0.66371994  1
  I  I93  1  0.49841278  0.49815488  -0.00354595  1
  I  I94  1  0.50038152  0.50102591  0.33341835  1
  I  I95  1  0.50327855  0.49812228  0.66983243  1
  I  I96  1  0.50035847  0.83998031  0.00304965  1
  I  I97  1  0.49999694  0.83252966  0.33069557  1
  I  I98  1  0.50036363  0.83358297  0.66679178  1
  I  I99  1  0.83314145  0.16911766  -0.00010664  1
  I  I100  1  0.83819443  0.16969732  0.33762449  1
  I  I101  1  0.82798904  0.16904974  0.66250711  1
  I  I102  1  0.83296225  0.50051722  -0.00111078  1
  I  I103  1  0.83671424  0.49938809  0.33528521  1
  I  I104  1  0.83481692  0.49949476  0.66589310  1
  I  I105  1  0.83357048  0.83088917  -0.00007319  1
  I  I106  1  0.83456497  0.83118910  0.33699879  1
  I  I107  1  0.83280741  0.83160708  0.66316476  1
  I  I108  1  -0.00029602  0.16787847  0.16663264  1
  I  I109  1  0.00018113  0.16922587  0.50550891  1
  I  I110  1  0.00428128  0.16970890  0.82770816  1
  I  I111  1  -0.00366237  0.50019901  0.16340002  1
  I  I112  1  -0.00068984  0.49551717  0.50445118  1
  I  I113  1  0.00053051  0.50005669  0.83167010  1
  I  I114  1  -0.00040184  0.83207278  0.16647936  1
  I  I115  1  -0.00300773  0.83526888  0.50061590  1
  I  I116  1  0.00348514  0.83081832  0.83203124  1
  I  I117  1  0.33666897  0.16494826  0.17213228  1
  I  I118  1  0.33234012  0.17202266  0.50028634  1
  I  I119  1  0.32991219  0.17029841  0.82802109  1
  I  I120  1  0.33360967  0.50022423  0.16572650  1
  I  I121  1  0.33020100  0.49530408  0.50554766  1
  I  I122  1  0.33162483  0.49961765  0.82986304  1
  I  I123  1  0.33667618  0.83556194  0.16812939  1
  I  I124  1  0.33337377  0.83254575  0.49979999  1
  I  I125  1  0.32994238  0.83038416  0.83192062  1
  I  I126  1  0.66309176  0.16495592  0.17172812  1
  I  I127  1  0.66714577  0.16848974  0.49446895  1
  I  I128  1  0.66682103  0.16959702  0.83211534  1
  I  I129  1  0.67001924  0.49958599  0.16859079  1
  I  I130  1  0.66969889  0.49889769  0.50120299  1
  I  I131  1  0.66775555  0.49948379  0.83305178  1
  I  I132  1  0.66364448  0.83709427  0.16641415  1
  I  I133  1  0.67034844  0.82954008  0.49961516  1
  I  I134  1  0.66682594  0.83114254  0.83329920  1
