# generated using pymatgen
data_Cs27Sn14Pb13I81
_symmetry_space_group_name_H-M   'P 1'
_cell_length_a   19.00307458
_cell_length_b   19.00906914
_cell_length_c   19.00420248
_cell_angle_alpha   89.99930490
_cell_angle_beta   90.00116018
_cell_angle_gamma   89.99930056
_symmetry_Int_Tables_number   1
_chemical_formula_structural   Cs27Sn14Pb13I81
_chemical_formula_sum   'Cs27 Sn14 Pb13 I81'
_cell_volume   6864.90247469
_cell_formula_units_Z   1
loop_
 _symmetry_equiv_pos_site_id
 _symmetry_equiv_pos_as_xyz
  1  'x, y, z'
loop_
 _atom_site_type_symbol
 _atom_site_label
 _atom_site_symmetry_multiplicity
 _atom_site_fract_x
 _atom_site_fract_y
 _atom_site_fract_z
 _atom_site_occupancy
  Cs  Cs0  1  -0.00307147  -0.00017193  0.00053113  1
  Cs  Cs1  1  0.00350035  -0.00390650  0.33273971  1
  Cs  Cs2  1  0.00271750  0.00299925  0.66630373  1
  Cs  Cs3  1  -0.00051472  0.34172422  -0.00258406  1
  Cs  Cs4  1  -0.00025442  0.33326149  0.33389976  1
  Cs  Cs5  1  -0.00135615  0.33431978  0.66806853  1
  Cs  Cs6  1  -0.00888380  0.65406958  0.00819931  1
  Cs  Cs7  1  -0.00099763  0.67007444  0.32997778  1
  Cs  Cs8  1  0.00065025  0.66083524  0.66326524  1
  Cs  Cs9  1  0.33543093  0.00313203  -0.00337785  1
  Cs  Cs10  1  0.33128329  -0.00077546  0.33246454  1
  Cs  Cs11  1  0.32954391  -0.00169520  0.67211362  1
  Cs  Cs12  1  0.33298295  0.33158429  -0.00021353  1
  Cs  Cs13  1  0.33736944  0.33214073  0.33366405  1
  Cs  Cs14  1  0.33355456  0.33482171  0.66651291  1
  Cs  Cs15  1  0.33435942  0.66207152  -0.00199634  1
  Cs  Cs16  1  0.33212556  0.67078962  0.33421188  1
  Cs  Cs17  1  0.33379404  0.66868518  0.66683740  1
  Cs  Cs18  1  0.66532899  -0.00319079  -0.00238881  1
  Cs  Cs19  1  0.66644721  0.00190838  0.33353459  1
  Cs  Cs20  1  0.67303797  -0.00145203  0.66788281  1
  Cs  Cs21  1  0.66457313  0.33325340  0.00198868  1
  Cs  Cs22  1  0.66288922  0.33156099  0.33660068  1
  Cs  Cs23  1  0.66906095  0.33048376  0.66027359  1
  Cs  Cs24  1  0.67122285  0.67101795  -0.00180767  1
  Cs  Cs25  1  0.66696466  0.66623258  0.33536936  1
  Cs  Cs26  1  0.66596274  0.67152270  0.66538368  1
  Sn  Sn27  1  0.16563260  0.83283744  0.83471520  1
  Sn  Sn28  1  0.49970540  0.16787862  0.83350824  1
  Sn  Sn29  1  0.16709491  0.16771625  0.50000969  1
  Sn  Sn30  1  0.16642201  0.16669729  0.16613391  1
  Sn  Sn31  1  0.16724317  0.16603826  0.83386288  1
  Sn  Sn32  1  0.49954310  0.83352526  0.16734693  1
  Sn  Sn33  1  0.50048645  0.83395757  0.49951718  1
  Sn  Sn34  1  0.83415857  0.50061627  0.49958280  1
  Sn  Sn35  1  0.16633585  0.49915359  0.49949699  1
  Sn  Sn36  1  0.50000861  0.16644939  0.16590477  1
  Sn  Sn37  1  0.83328252  0.16672424  0.16651992  1
  Sn  Sn38  1  0.50022722  0.49867627  0.83372578  1
  Sn  Sn39  1  0.83282917  0.83303527  0.49995187  1
  Sn  Sn40  1  0.49983358  0.50011589  0.16588292  1
  Pb  Pb41  1  0.82973801  0.49980495  0.83077864  1
  Pb  Pb42  1  0.16655790  0.83334740  0.50136731  1
  Pb  Pb43  1  0.49975250  0.50185413  0.50008515  1
  Pb  Pb44  1  0.83038189  0.49767316  0.16926267  1
  Pb  Pb45  1  0.83609017  0.16631091  0.49791730  1
  Pb  Pb46  1  0.16878434  0.83509202  0.16331430  1
  Pb  Pb47  1  0.16911399  0.49777405  0.16916341  1
  Pb  Pb48  1  0.83727503  0.83324380  0.83107830  1
  Pb  Pb49  1  0.83105478  0.83544753  0.16868864  1
  Pb  Pb50  1  0.83336121  0.16674885  0.83594783  1
  Pb  Pb51  1  0.49886453  0.83367856  0.83369163  1
  Pb  Pb52  1  0.49776037  0.16408464  0.50071263  1
  Pb  Pb53  1  0.16842047  0.49956671  0.83161112  1
  I  I54  1  0.16952414  0.00395450  0.17441251  1
  I  I55  1  0.16760567  0.00276478  0.49796582  1
  I  I56  1  0.17498027  0.00233244  0.82933567  1
  I  I57  1  0.16958069  0.32912385  0.16103211  1
  I  I58  1  0.16131887  0.33256326  0.50209353  1
  I  I59  1  0.16958047  0.32987887  0.83526404  1
  I  I60  1  0.16934112  0.66655491  0.16771290  1
  I  I61  1  0.16714893  0.66461270  0.50414073  1
  I  I62  1  0.17199480  0.66853693  0.82625411  1
  I  I63  1  0.49961213  0.00140213  0.16720438  1
  I  I64  1  0.50464052  -0.00342318  0.49523256  1
  I  I65  1  0.49650395  0.00292353  0.83700721  1
  I  I66  1  0.49955442  0.33206851  0.16195472  1
  I  I67  1  0.50262562  0.33305106  0.49786959  1
  I  I68  1  0.49290854  0.33199364  0.84189122  1
  I  I69  1  0.49954004  0.66668700  0.16761298  1
  I  I70  1  0.49804409  0.66954458  0.49646825  1
  I  I71  1  0.49703843  0.66476320  0.83548952  1
  I  I72  1  0.83149665  0.00326717  0.16998650  1
  I  I73  1  0.82906470  -0.00234297  0.49833224  1
  I  I74  1  0.82715030  0.00008533  0.83001042  1
  I  I75  1  0.83143962  0.33004236  0.16965846  1
  I  I76  1  0.83501910  0.33542702  0.49854047  1
  I  I77  1  0.83849701  0.33321910  0.82963877  1
  I  I78  1  0.83197603  0.66648646  0.16558335  1
  I  I79  1  0.83535773  0.66665126  0.50010481  1
  I  I80  1  0.83277037  0.66660160  0.83618537  1
  I  I81  1  0.16997831  0.15974687  0.00002023  1
  I  I82  1  0.16770575  0.17199773  0.33291465  1
  I  I83  1  0.17239030  0.16558644  0.66710832  1
  I  I84  1  0.16588276  0.50064164  0.00016415  1
  I  I85  1  0.16578982  0.49475618  0.33700321  1
  I  I86  1  0.16599796  0.49389017  0.66373309  1
  I  I87  1  0.17248147  0.84180819  -0.00403565  1
  I  I88  1  0.16585739  0.83462147  0.33306467  1
  I  I89  1  0.17105118  0.84143507  0.66867099  1
  I  I90  1  0.49508636  0.16531117  0.00114839  1
  I  I91  1  0.49912650  0.16981070  0.33040368  1
  I  I92  1  0.49400844  0.17095564  0.66958523  1
  I  I93  1  0.49768390  0.50055296  0.00059265  1
  I  I94  1  0.50021818  0.49553502  0.33089578  1
  I  I95  1  0.49887896  0.49598115  0.66882238  1
  I  I96  1  0.49678399  0.83479733  0.00277687  1
  I  I97  1  0.50279091  0.83329096  0.33292841  1
  I  I98  1  0.50194067  0.83174483  0.66449923  1
  I  I99  1  0.83649377  0.16603128  0.00386871  1
  I  I100  1  0.82981141  0.16719417  0.33036629  1
  I  I101  1  0.83238604  0.16662093  0.66649317  1
  I  I102  1  0.83598387  0.49916092  0.00033784  1
  I  I103  1  0.83577153  0.50416926  0.33673986  1
  I  I104  1  0.83583030  0.50243115  0.66279493  1
  I  I105  1  0.83154706  0.83532088  0.00021710  1
  I  I106  1  0.83352880  0.82936228  0.33654491  1
  I  I107  1  0.82289994  0.83110081  0.66291893  1
  I  I108  1  0.00102050  0.16540160  0.16916104  1
  I  I109  1  0.00399897  0.16504831  0.50075168  1
  I  I110  1  0.00355028  0.16081969  0.83248075  1
  I  I111  1  -0.00007264  0.49814131  0.16564261  1
  I  I112  1  0.00038998  0.50201030  0.50140095  1
  I  I113  1  -0.00008416  0.49992682  0.83308857  1
  I  I114  1  0.00008386  0.83670550  0.16859286  1
  I  I115  1  -0.00203627  0.83290775  0.50326071  1
  I  I116  1  0.00483780  0.84510194  0.82914631  1
  I  I117  1  0.33395629  0.16675148  0.16642658  1
  I  I118  1  0.33003935  0.17186753  0.49515823  1
  I  I119  1  0.33336106  0.16640012  0.83808498  1
  I  I120  1  0.33703804  0.49713263  0.16578055  1
  I  I121  1  0.33131802  0.49634544  0.50033057  1
  I  I122  1  0.33625073  0.49841398  0.83453431  1
  I  I123  1  0.33701589  0.83549745  0.17593706  1
  I  I124  1  0.33546820  0.83288993  0.49678049  1
  I  I125  1  0.33139201  0.83640306  0.82889087  1
  I  I126  1  0.66458936  0.16676983  0.16274266  1
  I  I127  1  0.66657528  0.16938352  0.49978291  1
  I  I128  1  0.66321287  0.17051216  0.83819782  1
  I  I129  1  0.66249142  0.49648612  0.16563007  1
  I  I130  1  0.66839755  0.50311688  0.49960346  1
  I  I131  1  0.66170500  0.49336091  0.83638431  1
  I  I132  1  0.66266215  0.83652291  0.16682384  1
  I  I133  1  0.66619075  0.82646715  0.49644168  1
  I  I134  1  0.66674782  0.83364521  0.83415115  1
