# generated using pymatgen
data_Cs27Sn13Pb14I81
_symmetry_space_group_name_H-M   'P 1'
_cell_length_a   18.99232710
_cell_length_b   18.98051112
_cell_length_c   19.00116349
_cell_angle_alpha   89.99905624
_cell_angle_beta   90.00089822
_cell_angle_gamma   89.99854274
_symmetry_Int_Tables_number   1
_chemical_formula_structural   Cs27Sn13Pb14I81
_chemical_formula_sum   'Cs27 Sn13 Pb14 I81'
_cell_volume   6849.61685224
_cell_formula_units_Z   1
loop_
 _symmetry_equiv_pos_site_id
 _symmetry_equiv_pos_as_xyz
  1  'x, y, z'
loop_
 _atom_site_type_symbol
 _atom_site_label
 _atom_site_symmetry_multiplicity
 _atom_site_fract_x
 _atom_site_fract_y
 _atom_site_fract_z
 _atom_site_occupancy
  Cs  Cs0  1  0.00416046  0.00684707  -0.00102397  1
  Cs  Cs1  1  -0.00028249  0.00167148  0.33481783  1
  Cs  Cs2  1  0.00235183  0.00291810  0.66546161  1
  Cs  Cs3  1  0.00050603  0.32635795  0.00115488  1
  Cs  Cs4  1  0.00479868  0.33301699  0.32937884  1
  Cs  Cs5  1  -0.00181323  0.33852943  0.66880393  1
  Cs  Cs6  1  -0.00345912  0.66702666  -0.00420934  1
  Cs  Cs7  1  -0.00120980  0.66628382  0.33483307  1
  Cs  Cs8  1  -0.00202521  0.66576237  0.66907938  1
  Cs  Cs9  1  0.33042388  -0.00162437  -0.00019166  1
  Cs  Cs10  1  0.33418186  -0.00210721  0.33341810  1
  Cs  Cs11  1  0.33047097  0.00036980  0.66736143  1
  Cs  Cs12  1  0.33471477  0.33325249  0.00177803  1
  Cs  Cs13  1  0.33017124  0.34298366  0.33494408  1
  Cs  Cs14  1  0.34503366  0.33353833  0.66299368  1
  Cs  Cs15  1  0.33563078  0.66835434  0.00093779  1
  Cs  Cs16  1  0.33224769  0.66431361  0.33382789  1
  Cs  Cs17  1  0.33143970  0.66680378  0.66591827  1
  Cs  Cs18  1  0.66562706  -0.00178078  0.00334492  1
  Cs  Cs19  1  0.66628992  -0.00059156  0.33404912  1
  Cs  Cs20  1  0.66719789  0.00557056  0.66194658  1
  Cs  Cs21  1  0.66624790  0.33330987  -0.00417872  1
  Cs  Cs22  1  0.66476044  0.32896164  0.33604290  1
  Cs  Cs23  1  0.65796683  0.32526645  0.66668749  1
  Cs  Cs24  1  0.66803815  0.66652299  -0.00012944  1
  Cs  Cs25  1  0.66929216  0.66930240  0.33045567  1
  Cs  Cs26  1  0.67129308  0.66736918  0.66966372  1
  Sn  Sn27  1  0.83286402  0.49978784  0.50005364  1
  Sn  Sn28  1  0.49949315  0.83288102  0.50015740  1
  Sn  Sn29  1  0.49990552  0.83385163  0.16677060  1
  Sn  Sn30  1  0.50108265  0.83320635  0.83301019  1
  Sn  Sn31  1  0.83329976  0.50045507  0.16644362  1
  Sn  Sn32  1  0.49969331  0.16611792  0.16679964  1
  Sn  Sn33  1  0.83411301  0.50044631  0.83348969  1
  Sn  Sn34  1  0.83275810  0.83382378  0.83412563  1
  Sn  Sn35  1  0.83410340  0.83302450  0.16564205  1
  Sn  Sn36  1  0.16699162  0.83376529  0.49931376  1
  Sn  Sn37  1  0.16605848  0.83289357  0.16729259  1
  Sn  Sn38  1  0.16661269  0.16658235  0.50014966  1
  Sn  Sn39  1  0.16657944  0.49993570  0.83347210  1
  Pb  Pb40  1  0.16621020  0.83227436  0.83322194  1
  Pb  Pb41  1  0.16410375  0.50265786  0.16422388  1
  Pb  Pb42  1  0.16494798  0.50065683  0.50189329  1
  Pb  Pb43  1  0.83589206  0.16999596  0.49977411  1
  Pb  Pb44  1  0.49760518  0.16397305  0.49745385  1
  Pb  Pb45  1  0.50058798  0.50229974  0.83339647  1
  Pb  Pb46  1  0.83370249  0.83244774  0.50019642  1
  Pb  Pb47  1  0.50253262  0.50055736  0.16672070  1
  Pb  Pb48  1  0.16701971  0.17030072  0.83061989  1
  Pb  Pb49  1  0.83139368  0.16616646  0.16672596  1
  Pb  Pb50  1  0.50292197  0.50309214  0.49987585  1
  Pb  Pb51  1  0.49986494  0.16307627  0.83589816  1
  Pb  Pb52  1  0.16927184  0.16438509  0.16858037  1
  Pb  Pb53  1  0.83334125  0.16623057  0.83332744  1
  I  I54  1  0.16147342  -0.00439379  0.16631344  1
  I  I55  1  0.17002848  -0.00221168  0.49657298  1
  I  I56  1  0.16643305  -0.00016298  0.83500962  1
  I  I57  1  0.16729762  0.33353620  0.16810482  1
  I  I58  1  0.16299271  0.33139829  0.50160135  1
  I  I59  1  0.15659542  0.33801721  0.83330407  1
  I  I60  1  0.17273822  0.67098534  0.17379410  1
  I  I61  1  0.17019173  0.66990016  0.49677290  1
  I  I62  1  0.16358659  0.66471145  0.83078663  1
  I  I63  1  0.50275803  -0.00322520  0.16652854  1
  I  I64  1  0.50076380  -0.00437266  0.50195305  1
  I  I65  1  0.50562354  -0.00529038  0.83092959  1
  I  I66  1  0.50218551  0.33083442  0.16716231  1
  I  I67  1  0.49913004  0.33315749  0.49841907  1
  I  I68  1  0.50042089  0.33322205  0.83443332  1
  I  I69  1  0.49866423  0.67083758  0.16636853  1
  I  I70  1  0.49203502  0.67134135  0.49609863  1
  I  I71  1  0.50170866  0.67076140  0.83740810  1
  I  I72  1  0.83441550  -0.00410770  0.16207159  1
  I  I73  1  0.83123317  -0.00012196  0.50006695  1
  I  I74  1  0.82903808  -0.00412599  0.83888696  1
  I  I75  1  0.83161598  0.33651174  0.16565016  1
  I  I76  1  0.83572058  0.33822920  0.49990457  1
  I  I77  1  0.83909979  0.33711277  0.83509026  1
  I  I78  1  0.83085762  0.66817461  0.16607771  1
  I  I79  1  0.83542449  0.66451268  0.50024773  1
  I  I80  1  0.83306594  0.66702292  0.83417729  1
  I  I81  1  0.16699350  0.16600819  0.00019485  1
  I  I82  1  0.16617206  0.16520304  0.33624366  1
  I  I83  1  0.16638412  0.15623142  0.66315961  1
  I  I84  1  0.16099276  0.50355645  -0.00319057  1
  I  I85  1  0.16461213  0.49823886  0.33325868  1
  I  I86  1  0.15827181  0.50398088  0.66931629  1
  I  I87  1  0.16958160  0.83021256  0.00252939  1
  I  I88  1  0.16945264  0.83598369  0.33320238  1
  I  I89  1  0.17010023  0.83503525  0.66410639  1
  I  I90  1  0.50047655  0.16041560  0.00349482  1
  I  I91  1  0.50192314  0.15828196  0.33019313  1
  I  I92  1  0.49956540  0.16662235  0.66634350  1
  I  I93  1  0.50093951  0.50214789  0.00006104  1
  I  I94  1  0.50127786  0.50231538  0.33327570  1
  I  I95  1  0.50180409  0.50165471  0.66665571  1
  I  I96  1  0.50058173  0.83639102  0.00070455  1
  I  I97  1  0.50047193  0.83715554  0.33253204  1
  I  I98  1  0.49960599  0.83004236  0.66665533  1
  I  I99  1  0.83382408  0.17057089  0.00012570  1
  I  I100  1  0.83241572  0.16632714  0.33323864  1
  I  I101  1  0.83274804  0.16522358  0.66652254  1
  I  I102  1  0.83639103  0.50673780  -0.00024105  1
  I  I103  1  0.83214961  0.50662748  0.33258964  1
  I  I104  1  0.83919981  0.50676997  0.66779951  1
  I  I105  1  0.82918531  0.82467651  0.00058615  1
  I  I106  1  0.83073521  0.82846495  0.33056956  1
  I  I107  1  0.83036754  0.82731290  0.66923991  1
  I  I108  1  0.00029140  0.16613578  0.16775143  1
  I  I109  1  0.00333501  0.15642811  0.49887873  1
  I  I110  1  0.00024986  0.16106114  0.83407545  1
  I  I111  1  -0.00391513  0.50625769  0.16953783  1
  I  I112  1  -0.00295218  0.50388692  0.49854895  1
  I  I113  1  -0.00197833  0.50804791  0.83211266  1
  I  I114  1  -0.00058192  0.82723335  0.16752855  1
  I  I115  1  0.00266538  0.83495056  0.49658182  1
  I  I116  1  -0.00290980  0.82928446  0.83619582  1
  I  I117  1  0.33677095  0.15839476  0.16613408  1
  I  I118  1  0.33013826  0.16509508  0.50013855  1
  I  I119  1  0.33343285  0.16687811  0.83374745  1
  I  I120  1  0.33320122  0.50058067  0.16527460  1
  I  I121  1  0.33326258  0.49794660  0.50237432  1
  I  I122  1  0.33101961  0.50274757  0.83169698  1
  I  I123  1  0.33385691  0.83846432  0.16636493  1
  I  I124  1  0.33321116  0.83641135  0.49715381  1
  I  I125  1  0.33555464  0.83128669  0.83612306  1
  I  I126  1  0.66384472  0.15887635  0.16796993  1
  I  I127  1  0.66624447  0.16709918  0.49984314  1
  I  I128  1  0.66649039  0.17203902  0.83189328  1
  I  I129  1  0.67073850  0.50727665  0.16343387  1
  I  I130  1  0.67092680  0.50292046  0.50243823  1
  I  I131  1  0.67047316  0.50365945  0.83477807  1
  I  I132  1  0.66670778  0.83286714  0.16638759  1
  I  I133  1  0.66435847  0.82998466  0.49736536  1
  I  I134  1  0.66723578  0.82662861  0.83697515  1
