# generated using pymatgen
data_Cs27Sn13Pb14I81
_symmetry_space_group_name_H-M   'P 1'
_cell_length_a   18.97066573
_cell_length_b   19.00102530
_cell_length_c   19.00607003
_cell_angle_alpha   90.00029477
_cell_angle_beta   90.00002789
_cell_angle_gamma   89.99983005
_symmetry_Int_Tables_number   1
_chemical_formula_structural   Cs27Sn13Pb14I81
_chemical_formula_sum   'Cs27 Sn13 Pb14 I81'
_cell_volume   6850.96790920
_cell_formula_units_Z   1
loop_
 _symmetry_equiv_pos_site_id
 _symmetry_equiv_pos_as_xyz
  1  'x, y, z'
loop_
 _atom_site_type_symbol
 _atom_site_label
 _atom_site_symmetry_multiplicity
 _atom_site_fract_x
 _atom_site_fract_y
 _atom_site_fract_z
 _atom_site_occupancy
  Cs  Cs0  1  0.00174056  -0.00437206  0.00346354  1
  Cs  Cs1  1  0.00476877  -0.01039658  0.33332846  1
  Cs  Cs2  1  0.00329244  -0.00105551  0.66322891  1
  Cs  Cs3  1  -0.00222681  0.33509922  -0.00049661  1
  Cs  Cs4  1  0.00235643  0.33328347  0.33383813  1
  Cs  Cs5  1  -0.00074038  0.33295387  0.66656989  1
  Cs  Cs6  1  0.00483197  0.66826089  0.00247414  1
  Cs  Cs7  1  0.00607115  0.67644233  0.33175443  1
  Cs  Cs8  1  0.00499793  0.66852991  0.66549278  1
  Cs  Cs9  1  0.32975921  0.00803650  -0.00779654  1
  Cs  Cs10  1  0.33081785  0.00432174  0.33139308  1
  Cs  Cs11  1  0.32845302  -0.00041087  0.67568967  1
  Cs  Cs12  1  0.32676033  0.32515907  0.00198398  1
  Cs  Cs13  1  0.32906973  0.33101721  0.33218674  1
  Cs  Cs14  1  0.32522239  0.33282809  0.66529774  1
  Cs  Cs15  1  0.32854346  0.66826131  -0.00158513  1
  Cs  Cs16  1  0.33668741  0.66455977  0.33329568  1
  Cs  Cs17  1  0.33062869  0.66828065  0.66933676  1
  Cs  Cs18  1  0.66510428  0.00219753  -0.00200317  1
  Cs  Cs19  1  0.66695677  -0.00145416  0.33420037  1
  Cs  Cs20  1  0.66648970  0.00007624  0.66696864  1
  Cs  Cs21  1  0.66786693  0.33419905  0.00091911  1
  Cs  Cs22  1  0.66668333  0.33515833  0.33424634  1
  Cs  Cs23  1  0.66872684  0.33583048  0.66429620  1
  Cs  Cs24  1  0.66638203  0.66402887  0.00042700  1
  Cs  Cs25  1  0.66542970  0.66671170  0.33333286  1
  Cs  Cs26  1  0.66617042  0.66433065  0.66606310  1
  Sn  Sn27  1  0.83285411  0.49964857  0.16734203  1
  Sn  Sn28  1  0.83248822  0.16707157  0.49933454  1
  Sn  Sn29  1  0.83254129  0.16653540  0.83312435  1
  Sn  Sn30  1  0.50057329  0.50036803  0.16631550  1
  Sn  Sn31  1  0.50088925  0.16689871  0.50025926  1
  Sn  Sn32  1  0.50065003  0.49960220  0.50013797  1
  Sn  Sn33  1  0.83259389  0.50039815  0.83319930  1
  Sn  Sn34  1  0.50060786  0.83322711  0.16656343  1
  Sn  Sn35  1  0.50037866  0.49940372  0.83361038  1
  Sn  Sn36  1  0.83258640  0.16709906  0.16752468  1
  Sn  Sn37  1  0.83240038  0.83284754  0.83324009  1
  Sn  Sn38  1  0.83323016  0.49992056  0.49944262  1
  Sn  Sn39  1  0.50064478  0.83354602  0.49962924  1
  Pb  Pb40  1  0.50216345  0.16987741  0.83063389  1
  Pb  Pb41  1  0.16678495  0.49998217  0.16680433  1
  Pb  Pb42  1  0.17119291  0.83328259  0.49995405  1
  Pb  Pb43  1  0.50194562  0.16709851  0.16858653  1
  Pb  Pb44  1  0.16643167  0.49980274  0.83340327  1
  Pb  Pb45  1  0.16331504  0.83312766  0.83334453  1
  Pb  Pb46  1  0.16636037  0.50009152  0.49978974  1
  Pb  Pb47  1  0.16600978  0.16676031  0.49993516  1
  Pb  Pb48  1  0.16263508  0.16684392  0.16692581  1
  Pb  Pb49  1  0.16267310  0.16705086  0.83323245  1
  Pb  Pb50  1  0.17146766  0.83328343  0.16655016  1
  Pb  Pb51  1  0.50167743  0.83128639  0.83362773  1
  Pb  Pb52  1  0.83147326  0.83297741  0.50177322  1
  Pb  Pb53  1  0.83114185  0.83286542  0.16472597  1
  I  I54  1  0.16524285  -0.00005485  0.16726042  1
  I  I55  1  0.16381726  0.00001746  0.49971803  1
  I  I56  1  0.16773053  0.00008486  0.83321588  1
  I  I57  1  0.17213433  0.33339905  0.16661486  1
  I  I58  1  0.17089271  0.33339574  0.50033236  1
  I  I59  1  0.16614919  0.33341752  0.83300130  1
  I  I60  1  0.16000748  0.66670938  0.16634232  1
  I  I61  1  0.16373089  0.66669816  0.50059923  1
  I  I62  1  0.16459780  0.66645482  0.83286096  1
  I  I63  1  0.50308539  -0.00209123  0.17302541  1
  I  I64  1  0.50624788  0.00038262  0.49413448  1
  I  I65  1  0.50222597  0.00028346  0.83289871  1
  I  I66  1  0.50301992  0.33674798  0.16701296  1
  I  I67  1  0.50553067  0.33437021  0.50016400  1
  I  I68  1  0.50736310  0.33780957  0.83518747  1
  I  I69  1  0.50668442  0.66490314  0.17224166  1
  I  I70  1  0.50452858  0.66521944  0.49895854  1
  I  I71  1  0.50763247  0.66322824  0.82861431  1
  I  I72  1  0.83159174  0.00247967  0.16584265  1
  I  I73  1  0.82866310  0.00283660  0.50122762  1
  I  I74  1  0.83319087  0.00065880  0.83304849  1
  I  I75  1  0.82763938  0.33447912  0.16249286  1
  I  I76  1  0.82571684  0.33383357  0.50439056  1
  I  I77  1  0.82987526  0.33406365  0.83335570  1
  I  I78  1  0.83077560  0.66325488  0.16634941  1
  I  I79  1  0.82841913  0.66330202  0.50069265  1
  I  I80  1  0.82847249  0.66503649  0.83307457  1
  I  I81  1  0.16849774  0.16631085  -0.00000449  1
  I  I82  1  0.16580015  0.16733049  0.33350253  1
  I  I83  1  0.16583509  0.16642791  0.66656051  1
  I  I84  1  0.16608813  0.50045697  0.00005213  1
  I  I85  1  0.16620174  0.49954143  0.33332192  1
  I  I86  1  0.16666168  0.50009770  0.66661032  1
  I  I87  1  0.16737643  0.83278790  -0.00002607  1
  I  I88  1  0.15976489  0.83362114  0.33322539  1
  I  I89  1  0.16832703  0.83339908  0.66670609  1
  I  I90  1  0.50123508  0.16528855  -0.00013417  1
  I  I91  1  0.50664012  0.17036631  0.33659830  1
  I  I92  1  0.50691455  0.16524402  0.66268655  1
  I  I93  1  0.50888082  0.50693347  0.00039697  1
  I  I94  1  0.50617008  0.50177507  0.33377707  1
  I  I95  1  0.50740177  0.50055438  0.66589278  1
  I  I96  1  0.50356098  0.82697924  0.00257236  1
  I  I97  1  0.50250587  0.82722210  0.33389370  1
  I  I98  1  0.50271785  0.83204620  0.66402806  1
  I  I99  1  0.83383478  0.17066586  -0.00007046  1
  I  I100  1  0.82829347  0.17532797  0.33404590  1
  I  I101  1  0.82917475  0.17019508  0.66622110  1
  I  I102  1  0.82720243  0.49648588  -0.00003911  1
  I  I103  1  0.82585745  0.49119046  0.33354684  1
  I  I104  1  0.82694281  0.49675869  0.66654251  1
  I  I105  1  0.83010914  0.83340243  -0.00290273  1
  I  I106  1  0.83471750  0.83418797  0.33330208  1
  I  I107  1  0.82963220  0.83273233  0.66942641  1
  I  I108  1  -0.00606641  0.17412316  0.16761407  1
  I  I109  1  -0.00458395  0.17313265  0.50202136  1
  I  I110  1  -0.00605740  0.17106330  0.82992777  1
  I  I111  1  -0.00426030  0.49458045  0.16493777  1
  I  I112  1  -0.00440229  0.49346871  0.50194095  1
  I  I113  1  -0.00481068  0.49881923  0.83328486  1
  I  I114  1  -0.00013162  0.83368006  0.16467832  1
  I  I115  1  -0.00011037  0.83357343  0.50210223  1
  I  I116  1  -0.00519258  0.83069260  0.83327911  1
  I  I117  1  0.33362049  0.16687383  0.16885803  1
  I  I118  1  0.33683899  0.16867226  0.49850392  1
  I  I119  1  0.33360641  0.16729413  0.83193089  1
  I  I120  1  0.33751297  0.50531355  0.16795096  1
  I  I121  1  0.33777724  0.49957991  0.50005522  1
  I  I122  1  0.33697587  0.50234113  0.83152320  1
  I  I123  1  0.33925372  0.82447440  0.17196343  1
  I  I124  1  0.33939886  0.83095736  0.49650561  1
  I  I125  1  0.33366959  0.83115642  0.83266633  1
  I  I126  1  0.67034585  0.16864711  0.16394785  1
  I  I127  1  0.66769654  0.16831280  0.50041763  1
  I  I128  1  0.67068133  0.16489072  0.83549799  1
  I  I129  1  0.66708359  0.50001463  0.16662282  1
  I  I130  1  0.66655481  0.49916100  0.50055006  1
  I  I131  1  0.66799960  0.50007840  0.83281901  1
  I  I132  1  0.66355222  0.83042593  0.17142220  1
  I  I133  1  0.66342867  0.83248161  0.49676299  1
  I  I134  1  0.66975379  0.83516672  0.83290919  1
