# generated using pymatgen
data_Cs27Sn13Pb14I81
_symmetry_space_group_name_H-M   'P 1'
_cell_length_a   18.95987382
_cell_length_b   18.98922926
_cell_length_c   18.98922925
_cell_angle_alpha   89.99965873
_cell_angle_beta   89.99990643
_cell_angle_gamma   90.00009354
_symmetry_Int_Tables_number   1
_chemical_formula_structural   Cs27Sn13Pb14I81
_chemical_formula_sum   'Cs27 Sn13 Pb14 I81'
_cell_volume   6836.75659380
_cell_formula_units_Z   1
loop_
 _symmetry_equiv_pos_site_id
 _symmetry_equiv_pos_as_xyz
  1  'x, y, z'
loop_
 _atom_site_type_symbol
 _atom_site_label
 _atom_site_symmetry_multiplicity
 _atom_site_fract_x
 _atom_site_fract_y
 _atom_site_fract_z
 _atom_site_occupancy
  Cs  Cs0  1  -0.00317195  0.00200006  0.00098723  1
  Cs  Cs1  1  -0.00100401  0.00292460  0.33040845  1
  Cs  Cs2  1  -0.00052681  -0.00012158  0.66757699  1
  Cs  Cs3  1  -0.00417180  0.33127866  0.00205466  1
  Cs  Cs4  1  -0.00317200  0.33234598  0.33133313  1
  Cs  Cs5  1  -0.00145913  0.33293045  0.66641428  1
  Cs  Cs6  1  -0.00145918  0.66691904  0.00040296  1
  Cs  Cs7  1  -0.00052685  0.66575644  0.33345488  1
  Cs  Cs8  1  0.00045766  0.66733221  0.66600121  1
  Cs  Cs9  1  0.33329436  0.00070544  -0.00077223  1
  Cs  Cs10  1  0.33910250  0.00191869  0.33141469  1
  Cs  Cs11  1  0.33283959  0.00004072  0.66768824  1
  Cs  Cs12  1  0.33285665  0.33491583  -0.00158251  1
  Cs  Cs13  1  0.33329434  0.33410547  0.33262785  1
  Cs  Cs14  1  0.33282154  0.33482675  0.66821099  1
  Cs  Cs15  1  0.33282154  0.66512236  -0.00149336  1
  Cs  Cs16  1  0.33283968  0.66564504  0.33329266  1
  Cs  Cs17  1  0.33203483  0.66506480  0.66826849  1
  Cs  Cs18  1  0.67276822  -0.00199670  0.00606051  1
  Cs  Cs19  1  0.66296685  -0.00164995  0.33498344  1
  Cs  Cs20  1  0.67236301  0.00119108  0.65954317  1
  Cs  Cs21  1  0.67224867  0.33379322  -0.00046000  1
  Cs  Cs22  1  0.67276842  0.32727277  0.33532989  1
  Cs  Cs23  1  0.67130668  0.33123811  0.66543852  1
  Cs  Cs24  1  0.67130657  0.66789486  0.00209518  1
  Cs  Cs25  1  0.67236304  0.67378994  0.33214198  1
  Cs  Cs26  1  0.67184945  0.66801175  0.66532163  1
  Sn  Sn27  1  0.49940074  0.83342654  0.83313654  1
  Sn  Sn28  1  0.16744363  0.83355936  0.49977398  1
  Sn  Sn29  1  0.16747546  0.16689772  0.83247130  1
  Sn  Sn30  1  0.49940075  0.50019680  0.49990679  1
  Sn  Sn31  1  0.16682222  0.49977580  0.83355753  1
  Sn  Sn32  1  0.49935408  0.16643413  0.83349102  1
  Sn  Sn33  1  0.49953348  0.50012655  0.83320677  1
  Sn  Sn34  1  0.16733803  0.49980334  0.50004111  1
  Sn  Sn35  1  0.49935408  0.49984227  0.16689921  1
  Sn  Sn36  1  0.16733801  0.83329218  0.83352999  1
  Sn  Sn37  1  0.16747794  0.16684436  0.50074750  1
  Sn  Sn38  1  0.16747797  0.83258582  0.16648900  1
  Sn  Sn39  1  0.16747544  0.50086202  0.16643561  1
  Pb  Pb40  1  0.83320349  0.83329378  0.83320938  1
  Pb  Pb41  1  0.49768552  0.83112722  0.16436648  1
  Pb  Pb42  1  0.49962279  0.16932580  0.16400757  1
  Pb  Pb43  1  0.16694860  0.16698465  0.16634868  1
  Pb  Pb44  1  0.49769609  0.83102975  0.50230360  1
  Pb  Pb45  1  0.83626590  0.16660661  0.50023332  1
  Pb  Pb46  1  0.83310743  0.16658285  0.83320040  1
  Pb  Pb47  1  0.83290907  0.16654914  0.16678418  1
  Pb  Pb48  1  0.49768555  0.16896686  0.50220612  1
  Pb  Pb49  1  0.83310748  0.50013292  0.16675046  1
  Pb  Pb50  1  0.83626584  0.83309999  0.16672671  1
  Pb  Pb51  1  0.83298769  0.50012702  0.83320631  1
  Pb  Pb52  1  0.83626081  0.83329015  0.50004319  1
  Pb  Pb53  1  0.83320349  0.50012396  0.50003958  1
  I  I54  1  0.16490871  -0.00293052  0.16598138  1
  I  I55  1  0.16456111  -0.00023587  0.50444947  1
  I  I56  1  0.17186270  -0.00027454  0.83054401  1
  I  I57  1  0.16994015  0.33696621  0.16642199  1
  I  I58  1  0.17005819  0.33436341  0.50323340  1
  I  I59  1  0.17180278  0.33405736  0.83069770  1
  I  I60  1  0.16979072  0.66558505  0.16603803  1
  I  I61  1  0.16948687  0.66595882  0.50251016  1
  I  I62  1  0.17111984  0.66632394  0.83144835  1
  I  I63  1  0.49874414  -0.00024200  0.16483742  1
  I  I64  1  0.49832793  -0.00004198  0.50171066  1
  I  I65  1  0.49039241  -0.00017555  0.83333889  1
  I  I66  1  0.49090580  0.33803196  0.16454834  1
  I  I67  1  0.49264500  0.33733372  0.50215038  1
  I  I68  1  0.49264618  0.33451675  0.83361744  1
  I  I69  1  0.49598055  0.66276296  0.16405132  1
  I  I70  1  0.49246007  0.66271627  0.50265413  1
  I  I71  1  0.49237922  0.66560916  0.83337120  1
  I  I72  1  0.83687312  -0.00033065  0.16465605  1
  I  I73  1  0.83450940  0.00000851  0.50103713  1
  I  I74  1  0.83533754  -0.00004575  0.83382349  1
  I  I75  1  0.83696983  0.33376245  0.16579206  1
  I  I76  1  0.83593472  0.33346586  0.50036469  1
  I  I77  1  0.83487018  0.33340131  0.83372874  1
  I  I78  1  0.83289701  0.66649677  0.16607366  1
  I  I79  1  0.83620366  0.66655706  0.50061252  1
  I  I80  1  0.83496797  0.66665646  0.83334779  1
  I  I81  1  0.16994012  0.16691111  -0.00363288  1
  I  I82  1  0.16490869  0.16735218  0.33626383  1
  I  I83  1  0.16979082  0.16729528  0.66774825  1
  I  I84  1  0.17180296  0.50263574  -0.00072402  1
  I  I85  1  0.17186266  0.50278918  0.33360785  1
  I  I86  1  0.17111983  0.50188504  0.66700944  1
  I  I87  1  0.17005798  0.83010016  -0.00103007  1
  I  I88  1  0.16456120  0.82888381  0.33356921  1
  I  I89  1  0.16948687  0.83082308  0.66737455  1
  I  I90  1  0.49090545  0.16878487  -0.00469859  1
  I  I91  1  0.49874457  0.16849573  0.33357537  1
  I  I92  1  0.49598065  0.16928232  0.67057040  1
  I  I93  1  0.49264612  0.49971614  -0.00118339  1
  I  I94  1  0.49039224  0.49999442  0.33350887  1
  I  I95  1  0.49237932  0.49996210  0.66772417  1
  I  I96  1  0.49264531  0.83118283  -0.00400039  1
  I  I97  1  0.49832779  0.83162293  0.33337530  1
  I  I98  1  0.49246015  0.83067907  0.67061699  1
  I  I99  1  0.83697043  0.16754152  -0.00042911  1
  I  I100  1  0.83687259  0.16867693  0.33366397  1
  I  I101  1  0.83289693  0.16725985  0.66683654  1
  I  I102  1  0.83486997  0.49960479  -0.00006794  1
  I  I103  1  0.83533782  0.49951013  0.33337907  1
  I  I104  1  0.83496762  0.49998509  0.66667688  1
  I  I105  1  0.83593479  0.83296826  -0.00013251  1
  I  I106  1  0.83450950  0.83229624  0.33332481  1
  I  I107  1  0.83620362  0.83272114  0.66677627  1
  I  I108  1  0.00087775  0.16873638  0.16459745  1
  I  I109  1  0.00550083  0.16959981  0.50677045  1
  I  I110  1  0.00421624  0.16665838  0.83003986  1
  I  I111  1  0.00421623  0.50329325  0.16667475  1
  I  I112  1  0.00477475  0.50033961  0.50029663  1
  I  I113  1  0.00451722  0.50026154  0.83307182  1
  I  I114  1  0.00550079  0.82656294  0.16373370  1
  I  I115  1  0.00589199  0.82942171  0.50391159  1
  I  I116  1  0.00477476  0.83303692  0.83299361  1
  I  I117  1  0.33290109  0.16493234  0.16840130  1
  I  I118  1  0.32910282  0.16524261  0.50238104  1
  I  I119  1  0.33180640  0.16755576  0.83005200  1
  I  I120  1  0.33180643  0.50328125  0.16577760  1
  I  I121  1  0.33139171  0.50015963  0.50095338  1
  I  I122  1  0.33226675  0.50000467  0.83332855  1
  I  I123  1  0.32910286  0.83095211  0.16809046  1
  I  I124  1  0.32877873  0.83428751  0.49904593  1
  I  I125  1  0.33139170  0.83238007  0.83317383  1
  I  I126  1  0.66602155  0.16989184  0.16344090  1
  I  I127  1  0.66613830  0.16970185  0.50243498  1
  I  I128  1  0.66295253  0.16982107  0.83443241  1
  I  I129  1  0.66295259  0.49890136  0.16351264  1
  I  I130  1  0.66295837  0.49961245  0.50267291  1
  I  I131  1  0.66221270  0.49969334  0.83364010  1
  I  I132  1  0.66613833  0.83089853  0.16363155  1
  I  I133  1  0.66604291  0.83071218  0.50262113  1
  I  I134  1  0.66295843  0.83066016  0.83372086  1
