# generated using pymatgen
data_Cs27Sn14Pb13I81
_symmetry_space_group_name_H-M   'P 1'
_cell_length_a   18.98256880
_cell_length_b   18.97109229
_cell_length_c   18.97280849
_cell_angle_alpha   89.99851346
_cell_angle_beta   89.99880523
_cell_angle_gamma   90.00138702
_symmetry_Int_Tables_number   1
_chemical_formula_structural   Cs27Sn14Pb13I81
_chemical_formula_sum   'Cs27 Sn14 Pb13 I81'
_cell_volume   6832.48901137
_cell_formula_units_Z   1
loop_
 _symmetry_equiv_pos_site_id
 _symmetry_equiv_pos_as_xyz
  1  'x, y, z'
loop_
 _atom_site_type_symbol
 _atom_site_label
 _atom_site_symmetry_multiplicity
 _atom_site_fract_x
 _atom_site_fract_y
 _atom_site_fract_z
 _atom_site_occupancy
  Cs  Cs0  1  0.00040586  0.00170130  0.00226157  1
  Cs  Cs1  1  0.00023914  -0.00123748  0.33202073  1
  Cs  Cs2  1  0.00451428  0.00053414  0.66486938  1
  Cs  Cs3  1  0.00271458  0.33147619  -0.00218951  1
  Cs  Cs4  1  -0.00339629  0.33243784  0.33356340  1
  Cs  Cs5  1  -0.00178140  0.34155148  0.67040730  1
  Cs  Cs6  1  -0.00280281  0.66433795  -0.00089451  1
  Cs  Cs7  1  0.00367251  0.66996000  0.33486435  1
  Cs  Cs8  1  -0.00040568  0.65800123  0.66512162  1
  Cs  Cs9  1  0.33355010  0.00106720  -0.00063777  1
  Cs  Cs10  1  0.33174969  -0.00086804  0.33318142  1
  Cs  Cs11  1  0.33160431  -0.00041681  0.66674714  1
  Cs  Cs12  1  0.33250435  0.33410743  -0.00141679  1
  Cs  Cs13  1  0.33764362  0.34036763  0.33363771  1
  Cs  Cs14  1  0.33438586  0.33409979  0.67002449  1
  Cs  Cs15  1  0.33581587  0.66533496  0.00204343  1
  Cs  Cs16  1  0.33190132  0.66213780  0.33512032  1
  Cs  Cs17  1  0.33025466  0.66968194  0.66151684  1
  Cs  Cs18  1  0.66590249  -0.00077370  0.00050440  1
  Cs  Cs19  1  0.66735580  0.00085996  0.33253524  1
  Cs  Cs20  1  0.66525197  -0.00042243  0.66691824  1
  Cs  Cs21  1  0.66500856  0.33120250  0.00175133  1
  Cs  Cs22  1  0.66524573  0.33362456  0.34061740  1
  Cs  Cs23  1  0.66651637  0.33342626  0.65767936  1
  Cs  Cs24  1  0.66714570  0.66819639  -0.00290032  1
  Cs  Cs25  1  0.66535988  0.66774581  0.33111541  1
  Cs  Cs26  1  0.67047537  0.66772243  0.67430844  1
  Sn  Sn27  1  0.16625193  0.83325026  0.83458654  1
  Sn  Sn28  1  0.50121338  0.16748879  0.83395981  1
  Sn  Sn29  1  0.16687378  0.83397927  0.16522263  1
  Sn  Sn30  1  0.50012572  0.49895088  0.83358143  1
  Sn  Sn31  1  0.83319835  0.49976703  0.16669656  1
  Sn  Sn32  1  0.83326896  0.83322806  0.16721710  1
  Sn  Sn33  1  0.83241441  0.83384589  0.49956651  1
  Sn  Sn34  1  0.16663005  0.16695547  0.49879960  1
  Sn  Sn35  1  0.83301052  0.16690361  0.16604148  1
  Sn  Sn36  1  0.16707676  0.16615321  0.16813262  1
  Sn  Sn37  1  0.50125656  0.83386058  0.49890026  1
  Sn  Sn38  1  0.49982971  0.83404380  0.16753705  1
  Sn  Sn39  1  0.83238257  0.16607288  0.83363313  1
  Sn  Sn40  1  0.49994766  0.16610269  0.16626230  1
  Pb  Pb41  1  0.50218313  0.49993086  0.16537725  1
  Pb  Pb42  1  0.83566255  0.83549166  0.83353578  1
  Pb  Pb43  1  0.49810869  0.16477311  0.49973013  1
  Pb  Pb44  1  0.16919604  0.50325580  0.83384338  1
  Pb  Pb45  1  0.16423213  0.49971827  0.16663547  1
  Pb  Pb46  1  0.83114202  0.49678794  0.83572013  1
  Pb  Pb47  1  0.16678781  0.16560104  0.83384329  1
  Pb  Pb48  1  0.83312007  0.50331109  0.49713017  1
  Pb  Pb49  1  0.83526240  0.16467116  0.49992771  1
  Pb  Pb50  1  0.16668562  0.49598690  0.49964766  1
  Pb  Pb51  1  0.49842370  0.83407750  0.83375194  1
  Pb  Pb52  1  0.50030962  0.50353084  0.50295703  1
  Pb  Pb53  1  0.16640211  0.83428182  0.49924955  1
  I  I54  1  0.16306493  -0.00011028  0.16634551  1
  I  I55  1  0.16656820  0.00199710  0.49816821  1
  I  I56  1  0.16946125  -0.00223522  0.83548691  1
  I  I57  1  0.16685573  0.32942999  0.17016106  1
  I  I58  1  0.16671394  0.32804388  0.49341812  1
  I  I59  1  0.16481144  0.33325588  0.83255181  1
  I  I60  1  0.16705690  0.67032563  0.16297259  1
  I  I61  1  0.16679858  0.66687100  0.50118681  1
  I  I62  1  0.16777435  0.67133439  0.83897736  1
  I  I63  1  0.50324124  0.00006214  0.16417344  1
  I  I64  1  0.50296243  -0.00320189  0.50036068  1
  I  I65  1  0.50208684  0.00284497  0.83540672  1
  I  I66  1  0.49918861  0.32987879  0.16369678  1
  I  I67  1  0.49763205  0.33319588  0.49780964  1
  I  I68  1  0.50206167  0.33110685  0.84026543  1
  I  I69  1  0.49988291  0.67003482  0.16806919  1
  I  I70  1  0.50121053  0.67164002  0.49396675  1
  I  I71  1  0.49720194  0.66541883  0.83355026  1
  I  I72  1  0.83372427  0.00001535  0.16676079  1
  I  I73  1  0.83045995  -0.00318110  0.49319838  1
  I  I74  1  0.82680328  0.00324933  0.83994096  1
  I  I75  1  0.83436537  0.33159296  0.16072411  1
  I  I76  1  0.83585382  0.33315919  0.49964711  1
  I  I77  1  0.83504846  0.32878127  0.83914601  1
  I  I78  1  0.83322616  0.66840061  0.17122845  1
  I  I79  1  0.83118699  0.67157003  0.49576013  1
  I  I80  1  0.83267683  0.66677674  0.83393011  1
  I  I81  1  0.16598291  0.16372962  0.00339829  1
  I  I82  1  0.16536820  0.15845294  0.33060903  1
  I  I83  1  0.16734428  0.16145295  0.66520367  1
  I  I84  1  0.16629506  0.49605494  0.00019986  1
  I  I85  1  0.16776840  0.50609092  0.33293484  1
  I  I86  1  0.16600494  0.50144700  0.66689001  1
  I  I87  1  0.16735514  0.84013844  0.00257151  1
  I  I88  1  0.16574272  0.83624873  0.32980990  1
  I  I89  1  0.16886508  0.83725569  0.66810316  1
  I  I90  1  0.49885676  0.16388165  0.00135378  1
  I  I91  1  0.50292288  0.16354903  0.32978926  1
  I  I92  1  0.50229277  0.16802045  0.66944919  1
  I  I93  1  0.50082676  0.50085234  -0.00240290  1
  I  I94  1  0.50091302  0.49790272  0.33330286  1
  I  I95  1  0.50026283  0.49319530  0.67064974  1
  I  I96  1  0.50237365  0.83449136  0.00329098  1
  I  I97  1  0.49916930  0.83913428  0.33120551  1
  I  I98  1  0.50180579  0.83335751  0.66466138  1
  I  I99  1  0.83485471  0.16388042  0.00215368  1
  I  I100  1  0.83128711  0.16758158  0.32952346  1
  I  I101  1  0.83041964  0.16316830  0.66914235  1
  I  I102  1  0.83291672  0.50669481  0.00338209  1
  I  I103  1  0.83177138  0.49330592  0.32915664  1
  I  I104  1  0.83336861  0.50051664  0.66685502  1
  I  I105  1  0.83060809  0.83250900  0.00370797  1
  I  I106  1  0.83492144  0.83565866  0.33093721  1
  I  I107  1  0.82970169  0.83683644  0.66442889  1
  I  I108  1  -0.00047164  0.16332094  0.16632445  1
  I  I109  1  0.00285227  0.16094716  0.49529658  1
  I  I110  1  -0.00215060  0.16267779  0.83751748  1
  I  I111  1  -0.00372767  0.50052528  0.16581481  1
  I  I112  1  -0.00024497  0.50362777  0.50126295  1
  I  I113  1  -0.00031451  0.49932294  0.83320592  1
  I  I114  1  -0.00042099  0.83652700  0.16699829  1
  I  I115  1  -0.00228432  0.83610754  0.49563888  1
  I  I116  1  0.00311752  0.83789652  0.83791389  1
  I  I117  1  0.33375058  0.15847562  0.16565322  1
  I  I118  1  0.33050255  0.16112564  0.49645710  1
  I  I119  1  0.33606386  0.16819826  0.83667536  1
  I  I120  1  0.33362287  0.50051327  0.16544500  1
  I  I121  1  0.33363666  0.50417809  0.49902326  1
  I  I122  1  0.33679902  0.49174253  0.83562725  1
  I  I123  1  0.33360101  0.84068706  0.16582111  1
  I  I124  1  0.33543999  0.83529596  0.49821725  1
  I  I125  1  0.33079176  0.83620909  0.83710232  1
  I  I126  1  0.66670400  0.16287631  0.16085942  1
  I  I127  1  0.66665334  0.16687710  0.49886193  1
  I  I128  1  0.66606755  0.16787477  0.84208369  1
  I  I129  1  0.66985573  0.50119809  0.16465371  1
  I  I130  1  0.66670507  0.49560419  0.49962985  1
  I  I131  1  0.66358546  0.50190748  0.83521150  1
  I  I132  1  0.66674157  0.83609164  0.17125976  1
  I  I133  1  0.66667406  0.83504603  0.49171893  1
  I  I134  1  0.66670320  0.83160435  0.83425825  1
