# generated using pymatgen
data_Cs27Sn13Pb14I81
_symmetry_space_group_name_H-M   'P 1'
_cell_length_a   18.98961266
_cell_length_b   18.98373545
_cell_length_c   19.00283084
_cell_angle_alpha   89.99844102
_cell_angle_beta   89.99988995
_cell_angle_gamma   90.00176457
_symmetry_Int_Tables_number   1
_chemical_formula_structural   Cs27Sn13Pb14I81
_chemical_formula_sum   'Cs27 Sn13 Pb14 I81'
_cell_volume   6850.40236951
_cell_formula_units_Z   1
loop_
 _symmetry_equiv_pos_site_id
 _symmetry_equiv_pos_as_xyz
  1  'x, y, z'
loop_
 _atom_site_type_symbol
 _atom_site_label
 _atom_site_symmetry_multiplicity
 _atom_site_fract_x
 _atom_site_fract_y
 _atom_site_fract_z
 _atom_site_occupancy
  Cs  Cs0  1  -0.00035293  0.00186822  -0.00015995  1
  Cs  Cs1  1  -0.00026165  0.00004698  0.33532908  1
  Cs  Cs2  1  0.00279375  -0.00175533  0.66381124  1
  Cs  Cs3  1  -0.00421875  0.32961291  0.00080144  1
  Cs  Cs4  1  -0.00517012  0.33561982  0.33078252  1
  Cs  Cs5  1  0.00101511  0.33767815  0.66776931  1
  Cs  Cs6  1  0.00716690  0.66740618  0.00245682  1
  Cs  Cs7  1  0.00166875  0.66361298  0.33177563  1
  Cs  Cs8  1  0.00032547  0.66552544  0.66648827  1
  Cs  Cs9  1  0.33219165  -0.00041965  0.00184902  1
  Cs  Cs10  1  0.33360530  0.00348757  0.33448994  1
  Cs  Cs11  1  0.33175893  0.00380696  0.66342143  1
  Cs  Cs12  1  0.33362404  0.33553165  -0.00071773  1
  Cs  Cs13  1  0.33311520  0.33112067  0.33433795  1
  Cs  Cs14  1  0.33282768  0.33077290  0.66655567  1
  Cs  Cs15  1  0.33192935  0.66393152  0.00317703  1
  Cs  Cs16  1  0.33361979  0.66499591  0.33134618  1
  Cs  Cs17  1  0.33196906  0.66681222  0.66599054  1
  Cs  Cs18  1  0.66856506  -0.00016082  0.00136556  1
  Cs  Cs19  1  0.66610821  -0.00148357  0.33278845  1
  Cs  Cs20  1  0.66532929  -0.00066104  0.66635441  1
  Cs  Cs21  1  0.67190561  0.33789402  -0.00756223  1
  Cs  Cs22  1  0.67245753  0.33563923  0.33165059  1
  Cs  Cs23  1  0.66633541  0.33357206  0.67562741  1
  Cs  Cs24  1  0.66272431  0.66742902  -0.00164279  1
  Cs  Cs25  1  0.66544070  0.66908095  0.33641342  1
  Cs  Cs26  1  0.66807010  0.66758114  0.66459886  1
  Sn  Sn27  1  0.50017141  0.83372351  0.83314192  1
  Sn  Sn28  1  0.83270097  0.83433190  0.49992443  1
  Sn  Sn29  1  0.16778611  0.49999248  0.50047183  1
  Sn  Sn30  1  0.49936409  0.50013619  0.49996026  1
  Sn  Sn31  1  0.50011047  0.16668160  0.16642153  1
  Sn  Sn32  1  0.83267316  0.83338625  0.16680773  1
  Sn  Sn33  1  0.16696614  0.16716799  0.83394776  1
  Sn  Sn34  1  0.83286036  0.83344572  0.83328384  1
  Sn  Sn35  1  0.16702267  0.49911044  0.83270420  1
  Sn  Sn36  1  0.50060367  0.83422321  0.16682362  1
  Sn  Sn37  1  0.16736788  0.16647469  0.16608881  1
  Sn  Sn38  1  0.83283481  0.16610064  0.50045009  1
  Sn  Sn39  1  0.50019552  0.83295499  0.50007385  1
  Pb  Pb40  1  0.16685134  0.49679923  0.16663033  1
  Pb  Pb41  1  0.16687351  0.83113278  0.49979596  1
  Pb  Pb42  1  0.83273996  0.50051763  0.50020169  1
  Pb  Pb43  1  0.16704727  0.83348620  0.83326338  1
  Pb  Pb44  1  0.50018543  0.49988186  0.16878336  1
  Pb  Pb45  1  0.83552442  0.16406448  0.83104133  1
  Pb  Pb46  1  0.83589979  0.50321040  0.83347439  1
  Pb  Pb47  1  0.83270060  0.16473531  0.16805994  1
  Pb  Pb48  1  0.83288942  0.50360768  0.16628647  1
  Pb  Pb49  1  0.16714957  0.83574401  0.16691729  1
  Pb  Pb50  1  0.50221603  0.16695295  0.49813988  1
  Pb  Pb51  1  0.49813301  0.16432725  0.83584836  1
  Pb  Pb52  1  0.49786913  0.50243221  0.83095482  1
  Pb  Pb53  1  0.16453803  0.16919778  0.49972901  1
  I  I54  1  0.16772828  0.00338260  0.16017458  1
  I  I55  1  0.16820314  0.00031036  0.50125130  1
  I  I56  1  0.16594357  0.00248393  0.83821942  1
  I  I57  1  0.17317031  0.32911973  0.16640644  1
  I  I58  1  0.17180826  0.33676873  0.50156619  1
  I  I59  1  0.16731606  0.33320960  0.83247266  1
  I  I60  1  0.16561725  0.66650014  0.16567995  1
  I  I61  1  0.16545470  0.66330478  0.50688755  1
  I  I62  1  0.16566874  0.66440018  0.82776585  1
  I  I63  1  0.49915673  -0.00168974  0.16932042  1
  I  I64  1  0.50278277  -0.00330355  0.50123664  1
  I  I65  1  0.50145079  -0.00406260  0.82743678  1
  I  I66  1  0.49298635  0.33019712  0.17046523  1
  I  I67  1  0.49640185  0.33588426  0.49698460  1
  I  I68  1  0.50054082  0.33332224  0.83304606  1
  I  I69  1  0.50478713  0.67044950  0.16517954  1
  I  I70  1  0.50182198  0.66863261  0.49800672  1
  I  I71  1  0.50177071  0.67084389  0.83840254  1
  I  I72  1  0.83212199  -0.00363480  0.16540450  1
  I  I73  1  0.82890166  -0.00234381  0.49958071  1
  I  I74  1  0.83190998  -0.00406248  0.83531364  1
  I  I75  1  0.83420207  0.33284112  0.17090959  1
  I  I76  1  0.83512915  0.33108179  0.49746026  1
  I  I77  1  0.83253231  0.33317612  0.83093551  1
  I  I78  1  0.82737876  0.67238024  0.17134087  1
  I  I79  1  0.83229023  0.67034194  0.49981069  1
  I  I80  1  0.83093606  0.67149332  0.82914527  1
  I  I81  1  0.16997839  0.17135120  -0.00007445  1
  I  I82  1  0.16947165  0.16591015  0.33096863  1
  I  I83  1  0.16432108  0.16800704  0.66883248  1
  I  I84  1  0.16562649  0.50037380  -0.00282013  1
  I  I85  1  0.16963439  0.50107580  0.33611435  1
  I  I86  1  0.17003795  0.49452960  0.66653699  1
  I  I87  1  0.16604630  0.82846378  -0.00003746  1
  I  I88  1  0.16548604  0.83313370  0.33337585  1
  I  I89  1  0.16639509  0.83779716  0.66664237  1
  I  I90  1  0.49824423  0.15942518  0.00374627  1
  I  I91  1  0.49258383  0.15945237  0.33047325  1
  I  I92  1  0.49873379  0.16527019  0.66660615  1
  I  I93  1  0.49739471  0.50227848  -0.00020816  1
  I  I94  1  0.49326719  0.50721104  0.33688818  1
  I  I95  1  0.49865824  0.50586095  0.66303436  1
  I  I96  1  0.50608177  0.83830245  0.00041349  1
  I  I97  1  0.50593453  0.83281610  0.33354115  1
  I  I98  1  0.50608764  0.82804169  0.66601971  1
  I  I99  1  0.83372697  0.16474391  -0.00008794  1
  I  I100  1  0.83592778  0.16065431  0.33582413  1
  I  I101  1  0.83450075  0.15991487  0.66341634  1
  I  I102  1  0.83592764  0.49945081  -0.00027647  1
  I  I103  1  0.83746462  0.50074339  0.33375300  1
  I  I104  1  0.83283258  0.50223141  0.66660052  1
  I  I105  1  0.82715756  0.83247248  0.00014927  1
  I  I106  1  0.82705547  0.83737774  0.33386952  1
  I  I107  1  0.82758435  0.83672854  0.66598331  1
  I  I108  1  0.00223504  0.16591130  0.16414322  1
  I  I109  1  -0.00295501  0.15947390  0.49815720  1
  I  I110  1  0.00345401  0.16839604  0.84017948  1
  I  I111  1  0.00026026  0.50115958  0.17056058  1
  I  I112  1  0.00241965  0.49990068  0.50398783  1
  I  I113  1  0.00387781  0.49876064  0.82518966  1
  I  I114  1  -0.00298731  0.83394565  0.16679619  1
  I  I115  1  -0.00330270  0.83626515  0.50035001  1
  I  I116  1  -0.00278381  0.83316003  0.83266780  1
  I  I117  1  0.33360284  0.15938051  0.16478224  1
  I  I118  1  0.33340640  0.16404773  0.50087235  1
  I  I119  1  0.33009167  0.16731528  0.83303776  1
  I  I120  1  0.33335559  0.50642733  0.16584782  1
  I  I121  1  0.33365327  0.50642720  0.50335487  1
  I  I122  1  0.33002075  0.49905165  0.83105681  1
  I  I123  1  0.33698110  0.83459627  0.16645629  1
  I  I124  1  0.33689757  0.83116683  0.50028275  1
  I  I125  1  0.33644104  0.83301139  0.83332652  1
  I  I126  1  0.66387421  0.16211183  0.17119980  1
  I  I127  1  0.66973564  0.16502071  0.49686175  1
  I  I128  1  0.66670485  0.16818792  0.83385864  1
  I  I129  1  0.66637761  0.49345728  0.16968112  1
  I  I130  1  0.66381742  0.50367421  0.49721110  1
  I  I131  1  0.66648133  0.49828143  0.83216115  1
  I  I132  1  0.66569404  0.83947112  0.16737359  1
  I  I133  1  0.66623795  0.83083162  0.49957329  1
  I  I134  1  0.66641760  0.83355588  0.83301780  1
