# generated using pymatgen
data_Cs27Sn13Pb14I81
_symmetry_space_group_name_H-M   'P 1'
_cell_length_a   18.98841724
_cell_length_b   18.96625450
_cell_length_c   18.97683099
_cell_angle_alpha   89.99896509
_cell_angle_beta   90.00143831
_cell_angle_gamma   89.99991849
_symmetry_Int_Tables_number   1
_chemical_formula_structural   Cs27Sn13Pb14I81
_chemical_formula_sum   'Cs27 Sn13 Pb14 I81'
_cell_volume   6834.29985195
_cell_formula_units_Z   1
loop_
 _symmetry_equiv_pos_site_id
 _symmetry_equiv_pos_as_xyz
  1  'x, y, z'
loop_
 _atom_site_type_symbol
 _atom_site_label
 _atom_site_symmetry_multiplicity
 _atom_site_fract_x
 _atom_site_fract_y
 _atom_site_fract_z
 _atom_site_occupancy
  Cs  Cs0  1  -0.00349751  -0.00005032  -0.00118971  1
  Cs  Cs1  1  0.00091704  -0.00181241  0.33407637  1
  Cs  Cs2  1  -0.00323226  -0.00193937  0.66686685  1
  Cs  Cs3  1  0.00239633  0.33313353  -0.00107002  1
  Cs  Cs4  1  -0.00029486  0.33165883  0.33203297  1
  Cs  Cs5  1  0.00268412  0.33333498  0.66877585  1
  Cs  Cs6  1  0.00058811  0.66606503  0.00063262  1
  Cs  Cs7  1  -0.00453613  0.67543007  0.33372264  1
  Cs  Cs8  1  0.00057426  0.66762956  0.66562949  1
  Cs  Cs9  1  0.33710616  -0.00210231  -0.00133345  1
  Cs  Cs10  1  0.33310108  0.00032980  0.33475339  1
  Cs  Cs11  1  0.33576253  0.00113007  0.66551763  1
  Cs  Cs12  1  0.33004887  0.33314810  -0.00133308  1
  Cs  Cs13  1  0.33412527  0.33236407  0.33389905  1
  Cs  Cs14  1  0.33186594  0.33416025  0.66704768  1
  Cs  Cs15  1  0.33381210  0.66773579  -0.00004216  1
  Cs  Cs16  1  0.33443882  0.67016547  0.33106977  1
  Cs  Cs17  1  0.33105797  0.66362340  0.66753300  1
  Cs  Cs18  1  0.66506907  -0.00731599  -0.00796033  1
  Cs  Cs19  1  0.66504732  0.00431841  0.33440963  1
  Cs  Cs20  1  0.66492391  -0.00253990  0.67206431  1
  Cs  Cs21  1  0.66814536  0.33348274  0.00153749  1
  Cs  Cs22  1  0.66662483  0.33423023  0.33343847  1
  Cs  Cs23  1  0.66628389  0.33490588  0.66503788  1
  Cs  Cs24  1  0.66605817  0.67294071  0.00566206  1
  Cs  Cs25  1  0.67231076  0.66014895  0.32735687  1
  Cs  Cs26  1  0.66977887  0.66625741  0.66469320  1
  Sn  Sn27  1  0.16660777  0.49970429  0.16742155  1
  Sn  Sn28  1  0.16640105  0.16740831  0.49938185  1
  Sn  Sn29  1  0.49994957  0.16605013  0.49951908  1
  Sn  Sn30  1  0.50026765  0.49988937  0.83354935  1
  Sn  Sn31  1  0.16658500  0.49979402  0.49906035  1
  Sn  Sn32  1  0.50019386  0.83299586  0.49951436  1
  Sn  Sn33  1  0.16669879  0.50095994  0.83341017  1
  Sn  Sn34  1  0.83349810  0.16696809  0.49976883  1
  Sn  Sn35  1  0.49981563  0.16689078  0.16683429  1
  Sn  Sn36  1  0.16677865  0.16732780  0.16740183  1
  Sn  Sn37  1  0.83324902  0.49980559  0.83349909  1
  Sn  Sn38  1  0.83338311  0.16679726  0.16700185  1
  Sn  Sn39  1  0.16680620  0.83289076  0.83311362  1
  Pb  Pb40  1  0.83570173  0.83019449  0.83319523  1
  Pb  Pb41  1  0.83595215  0.49786678  0.16481428  1
  Pb  Pb42  1  0.49989873  0.83589599  0.16940162  1
  Pb  Pb43  1  0.16671062  0.16648700  0.83335510  1
  Pb  Pb44  1  0.83013600  0.83602726  0.49991499  1
  Pb  Pb45  1  0.16813098  0.83381039  0.50162709  1
  Pb  Pb46  1  0.49821742  0.49973355  0.50104734  1
  Pb  Pb47  1  0.83319225  0.16848473  0.83331879  1
  Pb  Pb48  1  0.16670863  0.83412294  0.16455346  1
  Pb  Pb49  1  0.83618171  0.49778649  0.50139387  1
  Pb  Pb50  1  0.50004795  0.16861431  0.83315397  1
  Pb  Pb51  1  0.49776990  0.49778500  0.16464082  1
  Pb  Pb52  1  0.49805584  0.83037591  0.83102826  1
  Pb  Pb53  1  0.83329586  0.83666256  0.16685884  1
  I  I54  1  0.16647888  0.00414487  0.17057802  1
  I  I55  1  0.16551291  0.00372837  0.49707311  1
  I  I56  1  0.16746443  -0.00235056  0.83276121  1
  I  I57  1  0.16691440  0.33256677  0.16420619  1
  I  I58  1  0.16897317  0.33249061  0.50276357  1
  I  I59  1  0.16663596  0.33663039  0.83308641  1
  I  I60  1  0.16727263  0.66349142  0.16749464  1
  I  I61  1  0.16985591  0.66378742  0.50010038  1
  I  I62  1  0.16701267  0.66397122  0.83246932  1
  I  I63  1  0.49585952  0.00480874  0.16706774  1
  I  I64  1  0.49674936  0.00260371  0.49695839  1
  I  I65  1  0.49796973  -0.00018517  0.83517046  1
  I  I66  1  0.50121650  0.32935352  0.17358089  1
  I  I67  1  0.50062936  0.32981521  0.49791944  1
  I  I68  1  0.49435472  0.33652008  0.83080079  1
  I  I69  1  0.49783335  0.66647206  0.16686438  1
  I  I70  1  0.49507279  0.66858302  0.50558036  1
  I  I71  1  0.49938890  0.66250751  0.83084892  1
  I  I72  1  0.83823363  0.00550687  0.17004386  1
  I  I73  1  0.84053324  0.00486851  0.49677161  1
  I  I74  1  0.83535377  -0.00012689  0.83390959  1
  I  I75  1  0.83187720  0.32952622  0.17025360  1
  I  I76  1  0.82842517  0.32936148  0.49681040  1
  I  I77  1  0.83878602  0.33641625  0.83301161  1
  I  I78  1  0.83472192  0.66626659  0.16519627  1
  I  I79  1  0.83336325  0.66643161  0.50242474  1
  I  I80  1  0.83268547  0.66209847  0.83216869  1
  I  I81  1  0.16647397  0.17040010  0.00324750  1
  I  I82  1  0.16717425  0.17404540  0.33372703  1
  I  I83  1  0.16737115  0.17030111  0.66337764  1
  I  I84  1  0.16662037  0.49831999  -0.00041266  1
  I  I85  1  0.16855635  0.49214685  0.33352156  1
  I  I86  1  0.16719328  0.49876958  0.66702539  1
  I  I87  1  0.16760530  0.82833494  -0.00336460  1
  I  I88  1  0.16784216  0.83046441  0.33344349  1
  I  I89  1  0.16801117  0.82788397  0.66941611  1
  I  I90  1  0.49807830  0.17030375  0.00307912  1
  I  I91  1  0.49904314  0.16375193  0.33409649  1
  I  I92  1  0.49882646  0.16449138  0.66310529  1
  I  I93  1  0.49613141  0.49710286  -0.00345050  1
  I  I94  1  0.49794479  0.50157367  0.33322580  1
  I  I95  1  0.49546584  0.49698496  0.66926825  1
  I  I96  1  0.49911396  0.83496329  -0.00015765  1
  I  I97  1  0.49585831  0.83564282  0.33720548  1
  I  I98  1  0.49839577  0.84289198  0.66369194  1
  I  I99  1  0.83565405  0.16950266  0.00317868  1
  I  I100  1  0.83374380  0.16767369  0.33361849  1
  I  I101  1  0.83436429  0.16852343  0.66340636  1
  I  I102  1  0.83703093  0.49589833  -0.00318697  1
  I  I103  1  0.83362590  0.50068304  0.33319421  1
  I  I104  1  0.83651359  0.49657861  0.66956248  1
  I  I105  1  0.83332102  0.83667060  -0.00024436  1
  I  I106  1  0.83566122  0.82946002  0.33362590  1
  I  I107  1  0.83376627  0.83682381  0.66663412  1
  I  I108  1  0.00093275  0.17128372  0.17197567  1
  I  I109  1  0.00101296  0.17227424  0.49516818  1
  I  I110  1  0.00021249  0.16903046  0.83301251  1
  I  I111  1  0.00422768  0.49300223  0.16344917  1
  I  I112  1  0.00457557  0.49438027  0.50345344  1
  I  I113  1  0.00177326  0.50243932  0.83326728  1
  I  I114  1  0.00031026  0.83515598  0.16617390  1
  I  I115  1  0.00000044  0.83395715  0.50204067  1
  I  I116  1  0.00364582  0.82868391  0.83184895  1
  I  I117  1  0.33260456  0.17083157  0.17249676  1
  I  I118  1  0.33287791  0.16684207  0.49527893  1
  I  I119  1  0.33315724  0.16969316  0.83303031  1
  I  I120  1  0.32940018  0.49357272  0.16394248  1
  I  I121  1  0.32974934  0.49377344  0.50400887  1
  I  I122  1  0.33155083  0.50265396  0.83278438  1
  I  I123  1  0.33322041  0.83558703  0.16563457  1
  I  I124  1  0.33565071  0.84040897  0.50162924  1
  I  I125  1  0.33037372  0.82736268  0.83310161  1
  I  I126  1  0.66647190  0.16729651  0.17389504  1
  I  I127  1  0.66619912  0.16290000  0.49443009  1
  I  I128  1  0.66659538  0.17018760  0.83326377  1
  I  I129  1  0.66677822  0.49803298  0.16363752  1
  I  I130  1  0.66676757  0.49868660  0.50482429  1
  I  I131  1  0.66658316  0.49496320  0.83096557  1
  I  I132  1  0.66645261  0.83358164  0.16501074  1
  I  I133  1  0.66241514  0.83951793  0.50267413  1
  I  I134  1  0.66650466  0.83266262  0.83264440  1
